data_PCOD9175064
_publ_section_title
;
Structure prediction by ZEFSAII (Michael W. Deem and Ramdas Pophale) SiO2 
 PCOD9175064
Probable space group: C 2/M
;
_chemical_formula_sum "Si O2"
_cell_formula_units_Z 40
_cell_length_a 9.531929
_cell_length_b 13.473299
_cell_length_c 15.922346
_cell_angle_alpha 90.000000
_cell_angle_beta 47.513494
_cell_angle_gamma 90.000000
_cell_volume 1507.948087
_symmetry_space_group_name_H-M "C 2/M"
_symmetry_group_IT_number 12
_symmetry_cell_setting 'monoclinic'
loop_
_space_group_symop_operation_xyz
x,y,z
-x,y,-z
-x,-y,-z
x,-y,z
1/2+x,1/2+y,z
1/2-x,1/2+y,-z
1/2-x,1/2-y,-z
1/2+x,1/2-y,z
loop_
_atom_site_type_symbol
_atom_site_label
_atom_site_fract_x
_atom_site_fract_y
_atom_site_fract_z
Si Si1 0.270506 0.887236 0.149973
Si Si2 0.723029 0.610551 0.439497
Si Si3 0.261234 0.613165 0.028348
Si Si4 0.313758 0.317788 0.180488
Si Si5 0.829359 0.833039 0.352301
O O1 0.321517 0.871075 0.031165
O O2 0.349787 0.799422 0.174370
O O3 0.043785 0.872045 0.252853
O O4 0.317282 0.000000 0.153758
O O5 0.500000 0.616901 0.500000
O O6 0.790439 0.500000 0.384634
O O7 0.815809 0.714134 0.372288
O O8 0.738548 0.617250 0.534491
O O9 0.231142 0.500000 0.062887
O O10 0.484922 0.630800 0.918788
O O11 0.208255 0.671249 0.134069
O O12 0.229857 0.354444 0.302450
#
# Coordination Sequence:
#
# PCOD9175064 Si02
#       5
#     8   8   8   8   8
#     4  10  20  35  56  80 109 146 182 216 261 315
#     4  10  21  39  60  79 104 139 177 220 271 323
#     4   9  19  35  54  79 112 148 181 215 261 314
#     4  10  18  32  55  81 109 141 181 221 260 311
#     4  10  21  34  55  84 108 135 177 223 267 319
#
# _framework density 26.526112999999999
#
# number of rings (size 3 to 8) (size 9 to 14) (size 15 to 20)
#    0.000    2.200    0.000    3.600    0.000    4.800 
#    0.000    4.000    0.000   36.600    0.000    0.000 
#    0.000    0.000    0.000    0.000    0.000    0.000 
#
# Total GULP energy -111826.637575 kJ/mol
# GULP energy per Si atom -5591.331879 kJ/mol
# Density = 2.646574 g / cm^3
# Si number density = 26.526113 Si / 1000 Ang^3
#
#
#
# Elastic Constant Matrix: (Units=GPa)
#
#
# Indices 1 2 3 4 5 6 
#
# 1 90.3688 39.9670 39.6656 -0.0001 22.3358 0.0000
# 2 39.9670 141.8006 22.1297 0.0000 16.2550 0.0000
# 3 39.6656 22.1297 131.3445 -0.0001 52.3747 -0.0001
# 4 -0.0001 0.0000 -0.0001 7.3981 0.0001 -28.9024
# 5 22.3358 16.2550 52.3747 0.0001 54.1280 0.0000
# 6 0.0000 0.0000 -0.0001 -28.9024 0.0000 2.4125
#
#
#
# Elastic Compliance Matrix: (Units=1/GPa)
#
#
# Indices 1 2 3 4 5 6 
#
# 1 0.014350 -0.003348 -0.002946 0.000000 -0.002066 0.000000
# 2 -0.003348 0.008112 0.000106 0.000000 -0.001157 0.000000
# 3 -0.002946 0.000106 0.013048 0.000000 -0.011441 0.000000
# 4 0.000000 0.000000 0.000000 -0.002951 0.000000 -0.035355
# 5 -0.002066 -0.001157 -0.011441 0.000000 0.030745 0.000000
# 6 0.000000 0.000000 0.000000 -0.035355 0.000000 -0.009050
#
#
# Mechanical properties :
#
#
# Convention : Reuss Voigt Hill
#
# Bulk Modulus (GPa) = 43.22848 63.00430 53.11639
# Shear Modulus (GPa) = 67.25700 30.23782 48.74741
#
# Velocity S-wave (km/s) = 5.04084 3.37994 4.29151
# Velocity P-wave (km/s) = 7.08604 6.24783 6.68010
#
# Compressibility (1/GPa) = 0.02313290
#
# Stress axis : x y z
#
# Youngs Moduli (GPa) = 69.68594 123.27500 76.64215
#
# Poissons Ratio (x) = 0.41274 0.22578
# Poissons Ratio (y) = 0.23332 -0.00809
# Poissons Ratio (z) = 0.20529 -0.01302
#
# Static dielectric constant tensor:
#      x y z
#    x 2.202170 0.000000 -0.035420 
#    y 0.000000 1.998830 0.000000 
#    z -0.035420 0.000000 2.042290 
# 
# From -- ./inp_files/268045.got.cif
#   From: 2010.05.17/outbox.cif.g08.bks.cpg/sg12_135_cif.got.tgz:268045.got - 2010.06.03 13:09:07.
