data_PCOD9175728
_publ_section_title
;
Structure prediction by ZEFSAII (Michael W. Deem and Ramdas Pophale) SiO2 
 PCOD9175728
Probable space group: C 2/M
;
_chemical_formula_sum "Si O2"
_cell_formula_units_Z 48
_cell_length_a 17.889140
_cell_length_b 18.229293
_cell_length_c 14.173967
_cell_angle_alpha 90.000000
_cell_angle_beta 28.995755
_cell_angle_gamma 90.000000
_cell_volume 2240.597678
_symmetry_space_group_name_H-M "C 2/M"
_symmetry_group_IT_number 12
_symmetry_cell_setting 'monoclinic'
loop_
_space_group_symop_operation_xyz
x,y,z
-x,y,-z
-x,-y,-z
x,-y,z
1/2+x,1/2+y,z
1/2-x,1/2+y,-z
1/2-x,1/2-y,-z
1/2+x,1/2-y,z
loop_
_atom_site_type_symbol
_atom_site_label
_atom_site_fract_x
_atom_site_fract_y
_atom_site_fract_z
Si Si1 0.534185 0.420195 0.155576
Si Si2 0.627511 0.257518 0.489226
Si Si3 0.371516 0.712392 0.065797
Si Si4 0.556575 0.876392 0.043964
Si Si5 0.590385 0.613704 0.306949
Si Si6 0.202210 0.635651 0.548974
O O1 0.575251 0.500000 0.071138
O O2 0.553423 0.421130 0.247248
O O3 0.352288 0.403424 0.341136
O O4 0.633603 0.353508 0.002720
O O5 0.723012 0.235653 0.290675
O O6 0.471886 0.302285 0.640127
O O7 0.728053 0.313609 0.443069
O O8 0.621077 0.185325 0.559556
O O9 0.436047 0.787548 0.949492
O O10 0.500000 0.688616 0.000000
O O11 0.731226 0.898487 0.868139
O O12 0.500000 0.888996 0.000000
O O13 0.431779 0.909462 0.252512
O O14 0.500000 0.588228 0.500000
#
# Coordination Sequence:
#
# PCOD9175728 Si02
#       6
#     8   8   8   8   8   8
#     4  11  25  40  58  86 127 176 213 239 287 369
#     4  10  18  33  56  92 122 149 189 254 316 351
#     4  11  18  35  61  93 125 154 196 251 308 365
#     4  11  19  35  62  95 118 146 196 267 335 361
#     4  11  22  38  61  93 125 154 199 263 320 367
#     4  10  18  34  58  82 123 157 198 249 295 361
#
# _framework density 21.422854999999998
#
# number of rings (size 3 to 8) (size 9 to 14) (size 15 to 20)
#    0.000    1.333    6.667    3.000    0.000    3.333 
#    0.000    0.833    0.000    2.000    0.000    3.500 
#    0.000    0.000    0.000    0.000    0.000    0.000 
#
# Total GULP energy -133956.443942 kJ/mol
# GULP energy per Si atom -5581.518498 kJ/mol
# Density = 2.137410 g / cm^3
# Si number density = 21.422855 Si / 1000 Ang^3
#
#
#
# Elastic Constant Matrix: (Units=GPa)
#
#
# Indices 1 2 3 4 5 6 
#
# 1 63.8750 17.0890 15.1292 0.0025 -5.0965 -0.0006
# 2 17.0890 61.0968 7.6047 0.0038 12.2817 -0.0015
# 3 15.1292 7.6047 69.6780 0.0047 -10.7415 -0.0022
# 4 0.0025 0.0038 0.0047 -4.8043 -0.0010 1.5789
# 5 -5.0965 12.2817 -10.7415 -0.0010 34.4043 0.0004
# 6 -0.0006 -0.0015 -0.0022 1.5789 0.0004 -0.4249
#
#
#
# Elastic Compliance Matrix: (Units=1/GPa)
#
#
# Indices 1 2 3 4 5 6 
#
# 1 0.018071 -0.005471 -0.002745 -0.000022 0.003773 -0.000071
# 2 -0.005471 0.019925 -0.002320 0.000030 -0.008648 0.000054
# 3 -0.002745 -0.002320 0.016038 0.000049 0.005429 0.000115
# 4 -0.000022 0.000030 0.000049 0.940797 -0.000011 3.495987
# 5 0.003773 -0.008648 0.005429 -0.000011 0.034407 -0.000013
# 6 -0.000071 0.000054 0.000115 3.495987 -0.000013 10.637520
#
#
# Mechanical properties :
#
#
# Convention : Reuss Voigt Hill
#
# Bulk Modulus (GPa) = 30.33843 30.47732 30.40787
# Shear Modulus (GPa) = 0.42739 16.15683 8.29211
#
# Velocity S-wave (km/s) = 0.44714 2.74922 1.96954
# Velocity P-wave (km/s) = 3.80250 4.93306 4.40421
#
# Compressibility (1/GPa) = 0.03296149
#
# Stress axis : x y z
#
# Youngs Moduli (GPa) = 55.33879 50.18860 62.35273
#
# Poissons Ratio (x) = 0.27459 0.17115
# Poissons Ratio (y) = 0.30277 0.14464
# Poissons Ratio (z) = 0.15190 0.11643
#
# Static dielectric constant tensor:
#      x y z
#    x 1.781790 0.000000 0.009050 
#    y 0.000000 1.832720 0.000000 
#    z 0.009050 0.000000 1.806100 
# 
# From -- ./inp_files/226747.got.cif
#   From: 2010.05.17/outbox.cif.g08.bks.cpg/sg12_114_cif.got.tgz:226747.got - 2010.06.03 13:09:07.
