data_PCOD9175091
_publ_section_title
;
Structure prediction by ZEFSAII (Michael W. Deem and Ramdas Pophale) SiO2 
 PCOD9175091
Probable space group: C 2/M
;
_chemical_formula_sum "Si O2"
_cell_formula_units_Z 56
_cell_length_a 10.561836
_cell_length_b 21.579821
_cell_length_c 11.978641
_cell_angle_alpha 90.000000
_cell_angle_beta 100.153660
_cell_angle_gamma 90.000000
_cell_volume 2687.443131
_symmetry_space_group_name_H-M "C 2/M"
_symmetry_group_IT_number 12
_symmetry_cell_setting 'monoclinic'
loop_
_space_group_symop_operation_xyz
x,y,z
-x,y,-z
-x,-y,-z
x,-y,z
1/2+x,1/2+y,z
1/2-x,1/2+y,-z
1/2-x,1/2-y,-z
1/2+x,1/2-y,z
loop_
_atom_site_type_symbol
_atom_site_label
_atom_site_fract_x
_atom_site_fract_y
_atom_site_fract_z
Si Si1 0.590458 0.931580 0.117248
Si Si2 0.649570 0.317355 0.353317
Si Si3 0.380301 0.687809 0.909917
Si Si4 0.270586 0.811859 0.895397
Si Si5 0.490067 0.103294 0.324728
Si Si6 0.398249 0.756513 0.310858
Si Si7 0.715576 0.928829 0.522075
O O1 0.694696 0.878093 0.147649
O O2 0.499925 0.930493 0.210061
O O3 0.645853 0.000000 0.109212
O O4 0.500000 0.915304 0.000000
O O5 0.636794 0.335927 0.218485
O O6 0.519231 0.283575 0.368859
O O7 0.773697 0.270831 0.369460
O O8 0.679020 0.377492 0.431399
O O9 0.385684 0.762657 0.898382
O O10 0.500000 0.663739 0.000000
O O11 0.263511 0.679872 0.979545
O O12 0.157332 0.778843 0.806926
O O13 0.454791 0.174916 0.300004
O O14 0.382999 0.074752 0.388734
O O15 0.627282 0.094464 0.406354
O O16 0.756925 0.000000 0.511687
#
# Coordination Sequence:
#
# PCOD9175091 Si02
#       7
#     8   8   8   8   8   8   8
#     4  11  24  37  55  84 122 162 200 244 293 360
#     4  10  21  35  57  90 120 154 200 246 303 352
#     4  10  18  32  55  83 116 153 192 245 295 358
#     4  10  21  32  55  85 117 157 191 237 305 358
#     4  10  20  38  62  86 114 151 203 251 302 345
#     4  10  20  36  58  91 120 151 191 255 303 355
#     4  10  21  38  62  85 115 160 203 247 290 356
#
# _framework density 20.83765
#
# number of rings (size 3 to 8) (size 9 to 14) (size 15 to 20)
#    0.000    1.857    1.429    3.857    8.000    0.571 
#    0.000    3.571    0.000    0.857    0.000    5.000 
#    0.000    0.000    0.000    0.000    0.000    0.000 
#
# Total GULP energy -156286.058590 kJ/mol
# GULP energy per Si atom -5581.644950 kJ/mol
# Density = 2.079022 g / cm^3
# Si number density = 20.837650 Si / 1000 Ang^3
#
#
#
# Elastic Constant Matrix: (Units=GPa)
#
#
# Indices 1 2 3 4 5 6 
#
# 1 70.6721 44.3799 31.1443 0.0000 24.9529 0.0000
# 2 44.3799 120.2730 20.9154 0.0000 22.9718 0.0000
# 3 31.1443 20.9154 89.9601 0.0000 2.2638 0.0000
# 4 0.0000 0.0000 0.0000 -232.2037 0.0000 -78.5251
# 5 24.9529 22.9718 2.2638 0.0000 25.8887 0.0000
# 6 0.0000 0.0000 0.0000 -78.5251 0.0000 -29.8852
#
#
#
# Elastic Compliance Matrix: (Units=1/GPa)
#
#
# Indices 1 2 3 4 5 6 
#
# 1 0.028935 -0.004869 -0.008310 0.000000 -0.022842 0.000000
# 2 -0.004869 0.011246 -0.000798 0.000000 -0.005216 0.000000
# 3 -0.008310 -0.000798 0.013990 0.000000 0.007495 0.000000
# 4 0.000000 0.000000 0.000000 -0.038648 0.000000 0.101550
# 5 -0.022842 -0.005216 0.007495 0.000000 0.064616 0.000000
# 6 0.000000 0.000000 0.000000 0.101550 0.000000 -0.300290
#
#
# Mechanical properties :
#
#
# Convention : Reuss Voigt Hill
#
# Bulk Modulus (GPa) = 38.14380 52.64270 45.39325
# Shear Modulus (GPa) = -27.25417 -34.94235 -31.09826
#
# Velocity S-wave (km/s) = -3.62045 -4.09942 -3.86736
# Velocity P-wave (km/s) = 0.93169 1.70619 1.37462
#
# Compressibility (1/GPa) = 0.02621658
#
# Stress axis : x y z
#
# Youngs Moduli (GPa) = 34.56078 88.92043 71.47956
#
# Poissons Ratio (x) = 0.43293 0.59402
# Poissons Ratio (y) = 0.16827 0.05703
# Poissons Ratio (z) = 0.28721 0.07094
#
# Static dielectric constant tensor:
#      x y z
#    x 1.797970 0.000000 0.005310 
#    y 0.000000 1.742520 0.000000 
#    z 0.005310 0.000000 1.788140 
# 
# From -- ./inp_files/133307.got.cif
#   From: 2010.05.17/outbox.cif.g08.bks.cpg/sg12_67_cif.got.tgz:133307.got - 2010.06.03 13:09:07.
