data_PCOD9175206
_publ_section_title
;
Structure prediction by ZEFSAII (Michael W. Deem and Ramdas Pophale) SiO2 
 PCOD9175206
Probable space group: C 2/M
;
_chemical_formula_sum "Si O2"
_cell_formula_units_Z 50
_cell_length_a 26.518825
_cell_length_b 7.396238
_cell_length_c 15.761415
_cell_angle_alpha 90.000000
_cell_angle_beta 45.044566
_cell_angle_gamma 90.000000
_cell_volume 2187.675501
_symmetry_space_group_name_H-M "C 2/M"
_symmetry_group_IT_number 12
_symmetry_cell_setting 'monoclinic'
loop_
_space_group_symop_operation_xyz
x,y,z
-x,y,-z
-x,-y,-z
x,-y,z
1/2+x,1/2+y,z
1/2-x,1/2+y,-z
1/2-x,1/2-y,-z
1/2+x,1/2-y,z
loop_
_atom_site_type_symbol
_atom_site_label
_atom_site_fract_x
_atom_site_fract_y
_atom_site_fract_z
Si Si1 0.307025 0.720474 0.671063
Si Si2 0.500000 0.000000 0.500000
Si Si3 0.224800 0.715420 0.935062
Si Si4 0.558409 0.780993 0.740617
Si Si5 0.913194 0.719950 0.995348
Si Si6 0.330055 0.780188 0.263276
Si Si7 0.462017 0.707559 0.430666
O O1 0.309323 0.500000 0.667218
O O2 0.277610 0.780194 0.797586
O O3 0.248982 0.777783 0.669578
O O4 0.386016 0.781560 0.555739
O O5 0.482950 0.159066 0.591533
O O6 0.222919 0.500000 0.927074
O O7 0.250000 0.750000 0.000000
O O8 0.145302 0.778653 0.004975
O O9 0.492194 0.721846 0.877865
O O10 0.632676 0.720538 0.694440
O O11 0.543757 0.718312 0.663384
O O12 0.559010 0.000000 0.738325
O O13 0.915063 0.500000 0.994158
O O14 0.881609 0.773256 0.123851
O O15 0.328493 0.000000 0.265997
O O16 0.472980 0.500000 0.441070
#
# Coordination Sequence:
#
# PCOD9175206 Si02
#       7
#     8   2   8   8   8   8   8
#     4   8  17  35  56  81 115 156 196 241 297 358
#     4  12  26  48  64  86 114 156 208 248 292 362
#     4   9  17  32  51  76 107 143 194 246 295 350
#     4  10  18  32  56  91 123 155 202 248 291 364
#     4   8  15  28  50  82 119 156 196 244 296 353
#     4   8  14  28  56  87 120 160 199 242 301 355
#     4  11  24  43  64  87 121 159 200 248 300 351
#
# _framework density 22.855308000000001
#
# number of rings (size 3 to 8) (size 9 to 14) (size 15 to 20)
#    0.000    2.880    0.800    2.640    0.000    3.840 
#    4.320    2.400    1.760    2.880    0.000    0.000 
#    0.000    0.000    0.000    0.000    0.000    0.000 
#
# Total GULP energy -139368.778500 kJ/mol
# GULP energy per Si atom -5574.751140 kJ/mol
# Density = 2.280329 g / cm^3
# Si number density = 22.855308 Si / 1000 Ang^3
#
#
#
# Elastic Constant Matrix: (Units=GPa)
#
#
# Indices 1 2 3 4 5 6 
#
# 1 91.2749 9.2293 5.6355 0.0046 22.5637 -0.0008
# 2 9.2293 107.2828 0.1878 -0.0265 2.9158 0.0087
# 3 5.6355 0.1878 19.1878 -0.0039 -5.5107 0.0051
# 4 0.0046 -0.0265 -0.0039 -3.3716 0.0075 12.7847
# 5 22.5637 2.9158 -5.5107 0.0075 36.5858 -0.0010
# 6 -0.0008 0.0087 0.0051 12.7847 -0.0010 1.8360
#
#
#
# Elastic Compliance Matrix: (Units=1/GPa)
#
#
# Indices 1 2 3 4 5 6 
#
# 1 0.013805 -0.000919 -0.006762 0.000004 -0.009459 -0.000002
# 2 -0.000919 0.009404 0.000131 -0.000009 -0.000163 0.000018
# 3 -0.006762 0.000131 0.057796 -0.000023 0.012865 0.000007
# 4 0.000004 -0.000009 -0.000023 -0.010823 -0.000001 0.075364
# 5 -0.009459 -0.000163 0.012865 -0.000001 0.035118 -0.000014
# 6 -0.000002 0.000018 0.000007 0.075364 -0.000014 0.019875
#
#
# Mechanical properties :
#
#
# Convention : Reuss Voigt Hill
#
# Bulk Modulus (GPa) = 15.17326 27.53895 21.35611
# Shear Modulus (GPa) = 30.81803 20.52291 25.67047
#
# Velocity S-wave (km/s) = 3.67604 2.99983 3.35501
# Velocity P-wave (km/s) = 4.96698 4.90653 4.93685
#
# Compressibility (1/GPa) = 0.06590540
#
# Stress axis : x y z
#
# Youngs Moduli (GPa) = 72.43934 106.33330 17.30224
#
# Poissons Ratio (x) = 0.09768 0.11700
# Poissons Ratio (y) = 0.06655 -0.00226
# Poissons Ratio (z) = 0.48984 -0.01392
#
# Static dielectric constant tensor:
#      x y z
#    x 1.927460 0.000000 -0.012300 
#    y 0.000000 1.882100 0.000000 
#    z -0.012300 0.000000 1.815970 
# 
# From -- ./inp_files/243545.got.cif
#   From: 2010.05.17/outbox.cif.g08.bks.cpg/sg12_122_cif.got.tgz:243545.got - 2010.06.03 13:09:07.
