data_PCOD9175514
_publ_section_title
;
Structure prediction by ZEFSAII (Michael W. Deem and Ramdas Pophale) SiO2 
 PCOD9175514
Probable space group: C 2/M
;
_chemical_formula_sum "Si O2"
_cell_formula_units_Z 40
_cell_length_a 8.950594
_cell_length_b 18.025688
_cell_length_c 12.855939
_cell_angle_alpha 90.000000
_cell_angle_beta 65.408614
_cell_angle_gamma 90.000000
_cell_volume 1886.053783
_symmetry_space_group_name_H-M "C 2/M"
_symmetry_group_IT_number 12
_symmetry_cell_setting 'monoclinic'
loop_
_space_group_symop_operation_xyz
x,y,z
-x,y,-z
-x,-y,-z
x,-y,z
1/2+x,1/2+y,z
1/2-x,1/2+y,-z
1/2-x,1/2-y,-z
1/2+x,1/2-y,z
loop_
_atom_site_type_symbol
_atom_site_label
_atom_site_fract_x
_atom_site_fract_y
_atom_site_fract_z
Si Si1 0.065596 0.649299 0.271805
Si Si2 0.500000 0.755844 0.000000
Si Si3 0.257410 0.000000 0.470958
Si Si4 0.000000 0.269454 0.500000
Si Si5 0.655537 0.000000 0.320891
Si Si6 0.655047 0.697150 0.151711
Si Si7 0.296960 0.360344 0.651101
O O1 0.996918 0.675644 0.403881
O O2 0.175284 0.576689 0.253426
O O3 0.154362 0.719944 0.200114
O O4 0.894828 0.637804 0.261343
O O5 0.467921 0.703778 0.908942
O O6 0.660209 0.808039 0.944341
O O7 0.456238 0.000000 0.397726
O O8 0.245544 0.000000 0.599301
O O9 0.184788 0.929177 0.431786
O O10 0.852246 0.212775 0.570758
O O11 0.612845 0.645071 0.262756
#
# Coordination Sequence:
#
# PCOD9175514 Si02
#       7
#     8   4   4   4   4   8   8
#     4  10  18  33  53  83 108 145 182 218 267 319
#     4  10  20  38  58  84 104 136 182 240 288 312
#     4   9  18  33  52  73 116 151 182 207 261 321
#     4  10  20  28  50  78 118 138 182 218 262 324
#     4   9  18  32  52  77 112 152 177 218 251 320
#     4  10  20  35  61  82 109 136 182 235 275 325
#     4  10  19  33  51  81 108 147 179 219 267 322
#
# _framework density 21.208303999999998
#
# number of rings (size 3 to 8) (size 9 to 14) (size 15 to 20)
#    0.000    2.200    2.000    3.000    0.000    2.000 
#    0.000    0.000    0.000    7.200    0.000    0.000 
#    0.000    0.000    0.000    0.000    0.000    0.000 
#
# Total GULP energy -111417.410200 kJ/mol
# GULP energy per Si atom -5570.870510 kJ/mol
# Density = 2.116003 g / cm^3
# Si number density = 21.208304 Si / 1000 Ang^3
#
#
#
# Elastic Constant Matrix: (Units=GPa)
#
#
# Indices 1 2 3 4 5 6 
#
# 1 66.1649 12.9967 24.5512 0.0000 15.3126 0.0000
# 2 12.9967 98.9635 18.2434 0.0000 26.8054 0.0000
# 3 24.5512 18.2434 77.5523 0.0000 37.5690 0.0000
# 4 0.0000 0.0000 0.0000 13.3808 0.0000 7.1571
# 5 15.3126 26.8054 37.5690 0.0000 44.9124 0.0000
# 6 0.0000 0.0000 0.0000 7.1571 0.0000 21.5508
#
#
#
# Elastic Compliance Matrix: (Units=1/GPa)
#
#
# Indices 1 2 3 4 5 6 
#
# 1 0.017343 -0.001033 -0.004509 0.000000 -0.001525 0.000000
# 2 -0.001033 0.012170 0.001366 0.000000 -0.008054 0.000000
# 3 -0.004509 0.001366 0.022951 0.000000 -0.018477 0.000000
# 4 0.000000 0.000000 0.000000 0.090877 0.000000 -0.030180
# 5 -0.001525 -0.008054 -0.018477 0.000000 0.043048 0.000000
# 6 0.000000 0.000000 0.000000 -0.030180 0.000000 0.056425
#
#
# Mechanical properties :
#
#
# Convention : Reuss Voigt Hill
#
# Bulk Modulus (GPa) = 22.66988 39.36260 31.01624
# Shear Modulus (GPa) = 18.80620 28.42809 23.61714
#
# Velocity S-wave (km/s) = 2.98104 3.66515 3.34065
# Velocity P-wave (km/s) = 4.74986 6.04247 5.43473
#
# Compressibility (1/GPa) = 0.04411139
#
# Stress axis : x y z
#
# Youngs Moduli (GPa) = 57.66166 82.16849 43.57066
#
# Poissons Ratio (x) = 0.08492 0.19644
# Poissons Ratio (y) = 0.05959 -0.05951
# Poissons Ratio (z) = 0.25997 -0.11222
#
# Static dielectric constant tensor:
#      x y z
#    x 1.850600 0.000000 0.007610 
#    y 0.000000 1.771730 0.000000 
#    z 0.007610 0.000000 1.819550 
# 
# From -- ./inp_files/120212.got.cif
#   From: 2010.05.17/outbox.cif.g08.bks.cpg/sg12_61_cif.got.tgz:120212.got - 2010.06.03 13:09:07.
