data_PCOD9175433
_publ_section_title
;
Structure prediction by ZEFSAII (Michael W. Deem and Ramdas Pophale) SiO2 
 PCOD9175433
Probable space group: C 2/M
;
_chemical_formula_sum "Si O2"
_cell_formula_units_Z 56
_cell_length_a 15.679061
_cell_length_b 20.528945
_cell_length_c 14.098833
_cell_angle_alpha 90.000000
_cell_angle_beta 133.271229
_cell_angle_gamma 90.000000
_cell_volume 3304.235915
_symmetry_space_group_name_H-M "C 2/M"
_symmetry_group_IT_number 12
_symmetry_cell_setting 'monoclinic'
loop_
_space_group_symop_operation_xyz
x,y,z
-x,y,-z
-x,-y,-z
x,-y,z
1/2+x,1/2+y,z
1/2-x,1/2+y,-z
1/2-x,1/2-y,-z
1/2+x,1/2-y,z
loop_
_atom_site_type_symbol
_atom_site_label
_atom_site_fract_x
_atom_site_fract_y
_atom_site_fract_z
Si Si1 0.939184 0.071616 0.556138
Si Si2 0.033294 0.628829 0.128042
Si Si3 0.625077 0.246809 0.954869
Si Si4 0.327130 0.206556 0.486553
Si Si5 0.721609 0.760990 0.219178
Si Si6 0.462946 0.704563 0.300050
Si Si7 0.829211 0.572953 0.600850
O O1 0.798678 0.077092 0.446877
O O2 0.000000 0.074930 0.500000
O O3 0.986610 0.133056 0.648036
O O4 0.966965 0.000000 0.617896
O O5 0.140123 0.680705 0.195951
O O6 0.074218 0.582922 0.243615
O O7 0.923226 0.673559 0.073061
O O8 0.000000 0.599587 0.000000
O O9 0.541840 0.281457 0.815899
O O10 0.750000 0.250000 0.000000
O O11 0.644284 0.271658 0.076494
O O12 0.250000 0.250000 0.500000
O O13 0.266993 0.215700 0.338466
O O14 0.452919 0.242195 0.586652
O O15 0.335820 0.133066 0.532385
O O16 0.836592 0.789600 0.254193
O O17 0.839194 0.500000 0.567216
#
# Coordination Sequence:
#
# PCOD9175433 Si02
#       7
#     8   8   8   8   8   8   8
#     4  10  20  32  49  77 111 138 169 216 268 318
#     4  10  18  33  51  75 110 135 168 211 265 325
#     4   9  19  32  51  80 106 131 169 222 263 306
#     4  12  19  32  54  77 102 139 178 219 256 308
#     4  10  20  31  52  83 105 132 176 220 267 306
#     4  11  18  32  55  78 102 135 176 217 264 312
#     4  11  22  34  50  77 110 143 176 217 265 317
#
# _framework density 16.947942000000001
#
# number of rings (size 3 to 8) (size 9 to 14) (size 15 to 20)
#    0.000    1.571    4.286    2.143    0.000    0.286 
#    0.000    0.000    0.000    7.714    0.000    2.000 
#    0.000    0.000    0.000    0.000    0.000    0.000 
#
# Total GULP energy -156034.724210 kJ/mol
# GULP energy per Si atom -5572.668722 kJ/mol
# Density = 1.690937 g / cm^3
# Si number density = 16.947942 Si / 1000 Ang^3
#
#
#
# Elastic Constant Matrix: (Units=GPa)
#
#
# Indices 1 2 3 4 5 6 
#
# 1 43.7802 12.6666 12.2562 0.0000 8.3540 0.0000
# 2 12.6666 102.3409 44.1502 0.0000 -16.4265 0.0000
# 3 12.2562 44.1502 105.7156 0.0000 -27.1521 0.0000
# 4 0.0000 0.0000 0.0000 17.6780 0.0000 -7.3554
# 5 8.3540 -16.4265 -27.1521 0.0000 35.2100 0.0000
# 6 0.0000 0.0000 0.0000 -7.3554 0.0000 10.0446
#
#
#
# Elastic Compliance Matrix: (Units=1/GPa)
#
#
# Indices 1 2 3 4 5 6 
#
# 1 0.027353 -0.003171 -0.004855 0.000000 -0.011714 0.000000
# 2 -0.003171 0.012418 -0.003912 0.000000 0.003529 0.000000
# 3 -0.004855 -0.003912 0.014319 0.000000 0.010369 0.000000
# 4 0.000000 0.000000 0.000000 0.081355 0.000000 0.059574
# 5 -0.011714 0.003529 0.010369 0.000000 0.040823 0.000000
# 6 0.000000 0.000000 0.000000 0.059574 0.000000 0.143181
#
#
# Mechanical properties :
#
#
# Convention : Reuss Voigt Hill
#
# Bulk Modulus (GPa) = 33.09790 43.33143 38.21467
# Shear Modulus (GPa) = 14.14840 24.77075 19.45957
#
# Velocity S-wave (km/s) = 2.89245 3.82721 3.39218
# Velocity P-wave (km/s) = 5.54316 6.71959 6.15952
#
# Compressibility (1/GPa) = 0.03021340
#
# Stress axis : x y z
#
# Youngs Moduli (GPa) = 36.55876 80.52940 69.83575
#
# Poissons Ratio (x) = 0.25535 0.33908
# Poissons Ratio (y) = 0.11592 0.27321
# Poissons Ratio (z) = 0.17751 0.31504
#
# Static dielectric constant tensor:
#      x y z
#    x 1.601170 0.000000 0.006790 
#    y 0.000000 1.557180 0.000000 
#    z 0.006790 0.000000 1.628520 
# 
# From -- ./inp_files/169382.got.cif
#   From: 2010.05.17/outbox.cif.g08.bks.cpg/sg12_85_cif.got.tgz:169382.got - 2010.06.03 13:09:07.
