data_PCOD9175877
_publ_section_title
;
Structure prediction by ZEFSAII (Michael W. Deem and Ramdas Pophale) SiO2 
 PCOD9175877
Probable space group: C 2/M
;
_chemical_formula_sum "Si O2"
_cell_formula_units_Z 52
_cell_length_a 12.665850
_cell_length_b 20.814001
_cell_length_c 15.891399
_cell_angle_alpha 90.000000
_cell_angle_beta 142.608722
_cell_angle_gamma 90.000000
_cell_volume 2544.034942
_symmetry_space_group_name_H-M "C 2/M"
_symmetry_group_IT_number 12
_symmetry_cell_setting 'monoclinic'
loop_
_space_group_symop_operation_xyz
x,y,z
-x,y,-z
-x,-y,-z
x,-y,z
1/2+x,1/2+y,z
1/2-x,1/2+y,-z
1/2-x,1/2-y,-z
1/2+x,1/2-y,z
loop_
_atom_site_type_symbol
_atom_site_label
_atom_site_fract_x
_atom_site_fract_y
_atom_site_fract_z
Si Si1 0.725500 0.426378 0.705167
Si Si2 0.465514 0.575160 0.125806
Si Si3 0.590121 0.575899 0.393959
Si Si4 0.667604 0.819060 0.937789
Si Si5 0.578493 0.877284 0.336196
Si Si6 0.500000 0.873990 0.000000
Si Si7 0.643732 0.074795 0.658556
O O1 0.684422 0.500000 0.668682
O O2 0.541079 0.398483 0.617793
O O3 0.831236 0.406454 0.689936
O O4 0.851161 0.416335 0.863793
O O5 0.432634 0.500000 0.078901
O O6 0.493156 0.575448 0.243936
O O7 0.656143 0.598392 0.213763
O O8 0.308983 0.624465 0.008777
O O9 0.643651 0.500000 0.440998
O O10 0.754872 0.623021 0.497326
O O11 0.529686 0.819546 0.773321
O O12 0.750000 0.750000 0.000000
O O13 0.576532 0.834871 0.969569
O O14 0.441431 0.917735 0.303861
O O15 0.500000 0.100999 0.500000
O O16 0.664582 0.000000 0.648273
#
# Coordination Sequence:
#
# PCOD9175877 Si02
#       7
#     8   8   8   8   8   4   8
#     4  10  19  31  56  93 130 158 196 252 311 370
#     4  10  21  38  64  91 122 163 204 251 310 375
#     4  10  18  33  58  92 128 156 192 251 316 366
#     4  11  26  45  63  88 124 166 210 258 311 370
#     4  11  22  35  57  90 122 165 210 251 304 373
#     4  10  21  38  62  84 117 166 206 246 310 370
#     4  10  19  34  59  91 130 166 200 253 316 367
#
# _framework density 20.439971
#
# number of rings (size 3 to 8) (size 9 to 14) (size 15 to 20)
#    0.000    1.692    3.077    2.077    0.000    6.769 
#    0.000    2.308    0.000    0.000    0.000    0.000 
#    0.000    0.000    0.000    0.000    0.000    0.000 
#
# Total GULP energy -144746.167125 kJ/mol
# GULP energy per Si atom -5567.160274 kJ/mol
# Density = 2.039345 g / cm^3
# Si number density = 20.439971 Si / 1000 Ang^3
#
#
#
# Elastic Constant Matrix: (Units=GPa)
#
#
# Indices 1 2 3 4 5 6 
#
# 1 132.8529 6.5847 11.8378 0.0000 28.1561 0.0000
# 2 6.5847 48.8415 25.3272 0.0000 16.5570 0.0000
# 3 11.8378 25.3272 76.1870 -0.0001 11.6569 0.0001
# 4 0.0000 0.0000 -0.0001 20.8710 0.0000 4.1295
# 5 28.1561 16.5570 11.6569 0.0000 32.5607 0.0000
# 6 0.0000 0.0000 0.0001 4.1295 0.0000 11.4991
#
#
#
# Elastic Compliance Matrix: (Units=1/GPa)
#
#
# Indices 1 2 3 4 5 6 
#
# 1 0.009385 0.002188 -0.000819 0.000000 -0.008935 0.000000
# 2 0.002188 0.028922 -0.007845 0.000000 -0.013791 0.000000
# 3 -0.000819 -0.007845 0.016019 0.000000 -0.001038 0.000000
# 4 0.000000 0.000000 0.000000 0.051578 0.000000 -0.018523
# 5 -0.008935 -0.013791 -0.001038 0.000000 0.045823 0.000000
# 6 0.000000 0.000000 0.000000 -0.018523 0.000000 0.093615
#
#
# Mechanical properties :
#
#
# Convention : Reuss Voigt Hill
#
# Bulk Modulus (GPa) = 24.16809 38.37564 31.27186
# Shear Modulus (GPa) = 18.37659 27.26161 22.81910
#
# Velocity S-wave (km/s) = 3.00167 3.65600 3.34488
# Velocity P-wave (km/s) = 4.88498 6.05288 5.50002
#
# Compressibility (1/GPa) = 0.04137688
#
# Stress axis : x y z
#
# Youngs Moduli (GPa) = 106.54947 34.57540 62.42394
#
# Poissons Ratio (x) = -0.07566 0.05110
# Poissons Ratio (y) = -0.23315 0.48970
# Poissons Ratio (z) = 0.08722 0.27124
#
# Static dielectric constant tensor:
#      x y z
#    x 1.804770 0.000000 0.019670 
#    y 0.000000 1.672520 0.000000 
#    z 0.019670 0.000000 1.833050 
# 
# From -- ./inp_files/208676.got.cif
#   From: 2010.05.17/outbox.cif.g08.bks.cpg/sg12_105_cif.got.tgz:208676.got - 2010.06.03 13:09:07.
