data_PCOD9175265
_publ_section_title
;
Structure prediction by ZEFSAII (Michael W. Deem and Ramdas Pophale) SiO2 
 PCOD9175265
Probable space group: C 2/M
;
_chemical_formula_sum "Si O2"
_cell_formula_units_Z 56
_cell_length_a 15.552375
_cell_length_b 8.510062
_cell_length_c 25.072209
_cell_angle_alpha 90.000000
_cell_angle_beta 120.570992
_cell_angle_gamma 90.000000
_cell_volume 2857.097171
_symmetry_space_group_name_H-M "C 2/M"
_symmetry_group_IT_number 12
_symmetry_cell_setting 'monoclinic'
loop_
_space_group_symop_operation_xyz
x,y,z
-x,y,-z
-x,-y,-z
x,-y,z
1/2+x,1/2+y,z
1/2-x,1/2+y,-z
1/2-x,1/2-y,-z
1/2+x,1/2-y,z
loop_
_atom_site_type_symbol
_atom_site_label
_atom_site_fract_x
_atom_site_fract_y
_atom_site_fract_z
Si Si1 0.077087 0.312504 0.784563
Si Si2 0.719932 0.812954 0.432168
Si Si3 0.029080 0.691530 0.142947
Si Si4 0.497748 0.685728 0.350133
Si Si5 0.410102 0.187672 0.431808
Si Si6 0.295330 0.810054 0.873735
Si Si7 0.646326 0.810801 0.990985
O O1 0.067585 0.500000 0.775197
O O2 0.188227 0.270465 0.838894
O O3 0.001858 0.259159 0.807695
O O4 0.054275 0.230806 0.721620
O O5 0.750000 0.750000 0.500000
O O6 0.612238 0.742906 0.384022
O O7 0.807207 0.764084 0.418998
O O8 0.711764 0.000000 0.431678
O O9 0.027040 0.500000 0.141826
O O10 0.136851 0.737978 0.154958
O O11 0.945089 0.745737 0.074182
O O12 0.495442 0.500000 0.357700
O O13 0.442832 0.765972 0.382831
O O14 0.500000 0.237040 0.500000
O O15 0.399976 0.000000 0.432784
O O16 0.282159 0.000000 0.868840
O O17 0.354252 0.769738 0.946738
O O18 0.645492 0.000000 0.987921
O O19 0.750000 0.750000 0.000000
#
# Coordination Sequence:
#
# PCOD9175265 Si02
#       7
#     8   8   8   8   8   8   8
#     4  11  23  41  61  84 121 162 204 255 312 374
#     4  12  24  41  67  99 132 167 207 253 310 370
#     4   9  19  36  59  85 117 159 203 247 306 369
#     4  12  26  44  66  93 128 168 214 262 313 375
#     4  11  23  41  68  99 130 163 204 255 312 373
#     4  10  20  36  60  87 117 156 206 255 305 371
#     4  10  18  32  57  87 117 153 198 253 309 367
#
# _framework density 19.600314000000001
#
# number of rings (size 3 to 8) (size 9 to 14) (size 15 to 20)
#    0.000    1.286    2.857    3.857    0.000    3.429 
#    0.000    6.429    0.000    1.714    0.000    0.000 
#    0.000    0.000    0.000    0.000    0.000    0.000 
#
# Total GULP energy -156530.235830 kJ/mol
# GULP energy per Si atom -5590.365565 kJ/mol
# Density = 1.955570 g / cm^3
# Si number density = 19.600314 Si / 1000 Ang^3
#
#
#
# Elastic Constant Matrix: (Units=GPa)
#
#
# Indices 1 2 3 4 5 6 
#
# 1 85.0714 -17.2743 -4.6986 0.0000 -24.1195 0.0000
# 2 -17.2743 18.8719 -3.3283 0.0000 1.9880 0.0000
# 3 -4.6986 -3.3283 62.3388 0.0000 -21.3815 0.0000
# 4 0.0000 0.0000 0.0000 23.8516 0.0000 4.2390
# 5 -24.1195 1.9880 -21.3815 0.0000 27.9005 0.0000
# 6 0.0000 0.0000 0.0000 4.2390 0.0000 28.4229
#
#
#
# Elastic Compliance Matrix: (Units=1/GPa)
#
#
# Indices 1 2 3 4 5 6 
#
# 1 0.026320 0.023226 0.014190 0.000000 0.031973 0.000000
# 2 0.023226 0.074089 0.014627 0.000000 0.026009 0.000000
# 3 0.014190 0.014627 0.029494 0.000000 0.033828 0.000000
# 4 0.000000 0.000000 0.000000 0.043067 0.000000 -0.006423
# 5 0.031973 0.026009 0.033828 0.000000 0.087552 0.000000
# 6 0.000000 0.000000 0.000000 -0.006423 0.000000 0.036141
#
#
# Mechanical properties :
#
#
# Convention : Reuss Voigt Hill
#
# Bulk Modulus (GPa) = 4.27369 12.85329 8.56349
# Shear Modulus (GPa) = 18.47931 28.80723 23.64327
#
# Velocity S-wave (km/s) = 3.07385 3.83787 3.47691
# Velocity P-wave (km/s) = 3.84489 5.11966 4.52737
#
# Compressibility (1/GPa) = 0.23398980
#
# Stress axis : x y z
#
# Youngs Moduli (GPa) = 37.99434 13.49734 33.90466
#
# Poissons Ratio (x) = -0.31349 -0.48111
# Poissons Ratio (y) = -0.88246 -0.49593
# Poissons Ratio (z) = -0.53914 -0.19743
#
# Static dielectric constant tensor:
#      x y z
#    x 1.662560 0.000000 -0.004030 
#    y 0.000000 1.670530 0.000000 
#    z -0.004030 0.000000 1.672250 
# 
# From -- ./inp_files/339015.got.cif
#   From: 2010.05.17/outbox.cif.g08.bks.cpg/sg12_170_cif.got.tgz:339015.got - 2010.06.03 13:09:07.
