data_PCOD9175645
_publ_section_title
;
Structure prediction by ZEFSAII (Michael W. Deem and Ramdas Pophale) SiO2 
 PCOD9175645
Probable space group: C 2/M
;
_chemical_formula_sum "Si O2"
_cell_formula_units_Z 36
_cell_length_a 21.848977
_cell_length_b 14.745939
_cell_length_c 5.693792
_cell_angle_alpha 90.000000
_cell_angle_beta 65.413243
_cell_angle_gamma 90.000000
_cell_volume 1668.121795
_symmetry_space_group_name_H-M "C 2/M"
_symmetry_group_IT_number 12
_symmetry_cell_setting 'monoclinic'
loop_
_space_group_symop_operation_xyz
x,y,z
-x,y,-z
-x,-y,-z
x,-y,z
1/2+x,1/2+y,z
1/2-x,1/2+y,-z
1/2-x,1/2-y,-z
1/2+x,1/2-y,z
loop_
_atom_site_type_symbol
_atom_site_label
_atom_site_fract_x
_atom_site_fract_y
_atom_site_fract_z
Si Si1 0.213873 0.649785 0.063072
Si Si2 0.500000 0.685269 0.000000
Si Si3 0.235560 0.858633 0.518954
Si Si4 0.598768 0.398837 0.510434
Si Si5 0.572469 0.226385 0.260142
O O1 0.238978 0.607743 0.268651
O O2 0.133047 0.657912 0.201730
O O3 0.250000 0.750000 0.000000
O O4 0.232364 0.608422 0.779617
O O5 0.470948 0.621829 0.247539
O O6 0.556032 0.751782 0.016983
O O7 0.250000 0.750000 0.500000
O O8 0.157618 0.882005 0.604898
O O9 0.602549 0.500000 0.411248
O O10 0.602260 0.320354 0.314258
O O11 0.500000 0.206610 0.500000
#
# Coordination Sequence:
#
# PCOD9175645 Si02
#       5
#     8   4   8   8   8
#     4  10  18  33  56  72  99 136 175 220 273 298
#     4  10  21  34  48  70 108 154 181 210 251 308
#     4  10  19  34  56  73  97 136 180 220 269 299
#     4  11  22  34  49  75 107 147 182 216 258 318
#     4  10  21  33  50  76 107 142 181 218 258 316
#
# _framework density 21.581157000000001
#
# number of rings (size 3 to 8) (size 9 to 14) (size 15 to 20)
#    0.000    1.778    4.444    3.000    3.111    4.889 
#    0.000    0.000    0.000    0.000    0.000    0.000 
#    0.000    5.333    0.000    0.000    0.000    0.000 
#
# Total GULP energy -100374.932354 kJ/mol
# GULP energy per Si atom -5576.385131 kJ/mol
# Density = 2.153204 g / cm^3
# Si number density = 21.581157 Si / 1000 Ang^3
#
#
#
# Elastic Constant Matrix: (Units=GPa)
#
#
# Indices 1 2 3 4 5 6 
#
# 1 142.9302 2.9950 37.6746 0.0000 15.8400 0.0000
# 2 2.9950 30.1036 1.1822 0.0000 1.8601 0.0000
# 3 37.6746 1.1822 100.1931 0.0000 23.9440 0.0000
# 4 0.0000 0.0000 0.0000 -1.1235 0.0000 -0.1628
# 5 15.8400 1.8601 23.9440 0.0000 53.9424 0.0000
# 6 0.0000 0.0000 0.0000 -0.1628 0.0000 5.0987
#
#
#
# Elastic Compliance Matrix: (Units=1/GPa)
#
#
# Indices 1 2 3 4 5 6 
#
# 1 0.007836 -0.000607 -0.002679 0.000000 -0.001091 0.000000
# 2 -0.000607 0.033338 0.000075 0.000000 -0.001005 0.000000
# 3 -0.002679 0.000075 0.012081 0.000000 -0.004579 0.000000
# 4 0.000000 0.000000 0.000000 -0.885953 0.000000 -0.028282
# 5 -0.001091 -0.001005 -0.004579 0.000000 0.020926 0.000000
# 6 0.000000 0.000000 0.000000 -0.028282 0.000000 0.195226
#
#
# Mechanical properties :
#
#
# Convention : Reuss Voigt Hill
#
# Bulk Modulus (GPa) = 21.35191 39.65895 30.50543
# Shear Modulus (GPa) = -8.41026 27.00852 9.29913
#
# Velocity S-wave (km/s) = -1.97623 3.54147 2.07804
# Velocity P-wave (km/s) = 2.16977 5.92784 4.46358
#
# Compressibility (1/GPa) = 0.04683423
#
# Stress axis : x y z
#
# Youngs Moduli (GPa) = 127.61429 29.99565 82.77290
#
# Poissons Ratio (x) = 0.01821 0.22172
# Poissons Ratio (y) = 0.07746 -0.00620
# Poissons Ratio (z) = 0.34183 -0.00225
#
# Static dielectric constant tensor:
#      x y z
#    x 1.817700 0.000000 -0.004530 
#    y 0.000000 1.751690 0.000000 
#    z -0.004530 0.000000 1.852570 
# 
# From -- ./inp_files/14933.got.cif
#   From: 2010.05.17/outbox.cif.g08.bks.cpg/sg12_8_cif.got.tgz:14933.got - 2010.06.03 13:09:07.
