data_PCOD9175326
_publ_section_title
;
Structure prediction by ZEFSAII (Michael W. Deem and Ramdas Pophale) SiO2 
 PCOD9175326
Probable space group: C 2/M
;
_chemical_formula_sum "Si O2"
_cell_formula_units_Z 64
_cell_length_a 17.455679
_cell_length_b 29.644131
_cell_length_c 8.640957
_cell_angle_alpha 90.000000
_cell_angle_beta 137.788188
_cell_angle_gamma 90.000000
_cell_volume 3004.171323
_symmetry_space_group_name_H-M "C 2/M"
_symmetry_group_IT_number 12
_symmetry_cell_setting 'monoclinic'
loop_
_space_group_symop_operation_xyz
x,y,z
-x,y,-z
-x,-y,-z
x,-y,z
1/2+x,1/2+y,z
1/2-x,1/2+y,-z
1/2-x,1/2-y,-z
1/2+x,1/2-y,z
loop_
_atom_site_type_symbol
_atom_site_label
_atom_site_fract_x
_atom_site_fract_y
_atom_site_fract_z
Si Si1 0.718242 0.675193 0.585217
Si Si2 0.705385 0.351650 0.904145
Si Si3 0.948647 0.694854 0.772002
Si Si4 0.602414 0.873007 0.559258
Si Si5 0.514994 0.275591 0.696788
Si Si6 0.417460 0.587283 0.731548
Si Si7 0.381578 0.448582 0.173462
Si Si8 0.270824 0.047052 0.363378
O O1 0.756996 0.665614 0.819969
O O2 0.814905 0.696950 0.621759
O O3 0.608692 0.706262 0.443070
O O4 0.660263 0.629494 0.432905
O O5 0.606776 0.316456 0.815368
O O6 0.655784 0.402184 0.797352
O O7 0.798921 0.356150 0.178160
O O8 0.949037 0.667041 0.616195
O O9 0.027926 0.738152 0.849536
O O10 0.000000 0.671403 0.000000
O O11 0.500000 0.895300 0.500000
O O12 0.652719 0.909184 0.516557
O O13 0.500000 0.256611 0.500000
O O14 0.497386 0.565477 0.720661
O O15 0.330233 0.550727 0.665795
O O16 0.500000 0.600623 0.000000
O O17 0.383919 0.500000 0.243377
O O18 0.292056 0.451294 0.897088
O O19 0.334155 0.000000 0.473710
#
# Coordination Sequence:
#
# PCOD9175326 Si02
#       8
#     8   8   8   8   8   8   8   8
#     4  11  22  39  62  91 126 164 202 254 306 370
#     4  10  22  41  65  92 131 169 203 255 315 370
#     4  12  26  43  62  90 120 159 210 264 311 372
#     4  11  23  42  66  91 121 168 211 257 313 371
#     4  10  23  42  65  90 125 161 204 252 315 377
#     4  10  18  32  58  92 128 164 203 250 310 364
#     4   9  17  32  59  94 132 168 207 247 301 375
#     4   9  18  34  58  92 126 164 210 256 304 364
#
# _framework density 21.303712999999998
#
# number of rings (size 3 to 8) (size 9 to 14) (size 15 to 20)
#    0.000    1.750    2.500    1.875    0.000    4.250 
#    0.000    5.000    0.000    0.375    0.000    0.000 
#    0.000    0.000    0.000    0.000    0.000    0.000 
#
# Total GULP energy -178357.619575 kJ/mol
# GULP energy per Si atom -5573.675612 kJ/mol
# Density = 2.125522 g / cm^3
# Si number density = 21.303713 Si / 1000 Ang^3
#
#
#
# Elastic Constant Matrix: (Units=GPa)
#
#
# Indices 1 2 3 4 5 6 
#
# 1 62.6840 31.4062 -8.7023 0.0000 14.2393 0.0000
# 2 31.4062 94.6352 22.5473 0.0000 -0.3176 0.0000
# 3 -8.7023 22.5473 64.5844 0.0000 -1.6069 0.0000
# 4 0.0000 0.0000 0.0000 -143.1113 0.0000 -36.8912
# 5 14.2393 -0.3176 -1.6069 0.0000 23.5829 0.0000
# 6 0.0000 0.0000 0.0000 -36.8912 0.0000 -9.8191
#
#
#
# Elastic Compliance Matrix: (Units=1/GPa)
#
#
# Indices 1 2 3 4 5 6 
#
# 1 0.025253 -0.009983 0.006516 0.000000 -0.014938 0.000000
# 2 -0.009983 0.015473 -0.006603 0.000000 0.005786 0.000000
# 3 0.006516 -0.006603 0.018598 0.000000 -0.002756 0.000000
# 4 0.000000 0.000000 0.000000 -0.221863 0.000000 0.833564
# 5 -0.014938 0.005786 -0.002756 0.000000 0.051313 0.000000
# 6 0.000000 0.000000 0.000000 0.833564 0.000000 -3.233626
#
#
# Mechanical properties :
#
#
# Convention : Reuss Voigt Hill
#
# Bulk Modulus (GPa) = 25.52070 34.71178 30.11624
# Shear Modulus (GPa) = -1.50982 -14.09266 -7.80124
#
# Velocity S-wave (km/s) = -0.84276 -2.57478 -1.91569
# Velocity P-wave (km/s) = 3.32543 2.73676 3.04535
#
# Compressibility (1/GPa) = 0.03918387
#
# Stress axis : x y z
#
# Youngs Moduli (GPa) = 39.59961 64.63063 53.76864
#
# Poissons Ratio (x) = 0.64522 -0.35037
# Poissons Ratio (y) = 0.39533 0.35503
# Poissons Ratio (z) = -0.25804 0.42675
#
# Static dielectric constant tensor:
#      x y z
#    x 1.762760 0.000000 -0.002870 
#    y 0.000000 1.854190 0.000000 
#    z -0.002870 0.000000 1.787050 
# 
# From -- ./inp_files/80782.got.cif
#   From: 2010.05.17/outbox.cif.g08.bks.cpg/sg12_41_cif.got.tgz:80782.got - 2010.06.03 13:09:07.
