data_PCOD9175306
_publ_section_title
;
Structure prediction by ZEFSAII (Michael W. Deem and Ramdas Pophale) SiO2 
 PCOD9175306
Probable space group: C 2/M
;
_chemical_formula_sum "Si O2"
_cell_formula_units_Z 64
_cell_length_a 18.723021
_cell_length_b 17.841561
_cell_length_c 12.164432
_cell_angle_alpha 90.000000
_cell_angle_beta 56.477770
_cell_angle_gamma 90.000000
_cell_volume 3387.627295
_symmetry_space_group_name_H-M "C 2/M"
_symmetry_group_IT_number 12
_symmetry_cell_setting 'monoclinic'
loop_
_space_group_symop_operation_xyz
x,y,z
-x,y,-z
-x,-y,-z
x,-y,z
1/2+x,1/2+y,z
1/2-x,1/2+y,-z
1/2-x,1/2-y,-z
1/2+x,1/2-y,z
loop_
_atom_site_type_symbol
_atom_site_label
_atom_site_fract_x
_atom_site_fract_y
_atom_site_fract_z
Si Si1 0.492713 0.297752 0.635779
Si Si2 0.166541 0.177555 0.624406
Si Si3 0.903048 0.132799 0.097917
Si Si4 0.357465 0.412182 0.735745
Si Si5 0.096307 0.314254 0.935473
Si Si6 0.338814 0.208681 0.887146
Si Si7 0.234180 0.918181 0.950328
Si Si8 0.742516 0.169776 0.656725
O O1 0.500000 0.275800 0.500000
O O2 0.582992 0.291983 0.625632
O O3 0.454203 0.382309 0.669915
O O4 0.415945 0.253406 0.764740
O O5 0.129308 0.125871 0.750911
O O6 0.227009 0.137196 0.484826
O O7 0.221967 0.243547 0.638033
O O8 0.898423 0.222958 0.077210
O O9 0.845866 0.089184 0.061343
O O10 0.000000 0.110108 0.000000
O O11 0.354119 0.500000 0.706607
O O12 0.314659 0.355425 0.683245
O O13 0.304339 0.404275 0.894657
O O14 0.156032 0.350931 0.793076
O O15 0.126251 0.329588 0.032384
O O16 0.000000 0.336808 0.000000
O O17 0.301206 0.141952 0.847618
O O18 0.250000 0.250000 0.000000
O O19 0.272627 0.000000 0.917932
#
# Coordination Sequence:
#
# PCOD9175306 Si02
#       8
#     8   8   8   8   8   8   8   8
#     4  12  23  38  61  97 124 158 208 261 317 368
#     4  10  22  35  59  87 122 156 206 253 304 367
#     4  10  19  34  54  81 119 155 196 244 299 363
#     4  11  22  39  62  92 132 169 202 252 319 386
#     4  10  18  32  58  87 114 147 196 253 301 340
#     4  12  20  35  62  87 116 158 206 255 299 360
#     4  11  23  37  59  88 120 162 211 256 305 367
#     4  10  19  37  57  87 126 159 197 256 300 365
#
# _framework density 18.892278999999998
#
# number of rings (size 3 to 8) (size 9 to 14) (size 15 to 20)
#    0.000    1.250    5.000    3.000    1.750    0.500 
#    0.000    1.250    0.000    4.125    0.000    0.000 
#    0.000    0.000    0.000    0.000    0.000    0.000 
#
# Total GULP energy -178149.837177 kJ/mol
# GULP energy per Si atom -5567.182412 kJ/mol
# Density = 1.884928 g / cm^3
# Si number density = 18.892279 Si / 1000 Ang^3
#
#
#
# Elastic Constant Matrix: (Units=GPa)
#
#
# Indices 1 2 3 4 5 6 
#
# 1 91.1594 27.6266 21.9164 0.0000 6.1166 0.0000
# 2 27.6266 48.0916 19.1725 0.0000 -5.4113 0.0000
# 3 21.9164 19.1725 123.2113 0.0000 6.8084 0.0000
# 4 0.0000 0.0000 0.0000 0.3866 0.0000 19.1875
# 5 6.1166 -5.4113 6.8084 0.0000 30.6363 0.0000
# 6 0.0000 0.0000 0.0000 19.1875 0.0000 -22.0188
#
#
#
# Elastic Compliance Matrix: (Units=1/GPa)
#
#
# Indices 1 2 3 4 5 6 
#
# 1 0.013915 -0.008040 -0.001004 0.000000 -0.003975 0.000000
# 2 -0.008040 0.027516 -0.003249 0.000000 0.007187 0.000000
# 3 -0.001004 -0.003249 0.008931 0.000000 -0.002358 0.000000
# 4 0.000000 0.000000 0.000000 0.058456 0.000000 0.050939
# 5 -0.003975 0.007187 -0.002358 0.000000 0.035228 0.000000
# 6 0.000000 0.000000 0.000000 0.050939 0.000000 -0.001026
#
#
# Mechanical properties :
#
#
# Convention : Reuss Voigt Hill
#
# Bulk Modulus (GPa) = 38.79732 44.43261 41.61497
# Shear Modulus (GPa) = 28.37720 14.71727 21.54723
#
# Velocity S-wave (km/s) = 3.87984 2.79410 3.38084
# Velocity P-wave (km/s) = 6.37585 5.82918 6.10863
#
# Compressibility (1/GPa) = 0.02577497
#
# Stress axis : x y z
#
# Youngs Moduli (GPa) = 71.86672 36.34207 111.97455
#
# Poissons Ratio (x) = 0.29220 0.11246
# Poissons Ratio (y) = 0.57783 0.36377
# Poissons Ratio (z) = 0.07218 0.11806
#
# Static dielectric constant tensor:
#      x y z
#    x 1.736950 0.000000 -0.014540 
#    y 0.000000 1.669460 0.000000 
#    z -0.014540 0.000000 1.699280 
# 
# From -- ./inp_files/159242.got.cif
#   From: 2010.05.17/outbox.cif.g08.bks.cpg/sg12_80_cif.got.tgz:159242.got - 2010.06.03 13:09:07.
