data_PCOD9175722
_publ_section_title
;
Structure prediction by ZEFSAII (Michael W. Deem and Ramdas Pophale) SiO2 
 PCOD9175722
Probable space group: C 2/M
;
_chemical_formula_sum "Si O2"
_cell_formula_units_Z 40
_cell_length_a 23.570898
_cell_length_b 13.554981
_cell_length_c 9.501946
_cell_angle_alpha 90.000000
_cell_angle_beta 48.715290
_cell_angle_gamma 90.000000
_cell_volume 2281.298133
_symmetry_space_group_name_H-M "C 2/M"
_symmetry_group_IT_number 12
_symmetry_cell_setting 'monoclinic'
loop_
_space_group_symop_operation_xyz
x,y,z
-x,y,-z
-x,-y,-z
x,-y,z
1/2+x,1/2+y,z
1/2-x,1/2+y,-z
1/2-x,1/2-y,-z
1/2+x,1/2-y,z
loop_
_atom_site_type_symbol
_atom_site_label
_atom_site_fract_x
_atom_site_fract_y
_atom_site_fract_z
Si Si1 0.078402 0.617725 0.529729
Si Si2 0.273704 0.211664 0.612939
Si Si3 0.255215 0.888657 0.139326
Si Si4 0.415779 0.190478 0.800819
Si Si5 0.338598 0.386951 0.994162
O O1 0.079485 0.500000 0.508987
O O2 0.147922 0.652825 0.510592
O O3 0.087677 0.667445 0.360400
O O4 0.996649 0.651521 0.718392
O O5 0.250000 0.250000 0.500000
O O6 0.280853 0.306982 0.702101
O O7 0.208755 0.144883 0.791293
O O8 0.242122 0.000000 0.209515
O O9 0.344179 0.865688 0.984013
O O10 0.219879 0.879147 0.041286
O O11 0.402029 0.305350 0.858111
O O12 0.364515 0.500000 0.960158
#
# Coordination Sequence:
#
# PCOD9175722 Si02
#       5
#     8   8   8   8   8
#     4  11  20  33  56  86 115 142 177 230 286 326
#     4  11  22  36  54  80 115 146 184 228 274 333
#     4  10  18  34  56  79 107 145 190 228 269 326
#     4  10  18  33  56  87 112 138 180 234 278 324
#     4  10  19  36  59  79 109 150 190 228 270 323
#
# _framework density 17.533877
#
# number of rings (size 3 to 8) (size 9 to 14) (size 15 to 20)
#    0.000    1.600    4.000    4.200    0.000    1.600 
#    0.000    7.000    0.000    7.200    0.000    0.000 
#    0.000    0.000    0.000    0.000    0.000    0.000 
#
# Total GULP energy -111614.870639 kJ/mol
# GULP energy per Si atom -5580.743532 kJ/mol
# Density = 1.749397 g / cm^3
# Si number density = 17.533877 Si / 1000 Ang^3
#
#
#
# Elastic Constant Matrix: (Units=GPa)
#
#
# Indices 1 2 3 4 5 6 
#
# 1 72.1394 35.0337 40.7614 0.0000 -5.9964 0.0000
# 2 35.0337 142.6564 44.8669 0.0000 -4.7776 0.0000
# 3 40.7614 44.8669 54.4237 0.0000 -8.9905 0.0000
# 4 0.0000 0.0000 0.0000 13.6186 0.0000 -3.6229
# 5 -5.9964 -4.7776 -8.9905 0.0000 26.3090 0.0000
# 6 0.0000 0.0000 0.0000 -3.6229 0.0000 17.7080
#
#
#
# Elastic Compliance Matrix: (Units=1/GPa)
#
#
# Indices 1 2 3 4 5 6 
#
# 1 0.024055 -0.000309 -0.017875 0.000000 -0.000682 0.000000
# 2 -0.000309 0.009493 -0.007760 0.000000 -0.000998 0.000000
# 3 -0.017875 -0.007760 0.039482 0.000000 0.008009 0.000000
# 4 0.000000 0.000000 0.000000 0.077656 0.000000 0.015888
# 5 -0.000682 -0.000998 0.008009 0.000000 0.040410 0.000000
# 6 0.000000 0.000000 0.000000 0.015888 0.000000 0.059722
#
#
# Mechanical properties :
#
#
# Convention : Reuss Voigt Hill
#
# Bulk Modulus (GPa) = 47.29449 56.72705 52.01077
# Shear Modulus (GPa) = 16.14201 21.43095 18.78648
#
# Velocity S-wave (km/s) = 3.03746 3.49988 3.27684
# Velocity P-wave (km/s) = 6.27163 6.98250 6.63659
#
# Compressibility (1/GPa) = 0.02114411
#
# Stress axis : x y z
#
# Youngs Moduli (GPa) = 41.57135 105.34476 25.32815
#
# Poissons Ratio (x) = 0.03250 0.45273
# Poissons Ratio (y) = 0.01283 0.19653
# Poissons Ratio (z) = 0.74307 0.81742
#
# Static dielectric constant tensor:
#      x y z
#    x 1.591420 0.000000 -0.009060 
#    y 0.000000 1.610320 0.000000 
#    z -0.009060 0.000000 1.589970 
# 
# From -- ./inp_files/72464.got.cif
#   From: 2010.05.17/outbox.cif.g08.bks.cpg/sg12_37_cif.got.tgz:72464.got - 2010.06.03 13:09:07.
