data_PCOD9175863
_publ_section_title
;
Structure prediction by ZEFSAII (Michael W. Deem and Ramdas Pophale) SiO2 
 PCOD9175863
Probable space group: C 2/M
;
_chemical_formula_sum "Si O2"
_cell_formula_units_Z 64
_cell_length_a 25.311140
_cell_length_b 7.680555
_cell_length_c 15.060674
_cell_angle_alpha 90.000000
_cell_angle_beta 91.280928
_cell_angle_gamma 90.000000
_cell_volume 2927.117635
_symmetry_space_group_name_H-M "C 2/M"
_symmetry_group_IT_number 12
_symmetry_cell_setting 'monoclinic'
loop_
_space_group_symop_operation_xyz
x,y,z
-x,y,-z
-x,-y,-z
x,-y,z
1/2+x,1/2+y,z
1/2-x,1/2+y,-z
1/2-x,1/2-y,-z
1/2+x,1/2-y,z
loop_
_atom_site_type_symbol
_atom_site_label
_atom_site_fract_x
_atom_site_fract_y
_atom_site_fract_z
Si Si1 0.395387 0.792968 0.641644
Si Si2 0.058229 0.289961 0.032577
Si Si3 0.440853 0.787312 0.465961
Si Si4 0.478270 0.212200 0.782127
Si Si5 0.813727 0.199633 0.789264
Si Si6 0.701919 0.705811 0.824964
Si Si7 0.828110 0.201822 0.987353
Si Si8 0.090348 0.289206 0.733539
O O1 0.399409 0.730252 0.540753
O O2 0.447663 0.726681 0.694318
O O3 0.346392 0.766170 0.706059
O O4 0.401482 0.000000 0.635580
O O5 0.061784 0.500000 0.023044
O O6 0.057264 0.239055 0.135778
O O7 0.109379 0.211679 0.989463
O O8 0.000000 0.237992 0.000000
O O9 0.500000 0.735594 0.500000
O O10 0.422597 0.730768 0.367579
O O11 0.442320 0.000000 0.461085
O O12 0.538890 0.267992 0.787890
O O13 0.479332 0.000000 0.781972
O O14 0.750893 0.213555 0.774361
O O15 0.830142 0.000000 0.798129
O O16 0.822209 0.282249 0.888438
O O17 0.711340 0.500000 0.830806
O O18 0.700031 0.777716 0.926480
O O19 0.645871 0.732028 0.775444
O O20 0.812168 0.000000 0.980766
O O21 0.091158 0.500000 0.734593
#
# Coordination Sequence:
#
# PCOD9175863 Si02
#       8
#     8   8   8   8   8   8   8   8
#     4  10  18  33  58  87 116 147 183 227 277 329
#     4  10  19  30  48  78 114 151 188 223 266 326
#     4   9  16  30  58  91 118 147 186 228 273 331
#     4   9  16  28  51  81 113 147 182 221 268 324
#     4  11  23  40  60  83 110 146 193 239 281 331
#     4  11  24  41  58  80 111 149 190 235 288 338
#     4  10  22  38  56  80 110 144 187 235 283 333
#     4  10  19  35  59  87 117 149 188 233 277 329
#
# _framework density 21.864512000000001
#
# number of rings (size 3 to 8) (size 9 to 14) (size 15 to 20)
#    0.000    2.000    2.500    1.875    0.000    2.750 
#    0.000    2.500    0.000    0.750    0.000    0.000 
#    0.000    0.000    0.000    0.000    0.000    0.000 
#
# Total GULP energy -178596.367718 kJ/mol
# GULP energy per Si atom -5581.136491 kJ/mol
# Density = 2.181475 g / cm^3
# Si number density = 21.864512 Si / 1000 Ang^3
#
#
#
# Elastic Constant Matrix: (Units=GPa)
#
#
# Indices 1 2 3 4 5 6 
#
# 1 125.5330 -1.7314 34.9517 0.0000 -16.8517 0.0000
# 2 -1.7314 41.6849 4.0360 0.0000 0.6934 0.0000
# 3 34.9517 4.0360 93.2465 0.0000 -17.2098 0.0000
# 4 0.0000 0.0000 0.0000 10.2498 0.0000 0.9953
# 5 -16.8517 0.6934 -17.2098 0.0000 31.4762 0.0000
# 6 0.0000 0.0000 0.0000 0.9953 0.0000 20.5393
#
#
#
# Elastic Compliance Matrix: (Units=1/GPa)
#
#
# Indices 1 2 3 4 5 6 
#
# 1 0.009222 0.000604 -0.002863 0.000000 0.003359 0.000000
# 2 0.000604 0.024173 -0.001459 0.000000 -0.001006 0.000000
# 3 -0.002863 -0.001459 0.012884 0.000000 0.005544 0.000000
# 4 0.000000 0.000000 0.000000 0.098024 0.000000 -0.004750
# 5 0.003359 -0.001006 0.005544 0.000000 0.036621 0.000000
# 6 0.000000 0.000000 0.000000 -0.004750 0.000000 0.048917
#
#
# Mechanical properties :
#
#
# Convention : Reuss Voigt Hill
#
# Bulk Modulus (GPa) = 25.74390 37.21966 31.48178
# Shear Modulus (GPa) = 19.98208 27.33361 23.65785
#
# Velocity S-wave (km/s) = 3.02637 3.53956 3.29298
# Velocity P-wave (km/s) = 4.90017 5.81072 5.37476
#
# Compressibility (1/GPa) = 0.03884416
#
# Stress axis : x y z
#
# Youngs Moduli (GPa) = 108.43144 41.36925 77.61743
#
# Poissons Ratio (x) = -0.02500 0.22223
# Poissons Ratio (y) = -0.06554 0.11321
# Poissons Ratio (z) = 0.31045 0.06034
#
# Static dielectric constant tensor:
#      x y z
#    x 1.792410 0.000000 0.005360 
#    y 0.000000 1.832090 0.000000 
#    z 0.005360 0.000000 1.848580 
# 
# From -- ./inp_files/238610.got.cif
#   From: 2010.05.17/outbox.cif.g08.bks.cpg/sg12_120_cif.got.tgz:238610.got - 2010.06.03 13:09:07.
