data_PCOD9175362
_publ_section_title
;
Structure prediction by ZEFSAII (Michael W. Deem and Ramdas Pophale) SiO2 
 PCOD9175362
Probable space group: C 2/M
;
_chemical_formula_sum "Si O2"
_cell_formula_units_Z 48
_cell_length_a 16.713811
_cell_length_b 15.069490
_cell_length_c 13.635800
_cell_angle_alpha 90.000000
_cell_angle_beta 145.815414
_cell_angle_gamma 90.000000
_cell_volume 1929.671745
_symmetry_space_group_name_H-M "C 2/M"
_symmetry_group_IT_number 12
_symmetry_cell_setting 'monoclinic'
loop_
_space_group_symop_operation_xyz
x,y,z
-x,y,-z
-x,-y,-z
x,-y,z
1/2+x,1/2+y,z
1/2-x,1/2+y,-z
1/2-x,1/2-y,-z
1/2+x,1/2-y,z
loop_
_atom_site_type_symbol
_atom_site_label
_atom_site_fract_x
_atom_site_fract_y
_atom_site_fract_z
Si Si1 0.514209 0.404873 0.215056
Si Si2 0.673934 0.640300 0.821245
Si Si3 0.190059 0.649587 0.450585
Si Si4 0.158312 0.644368 0.193927
Si Si5 0.124286 0.649386 0.791305
Si Si6 0.356069 0.342913 0.895676
O O1 0.456386 0.500000 0.124552
O O2 0.473613 0.397741 0.287851
O O3 0.680175 0.399405 0.365545
O O4 0.428678 0.324694 0.077061
O O5 0.728452 0.611052 0.770879
O O6 0.649116 0.745892 0.797594
O O7 0.794444 0.619896 0.026347
O O8 0.250000 0.750000 0.500000
O O9 0.175353 0.618628 0.323460
O O10 0.042940 0.638334 0.359214
O O11 0.165927 0.752684 0.186910
O O12 0.000000 0.619395 0.000000
O O13 0.209010 0.612309 0.781085
O O14 0.500000 0.389315 0.000000
#
# Coordination Sequence:
#
# PCOD9175362 Si02
#       6
#     8   8   8   8   8   8
#     4  11  24  40  58  84 127 165 192 238 306 367
#     4   9  17  35  55  83 111 152 200 242 287 344
#     4  12  21  35  57  90 124 156 193 250 305 350
#     4  10  18  32  60  89 115 144 196 257 288 335
#     4   9  17  32  60  84 116 147 196 249 292 343
#     4   9  19  38  61  89 114 148 202 250 291 348
#
# _framework density 24.874696
#
# number of rings (size 3 to 8) (size 9 to 14) (size 15 to 20)
#    0.000    2.000    3.333    3.000    2.333    1.000 
#    0.000    7.500    0.000    2.000    0.000    0.000 
#    0.000    0.000    0.000    0.000    0.000    0.000 
#
# Total GULP energy -133798.290619 kJ/mol
# GULP energy per Si atom -5574.928776 kJ/mol
# Density = 2.481808 g / cm^3
# Si number density = 24.874696 Si / 1000 Ang^3
#
#
#
# Elastic Constant Matrix: (Units=GPa)
#
#
# Indices 1 2 3 4 5 6 
#
# 1 181.3006 2.6854 23.0298 0.0000 54.6571 0.0000
# 2 2.6854 61.7087 -0.7095 0.0000 4.8956 0.0000
# 3 23.0298 -0.7095 80.0033 0.0000 34.7392 0.0000
# 4 0.0000 0.0000 0.0000 6.5121 0.0000 1.3164
# 5 54.6571 4.8956 34.7392 0.0000 59.8896 0.0000
# 6 0.0000 0.0000 0.0000 1.3164 0.0000 -3.4460
#
#
#
# Elastic Compliance Matrix: (Units=1/GPa)
#
#
# Indices 1 2 3 4 5 6 
#
# 1 0.007688 0.000289 0.001131 0.000000 -0.007696 0.000000
# 2 0.000289 0.016378 0.001013 0.000000 -0.002190 0.000000
# 3 0.001131 0.001013 0.016932 0.000000 -0.010937 0.000000
# 4 0.000000 0.000000 0.000000 0.142552 0.000000 0.054456
# 5 -0.007696 -0.002190 -0.010937 0.000000 0.030244 0.000000
# 6 0.000000 0.000000 0.000000 0.054456 0.000000 -0.269386
#
#
# Mechanical properties :
#
#
# Convention : Reuss Voigt Hill
#
# Bulk Modulus (GPa) = 21.80342 41.44711 31.62527
# Shear Modulus (GPa) = -110.68824 32.45827 -39.11498
#
# Velocity S-wave (km/s) = -6.67794 3.61622 -3.96975
# Velocity P-wave (km/s) = 7.11868 5.84248 2.87585
#
# Compressibility (1/GPa) = 0.04586436
#
# Stress axis : x y z
#
# Youngs Moduli (GPa) = 130.07542 61.05750 59.06084
#
# Poissons Ratio (x) = -0.01765 -0.06682
# Poissons Ratio (y) = -0.03759 -0.05983
# Poissons Ratio (z) = -0.14716 -0.06186
#
# Static dielectric constant tensor:
#      x y z
#    x 2.197510 0.000000 -0.033860 
#    y 0.000000 2.036170 0.000000 
#    z -0.033860 0.000000 1.975100 
# 
# From -- ./inp_files/226723.got.cif
#   From: 2010.05.17/outbox.cif.g08.bks.cpg/sg12_114_cif.got.tgz:226723.got - 2010.06.03 13:09:07.
