data_PCOD9175521
_publ_section_title
;
Structure prediction by ZEFSAII (Michael W. Deem and Ramdas Pophale) SiO2 
 PCOD9175521
Probable space group: C 2/M
;
_chemical_formula_sum "Si O2"
_cell_formula_units_Z 44
_cell_length_a 13.389412
_cell_length_b 17.420988
_cell_length_c 10.208590
_cell_angle_alpha 90.000000
_cell_angle_beta 53.041767
_cell_angle_gamma 90.000000
_cell_volume 1902.773310
_symmetry_space_group_name_H-M "C 2/M"
_symmetry_group_IT_number 12
_symmetry_cell_setting 'monoclinic'
loop_
_space_group_symop_operation_xyz
x,y,z
-x,y,-z
-x,-y,-z
x,-y,z
1/2+x,1/2+y,z
1/2-x,1/2+y,-z
1/2-x,1/2-y,-z
1/2+x,1/2-y,z
loop_
_atom_site_type_symbol
_atom_site_label
_atom_site_fract_x
_atom_site_fract_y
_atom_site_fract_z
Si Si1 0.633349 0.627236 0.904122
Si Si2 0.229030 0.500000 0.541469
Si Si3 0.530095 0.000000 0.148560
Si Si4 0.663882 0.673069 0.583376
Si Si5 0.388861 0.288447 0.801772
Si Si6 0.173986 0.500000 0.278992
Si Si7 0.115500 0.664473 0.002136
O O1 0.652296 0.667586 0.750306
O O2 0.746853 0.571668 0.830171
O O3 0.500000 0.585668 0.000000
O O4 0.622912 0.675995 0.043054
O O5 0.293566 0.586473 0.497546
O O6 0.181987 0.500000 0.428081
O O7 0.119858 0.500000 0.735199
O O8 0.553025 0.000000 0.286936
O O9 0.592919 0.074530 0.037253
O O10 0.750000 0.750000 0.500000
O O11 0.522880 0.687399 0.640134
O O12 0.398219 0.200382 0.840498
O O13 0.256413 0.313117 0.841837
O O14 0.000000 0.691082 0.000000
#
# Coordination Sequence:
#
# PCOD9175521 Si02
#       7
#     8   4   4   8   8   4   8
#     4   9  17  32  58  88 120 156 204 262 310 366
#     4  10  23  35  58  90 125 170 209 261 313 387
#     4  12  22  38  59  84 133 166 204 260 320 373
#     4  10  20  37  61  92 132 166 210 260 320 380
#     4  10  21  39  65  90 119 163 210 268 312 371
#     4  10  18  33  53  88 121 158 204 252 322 368
#     4  11  23  39  63  92 122 159 211 262 320 375
#
# _framework density 23.124141000000002
#
# number of rings (size 3 to 8) (size 9 to 14) (size 15 to 20)
#    0.000    1.818    1.818    3.545    0.000    2.909 
#    0.000    0.000    0.000    8.727    0.000    0.000 
#    0.000    0.000    0.000    0.000    0.000    0.000 
#
# Total GULP energy -122528.266989 kJ/mol
# GULP energy per Si atom -5569.466681 kJ/mol
# Density = 2.307151 g / cm^3
# Si number density = 23.124141 Si / 1000 Ang^3
#
#
#
# Elastic Constant Matrix: (Units=GPa)
#
#
# Indices 1 2 3 4 5 6 
#
# 1 144.4591 66.2104 49.6251 0.0000 -41.1500 0.0000
# 2 66.2104 170.5468 67.5028 0.0000 -30.8287 0.0000
# 3 49.6251 67.5028 83.9382 0.0000 -36.6223 0.0000
# 4 0.0000 0.0000 0.0000 88.4408 0.0000 -51.7485
# 5 -41.1500 -30.8287 -36.6223 0.0000 48.9201 0.0000
# 6 0.0000 0.0000 0.0000 -51.7485 0.0000 56.4915
#
#
#
# Elastic Compliance Matrix: (Units=1/GPa)
#
#
# Indices 1 2 3 4 5 6 
#
# 1 0.010205 -0.002238 -0.001639 0.000000 0.005947 0.000000
# 2 -0.002238 0.009097 -0.006404 0.000000 -0.000945 0.000000
# 3 -0.001639 -0.006404 0.023271 0.000000 0.012007 0.000000
# 4 0.000000 0.000000 0.000000 0.024368 0.000000 0.022322
# 5 0.005947 -0.000945 0.012007 0.000000 0.033837 0.000000
# 6 0.000000 0.000000 0.000000 0.022322 0.000000 0.038150
#
#
# Mechanical properties :
#
#
# Convention : Reuss Voigt Hill
#
# Bulk Modulus (GPa) = 45.43288 85.06896 65.25092
# Shear Modulus (GPa) = 29.97109 53.14422 41.55766
#
# Velocity S-wave (km/s) = 3.60404 4.79917 4.24389
# Velocity P-wave (km/s) = 6.08349 8.22053 7.23139
#
# Compressibility (1/GPa) = 0.02201049
#
# Stress axis : x y z
#
# Youngs Moduli (GPa) = 97.98890 109.93235 42.97160
#
# Poissons Ratio (x) = 0.24606 0.07042
# Poissons Ratio (y) = 0.21933 0.27520
# Poissons Ratio (z) = 0.16058 0.70403
#
# Static dielectric constant tensor:
#      x y z
#    x 1.926920 0.000000 -0.010380 
#    y 0.000000 2.012820 0.000000 
#    z -0.010380 0.000000 1.854300 
# 
# From -- ./inp_files/145382.got.cif
#   From: 2010.05.17/outbox.cif.g08.bks.cpg/sg12_73_cif.got.tgz:145382.got - 2010.06.03 13:09:07.
