data_PCOD9175558
_publ_section_title
;
Structure prediction by ZEFSAII (Michael W. Deem and Ramdas Pophale) SiO2 
 PCOD9175558
Probable space group: C 2/M
;
_chemical_formula_sum "Si O2"
_cell_formula_units_Z 56
_cell_length_a 14.590833
_cell_length_b 19.420579
_cell_length_c 10.972681
_cell_angle_alpha 90.000000
_cell_angle_beta 113.322513
_cell_angle_gamma 90.000000
_cell_volume 2855.191815
_symmetry_space_group_name_H-M "C 2/M"
_symmetry_group_IT_number 12
_symmetry_cell_setting 'monoclinic'
loop_
_space_group_symop_operation_xyz
x,y,z
-x,y,-z
-x,-y,-z
x,-y,z
1/2+x,1/2+y,z
1/2-x,1/2+y,-z
1/2-x,1/2-y,-z
1/2+x,1/2-y,z
loop_
_atom_site_type_symbol
_atom_site_label
_atom_site_fract_x
_atom_site_fract_y
_atom_site_fract_z
Si Si1 0.099480 0.777965 0.965664
Si Si2 0.585441 0.924740 0.642196
Si Si3 0.790512 0.872476 0.666205
Si Si4 0.791941 0.716551 0.766841
Si Si5 0.894379 0.179141 0.486664
Si Si6 0.117968 0.073533 0.045297
Si Si7 0.977160 0.702220 0.703323
O O1 0.053837 0.752183 0.815389
O O2 0.177145 0.727058 0.075512
O O3 0.140999 0.855909 0.985743
O O4 0.000000 0.779483 0.000000
O O5 0.500000 0.933158 0.500000
O O6 0.679347 0.899918 0.613020
O O7 0.544015 0.863247 0.703748
O O8 0.605501 0.000000 0.711167
O O9 0.791744 0.794763 0.717113
O O10 0.843452 0.866717 0.564696
O O11 0.843905 0.916821 0.797387
O O12 0.686783 0.687558 0.663688
O O13 0.885221 0.682392 0.744042
O O14 0.925827 0.253044 0.566982
O O15 0.000000 0.149772 0.500000
O O16 0.153100 0.000000 0.012506
O O17 0.000000 0.071041 0.000000
#
# Coordination Sequence:
#
# PCOD9175558 Si02
#       7
#     8   8   8   8   8   8   8
#     4   8  16  30  50  78 109 139 176 224 275 323
#     4  11  22  35  54  81 112 144 181 227 277 327
#     4  10  19  33  50  74 106 140 177 220 274 326
#     4   9  17  31  53  77 107 143 176 225 278 320
#     4  11  20  31  52  78 106 139 180 232 278 323
#     4   9  16  29  50  74 101 137 179 219 267 323
#     4  10  18  33  54  80 114 143 181 230 274 325
#
# _framework density 19.613394
#
# number of rings (size 3 to 8) (size 9 to 14) (size 15 to 20)
#    0.000    2.286    0.000    7.714    0.000    0.000 
#    0.000    7.857    0.000    5.571    0.000    0.000 
#    0.000   10.857    0.000    0.000    0.000    0.286 
#
# Total GULP energy -156020.690436 kJ/mol
# GULP energy per Si atom -5572.167516 kJ/mol
# Density = 1.956875 g / cm^3
# Si number density = 19.613394 Si / 1000 Ang^3
#
#
#
# Elastic Constant Matrix: (Units=GPa)
#
#
# Indices 1 2 3 4 5 6 
#
# 1 124.6341 44.7944 40.5341 0.0000 16.3669 0.0000
# 2 44.7944 101.6771 22.0146 0.0000 -5.9383 0.0000
# 3 40.5341 22.0146 84.9910 0.0000 28.7503 0.0000
# 4 0.0000 0.0000 0.0000 -0.3907 0.0000 -16.0503
# 5 16.3669 -5.9383 28.7503 0.0000 26.6014 0.0000
# 6 0.0000 0.0000 0.0000 -16.0503 0.0000 8.8021
#
#
#
# Elastic Compliance Matrix: (Units=1/GPa)
#
#
# Indices 1 2 3 4 5 6 
#
# 1 0.011191 -0.004772 -0.002225 0.000000 -0.005546 0.000000
# 2 -0.004772 0.013750 -0.005229 0.000000 0.011657 0.000000
# 3 -0.002225 -0.005229 0.022247 0.000000 -0.023842 0.000000
# 4 0.000000 0.000000 0.000000 -0.033718 0.000000 -0.061483
# 5 -0.005546 0.011657 -0.023842 0.000000 0.069375 0.000000
# 6 0.000000 0.000000 0.000000 -0.061483 0.000000 0.001497
#
#
# Mechanical properties :
#
#
# Convention : Reuss Voigt Hill
#
# Bulk Modulus (GPa) = 43.98421 58.44316 51.21369
# Shear Modulus (GPa) = 42.96573 20.59983 31.78278
#
# Velocity S-wave (km/s) = 4.68550 3.24434 4.02986
# Velocity P-wave (km/s) = 7.19348 6.62545 6.91530
#
# Compressibility (1/GPa) = 0.02273543
#
# Stress axis : x y z
#
# Youngs Moduli (GPa) = 89.36130 72.72491 44.95057
#
# Poissons Ratio (x) = 0.34706 0.10001
# Poissons Ratio (y) = 0.42645 0.23505
# Poissons Ratio (z) = 0.19882 0.38028
#
# Static dielectric constant tensor:
#      x y z
#    x 1.704950 0.000000 -0.018580 
#    y 0.000000 1.736960 0.000000 
#    z -0.018580 0.000000 1.694680 
# 
# From -- ./inp_files/146240.got.cif
#   From: 2010.05.17/outbox.cif.g08.bks.cpg/sg12_74_cif.got.tgz:146240.got - 2010.06.03 13:09:07.
