data_PCOD9175170
_publ_section_title
;
Structure prediction by ZEFSAII (Michael W. Deem and Ramdas Pophale) SiO2 
 PCOD9175170
Probable space group: C 2/M
;
_chemical_formula_sum "Si O2"
_cell_formula_units_Z 56
_cell_length_a 24.426851
_cell_length_b 8.609445
_cell_length_c 15.275944
_cell_angle_alpha 90.000000
_cell_angle_beta 61.330045
_cell_angle_gamma 90.000000
_cell_volume 2818.689710
_symmetry_space_group_name_H-M "C 2/M"
_symmetry_group_IT_number 12
_symmetry_cell_setting 'monoclinic'
loop_
_space_group_symop_operation_xyz
x,y,z
-x,y,-z
-x,-y,-z
x,-y,z
1/2+x,1/2+y,z
1/2-x,1/2+y,-z
1/2-x,1/2-y,-z
1/2+x,1/2-y,z
loop_
_atom_site_type_symbol
_atom_site_label
_atom_site_fract_x
_atom_site_fract_y
_atom_site_fract_z
Si Si1 0.239220 0.180673 0.778880
Si Si2 0.935104 0.311614 0.812448
Si Si3 0.133767 0.822691 0.293228
Si Si4 0.191299 0.685581 0.988778
Si Si5 0.289083 0.813308 0.387188
Si Si6 0.932423 0.675371 0.507154
Si Si7 0.929361 0.315890 0.301975
O O1 0.308131 0.209715 0.764460
O O2 0.195179 0.253736 0.886537
O O3 0.237619 0.263477 0.686194
O O4 0.226635 0.000000 0.777523
O O5 0.936384 0.500000 0.800190
O O6 0.919558 0.231454 0.732176
O O7 0.004600 0.260870 0.788463
O O8 0.875797 0.272080 0.918219
O O9 0.109564 0.797719 0.409871
O O10 0.152065 0.000000 0.262915
O O11 0.196415 0.500000 0.985490
O O12 0.250000 0.750000 0.000000
O O13 0.250000 0.750000 0.500000
O O14 0.360992 0.753019 0.331837
O O15 0.289365 0.000000 0.394223
O O16 0.906600 0.500000 0.540769
O O17 0.935992 0.701219 0.401559
O O18 0.000000 0.678884 0.500000
O O19 0.926388 0.500000 0.284434
#
# Coordination Sequence:
#
# PCOD9175170 Si02
#       7
#     8   8   8   8   8   8   8
#     4  12  25  42  63  86 121 167 214 261 313 371
#     4  10  20  38  61  87 120 160 199 241 306 380
#     4  12  23  34  54  87 124 156 199 256 313 367
#     4  11  22  37  63  95 127 161 204 257 315 376
#     4  11  23  42  67  94 125 163 212 261 308 369
#     4  10  18  32  56  83 118 159 199 238 297 378
#     4   9  19  37  61  87 117 160 205 249 301 369
#
# _framework density 19.867387999999998
#
# number of rings (size 3 to 8) (size 9 to 14) (size 15 to 20)
#    0.000    1.286    2.857    4.286    0.000    2.000 
#    0.000    2.857    0.000    4.286    0.000    0.000 
#    0.000    0.000    0.000    0.000    0.000    0.000 
#
# Total GULP energy -156317.808962 kJ/mol
# GULP energy per Si atom -5582.778891 kJ/mol
# Density = 1.982217 g / cm^3
# Si number density = 19.867388 Si / 1000 Ang^3
#
#
#
# Elastic Constant Matrix: (Units=GPa)
#
#
# Indices 1 2 3 4 5 6 
#
# 1 89.9745 13.5392 33.1499 0.0000 -18.5972 0.0000
# 2 13.5392 54.4699 36.9843 0.0000 -5.3446 0.0000
# 3 33.1499 36.9843 104.9917 0.0000 -17.5748 0.0000
# 4 0.0000 0.0000 0.0000 29.8361 0.0000 -0.1732
# 5 -18.5972 -5.3446 -17.5748 0.0000 34.4003 0.0000
# 6 0.0000 0.0000 0.0000 -0.1732 0.0000 20.3995
#
#
#
# Elastic Compliance Matrix: (Units=1/GPa)
#
#
# Indices 1 2 3 4 5 6 
#
# 1 0.013518 -0.000722 -0.003072 0.000000 0.005626 0.000000
# 2 -0.000722 0.024182 -0.008449 0.000000 -0.000950 0.000000
# 3 -0.003072 -0.008449 0.014186 0.000000 0.004274 0.000000
# 4 0.000000 0.000000 0.000000 0.033518 0.000000 0.000285
# 5 0.005626 -0.000950 0.004274 0.000000 0.034147 0.000000
# 6 0.000000 0.000000 0.000000 0.000285 0.000000 0.049023
#
#
# Mechanical properties :
#
#
# Convention : Reuss Voigt Hill
#
# Bulk Modulus (GPa) = 36.49750 46.30922 41.40336
# Shear Modulus (GPa) = 24.72871 27.97805 26.35338
#
# Velocity S-wave (km/s) = 3.53184 3.75672 3.64602
# Velocity P-wave (km/s) = 5.91966 6.49439 6.21367
#
# Compressibility (1/GPa) = 0.02739914
#
# Stress axis : x y z
#
# Youngs Moduli (GPa) = 73.97760 41.35303 70.49059
#
# Poissons Ratio (x) = 0.02987 0.21654
# Poissons Ratio (y) = 0.05343 0.59560
# Poissons Ratio (z) = 0.22725 0.34941
#
# Static dielectric constant tensor:
#      x y z
#    x 1.720210 0.000000 -0.037440 
#    y 0.000000 1.677160 0.000000 
#    z -0.037440 0.000000 1.723420 
# 
# From -- ./inp_files/238406.got.cif
#   From: 2010.05.17/outbox.cif.g08.bks.cpg/sg12_120_cif.got.tgz:238406.got - 2010.06.03 13:09:07.
