data_PCOD9175678
_publ_section_title
;
Structure prediction by ZEFSAII (Michael W. Deem and Ramdas Pophale) SiO2 
 PCOD9175678
Probable space group: C 2/M
;
_chemical_formula_sum "Si O2"
_cell_formula_units_Z 44
_cell_length_a 12.229855
_cell_length_b 28.361137
_cell_length_c 15.187116
_cell_angle_alpha 90.000000
_cell_angle_beta 152.787314
_cell_angle_gamma 90.000000
_cell_volume 2408.887735
_symmetry_space_group_name_H-M "C 2/M"
_symmetry_group_IT_number 12
_symmetry_cell_setting 'monoclinic'
loop_
_space_group_symop_operation_xyz
x,y,z
-x,y,-z
-x,-y,-z
x,-y,z
1/2+x,1/2+y,z
1/2-x,1/2+y,-z
1/2-x,1/2-y,-z
1/2+x,1/2-y,z
loop_
_atom_site_type_symbol
_atom_site_label
_atom_site_fract_x
_atom_site_fract_y
_atom_site_fract_z
Si Si1 0.246000 0.183018 0.210178
Si Si2 0.717877 0.274008 0.881729
Si Si3 0.000000 0.354805 0.000000
Si Si4 0.324061 0.500000 0.455706
Si Si5 0.776912 0.833072 0.598416
Si Si6 0.929116 0.082255 0.263576
Si Si7 0.614847 0.000000 0.982491
O O1 0.246774 0.235136 0.168345
O O2 0.233466 0.181040 0.306462
O O3 0.505893 0.163133 0.370232
O O4 0.000000 0.159776 0.000000
O O5 0.901441 0.318091 0.002943
O O6 0.450415 0.294337 0.679543
O O7 0.750000 0.250000 0.000000
O O8 0.767752 0.388403 0.819058
O O9 0.500000 0.500000 0.500000
O O10 0.394727 0.547231 0.558490
O O11 0.067626 0.500000 0.227840
O O12 0.916428 0.881382 0.681589
O O13 0.771036 0.047113 0.091888
O O14 0.500000 0.000000 0.000000
#
# Coordination Sequence:
#
# PCOD9175678 Si02
#       7
#     8   8   4   4   8   8   4
#     4  11  21  39  58  80 116 165 205 252 288 328
#     4  11  19  36  57  84 118 165 205 242 297 338
#     4  10  18  33  56  80 128 152 192 243 278 348
#     4  11  19  36  61  85 122 148 184 228 307 374
#     4  10  23  37  59  85 121 155 208 248 289 352
#     4  10  21  37  57  93 120 155 184 237 303 360
#     4  11  19  38  63  85 128 148 178 240 309 372
#
# _framework density 18.265691
#
# number of rings (size 3 to 8) (size 9 to 14) (size 15 to 20)
#    0.000    1.455    5.455    0.545    0.000    1.455 
#    3.273    0.000   20.000    8.727    0.000   10.182 
#    0.000    0.000    0.000    0.000    0.000    0.000 
#
# Total GULP energy -122504.543702 kJ/mol
# GULP energy per Si atom -5568.388350 kJ/mol
# Density = 1.822412 g / cm^3
# Si number density = 18.265691 Si / 1000 Ang^3
#
#
#
# Elastic Constant Matrix: (Units=GPa)
#
#
# Indices 1 2 3 4 5 6 
#
# 1 75.0829 55.9678 45.0024 0.0001 16.4868 -0.0001
# 2 55.9678 124.4111 61.6637 0.0000 7.1426 0.0000
# 3 45.0024 61.6637 157.6675 0.0005 21.3394 0.0001
# 4 0.0001 0.0000 0.0005 7.9643 0.0003 3.3001
# 5 16.4868 7.1426 21.3394 0.0003 35.4157 0.0000
# 6 -0.0001 0.0000 0.0001 3.3001 0.0000 1.0907
#
#
#
# Elastic Compliance Matrix: (Units=1/GPa)
#
#
# Indices 1 2 3 4 5 6 
#
# 1 0.022761 -0.008798 -0.002027 0.000003 -0.007600 -0.000008
# 2 -0.008798 0.013376 -0.003168 -0.000001 0.003307 0.000004
# 3 -0.002027 -0.003168 0.008651 0.000000 -0.003630 -0.000002
# 4 0.000003 -0.000001 0.000000 -0.494892 0.000002 1.497369
# 5 -0.007600 0.003307 -0.003630 0.000002 0.033295 -0.000006
# 6 -0.000008 0.000004 -0.000002 1.497369 -0.000006 -3.613681
#
#
# Mechanical properties :
#
#
# Convention : Reuss Voigt Hill
#
# Bulk Modulus (GPa) = 59.51571 75.82548 67.67059
# Shear Modulus (GPa) = -1.25097 21.86265 10.30584
#
# Velocity S-wave (km/s) = -0.82847 3.46341 2.37791
# Velocity P-wave (km/s) = 5.63373 7.58922 6.68338
#
# Compressibility (1/GPa) = 0.01680229
#
# Stress axis : x y z
#
# Youngs Moduli (GPa) = 43.93571 74.76061 115.59076
#
# Poissons Ratio (x) = 0.65776 0.23429
# Poissons Ratio (y) = 0.38655 0.36615
# Poissons Ratio (z) = 0.08905 0.23682
#
# Static dielectric constant tensor:
#      x y z
#    x 1.639830 0.000000 0.047600 
#    y 0.000000 1.641740 0.000000 
#    z 0.047600 0.000000 1.663590 
# 
# From -- ./inp_files/209237.got.cif
#   From: 2010.05.17/outbox.cif.g08.bks.cpg/sg12_105_cif.got.tgz:209237.got - 2010.06.03 13:09:07.
