data_PCOD9175147
_publ_section_title
;
Structure prediction by ZEFSAII (Michael W. Deem and Ramdas Pophale) SiO2 
 PCOD9175147
Probable space group: C 2/M
;
_chemical_formula_sum "Si O2"
_cell_formula_units_Z 48
_cell_length_a 24.151653
_cell_length_b 7.443386
_cell_length_c 12.420946
_cell_angle_alpha 90.000000
_cell_angle_beta 67.419107
_cell_angle_gamma 90.000000
_cell_volume 2061.735436
_symmetry_space_group_name_H-M "C 2/M"
_symmetry_group_IT_number 12
_symmetry_cell_setting 'monoclinic'
loop_
_space_group_symop_operation_xyz
x,y,z
-x,y,-z
-x,-y,-z
x,-y,z
1/2+x,1/2+y,z
1/2-x,1/2+y,-z
1/2-x,1/2-y,-z
1/2+x,1/2-y,z
loop_
_atom_site_type_symbol
_atom_site_label
_atom_site_fract_x
_atom_site_fract_y
_atom_site_fract_z
Si Si1 0.509868 0.781432 0.616050
Si Si2 0.329303 0.708782 0.245416
Si Si3 0.108338 0.280919 0.166230
Si Si4 0.644387 0.783432 0.540212
Si Si5 0.934804 0.293235 0.026259
Si Si6 0.297318 0.220016 0.729540
O O1 0.500000 0.727335 0.500000
O O2 0.453654 0.726260 0.729600
O O3 0.575526 0.721394 0.603354
O O4 0.510231 0.000000 0.617614
O O5 0.334972 0.500000 0.215861
O O6 0.320152 0.727096 0.380004
O O7 0.391602 0.792744 0.161034
O O8 0.271326 0.781247 0.226437
O O9 0.111786 0.500000 0.166758
O O10 0.164324 0.219799 0.196488
O O11 0.102178 0.219237 0.047873
O O12 0.670428 0.724722 0.405992
O O13 0.644385 0.000000 0.538368
O O14 0.947157 0.500000 0.986017
O O15 0.000000 0.210873 0.000000
O O16 0.296697 0.000000 0.729543
#
# Coordination Sequence:
#
# PCOD9175147 Si02
#       6
#     8   8   8   8   8   8
#     4   9  14  24  49  84 108 124 160 217 271 308
#     4  11  23  36  51  75 110 148 182 212 259 319
#     4   9  16  29  51  80 110 134 167 221 271 309
#     4  10  18  32  56  82 108 138 180 224 263 307
#     4  10  21  38  59  82 104 131 176 227 269 312
#     4   9  18  32  51  79 110 141 176 218 265 316
#
# _framework density 23.281358999999998
#
# number of rings (size 3 to 8) (size 9 to 14) (size 15 to 20)
#    0.000    2.333    1.667    2.000    0.000    3.667 
#    0.000    0.833    0.000    2.500    0.000    0.000 
#    0.000    0.000    0.000    0.000    0.000    0.000 
#
# Total GULP energy -134106.581751 kJ/mol
# GULP energy per Si atom -5587.774240 kJ/mol
# Density = 2.322837 g / cm^3
# Si number density = 23.281359 Si / 1000 Ang^3
#
#
#
# Elastic Constant Matrix: (Units=GPa)
#
#
# Indices 1 2 3 4 5 6 
#
# 1 168.6509 9.0428 39.1641 0.0000 6.2084 0.0000
# 2 9.0428 70.0458 -4.2922 0.0000 0.0426 0.0000
# 3 39.1641 -4.2922 71.3936 0.0000 18.8009 0.0000
# 4 0.0000 0.0000 0.0000 0.5055 0.0000 10.6802
# 5 6.2084 0.0426 18.8009 0.0000 38.3766 0.0000
# 6 0.0000 0.0000 0.0000 10.6802 0.0000 3.7639
#
#
#
# Elastic Compliance Matrix: (Units=1/GPa)
#
#
# Indices 1 2 3 4 5 6 
#
# 1 0.006908 -0.001143 -0.004092 0.000000 0.000889 0.000000
# 2 -0.001143 0.014527 0.001672 0.000000 -0.000650 0.000000
# 3 -0.004092 0.001672 0.018575 0.000000 -0.008440 0.000000
# 4 0.000000 0.000000 0.000000 -0.033558 0.000000 0.095220
# 5 0.000889 -0.000650 -0.008440 0.000000 0.030049 0.000000
# 6 0.000000 0.000000 0.000000 0.095220 0.000000 -0.004507
#
#
# Mechanical properties :
#
#
# Convention : Reuss Voigt Hill
#
# Bulk Modulus (GPa) = 30.41165 44.21332 37.31248
# Shear Modulus (GPa) = 99.83328 26.27424 63.05376
#
# Velocity S-wave (km/s) = 6.55548 3.36304 5.20981
# Velocity P-wave (km/s) = 8.38988 5.84056 7.22849
#
# Compressibility (1/GPa) = 0.03288214
#
# Stress axis : x y z
#
# Youngs Moduli (GPa) = 144.75280 68.83839 53.83627
#
# Poissons Ratio (x) = 0.07869 0.22032
# Poissons Ratio (y) = 0.16548 -0.09000
# Poissons Ratio (z) = 0.59239 -0.11507
#
# Static dielectric constant tensor:
#      x y z
#    x 1.871600 0.000000 0.005360 
#    y 0.000000 1.909490 0.000000 
#    z 0.005360 0.000000 1.827630 
# 
# From -- ./inp_files/164720.got.cif
#   From: 2010.05.17/outbox.cif.g08.bks.cpg/sg12_83_cif.got.tgz:164720.got - 2010.06.03 13:09:07.
