data_PCOD9175532
_publ_section_title
;
Structure prediction by ZEFSAII (Michael W. Deem and Ramdas Pophale) SiO2 
 PCOD9175532
Probable space group: C 2/M
;
_chemical_formula_sum "Si O2"
_cell_formula_units_Z 56
_cell_length_a 29.547583
_cell_length_b 7.702191
_cell_length_c 14.971472
_cell_angle_alpha 90.000000
_cell_angle_beta 119.730138
_cell_angle_gamma 90.000000
_cell_volume 2958.734180
_symmetry_space_group_name_H-M "C 2/M"
_symmetry_group_IT_number 12
_symmetry_cell_setting 'monoclinic'
loop_
_space_group_symop_operation_xyz
x,y,z
-x,y,-z
-x,-y,-z
x,-y,z
1/2+x,1/2+y,z
1/2-x,1/2+y,-z
1/2-x,1/2-y,-z
1/2+x,1/2-y,z
loop_
_atom_site_type_symbol
_atom_site_label
_atom_site_fract_x
_atom_site_fract_y
_atom_site_fract_z
Si Si1 0.945156 0.787521 0.901055
Si Si2 0.579340 0.800925 0.814116
Si Si3 0.754827 0.793034 0.110119
Si Si4 0.550282 0.713737 0.489775
Si Si5 0.639258 0.699424 0.701973
Si Si6 0.035571 0.798231 0.274107
Si Si7 0.141313 0.794686 0.043000
O O1 0.941589 0.723999 0.795400
O O2 0.895991 0.735488 0.913209
O O3 0.946324 0.000000 0.899755
O O4 0.000000 0.733181 0.000000
O O5 0.600935 0.703060 0.749565
O O6 0.526719 0.715245 0.797847
O O7 0.568749 0.000000 0.779552
O O8 0.621780 0.793826 0.933367
O O9 0.806904 0.720753 0.208876
O O10 0.702633 0.736763 0.109908
O O11 0.758672 0.000000 0.116812
O O12 0.750000 0.750000 0.000000
O O13 0.500000 0.766152 0.500000
O O14 0.549706 0.500000 0.489853
O O15 0.603862 0.774522 0.588331
O O16 0.546717 0.773647 0.383711
O O17 0.650342 0.500000 0.687704
O O18 0.051105 0.000000 0.292731
O O19 0.132716 0.000000 0.023004
#
# Coordination Sequence:
#
# PCOD9175532 Si02
#       7
#     8   8   8   8   8   8   8
#     4   9  17  30  52  78 100 131 170 210 257 303
#     4  12  22  30  47  77 109 137 169 205 254 311
#     4  11  22  34  52  76 105 137 172 209 257 307
#     4   9  16  28  53  81  99 128 173 212 249 297
#     4  10  20  35  52  73 103 139 171 206 251 302
#     4  10  18  33  54  75 104 136 173 212 249 302
#     4  11  21  35  53  73 103 138 174 213 254 302
#
# _framework density 18.927014
#
# number of rings (size 3 to 8) (size 9 to 14) (size 15 to 20)
#    0.000    1.714    4.286    2.143    0.000    0.571 
#    0.000    3.571    0.000    0.857    0.000    0.000 
#    0.000    0.000    0.000    0.000    0.000    0.286 
#
# Total GULP energy -156227.941806 kJ/mol
# GULP energy per Si atom -5579.569350 kJ/mol
# Density = 1.888394 g / cm^3
# Si number density = 18.927014 Si / 1000 Ang^3
#
#
#
# Elastic Constant Matrix: (Units=GPa)
#
#
# Indices 1 2 3 4 5 6 
#
# 1 100.2232 3.1360 44.7579 0.0000 1.4046 0.0000
# 2 3.1360 43.4147 10.3994 0.0000 -1.3860 0.0000
# 3 44.7579 10.3994 123.6486 0.0000 0.6261 0.0000
# 4 0.0000 0.0000 0.0000 2.1081 0.0000 8.4031
# 5 1.4046 -1.3860 0.6261 0.0000 30.1355 0.0000
# 6 0.0000 0.0000 0.0000 8.4031 0.0000 7.4050
#
#
#
# Elastic Compliance Matrix: (Units=1/GPa)
#
#
# Indices 1 2 3 4 5 6 
#
# 1 0.011909 0.000160 -0.004322 0.000000 -0.000458 0.000000
# 2 0.000160 0.023547 -0.002044 0.000000 0.001118 0.000000
# 3 -0.004322 -0.002044 0.009824 0.000000 -0.000097 0.000000
# 4 0.000000 0.000000 0.000000 -0.134633 0.000000 0.152780
# 5 -0.000458 0.001118 -0.000097 0.000000 0.033258 0.000000
# 6 0.000000 0.000000 0.000000 0.152780 0.000000 -0.038329
#
#
# Mechanical properties :
#
#
# Convention : Reuss Voigt Hill
#
# Bulk Modulus (GPa) = 30.42340 42.65256 36.53798
# Shear Modulus (GPa) = -70.36875 21.86260 -24.25308
#
# Velocity S-wave (km/s) = -6.10407 3.40236 -3.58355
# Velocity P-wave (km/s) = 5.79402 6.16595 1.49136
#
# Compressibility (1/GPa) = 0.03286943
#
# Stress axis : x y z
#
# Youngs Moduli (GPa) = 83.96811 42.46744 101.78807
#
# Poissons Ratio (x) = -0.00681 0.43993
# Poissons Ratio (y) = -0.01347 0.20807
# Poissons Ratio (z) = 0.36291 0.08681
#
# Static dielectric constant tensor:
#      x y z
#    x 1.631490 0.000000 0.008530 
#    y 0.000000 1.722280 0.000000 
#    z 0.008530 0.000000 1.674430 
# 
# From -- ./inp_files/248589.got.cif
#   From: 2010.05.17/outbox.cif.g08.bks.cpg/sg12_125_cif.got.tgz:248589.got - 2010.06.03 13:09:07.
