data_PCOD9175094
_publ_section_title
;
Structure prediction by ZEFSAII (Michael W. Deem and Ramdas Pophale) SiO2 
 PCOD9175094
Probable space group: C 2/M
;
_chemical_formula_sum "Si O2"
_cell_formula_units_Z 56
_cell_length_a 19.755006
_cell_length_b 8.729598
_cell_length_c 17.467395
_cell_angle_alpha 90.000000
_cell_angle_beta 88.171977
_cell_angle_gamma 90.000000
_cell_volume 3010.776196
_symmetry_space_group_name_H-M "C 2/M"
_symmetry_group_IT_number 12
_symmetry_cell_setting 'monoclinic'
loop_
_space_group_symop_operation_xyz
x,y,z
-x,y,-z
-x,-y,-z
x,-y,z
1/2+x,1/2+y,z
1/2-x,1/2+y,-z
1/2-x,1/2-y,-z
1/2+x,1/2-y,z
loop_
_atom_site_type_symbol
_atom_site_label
_atom_site_fract_x
_atom_site_fract_y
_atom_site_fract_z
Si Si1 0.264139 0.678376 0.263693
Si Si2 0.450207 0.315111 0.071970
Si Si3 0.720494 0.181762 0.578562
Si Si4 0.101418 0.180461 0.663074
Si Si5 0.655776 0.681632 0.165197
Si Si6 0.825139 0.681039 0.996960
Si Si7 0.484837 0.314014 0.769129
O O1 0.247017 0.500000 0.255544
O O2 0.243822 0.741903 0.348412
O O3 0.345729 0.690634 0.266854
O O4 0.226738 0.774031 0.200656
O O5 0.446620 0.500000 0.072262
O O6 0.481735 0.265109 0.151636
O O7 0.500000 0.270607 0.000000
O O8 0.375999 0.250244 0.057513
O O9 0.750000 0.250000 0.500000
O O10 0.641881 0.229450 0.596063
O O11 0.727800 0.000000 0.580381
O O12 0.029846 0.239125 0.695998
O O13 0.098209 0.000000 0.642534
O O14 0.652283 0.500000 0.149887
O O15 0.645960 0.770549 0.086776
O O16 0.594252 0.724150 0.224162
O O17 0.821365 0.500000 0.005356
O O18 0.750000 0.750000 0.000000
O O19 0.489473 0.500000 0.767051
#
# Coordination Sequence:
#
# PCOD9175094 Si02
#       7
#     8   8   8   8   8   8   8
#     4   9  19  34  53  80 112 143 176 218 265 317
#     4  10  19  37  59  79 106 144 186 228 279 335
#     4  10  18  32  55  84 113 143 179 222 268 319
#     4   8  17  33  53  80 109 141 180 218 263 319
#     4  11  21  37  57  79 106 143 183 221 273 331
#     4  12  26  40  54  76 106 141 184 237 285 334
#     4   9  18  34  57  79 106 144 182 222 268 327
#
# _framework density 18.599854000000001
#
# number of rings (size 3 to 8) (size 9 to 14) (size 15 to 20)
#    0.857    1.286    1.429    3.000    2.000    0.286 
#    0.000    2.143    0.000    0.857    0.000    6.000 
#    0.000    0.000    0.000    0.000    0.000    0.000 
#
# Total GULP energy -156024.869105 kJ/mol
# GULP energy per Si atom -5572.316754 kJ/mol
# Density = 1.855752 g / cm^3
# Si number density = 18.599854 Si / 1000 Ang^3
#
#
#
# Elastic Constant Matrix: (Units=GPa)
#
#
# Indices 1 2 3 4 5 6 
#
# 1 60.0356 13.5446 -10.3956 0.0000 -17.6723 0.0000
# 2 13.5446 41.2905 -4.8337 0.0000 -6.7122 0.0000
# 3 -10.3956 -4.8337 21.6302 0.0000 -14.7706 0.0000
# 4 0.0000 0.0000 0.0000 25.3561 0.0000 1.4512
# 5 -17.6723 -6.7122 -14.7706 0.0000 32.0528 0.0000
# 6 0.0000 0.0000 0.0000 1.4512 0.0000 19.5193
#
#
#
# Elastic Compliance Matrix: (Units=1/GPa)
#
#
# Indices 1 2 3 4 5 6 
#
# 1 0.036893 0.000072 0.046179 0.000000 0.041636 0.000000
# 2 0.000072 0.028054 0.015092 0.000000 0.012869 0.000000
# 3 0.046179 0.015092 0.133284 0.000000 0.090041 0.000000
# 4 0.000000 0.000000 0.000000 0.039607 0.000000 -0.002945
# 5 0.041636 0.012869 0.090041 0.000000 0.098342 0.000000
# 6 0.000000 0.000000 0.000000 -0.002945 0.000000 0.051450
#
#
# Mechanical properties :
#
#
# Convention : Reuss Voigt Hill
#
# Bulk Modulus (GPa) = 3.11607 13.28743 8.20175
# Shear Modulus (GPa) = 13.44392 23.69505 18.56949
#
# Velocity S-wave (km/s) = 2.69141 3.57310 3.16312
# Velocity P-wave (km/s) = 3.36707 4.91752 4.21422
#
# Compressibility (1/GPa) = 0.32091757
#
# Stress axis : x y z
#
# Youngs Moduli (GPa) = 27.10549 35.64593 7.50278
#
# Poissons Ratio (x) = -0.00258 -0.34647
# Poissons Ratio (y) = -0.00196 -0.11323
# Poissons Ratio (z) = -1.25171 -0.53797
#
# Static dielectric constant tensor:
#      x y z
#    x 1.675510 0.000000 -0.023240 
#    y 0.000000 1.626270 0.000000 
#    z -0.023240 0.000000 1.651200 
# 
# From -- ./inp_files/280339.got.cif
#   From: 2010.05.17/outbox.cif.g08.bks.cpg/sg12_141_cif.got.tgz:280339.got - 2010.06.03 13:09:07.
