data_PCOD9175666
_publ_section_title
;
Structure prediction by ZEFSAII (Michael W. Deem and Ramdas Pophale) SiO2 
 PCOD9175666
Probable space group: C 2/M
;
_chemical_formula_sum "Si O2"
_cell_formula_units_Z 56
_cell_length_a 13.504482
_cell_length_b 20.120330
_cell_length_c 16.915738
_cell_angle_alpha 90.000000
_cell_angle_beta 47.071408
_cell_angle_gamma 90.000000
_cell_volume 3365.391160
_symmetry_space_group_name_H-M "C 2/M"
_symmetry_group_IT_number 12
_symmetry_cell_setting 'monoclinic'
loop_
_space_group_symop_operation_xyz
x,y,z
-x,y,-z
-x,-y,-z
x,-y,z
1/2+x,1/2+y,z
1/2-x,1/2+y,-z
1/2-x,1/2-y,-z
1/2+x,1/2-y,z
loop_
_atom_site_type_symbol
_atom_site_label
_atom_site_fract_x
_atom_site_fract_y
_atom_site_fract_z
Si Si1 0.704102 0.572820 0.990973
Si Si2 0.154418 0.825962 0.886293
Si Si3 0.097307 0.076988 0.774728
Si Si4 0.815973 0.806724 0.760328
Si Si5 0.624414 0.673872 0.621141
Si Si6 0.653650 0.923843 0.926588
Si Si7 0.653966 0.277694 0.434586
O O1 0.702581 0.500000 0.952255
O O2 0.561443 0.578196 0.115034
O O3 0.815583 0.575807 0.997289
O O4 0.719773 0.630417 0.919858
O O5 0.158732 0.871672 0.805312
O O6 0.228734 0.756917 0.832968
O O7 0.000000 0.815891 0.000000
O O8 0.121422 0.106771 0.674444
O O9 0.141579 0.000000 0.757591
O O10 0.753809 0.873151 0.830416
O O11 0.808748 0.810221 0.669121
O O12 0.970331 0.798450 0.706709
O O13 0.652108 0.673269 0.511646
O O14 0.737444 0.721459 0.599559
O O15 0.670120 0.000000 0.889127
O O16 0.500000 0.902437 0.000000
O O17 0.500000 0.252101 0.500000
#
# Coordination Sequence:
#
# PCOD9175666 Si02
#       7
#     8   8   8   8   8   8   8
#     4   9  18  33  49  72 109 144 177 218 263 312
#     4  10  20  32  50  83 111 140 178 220 267 310
#     4  10  18  33  56  79 106 138 178 219 265 321
#     4  11  20  33  54  80 107 138 183 226 261 319
#     4  10  19  35  56  80 101 141 176 216 280 321
#     4  10  21  35  50  72 109 154 183 212 263 315
#     4   9  20  36  55  78 105 131 172 226 280 326
#
# _framework density 16.639968
#
# number of rings (size 3 to 8) (size 9 to 14) (size 15 to 20)
#    0.000    2.143    2.857    0.857    0.000    3.429 
#    0.000    0.714    0.000    3.000    0.000    0.000 
#    0.000    0.000    0.000    0.000    0.000    0.000 
#
# Total GULP energy -155919.143575 kJ/mol
# GULP energy per Si atom -5568.540842 kJ/mol
# Density = 1.660209 g / cm^3
# Si number density = 16.639968 Si / 1000 Ang^3
#
#
#
# Elastic Constant Matrix: (Units=GPa)
#
#
# Indices 1 2 3 4 5 6 
#
# 1 77.5246 20.9055 32.7340 -0.0001 -0.5049 0.0001
# 2 20.9055 70.7840 47.4474 -0.0001 7.7370 0.0001
# 3 32.7340 47.4474 69.6284 -0.0002 12.1687 0.0002
# 4 -0.0001 -0.0001 -0.0002 10.5992 0.0001 2.7319
# 5 -0.5049 7.7370 12.1687 0.0001 21.3282 -0.0001
# 6 0.0001 0.0001 0.0002 2.7319 -0.0001 18.7096
#
#
#
# Elastic Compliance Matrix: (Units=1/GPa)
#
#
# Indices 1 2 3 4 5 6 
#
# 1 0.016652 0.000685 -0.009242 0.000000 0.005419 0.000000
# 2 0.000685 0.026046 -0.018241 0.000000 0.000975 0.000000
# 3 -0.009242 -0.018241 0.033344 0.000001 -0.012626 0.000000
# 4 0.000000 0.000000 0.000001 0.098037 -0.000001 -0.014315
# 5 0.005419 0.000975 -0.012626 -0.000001 0.053864 0.000001
# 6 0.000000 0.000000 0.000000 -0.014315 0.000001 0.055539
#
#
# Mechanical properties :
#
#
# Convention : Reuss Voigt Hill
#
# Bulk Modulus (GPa) = 44.55388 46.67898 45.61643
# Shear Modulus (GPa) = 14.51127 17.91740 16.21434
#
# Velocity S-wave (km/s) = 2.95629 3.28498 3.12496
# Velocity P-wave (km/s) = 6.20373 6.51930 6.36347
#
# Compressibility (1/GPa) = 0.02244473
#
# Stress axis : x y z
#
# Youngs Moduli (GPa) = 60.05197 38.39407 29.99084
#
# Poissons Ratio (x) = -0.02629 0.27719
# Poissons Ratio (y) = -0.04112 0.54706
# Poissons Ratio (z) = 0.55502 0.70034
#
# Static dielectric constant tensor:
#      x y z
#    x 1.579940 0.000000 0.004050 
#    y 0.000000 1.542310 0.000000 
#    z 0.004050 0.000000 1.565830 
# 
# From -- ./inp_files/133152.got.cif
#   From: 2010.05.17/outbox.cif.g08.bks.cpg/sg12_67_cif.got.tgz:133152.got - 2010.06.03 13:09:07.
