data_PCOD9175763
_publ_section_title
;
Structure prediction by ZEFSAII (Michael W. Deem and Ramdas Pophale) SiO2 
 PCOD9175763
Probable space group: C 2/M
;
_chemical_formula_sum "Si O2"
_cell_formula_units_Z 64
_cell_length_a 28.947821
_cell_length_b 7.834625
_cell_length_c 14.674933
_cell_angle_alpha 90.000000
_cell_angle_beta 119.301294
_cell_angle_gamma 90.000000
_cell_volume 2902.389536
_symmetry_space_group_name_H-M "C 2/M"
_symmetry_group_IT_number 12
_symmetry_cell_setting 'monoclinic'
loop_
_space_group_symop_operation_xyz
x,y,z
-x,y,-z
-x,-y,-z
x,-y,z
1/2+x,1/2+y,z
1/2-x,1/2+y,-z
1/2-x,1/2-y,-z
1/2+x,1/2-y,z
loop_
_atom_site_type_symbol
_atom_site_label
_atom_site_fract_x
_atom_site_fract_y
_atom_site_fract_z
Si Si1 0.909135 0.206411 0.043867
Si Si2 0.827716 0.797673 0.822516
Si Si3 0.979813 0.302635 0.886941
Si Si4 0.875494 0.792884 0.206219
Si Si5 0.760626 0.204556 0.116075
Si Si6 0.010913 0.205454 0.612240
Si Si7 0.305505 0.702389 0.598809
Si Si8 0.081814 0.297013 0.337649
O O1 0.873483 0.246544 0.096713
O O2 0.965382 0.292117 0.115731
O O3 0.915825 0.000000 0.047817
O O4 0.880806 0.268355 0.924233
O O5 0.781208 0.773891 0.851532
O O6 0.813553 0.725208 0.709518
O O7 0.836077 0.000000 0.820717
O O8 0.966288 0.500000 0.893052
O O9 0.936061 0.223824 0.778805
O O10 0.000000 0.217669 0.000000
O O11 0.820486 0.734302 0.196501
O O12 0.931718 0.730290 0.298448
O O13 0.876152 0.000000 0.214082
O O14 0.758883 0.000000 0.121015
O O15 0.750000 0.250000 0.000000
O O16 0.961069 0.242237 0.629293
O O17 0.000000 0.269197 0.500000
O O18 0.015229 0.000000 0.613422
O O19 0.305486 0.500000 0.606514
O O20 0.250000 0.750000 0.500000
O O21 0.357036 0.752115 0.589606
O O22 0.077577 0.500000 0.326645
#
# Coordination Sequence:
#
# PCOD9175763 Si02
#       8
#     8   8   8   8   8   8   8   8
#     4  10  18  33  57  81 115 153 194 244 291 351
#     4  10  22  40  60  89 122 157 203 255 308 367
#     4  10  21  35  53  84 123 157 193 241 297 355
#     4   9  18  34  55  81 115 153 195 244 293 350
#     4  11  21  35  57  85 122 164 206 254 307 365
#     4  10  21  39  63  89 119 159 206 251 299 359
#     4  11  25  45  68  90 120 159 204 254 306 365
#     4  11  23  40  63  91 125 159 199 250 303 362
#
# _framework density 22.050796999999999
#
# number of rings (size 3 to 8) (size 9 to 14) (size 15 to 20)
#    0.000    1.750    2.500    1.875    0.000    3.500 
#    0.000    2.500    0.000    0.000    0.000    0.000 
#    0.000    0.000    0.000    0.000    0.000    0.000 
#
# Total GULP energy -178666.703290 kJ/mol
# GULP energy per Si atom -5583.334478 kJ/mol
# Density = 2.200061 g / cm^3
# Si number density = 22.050797 Si / 1000 Ang^3
#
#
#
# Elastic Constant Matrix: (Units=GPa)
#
#
# Indices 1 2 3 4 5 6 
#
# 1 111.8895 -8.1342 54.3720 0.0000 23.6931 0.0000
# 2 -8.1342 36.4424 8.6717 0.0000 -0.1374 0.0000
# 3 54.3720 8.6717 137.9801 0.0000 16.9436 0.0000
# 4 0.0000 0.0000 0.0000 14.6502 0.0000 0.3884
# 5 23.6931 -0.1374 16.9436 0.0000 36.0436 0.0000
# 6 0.0000 0.0000 0.0000 0.3884 0.0000 29.9919
#
#
#
# Elastic Compliance Matrix: (Units=1/GPa)
#
#
# Indices 1 2 3 4 5 6 
#
# 1 0.012724 0.003885 -0.004492 0.000000 -0.006237 0.000000
# 2 0.003885 0.029077 -0.003246 0.000000 -0.000917 0.000000
# 3 -0.004492 -0.003246 0.009403 0.000000 -0.001480 0.000000
# 4 0.000000 0.000000 0.000000 0.068282 0.000000 -0.000884
# 5 -0.006237 -0.000917 -0.001480 0.000000 0.032536 0.000000
# 6 0.000000 0.000000 0.000000 -0.000884 0.000000 0.033354
#
#
# Mechanical properties :
#
#
# Convention : Reuss Voigt Hill
#
# Bulk Modulus (GPa) = 22.98931 44.01457 33.50194
# Shear Modulus (GPa) = 24.08713 31.56399 27.82556
#
# Velocity S-wave (km/s) = 3.30865 3.78752 3.55615
# Velocity P-wave (km/s) = 5.00445 6.25547 5.66460
#
# Compressibility (1/GPa) = 0.04349847
#
# Stress axis : x y z
#
# Youngs Moduli (GPa) = 78.59469 34.39183 106.34609
#
# Poissons Ratio (x) = -0.13362 0.47771
# Poissons Ratio (y) = -0.30537 0.34518
# Poissons Ratio (z) = 0.35305 0.11163
#
# Static dielectric constant tensor:
#      x y z
#    x 1.815510 0.000000 -0.032400 
#    y 0.000000 1.812530 0.000000 
#    z -0.032400 0.000000 1.819550 
# 
# From -- ./inp_files/249186.got.cif
#   From: 2010.05.17/outbox.cif.g08.bks.cpg/sg12_125_cif.got.tgz:249186.got - 2010.06.03 13:09:07.
