data_PCOD9175617
_publ_section_title
;
Structure prediction by ZEFSAII (Michael W. Deem and Ramdas Pophale) SiO2 
 PCOD9175617
Probable space group: C 2/M
;
_chemical_formula_sum "Si O2"
_cell_formula_units_Z 56
_cell_length_a 26.970808
_cell_length_b 8.291267
_cell_length_c 17.803246
_cell_angle_alpha 90.000000
_cell_angle_beta 43.989778
_cell_angle_gamma 90.000000
_cell_volume 2765.063284
_symmetry_space_group_name_H-M "C 2/M"
_symmetry_group_IT_number 12
_symmetry_cell_setting 'monoclinic'
loop_
_space_group_symop_operation_xyz
x,y,z
-x,y,-z
-x,-y,-z
x,-y,z
1/2+x,1/2+y,z
1/2-x,1/2+y,-z
1/2-x,1/2-y,-z
1/2+x,1/2-y,z
loop_
_atom_site_type_symbol
_atom_site_label
_atom_site_fract_x
_atom_site_fract_y
_atom_site_fract_z
Si Si1 0.810985 0.803131 0.605233
Si Si2 0.554938 0.187235 0.250605
Si Si3 0.921096 0.194709 0.614267
Si Si4 0.838641 0.694580 0.167089
Si Si5 0.596762 0.309717 0.634017
Si Si6 0.393887 0.312932 0.956579
Si Si7 0.954356 0.310556 0.158023
O O1 0.863760 0.753310 0.614933
O O2 0.731560 0.749662 0.712212
O O3 0.844027 0.752328 0.489711
O O4 0.811583 0.000000 0.603157
O O5 0.589700 0.235095 0.291309
O O6 0.481282 0.286143 0.319201
O O7 0.604369 0.222189 0.124749
O O8 0.535241 0.000000 0.271842
O O9 0.000000 0.241381 0.500000
O O10 0.919006 0.000000 0.621413
O O11 0.838795 0.500000 0.167276
O O12 0.909184 0.745342 0.135897
O O13 0.841410 0.751508 0.078438
O O14 0.606205 0.500000 0.639001
O O15 0.593648 0.214019 0.715283
O O16 0.382732 0.500000 0.954399
O O17 0.473172 0.283424 0.904128
O O18 0.972343 0.500000 0.129866
#
# Coordination Sequence:
#
# PCOD9175617 Si02
#       7
#     8   8   8   8   8   8   8
#     4   9  19  35  56  80 110 148 182 217 267 326
#     4  11  21  34  55  84 113 140 177 226 277 318
#     4  10  18  34  59  84 110 142 182 220 264 321
#     4  10  21  38  56  77 110 148 183 221 271 324
#     4  10  18  33  55  81 110 144 184 222 266 320
#     4  11  22  37  58  81 106 140 186 230 270 318
#     4  10  20  34  55  82 110 143 181 225 274 319
#
# _framework density 20.252703
#
# number of rings (size 3 to 8) (size 9 to 14) (size 15 to 20)
#    0.000    1.857    1.429    5.571    0.000    3.714 
#    0.000    2.857    0.000    0.000    0.000    0.000 
#    0.000    0.000    0.000    0.000    0.000    0.000 
#
# Total GULP energy -156420.108864 kJ/mol
# GULP energy per Si atom -5586.432459 kJ/mol
# Density = 2.020661 g / cm^3
# Si number density = 20.252703 Si / 1000 Ang^3
#
#
#
# Elastic Constant Matrix: (Units=GPa)
#
#
# Indices 1 2 3 4 5 6 
#
# 1 26.4446 -2.7560 -2.4048 -0.0101 18.3976 0.0075
# 2 -2.7560 24.4125 -6.6204 -0.0112 -0.0573 0.0049
# 3 -2.4048 -6.6204 103.0169 -0.0142 24.3703 0.0139
# 4 -0.0101 -0.0112 -0.0142 27.6988 0.0061 8.5335
# 5 18.3976 -0.0573 24.3703 0.0061 29.2302 -0.0045
# 6 0.0075 0.0049 0.0139 8.5335 -0.0045 15.5738
#
#
#
# Elastic Compliance Matrix: (Units=1/GPa)
#
#
# Indices 1 2 3 4 5 6 
#
# 1 0.096674 0.016713 0.022070 0.000120 -0.079215 -0.000160
# 2 0.016713 0.044748 0.007142 0.000050 -0.016386 -0.000061
# 3 0.022070 0.007142 0.017395 0.000045 -0.028380 -0.000061
# 4 0.000120 0.000050 0.000045 0.043435 -0.000126 -0.023800
# 5 -0.079215 -0.016386 -0.028380 -0.000126 0.107699 0.000169
# 6 -0.000160 -0.000061 -0.000061 -0.023800 0.000169 0.077251
#
#
# Mechanical properties :
#
#
# Convention : Reuss Voigt Hill
#
# Bulk Modulus (GPa) = 3.98933 14.47909 9.23421
# Shear Modulus (GPa) = 13.19586 25.54423 19.37004
#
# Velocity S-wave (km/s) = 2.55534 3.55530 3.09596
# Velocity P-wave (km/s) = 3.26809 4.90084 4.16525
#
# Compressibility (1/GPa) = 0.25066856
#
# Stress axis : x y z
#
# Youngs Moduli (GPa) = 10.34407 22.34738 57.48737
#
# Poissons Ratio (x) = -0.37349 -1.26877
# Poissons Ratio (y) = -0.17288 -0.41060
# Poissons Ratio (z) = -0.22830 -0.15961
#
# Static dielectric constant tensor:
#      x y z
#    x 1.697710 0.000000 0.005030 
#    y 0.000000 1.689260 0.000000 
#    z 0.005030 0.000000 1.741830 
# 
# From -- ./inp_files/295108.got.cif
#   From: 2010.05.17/outbox.cif.g08.bks.cpg/sg12_148_cif.got.tgz:295108.got - 2010.06.03 13:09:07.
