data_PCOD9175781
_publ_section_title
;
Structure prediction by ZEFSAII (Michael W. Deem and Ramdas Pophale) SiO2 
 PCOD9175781
Probable space group: C 2/M
;
_chemical_formula_sum "Si O2"
_cell_formula_units_Z 56
_cell_length_a 17.354894
_cell_length_b 15.391507
_cell_length_c 21.129706
_cell_angle_alpha 90.000000
_cell_angle_beta 152.022492
_cell_angle_gamma 90.000000
_cell_volume 2647.799310
_symmetry_space_group_name_H-M "C 2/M"
_symmetry_group_IT_number 12
_symmetry_cell_setting 'monoclinic'
loop_
_space_group_symop_operation_xyz
x,y,z
-x,y,-z
-x,-y,-z
x,-y,z
1/2+x,1/2+y,z
1/2-x,1/2+y,-z
1/2-x,1/2-y,-z
1/2+x,1/2-y,z
loop_
_atom_site_type_symbol
_atom_site_label
_atom_site_fract_x
_atom_site_fract_y
_atom_site_fract_z
Si Si1 0.879866 0.596082 0.505463
Si Si2 0.018964 0.276218 0.843994
Si Si3 0.308998 0.707048 0.145844
Si Si4 0.150376 0.786236 0.564958
Si Si5 0.258258 0.864198 0.187466
Si Si6 0.994364 0.905882 0.102417
Si Si7 0.906913 0.901519 0.598527
O O1 0.869473 0.500000 0.467633
O O2 0.858522 0.681316 0.447210
O O3 0.737848 0.602200 0.454985
O O4 0.058135 0.604814 0.667208
O O5 0.083325 0.275422 0.818652
O O6 0.835162 0.309273 0.719954
O O7 0.019878 0.173491 0.860750
O O8 0.152057 0.315061 0.988804
O O9 0.258568 0.761342 0.171576
O O10 0.422801 0.627119 0.246012
O O11 0.126965 0.830763 0.480061
O O12 0.000000 0.814242 0.500000
O O13 0.148406 0.887524 0.168301
O O14 0.162437 0.903909 0.058104
O O15 0.008216 0.000000 0.142967
O O16 0.913698 0.000000 0.578557
#
# Coordination Sequence:
#
# PCOD9175781 Si02
#       7
#     8   8   8   8   8   8   8
#     4  11  21  35  62  93 122 157 202 248 304 373
#     4  10  22  36  60  92 120 163 194 246 311 358
#     4  10  20  40  62  84 118 157 212 249 292 361
#     4  12  24  40  62  92 130 162 199 255 313 371
#     4  10  18  33  57  84 121 163 194 239 287 366
#     4  10  20  33  53  88 130 157 190 235 301 375
#     4  11  24  43  66  87 117 164 216 260 303 358
#
# _framework density 21.149639000000001
#
# number of rings (size 3 to 8) (size 9 to 14) (size 15 to 20)
#    0.000    1.429    2.857    3.857    0.000    1.714 
#    0.000    0.714    0.000    0.857    0.000    0.000 
#    0.000    0.000    0.000    0.000    0.000    0.000 
#
# Total GULP energy -156528.135913 kJ/mol
# GULP energy per Si atom -5590.290568 kJ/mol
# Density = 2.110150 g / cm^3
# Si number density = 21.149639 Si / 1000 Ang^3
#
#
#
# Elastic Constant Matrix: (Units=GPa)
#
#
# Indices 1 2 3 4 5 6 
#
# 1 50.5477 9.2342 18.7463 -0.0006 20.5082 -0.0004
# 2 9.2342 55.2247 15.5014 0.0006 4.6243 -0.0002
# 3 18.7463 15.5014 147.7276 -0.0010 31.8575 -0.0004
# 4 -0.0006 0.0006 -0.0010 -1.4708 0.0007 5.8559
# 5 20.5082 4.6243 31.8575 0.0007 28.3669 -0.0002
# 6 -0.0004 -0.0002 -0.0004 5.8559 -0.0002 11.2900
#
#
#
# Elastic Compliance Matrix: (Units=1/GPa)
#
#
# Indices 1 2 3 4 5 6 
#
# 1 0.028720 -0.003373 0.001410 -0.000007 -0.021797 0.000004
# 2 -0.003373 0.019080 -0.001886 0.000004 0.001446 -0.000002
# 3 0.001410 -0.001886 0.009160 -0.000004 -0.010999 0.000002
# 4 -0.000007 0.000004 -0.000004 -0.221821 0.000015 0.115054
# 5 -0.021797 0.001446 -0.010999 0.000015 0.063128 -0.000008
# 6 0.000004 -0.000002 0.000002 0.115054 -0.000008 0.028897
#
#
# Mechanical properties :
#
#
# Convention : Reuss Voigt Hill
#
# Bulk Modulus (GPa) = 20.29931 37.82930 29.06431
# Shear Modulus (GPa) = -102.63512 21.63844 -40.49834
#
# Velocity S-wave (km/s) = -6.97377 3.20208 -4.38064
# Velocity P-wave (km/s) = 7.43141 5.62107 3.43725
#
# Compressibility (1/GPa) = 0.04926276
#
# Stress axis : x y z
#
# Youngs Moduli (GPa) = 34.81870 52.41059 109.16786
#
# Poissons Ratio (x) = 0.17678 -0.15393
# Poissons Ratio (y) = 0.11744 0.20589
# Poissons Ratio (z) = -0.04909 0.09884
#
# Static dielectric constant tensor:
#      x y z
#    x 1.762720 0.000000 0.007820 
#    y 0.000000 1.760160 0.000000 
#    z 0.007820 0.000000 1.795290 
# 
# From -- ./inp_files/316760.got.cif
#   From: 2010.05.17/outbox.cif.g08.bks.cpg/sg12_159_cif.got.tgz:316760.got - 2010.06.03 13:09:07.
