data_PCOD9175312
_publ_section_title
;
Structure prediction by ZEFSAII (Michael W. Deem and Ramdas Pophale) SiO2 
 PCOD9175312
Probable space group: C 2/M
;
_chemical_formula_sum "Si O2"
_cell_formula_units_Z 40
_cell_length_a 15.684648
_cell_length_b 22.084882
_cell_length_c 8.611656
_cell_angle_alpha 90.000000
_cell_angle_beta 139.814143
_cell_angle_gamma 90.000000
_cell_volume 1924.852354
_symmetry_space_group_name_H-M "C 2/M"
_symmetry_group_IT_number 12
_symmetry_cell_setting 'monoclinic'
loop_
_space_group_symop_operation_xyz
x,y,z
-x,y,-z
-x,-y,-z
x,-y,z
1/2+x,1/2+y,z
1/2-x,1/2+y,-z
1/2-x,1/2-y,-z
1/2+x,1/2-y,z
loop_
_atom_site_type_symbol
_atom_site_label
_atom_site_fract_x
_atom_site_fract_y
_atom_site_fract_z
Si Si1 0.328475 0.723616 0.465819
Si Si2 0.540701 0.369580 0.742159
Si Si3 0.357320 0.000000 0.887141
Si Si4 0.686804 0.190985 0.834744
Si Si5 0.609771 0.864584 0.017115
Si Si6 0.554859 0.500000 0.396686
O O1 0.250000 0.750000 0.500000
O O2 0.458993 0.687146 0.695892
O O3 0.353195 0.779037 0.382699
O O4 0.235127 0.672346 0.257178
O O5 0.500000 0.366870 0.500000
O O6 0.497261 0.435864 0.739237
O O7 0.692769 0.357190 0.995793
O O8 0.357572 0.934867 0.968665
O O9 0.214182 0.000000 0.604183
O O10 0.500000 0.000000 0.000000
O O11 0.750000 0.250000 0.000000
O O12 0.582206 0.164352 0.811364
O O13 0.500000 0.860369 0.000000
O O14 0.500000 0.500000 0.500000
#
# Coordination Sequence:
#
# PCOD9175312 Si02
#       6
#     8   8   4   8   8   4
#     4  11  24  35  57  85 121 158 197 246 306 367
#     4  11  19  36  60  85 118 156 198 255 307 357
#     4  10  18  34  58  88 121 153 207 261 308 367
#     4  10  21  37  54  84 123 149 198 247 301 372
#     4  10  20  35  57  84 113 153 195 246 303 355
#     4  10  18  32  58  89 118 151 211 253 307 373
#
# _framework density 20.780813999999999
#
# number of rings (size 3 to 8) (size 9 to 14) (size 15 to 20)
#    0.000    1.600    6.000    1.200    5.600    0.000 
#    0.000    0.000    0.000    6.000    0.000    4.200 
#    0.000    0.000    0.000    0.000    0.000    0.000 
#
# Total GULP energy -111413.761445 kJ/mol
# GULP energy per Si atom -5570.688072 kJ/mol
# Density = 2.073352 g / cm^3
# Si number density = 20.780814 Si / 1000 Ang^3
#
#
#
# Elastic Constant Matrix: (Units=GPa)
#
#
# Indices 1 2 3 4 5 6 
#
# 1 113.1596 71.3179 34.6173 0.0000 1.2786 0.0000
# 2 71.3179 173.6278 54.8324 0.0000 0.0413 0.0000
# 3 34.6173 54.8324 59.3684 0.0000 21.1966 0.0000
# 4 0.0000 0.0000 0.0000 18.5474 0.0000 13.0841
# 5 1.2786 0.0413 21.1966 0.0000 34.9284 0.0000
# 6 0.0000 0.0000 0.0000 13.0841 0.0000 31.5968
#
#
#
# Elastic Compliance Matrix: (Units=1/GPa)
#
#
# Indices 1 2 3 4 5 6 
#
# 1 0.012591 -0.003630 -0.004884 0.000000 0.002508 0.000000
# 2 -0.003630 0.010218 -0.009400 0.000000 0.005826 0.000000
# 3 -0.004884 -0.009400 0.036136 0.000000 -0.021740 0.000000
# 4 0.000000 0.000000 0.000000 0.076165 0.000000 -0.031540
# 5 0.002508 0.005826 -0.021740 0.000000 0.041724 0.000000
# 6 0.000000 0.000000 0.000000 -0.031540 0.000000 0.044709
#
#
# Mechanical properties :
#
#
# Convention : Reuss Voigt Hill
#
# Bulk Modulus (GPa) = 43.26159 74.18788 58.72474
# Shear Modulus (GPa) = 18.86244 29.37374 24.11809
#
# Velocity S-wave (km/s) = 3.01605 3.76374 3.41045
# Velocity P-wave (km/s) = 5.74386 7.39360 6.62032
#
# Compressibility (1/GPa) = 0.02311519
#
# Stress axis : x y z
#
# Youngs Moduli (GPa) = 79.42488 97.86974 27.67317
#
# Poissons Ratio (x) = 0.35523 0.13517
# Poissons Ratio (y) = 0.28829 0.26014
# Poissons Ratio (z) = 0.38794 0.92002
#
# Static dielectric constant tensor:
#      x y z
#    x 1.917610 0.000000 0.043450 
#    y 0.000000 1.759350 0.000000 
#    z 0.043450 0.000000 1.790160 
# 
# From -- ./inp_files/63844.got.cif
#   From: 2010.05.17/outbox.cif.g08.bks.cpg/sg12_32_cif.got.tgz:63844.got - 2010.06.03 13:09:07.
