data_PCOD9175538
_publ_section_title
;
Structure prediction by ZEFSAII (Michael W. Deem and Ramdas Pophale) SiO2 
 PCOD9175538
Probable space group: C 2/M
;
_chemical_formula_sum "Si O2"
_cell_formula_units_Z 64
_cell_length_a 15.224883
_cell_length_b 7.631580
_cell_length_c 27.866173
_cell_angle_alpha 90.000000
_cell_angle_beta 104.958583
_cell_angle_gamma 90.000000
_cell_volume 3128.048868
_symmetry_space_group_name_H-M "C 2/M"
_symmetry_group_IT_number 12
_symmetry_cell_setting 'monoclinic'
loop_
_space_group_symop_operation_xyz
x,y,z
-x,y,-z
-x,-y,-z
x,-y,z
1/2+x,1/2+y,z
1/2-x,1/2+y,-z
1/2-x,1/2-y,-z
1/2+x,1/2-y,z
loop_
_atom_site_type_symbol
_atom_site_label
_atom_site_fract_x
_atom_site_fract_y
_atom_site_fract_z
Si Si1 0.711818 0.787773 0.424003
Si Si2 0.197689 0.211144 0.757058
Si Si3 0.398692 0.708334 0.498372
Si Si4 0.808477 0.297386 0.054464
Si Si5 0.304585 0.788203 0.867008
Si Si6 0.177757 0.714812 0.310951
Si Si7 0.007721 0.715502 0.878002
Si Si8 0.996930 0.707509 0.232449
O O1 0.634870 0.735730 0.451696
O O2 0.811639 0.723939 0.455571
O O3 0.690054 0.727369 0.367256
O O4 0.714549 0.000000 0.424593
O O5 0.256916 0.272875 0.811104
O O6 0.241639 0.269521 0.713419
O O7 0.094587 0.264269 0.751037
O O8 0.201895 0.000000 0.758170
O O9 0.500000 0.777394 0.500000
O O10 0.402429 0.500000 0.489967
O O11 0.827191 0.500000 0.050693
O O12 0.750599 0.270148 0.094465
O O13 0.907596 0.216780 0.078999
O O14 0.750000 0.250000 0.000000
O O15 0.409130 0.731445 0.882964
O O16 0.303401 0.000000 0.866170
O O17 0.176659 0.500000 0.311855
O O18 0.084497 0.775928 0.272924
O O19 0.009211 0.500000 0.877793
O O20 0.015703 0.774640 0.823632
O O21 0.012442 0.500000 0.229236
#
# Coordination Sequence:
#
# PCOD9175538 Si02
#       8
#     8   8   8   8   8   8   8   8
#     4   9  18  33  52  76 104 138 179 219 258 307
#     4  10  19  32  53  80 106 135 171 212 258 307
#     4   9  18  33  53  75 103 140 177 217 268 315
#     4  11  23  39  57  80 107 136 171 216 263 306
#     4  10  19  35  58  80 102 135 175 211 251 308
#     4   9  18  33  53  76 107 142 175 212 257 313
#     4   9  18  34  57  77 100 137 174 203 246 312
#     4  10  18  33  54  76 102 137 176 210 250 307
#
# _framework density 20.460038000000001
#
# number of rings (size 3 to 8) (size 9 to 14) (size 15 to 20)
#    0.000    2.375    2.500    0.375    0.000    1.750 
#    0.000    7.500    0.000    0.000    0.000    0.000 
#    0.000    0.000    0.000    0.000    0.000    0.000 
#
# Total GULP energy -178575.114324 kJ/mol
# GULP energy per Si atom -5580.472323 kJ/mol
# Density = 2.041347 g / cm^3
# Si number density = 20.460038 Si / 1000 Ang^3
#
#
#
# Elastic Constant Matrix: (Units=GPa)
#
#
# Indices 1 2 3 4 5 6 
#
# 1 -67.9762 -35.0604 -117.6947 0.0000 56.0598 0.0000
# 2 -35.0604 28.0166 -21.2534 0.0000 18.1054 0.0000
# 3 -117.6947 -21.2534 -16.9384 0.0000 42.2770 0.0000
# 4 0.0000 0.0000 0.0000 17.7646 0.0000 -7.3587
# 5 56.0598 18.1054 42.2770 0.0000 -2.4545 0.0000
# 6 0.0000 0.0000 0.0000 -7.3587 0.0000 17.2292
#
#
#
# Elastic Compliance Matrix: (Units=1/GPa)
#
#
# Indices 1 2 3 4 5 6 
#
# 1 0.005629 -0.004209 -0.004990 0.000000 0.011554 0.000000
# 2 -0.004209 0.026491 -0.005806 0.000000 -0.000726 0.000000
# 3 -0.004990 -0.005806 0.009727 0.000000 0.010739 0.000000
# 4 0.000000 0.000000 0.000000 0.068392 0.000000 0.029210
# 5 0.011554 -0.000726 0.010739 0.000000 0.036103 0.000000
# 6 0.000000 0.000000 0.000000 0.029210 0.000000 0.070517
#
#
# Mechanical properties :
#
#
# Convention : Reuss Voigt Hill
#
# Bulk Modulus (GPa) = 84.48749 -44.99052 19.74849
# Shear Modulus (GPa) = 19.93514 14.31523 17.12519
#
# Velocity S-wave (km/s) = 3.12484 2.64799 2.89625
# Velocity P-wave (km/s) = 7.37584 3.56203 4.56700
#
# Compressibility (1/GPa) = 0.01183607
#
# Stress axis : x y z
#
# Youngs Moduli (GPa) = 177.66686 37.74924 102.80448
#
# Poissons Ratio (x) = 0.15887 0.51302
# Poissons Ratio (y) = 0.74774 0.59690
# Poissons Ratio (z) = 0.88661 0.21918
#
# Static dielectric constant tensor:
#      x y z
#    x 1.693060 0.000000 -0.032410 
#    y 0.000000 1.757640 0.000000 
#    z -0.032410 0.000000 1.583990 
# 
# From -- ./inp_files/338916.got.cif
#   From: 2010.05.17/outbox.cif.g08.bks.cpg/sg12_170_cif.got.tgz:338916.got - 2010.06.03 13:09:07.
