data_PCOD9175455
_publ_section_title
;
Structure prediction by ZEFSAII (Michael W. Deem and Ramdas Pophale) SiO2 
 PCOD9175455
Probable space group: C 2/M
;
_chemical_formula_sum "Si O2"
_cell_formula_units_Z 44
_cell_length_a 19.911178
_cell_length_b 20.717966
_cell_length_c 5.321995
_cell_angle_alpha 90.000000
_cell_angle_beta 85.981922
_cell_angle_gamma 90.000000
_cell_volume 2190.028261
_symmetry_space_group_name_H-M "C 2/M"
_symmetry_group_IT_number 12
_symmetry_cell_setting 'monoclinic'
loop_
_space_group_symop_operation_xyz
x,y,z
-x,y,-z
-x,-y,-z
x,-y,z
1/2+x,1/2+y,z
1/2-x,1/2+y,-z
1/2-x,1/2-y,-z
1/2+x,1/2-y,z
loop_
_atom_site_type_symbol
_atom_site_label
_atom_site_fract_x
_atom_site_fract_y
_atom_site_fract_z
Si Si1 0.169115 0.926268 0.770391
Si Si2 0.577565 0.365814 0.445549
Si Si3 0.316498 0.204175 0.041001
Si Si4 0.168636 0.748398 0.463442
Si Si5 0.544507 0.500000 0.237818
Si Si6 0.742912 0.074842 0.758675
O O1 0.104796 0.885558 0.713564
O O2 0.208744 0.915805 0.013569
O O3 0.146677 0.000000 0.776372
O O4 0.219894 0.917751 0.518990
O O5 0.500000 0.346003 0.500000
O O6 0.630653 0.310451 0.357003
O O7 0.581444 0.430961 0.272489
O O8 0.358733 0.239799 0.246893
O O9 0.250000 0.250000 0.000000
O O10 0.343258 0.196032 0.751414
O O11 0.304770 0.135545 0.178895
O O12 0.250000 0.750000 0.500000
O O13 0.500000 0.500000 0.500000
O O14 0.500000 0.500000 0.000000
O O15 0.718478 0.000000 0.775761
#
# Coordination Sequence:
#
# PCOD9175455 Si02
#       6
#     8   8   8   8   4   8
#     4  10  19  32  49  75 108 148 187 228 267 325
#     4  11  23  40  57  82 114 157 198 235 280 342
#     4  10  18  33  52  74 107 143 183 229 293 331
#     4  10  21  35  57  75 107 145 191 233 290 329
#     4  10  24  40  56  80 118 158 195 232 271 334
#     4  10  20  33  54  81 111 147 192 233 284 343
#
# _framework density 20.091062999999998
#
# number of rings (size 3 to 8) (size 9 to 14) (size 15 to 20)
#    0.000    1.818    0.909    5.455    0.000    5.818 
#    0.000    0.000    0.000    0.000    0.000    0.000 
#    0.000    4.364    0.000    0.000    0.000    0.000 
#
# Total GULP energy -122484.346257 kJ/mol
# GULP energy per Si atom -5567.470284 kJ/mol
# Density = 2.004533 g / cm^3
# Si number density = 20.091063 Si / 1000 Ang^3
#
#
#
# Elastic Constant Matrix: (Units=GPa)
#
#
# Indices 1 2 3 4 5 6 
#
# 1 48.3084 43.6384 11.1118 0.0000 4.5976 0.0000
# 2 43.6384 106.3905 26.0276 0.0000 13.6939 0.0000
# 3 11.1118 26.0276 142.4212 0.0000 0.1109 0.0000
# 4 0.0000 0.0000 0.0000 34.2371 0.0000 3.5303
# 5 4.5976 13.6939 0.1109 0.0000 8.4485 0.0000
# 6 0.0000 0.0000 0.0000 3.5303 0.0000 34.5526
#
#
#
# Elastic Compliance Matrix: (Units=1/GPa)
#
#
# Indices 1 2 3 4 5 6 
#
# 1 0.033054 -0.014211 0.000014 0.000000 0.005046 0.000000
# 2 -0.014211 0.018688 -0.002289 0.000000 -0.022527 0.000000
# 3 0.000014 -0.002289 0.007436 0.000000 0.003605 0.000000
# 4 0.000000 0.000000 0.000000 0.029519 0.000000 -0.003016
# 5 0.005046 -0.022527 0.003605 0.000000 0.152083 0.000000
# 6 0.000000 0.000000 0.000000 -0.003016 0.000000 0.029250
#
#
# Mechanical properties :
#
#
# Convention : Reuss Voigt Hill
#
# Bulk Modulus (GPa) = 38.15854 50.96397 44.56125
# Shear Modulus (GPa) = 16.03926 29.87046 22.95486
#
# Velocity S-wave (km/s) = 2.82853 3.86003 3.38382
# Velocity P-wave (km/s) = 5.44991 6.72963 6.12329
#
# Compressibility (1/GPa) = 0.02620645
#
# Stress axis : x y z
#
# Youngs Moduli (GPa) = 30.25376 53.51145 134.48428
#
# Poissons Ratio (x) = 0.76043 -0.00191
# Poissons Ratio (y) = 0.42993 0.30782
# Poissons Ratio (z) = -0.00043 0.12248
#
# Static dielectric constant tensor:
#      x y z
#    x 1.878530 0.000000 -0.043720 
#    y 0.000000 1.905740 0.000000 
#    z -0.043720 0.000000 1.891080 
# 
# From -- ./inp_files/16161.got.cif
#   From: 2010.05.17/outbox.cif.g08.bks.cpg/sg12_9_cif.got.tgz:16161.got - 2010.06.03 13:09:07.
