data_PCOD9175768
_publ_section_title
;
Structure prediction by ZEFSAII (Michael W. Deem and Ramdas Pophale) SiO2 
 PCOD9175768
Probable space group: C 2/M
;
_chemical_formula_sum "Si O2"
_cell_formula_units_Z 64
_cell_length_a 19.659661
_cell_length_b 7.675309
_cell_length_c 21.382351
_cell_angle_alpha 90.000000
_cell_angle_beta 71.464432
_cell_angle_gamma 90.000000
_cell_volume 3059.099701
_symmetry_space_group_name_H-M "C 2/M"
_symmetry_group_IT_number 12
_symmetry_cell_setting 'monoclinic'
loop_
_space_group_symop_operation_xyz
x,y,z
-x,y,-z
-x,-y,-z
x,-y,z
1/2+x,1/2+y,z
1/2-x,1/2+y,-z
1/2-x,1/2-y,-z
1/2+x,1/2-y,z
loop_
_atom_site_type_symbol
_atom_site_label
_atom_site_fract_x
_atom_site_fract_y
_atom_site_fract_z
Si Si1 0.392401 0.713592 0.806916
Si Si2 0.552584 0.712534 0.781724
Si Si3 0.876442 0.210188 0.368773
Si Si4 0.189095 0.800554 0.287478
Si Si5 0.824462 0.204209 0.167663
Si Si6 0.755877 0.206900 0.925805
Si Si7 0.069507 0.291479 0.516889
Si Si8 0.216401 0.699900 0.417931
O O1 0.391407 0.500000 0.806480
O O2 0.470867 0.772730 0.803655
O O3 0.371009 0.768094 0.742802
O O4 0.329714 0.772193 0.872305
O O5 0.549915 0.500000 0.781388
O O6 0.594272 0.769210 0.706880
O O7 0.599404 0.764132 0.827977
O O8 0.929385 0.258104 0.409531
O O9 0.795539 0.278335 0.405037
O O10 0.871951 0.000000 0.366963
O O11 0.261305 0.796415 0.224827
O O12 0.202015 0.701687 0.347822
O O13 0.172191 0.000000 0.309055
O O14 0.808449 0.226960 0.099351
O O15 0.817174 0.000000 0.184936
O O16 0.756164 0.000000 0.919531
O O17 0.750000 0.250000 0.000000
O O18 0.070910 0.500000 0.505872
O O19 0.145889 0.219133 0.469912
O O20 0.000000 0.223837 0.500000
O O21 0.220780 0.500000 0.438816
#
# Coordination Sequence:
#
# PCOD9175768 Si02
#       8
#     8   8   8   8   8   8   8   8
#     4   8  17  32  51  78 109 137 173 220 259 302
#     4   9  17  32  54  80 109 137 172 221 270 313
#     4  10  20  35  56  78 100 136 182 224 265 319
#     4  10  19  31  52  80 106 136 177 222 264 312
#     4  10  18  33  57  82 111 143 174 214 265 315
#     4  10  20  36  58  83 112 146 184 220 256 306
#     4  10  23  39  52  72 107 142 174 222 282 334
#     4  10  20  36  54  73 102 138 179 221 270 327
#
# _framework density 20.921188999999998
#
# number of rings (size 3 to 8) (size 9 to 14) (size 15 to 20)
#    0.000    2.375    1.250    2.250    1.750    1.250 
#    0.000    0.625    0.000   13.500    0.000    0.000 
#    0.000    0.000    0.000    0.000    0.000    0.000 
#
# Total GULP energy -178628.876801 kJ/mol
# GULP energy per Si atom -5582.152400 kJ/mol
# Density = 2.087357 g / cm^3
# Si number density = 20.921189 Si / 1000 Ang^3
#
#
#
# Elastic Constant Matrix: (Units=GPa)
#
#
# Indices 1 2 3 4 5 6 
#
# 1 168.8833 7.5165 57.3334 0.0000 35.6956 -0.0001
# 2 7.5165 42.5033 -4.1943 0.0000 -2.5346 0.0000
# 3 57.3334 -4.1943 100.7992 0.0000 30.3143 0.0000
# 4 0.0000 0.0000 0.0000 21.3521 0.0000 6.7124
# 5 35.6956 -2.5346 30.3143 0.0000 29.4979 0.0000
# 6 -0.0001 0.0000 0.0000 6.7124 0.0000 6.4561
#
#
#
# Elastic Compliance Matrix: (Units=1/GPa)
#
#
# Indices 1 2 3 4 5 6 
#
# 1 0.008571 -0.002243 -0.002592 0.000000 -0.007900 0.000000
# 2 -0.002243 0.024256 0.001219 0.000000 0.003546 0.000000
# 3 -0.002592 0.001219 0.015155 0.000000 -0.012332 0.000000
# 4 0.000000 0.000000 0.000000 0.069573 0.000000 -0.072335
# 5 -0.007900 0.003546 -0.012332 0.000000 0.056439 0.000000
# 6 0.000000 0.000000 0.000000 -0.072335 0.000000 0.230100
#
#
# Mechanical properties :
#
#
# Convention : Reuss Voigt Hill
#
# Bulk Modulus (GPa) = 24.54081 48.16634 36.35357
# Shear Modulus (GPa) = 11.76719 28.22992 19.99855
#
# Velocity S-wave (km/s) = 2.37418 3.67733 3.09512
# Velocity P-wave (km/s) = 4.38990 6.41117 5.49428
#
# Compressibility (1/GPa) = 0.04074846
#
# Stress axis : x y z
#
# Youngs Moduli (GPa) = 116.67266 41.22717 65.98572
#
# Poissons Ratio (x) = 0.09246 0.17107
# Poissons Ratio (y) = 0.26166 -0.08041
# Poissons Ratio (z) = 0.30247 -0.05024
#
# Static dielectric constant tensor:
#      x y z
#    x 1.768850 0.000000 0.009800 
#    y 0.000000 1.815000 0.000000 
#    z 0.009800 0.000000 1.737420 
# 
# From -- ./inp_files/313999.got.cif
#   From: 2010.05.17/outbox.cif.g08.bks.cpg/sg12_157_cif.got.tgz:313999.got - 2010.06.03 13:09:07.
