data_PCOD9175470
_publ_section_title
;
Structure prediction by ZEFSAII (Michael W. Deem and Ramdas Pophale) SiO2 
 PCOD9175470
Probable space group: C 2/M
;
_chemical_formula_sum "Si O2"
_cell_formula_units_Z 52
_cell_length_a 9.431564
_cell_length_b 17.711221
_cell_length_c 20.748855
_cell_angle_alpha 90.000000
_cell_angle_beta 121.998710
_cell_angle_gamma 90.000000
_cell_volume 2939.361134
_symmetry_space_group_name_H-M "C 2/M"
_symmetry_group_IT_number 12
_symmetry_cell_setting 'monoclinic'
loop_
_space_group_symop_operation_xyz
x,y,z
-x,y,-z
-x,-y,-z
x,-y,z
1/2+x,1/2+y,z
1/2-x,1/2+y,-z
1/2-x,1/2-y,-z
1/2+x,1/2-y,z
loop_
_atom_site_type_symbol
_atom_site_label
_atom_site_fract_x
_atom_site_fract_y
_atom_site_fract_z
Si Si1 0.411103 0.189451 0.805706
Si Si2 0.444253 0.911577 0.256822
Si Si3 0.068571 0.785560 0.946929
Si Si4 0.131582 0.298003 0.398513
Si Si5 0.449910 0.411892 0.823741
Si Si6 0.000000 0.755631 0.500000
Si Si7 0.477017 0.686497 0.271034
O O1 0.487875 0.112373 0.797237
O O2 0.457930 0.219253 0.887359
O O3 0.491588 0.251177 0.777083
O O4 0.212646 0.188865 0.751200
O O5 0.542456 0.860956 0.333014
O O6 0.246501 0.894361 0.212232
O O7 0.467433 0.000000 0.274459
O O8 0.055173 0.857774 0.896501
O O9 0.250000 0.750000 0.000000
O O10 0.000000 0.807300 0.000000
O O11 0.331890 0.304233 0.447663
O O12 0.092996 0.216218 0.356335
O O13 0.049543 0.293674 0.449316
O O14 0.479201 0.500000 0.842855
O O15 0.486212 0.390188 0.758123
#
# Coordination Sequence:
#
# PCOD9175470 Si02
#       7
#     8   8   8   8   8   4   8
#     4  10  19  33  53  79 102 132 181 221 255 304
#     4  10  20  36  57  77 104 139 178 224 264 300
#     4  11  20  33  53  76 105 139 170 209 265 321
#     4  10  18  33  52  79 104 136 175 211 261 312
#     4  10  21  36  54  79 105 135 180 225 261 305
#     4  10  20  30  52  78 108 134 168 216 256 316
#     4  10  18  33  57  76 102 136 176 226 257 296
#
# _framework density 17.690919999999998
#
# number of rings (size 3 to 8) (size 9 to 14) (size 15 to 20)
#    0.000    1.846    0.000    9.231    0.000    0.923 
#    0.000    1.538    0.000    5.538    0.000    0.000 
#    0.000    0.000    0.000    0.000    0.000    0.000 
#
# Total GULP energy -144917.501285 kJ/mol
# GULP energy per Si atom -5573.750049 kJ/mol
# Density = 1.765066 g / cm^3
# Si number density = 17.690920 Si / 1000 Ang^3
#
#
#
# Elastic Constant Matrix: (Units=GPa)
#
#
# Indices 1 2 3 4 5 6 
#
# 1 70.1725 43.6632 21.5598 0.0000 7.9116 0.0000
# 2 43.6632 78.3426 44.3406 0.0000 8.6604 0.0000
# 3 21.5598 44.3406 87.0164 0.0000 3.9398 0.0000
# 4 0.0000 0.0000 0.0000 24.0452 0.0000 2.1969
# 5 7.9116 8.6604 3.9398 0.0000 39.0753 0.0000
# 6 0.0000 0.0000 0.0000 2.1969 0.0000 19.0718
#
#
#
# Elastic Compliance Matrix: (Units=1/GPa)
#
#
# Indices 1 2 3 4 5 6 
#
# 1 0.022009 -0.012692 0.001093 0.000000 -0.001754 0.000000
# 2 -0.012692 0.025630 -0.009820 0.000000 -0.002121 0.000000
# 3 0.001093 -0.009820 0.016210 0.000000 0.000321 0.000000
# 4 0.000000 0.000000 0.000000 0.042031 0.000000 -0.004842
# 5 -0.001754 -0.002121 0.000321 0.000000 0.026384 0.000000
# 6 0.000000 0.000000 0.000000 -0.004842 0.000000 0.052991
#
#
# Mechanical properties :
#
#
# Convention : Reuss Voigt Hill
#
# Bulk Modulus (GPa) = 47.58681 50.51763 49.05222
# Shear Modulus (GPa) = 21.26783 24.83633 23.05208
#
# Velocity S-wave (km/s) = 3.47102 3.75093 3.61369
# Velocity P-wave (km/s) = 6.55907 6.88310 6.72303
#
# Compressibility (1/GPa) = 0.02101423
#
# Stress axis : x y z
#
# Youngs Moduli (GPa) = 45.43505 39.01650 61.68862
#
# Poissons Ratio (x) = 0.49518 -0.06745
# Poissons Ratio (y) = 0.57665 0.60576
# Poissons Ratio (z) = -0.04968 0.38313
#
# Static dielectric constant tensor:
#      x y z
#    x 1.614280 0.000000 -0.012900 
#    y 0.000000 1.618610 0.000000 
#    z -0.012900 0.000000 1.634080 
# 
# From -- ./inp_files/301185.got.cif
#   From: 2010.05.17/outbox.cif.g08.bks.cpg/sg12_151_cif.got.tgz:301185.got - 2010.06.03 13:09:07.
