data_PCOD9175082
_publ_section_title
;
Structure prediction by ZEFSAII (Michael W. Deem and Ramdas Pophale) SiO2 
 PCOD9175082
Probable space group: C 2/M
;
_chemical_formula_sum "Si O2"
_cell_formula_units_Z 48
_cell_length_a 12.597469
_cell_length_b 14.622173
_cell_length_c 11.538575
_cell_angle_alpha 90.000000
_cell_angle_beta 97.504797
_cell_angle_gamma 90.000000
_cell_volume 2107.226267
_symmetry_space_group_name_H-M "C 2/M"
_symmetry_group_IT_number 12
_symmetry_cell_setting 'monoclinic'
loop_
_space_group_symop_operation_xyz
x,y,z
-x,y,-z
-x,-y,-z
x,-y,z
1/2+x,1/2+y,z
1/2-x,1/2+y,-z
1/2-x,1/2-y,-z
1/2+x,1/2-y,z
loop_
_atom_site_type_symbol
_atom_site_label
_atom_site_fract_x
_atom_site_fract_y
_atom_site_fract_z
Si Si1 0.165334 0.853366 0.895873
Si Si2 0.790716 0.399631 0.264251
Si Si3 0.786207 0.802320 0.357291
Si Si4 0.615302 0.854511 0.956358
Si Si5 0.080203 0.755330 0.422662
Si Si6 0.954196 0.098863 0.773284
O O1 0.190710 0.846258 0.761907
O O2 0.137868 0.754029 0.945835
O O3 0.049458 0.900299 0.879106
O O4 0.276517 0.889449 0.964592
O O5 0.799166 0.500000 0.321061
O O6 0.800161 0.307879 0.340236
O O7 0.875215 0.392579 0.172275
O O8 0.667659 0.392570 0.197730
O O9 0.857391 0.823663 0.479494
O O10 0.663407 0.812423 0.376060
O O11 0.500000 0.870401 0.000000
O O12 0.031905 0.816833 0.313527
O O13 0.000000 0.708567 0.500000
O O14 0.959193 0.000000 0.713368
#
# Coordination Sequence:
#
# PCOD9175082 Si02
#       6
#     8   8   8   8   8   8
#     4  10  21  36  54  83 117 145 189 232 278 338
#     4   9  20  38  57  81 112 151 187 230 287 333
#     4   9  19  33  53  82 109 148 182 225 274 334
#     4  10  23  35  58  84 108 150 192 236 273 328
#     4  10  18  32  55  83 110 142 185 225 273 333
#     4  10  21  36  58  85 117 147 179 233 292 339
#
# _framework density 22.778759000000001
#
# number of rings (size 3 to 8) (size 9 to 14) (size 15 to 20)
#    0.000    2.333    1.667    0.000    9.333    1.333 
#    0.000    1.667    0.000    0.500    0.000    0.000 
#    0.000    0.000    0.000    0.000    0.000    0.000 
#
# Total GULP energy -133708.719421 kJ/mol
# GULP energy per Si atom -5571.196643 kJ/mol
# Density = 2.272691 g / cm^3
# Si number density = 22.778759 Si / 1000 Ang^3
#
#
#
# Elastic Constant Matrix: (Units=GPa)
#
#
# Indices 1 2 3 4 5 6 
#
# 1 148.3350 -5.9389 37.6975 0.0000 -10.9739 0.0000
# 2 -5.9389 46.1476 -7.9008 0.0000 6.5450 0.0000
# 3 37.6975 -7.9008 62.6523 0.0000 1.0368 0.0000
# 4 0.0000 0.0000 0.0000 -1.3085 0.0000 6.4355
# 5 -10.9739 6.5450 1.0368 0.0000 51.3734 0.0000
# 6 0.0000 0.0000 0.0000 6.4355 0.0000 4.0596
#
#
#
# Elastic Compliance Matrix: (Units=1/GPa)
#
#
# Indices 1 2 3 4 5 6 
#
# 1 0.008128 -0.000059 -0.004929 0.000000 0.001843 0.000000
# 2 -0.000059 0.022582 0.002932 0.000000 -0.002949 0.000000
# 3 -0.004929 0.002932 0.019326 0.000000 -0.001816 0.000000
# 4 0.000000 0.000000 0.000000 -0.086880 0.000000 0.137724
# 5 0.001843 -0.002949 -0.001816 0.000000 0.020271 0.000000
# 6 0.000000 0.000000 0.000000 0.137724 0.000000 0.028003
#
#
# Mechanical properties :
#
#
# Convention : Reuss Voigt Hill
#
# Bulk Modulus (GPa) = 21.77440 33.87228 27.82334
# Shear Modulus (GPa) = 162.06915 26.37671 94.22293
#
# Velocity S-wave (km/s) = 8.44415 3.40656 6.43849
# Velocity P-wave (km/s) = 10.22993 5.51138 8.21665
#
# Compressibility (1/GPa) = 0.04592548
#
# Stress axis : x y z
#
# Youngs Moduli (GPa) = 123.03127 44.28265 51.74266
#
# Poissons Ratio (x) = 0.00262 0.25502
# Poissons Ratio (y) = 0.00728 -0.15172
# Poissons Ratio (z) = 0.60637 -0.12984
#
# Static dielectric constant tensor:
#      x y z
#    x 1.951410 0.000000 0.041520 
#    y 0.000000 1.909210 0.000000 
#    z 0.041520 0.000000 1.873670 
# 
# From -- ./inp_files/131078.got.cif
#   From: 2010.05.17/outbox.cif.g08.bks.cpg/sg12_66_cif.got.tgz:131078.got - 2010.06.03 13:09:07.
