data_PCOD9175345
_publ_section_title
;
Structure prediction by ZEFSAII (Michael W. Deem and Ramdas Pophale) SiO2 
 PCOD9175345
Probable space group: C 2/M
;
_chemical_formula_sum "Si O2"
_cell_formula_units_Z 40
_cell_length_a 11.093849
_cell_length_b 14.335974
_cell_length_c 16.685023
_cell_angle_alpha 90.000000
_cell_angle_beta 140.735809
_cell_angle_gamma 90.000000
_cell_volume 1679.458890
_symmetry_space_group_name_H-M "C 2/M"
_symmetry_group_IT_number 12
_symmetry_cell_setting 'monoclinic'
loop_
_space_group_symop_operation_xyz
x,y,z
-x,y,-z
-x,-y,-z
x,-y,z
1/2+x,1/2+y,z
1/2-x,1/2+y,-z
1/2-x,1/2-y,-z
1/2+x,1/2-y,z
loop_
_atom_site_type_symbol
_atom_site_label
_atom_site_fract_x
_atom_site_fract_y
_atom_site_fract_z
Si Si1 0.689908 0.146236 0.490062
Si Si2 0.911126 0.100624 0.347074
Si Si3 0.405517 0.346754 0.027267
Si Si4 0.291612 0.858927 0.921724
Si Si5 0.708023 0.191240 0.681571
O O1 0.750000 0.250000 0.500000
O O2 0.709102 0.141106 0.596160
O O3 0.463951 0.141780 0.357362
O O4 0.859838 0.093743 0.534094
O O5 0.849553 0.114344 0.222249
O O6 0.842448 0.197919 0.351575
O O7 0.833065 0.000000 0.334510
O O8 0.268654 0.393735 0.021610
O O9 0.587084 0.315235 0.173481
O O10 0.500000 0.396653 0.000000
O O11 0.303257 0.253842 0.939398
O O12 0.500000 0.888365 0.000000
#
# Coordination Sequence:
#
# PCOD9175345 Si02
#       5
#     8   8   8   8   8
#     4   9  20  35  59  83 108 154 201 247 290 357
#     4  11  21  36  57  90 124 154 193 253 314 359
#     4  10  18  32  59  89 115 150 211 251 286 346
#     4  10  19  32  52  87 120 155 195 243 293 356
#     4  10  18  37  57  84 114 154 203 249 290 356
#
# _framework density 23.817197
#
# number of rings (size 3 to 8) (size 9 to 14) (size 15 to 20)
#    0.000    2.000    6.000    0.000    0.000    0.400 
#    0.000   10.000    0.000    0.600    0.000    0.000 
#    0.000    0.800    0.000    0.000    0.000    0.000 
#
# Total GULP energy -111519.488343 kJ/mol
# GULP energy per Si atom -5575.974417 kJ/mol
# Density = 2.376299 g / cm^3
# Si number density = 23.817197 Si / 1000 Ang^3
#
#
#
# Elastic Constant Matrix: (Units=GPa)
#
#
# Indices 1 2 3 4 5 6 
#
# 1 146.9495 0.5045 22.7491 0.0000 3.6401 0.0000
# 2 0.5045 92.6316 18.7428 0.0000 5.2858 0.0000
# 3 22.7491 18.7428 76.9181 0.0001 11.2977 0.0000
# 4 0.0000 0.0000 0.0001 -15.6033 0.0000 7.4682
# 5 3.6401 5.2858 11.2977 0.0000 44.7725 0.0000
# 6 0.0000 0.0000 0.0000 7.4682 0.0000 -12.5254
#
#
#
# Elastic Compliance Matrix: (Units=1/GPa)
#
#
# Indices 1 2 3 4 5 6 
#
# 1 0.007147 0.000411 -0.002203 0.000000 -0.000074 0.000000
# 2 0.000411 0.011398 -0.002800 0.000000 -0.000672 0.000000
# 3 -0.002203 -0.002800 0.014809 0.000000 -0.003227 0.000000
# 4 0.000000 0.000000 0.000000 -0.089683 0.000000 -0.053473
# 5 -0.000074 -0.000672 -0.003227 0.000000 0.023235 0.000000
# 6 0.000000 0.000000 0.000000 -0.053473 0.000000 -0.111720
#
#
# Mechanical properties :
#
#
# Convention : Reuss Voigt Hill
#
# Bulk Modulus (GPa) = 41.37516 44.49910 42.93713
# Shear Modulus (GPa) = -39.19291 21.62894 -8.78198
#
# Velocity S-wave (km/s) = -4.06097 3.01678 -1.92230
# Velocity P-wave (km/s) = 2.13984 5.55507 3.62490
#
# Compressibility (1/GPa) = 0.02416909
#
# Stress axis : x y z
#
# Youngs Moduli (GPa) = 139.92842 87.73336 67.52787
#
# Poissons Ratio (x) = -0.03606 0.14876
# Poissons Ratio (y) = -0.05751 0.18909
# Poissons Ratio (z) = 0.30826 0.24567
#
# Static dielectric constant tensor:
#      x y z
#    x 2.204630 0.000000 -0.161350 
#    y 0.000000 1.360400 0.000000 
#    z -0.161350 0.000000 2.014100 
# 
# From -- ./inp_files/263101.got.cif
#   From: 2010.05.17/outbox.cif.g08.bks.cpg/sg12_132_cif.got.tgz:263101.got - 2010.06.03 13:09:07.
