data_PCOD9175060
_publ_section_title
;
Structure prediction by ZEFSAII (Michael W. Deem and Ramdas Pophale) SiO2 
 PCOD9175060
Probable space group: C 2/M
;
_chemical_formula_sum "Si O2"
_cell_formula_units_Z 56
_cell_length_a 22.751959
_cell_length_b 8.012470
_cell_length_c 22.611006
_cell_angle_alpha 90.000000
_cell_angle_beta 40.205412
_cell_angle_gamma 90.000000
_cell_volume 2660.856260
_symmetry_space_group_name_H-M "C 2/M"
_symmetry_group_IT_number 12
_symmetry_cell_setting 'monoclinic'
loop_
_space_group_symop_operation_xyz
x,y,z
-x,y,-z
-x,-y,-z
x,-y,z
1/2+x,1/2+y,z
1/2-x,1/2+y,-z
1/2-x,1/2-y,-z
1/2+x,1/2-y,z
loop_
_atom_site_type_symbol
_atom_site_label
_atom_site_fract_x
_atom_site_fract_y
_atom_site_fract_z
Si Si1 0.916372 0.304980 0.742774
Si Si2 0.272301 0.307572 0.267438
Si Si3 0.749343 0.804936 0.585627
Si Si4 0.400832 0.691849 0.387368
Si Si5 0.766294 0.797928 0.055997
Si Si6 0.603029 0.703757 0.938729
Si Si7 0.941046 0.693963 0.597217
O O1 0.895238 0.500000 0.748684
O O2 0.825768 0.235426 0.840948
O O3 0.944510 0.225905 0.658761
O O4 0.011297 0.290204 0.703494
O O5 0.300864 0.500000 0.255357
O O6 0.276737 0.215390 0.326332
O O7 0.329829 0.245609 0.166894
O O8 0.165452 0.307661 0.335099
O O9 0.677508 0.708209 0.601179
O O10 0.850397 0.747352 0.486697
O O11 0.745561 0.000000 0.572664
O O12 0.427017 0.500000 0.373053
O O13 0.851645 0.743613 0.032713
O O14 0.769112 0.000000 0.054388
O O15 0.750000 0.750000 0.000000
O O16 0.602663 0.500000 0.940551
O O17 0.500000 0.756143 0.000000
O O18 0.972797 0.500000 0.578270
O O19 0.000000 0.772900 0.500000
#
# Coordination Sequence:
#
# PCOD9175060 Si02
#       7
#     8   8   8   8   8   8   8
#     4  10  19  34  55  80 111 145 186 238 288 336
#     4  10  18  32  55  81 107 142 189 231 277 339
#     4  10  21  36  53  78 114 151 185 229 284 340
#     4  10  21  36  54  78 110 150 193 231 276 343
#     4  10  21  38  59  85 117 154 198 247 302 357
#     4   9  18  35  59  85 113 147 192 247 295 344
#     4   9  16  27  49  79 107 139 180 223 271 330
#
# _framework density 21.045856000000001
#
# number of rings (size 3 to 8) (size 9 to 14) (size 15 to 20)
#    0.000    2.286    1.429    1.714    0.000    4.571 
#    0.000    2.857    0.000    3.429    0.000    0.000 
#    0.000    0.000    0.000    0.000    0.000    0.000 
#
# Total GULP energy -155960.195501 kJ/mol
# GULP energy per Si atom -5570.006982 kJ/mol
# Density = 2.099795 g / cm^3
# Si number density = 21.045856 Si / 1000 Ang^3
#
#
#
# Elastic Constant Matrix: (Units=GPa)
#
#
# Indices 1 2 3 4 5 6 
#
# 1 117.5606 17.4969 69.5393 -0.0004 2.2920 0.0006
# 2 17.4969 28.9503 11.5217 -0.0022 2.8771 0.0042
# 3 69.5393 11.5217 125.0638 0.0001 -6.1232 0.0002
# 4 -0.0004 -0.0022 0.0001 16.5817 0.0007 9.1207
# 5 2.2920 2.8771 -6.1232 0.0007 27.0970 -0.0008
# 6 0.0006 0.0042 0.0002 9.1207 -0.0008 19.0197
#
#
#
# Elastic Compliance Matrix: (Units=1/GPa)
#
#
# Indices 1 2 3 4 5 6 
#
# 1 0.013555 -0.005116 -0.007175 -0.000001 -0.002225 0.000001
# 2 -0.005116 0.038365 -0.000878 0.000013 -0.003839 -0.000015
# 3 -0.007175 -0.000878 0.012236 -0.000001 0.003465 0.000001
# 4 -0.000001 0.000013 -0.000001 0.081914 -0.000005 -0.039281
# 5 -0.002225 -0.003839 0.003465 -0.000005 0.038283 0.000005
# 6 0.000001 -0.000015 0.000001 -0.039281 0.000005 0.071414
#
#
# Mechanical properties :
#
#
# Convention : Reuss Voigt Hill
#
# Bulk Modulus (GPa) = 26.44178 52.07671 39.25924
# Shear Modulus (GPa) = 16.96589 24.07413 20.52001
#
# Velocity S-wave (km/s) = 2.84234 3.38581 3.12591
# Velocity P-wave (km/s) = 4.83353 6.33112 5.63232
#
# Compressibility (1/GPa) = 0.03781894
#
# Stress axis : x y z
#
# Youngs Moduli (GPa) = 73.77391 26.06562 81.72787
#
# Poissons Ratio (x) = 0.13335 0.58636
# Poissons Ratio (y) = 0.37742 0.07174
# Poissons Ratio (z) = 0.52930 0.02288
#
# Static dielectric constant tensor:
#      x y z
#    x 1.847510 0.000000 -0.010470 
#    y 0.000000 1.776840 0.000000 
#    z -0.010470 0.000000 1.792480 
# 
# From -- ./inp_files/348478.got.cif
#   From: 2010.05.17/outbox.cif.g08.bks.cpg/sg12_175_cif.got.tgz:348478.got - 2010.06.03 13:09:07.
