data_PCOD9175904
_publ_section_title
;
Structure prediction by ZEFSAII (Michael W. Deem and Ramdas Pophale) SiO2 
 PCOD9175904
Probable space group: C 2/M
;
_chemical_formula_sum "Si O2"
_cell_formula_units_Z 50
_cell_length_a 28.969420
_cell_length_b 15.443146
_cell_length_c 7.434606
_cell_angle_alpha 90.000000
_cell_angle_beta 140.984456
_cell_angle_gamma 90.000000
_cell_volume 2093.875215
_symmetry_space_group_name_H-M "C 2/M"
_symmetry_group_IT_number 12
_symmetry_cell_setting 'monoclinic'
loop_
_space_group_symop_operation_xyz
x,y,z
-x,y,-z
-x,-y,-z
x,-y,z
1/2+x,1/2+y,z
1/2-x,1/2+y,-z
1/2-x,1/2-y,-z
1/2+x,1/2-y,z
loop_
_atom_site_type_symbol
_atom_site_label
_atom_site_fract_x
_atom_site_fract_y
_atom_site_fract_z
Si Si1 0.500000 0.500000 0.000000
Si Si2 0.817288 0.599139 0.043545
Si Si3 0.187056 0.100618 0.361185
Si Si4 0.940926 0.275848 0.434102
Si Si5 0.204040 0.395165 0.606099
Si Si6 0.950902 0.597270 0.028470
Si Si7 0.075169 0.826122 0.280922
O O1 0.549143 0.423422 0.243547
O O2 0.845590 0.500000 0.143372
O O3 0.877527 0.666058 0.155755
O O4 0.795288 0.624950 0.180776
O O5 0.749657 0.597919 0.703344
O O6 0.225645 0.133256 0.296526
O O7 0.126066 0.161963 0.262194
O O8 0.159451 0.000000 0.255864
O O9 0.900732 0.220004 0.465594
O O10 0.000000 0.219805 0.500000
O O11 0.998069 0.344981 0.691403
O O12 0.204773 0.500000 0.593772
O O13 0.127827 0.367963 0.280835
O O14 0.938506 0.500000 0.066669
O O15 0.000000 0.586603 0.000000
O O16 0.000000 0.778420 0.000000
#
# Coordination Sequence:
#
# PCOD9175904 Si02
#       7
#     2   8   8   8   8   8   8
#     4   8  20  44  74  84  98 156 222 258 330 376
#     4  10  21  37  60  94 134 169 202 243 302 379
#     4  10  19  39  65  88 121 158 204 266 320 372
#     4  12  24  37  58  91 133 165 208 255 309 367
#     4   9  18  32  57  93 120 160 210 244 298 369
#     4  10  18  33  59  86 128 177 210 239 285 362
#     4  10  22  44  68  86 111 155 212 269 322 367
#
# _framework density 23.879169000000001
#
# number of rings (size 3 to 8) (size 9 to 14) (size 15 to 20)
#    0.480    1.440    2.400    1.920    0.000    3.200 
#    2.880    1.200    3.520    0.000    0.000    0.000 
#    0.000    0.000    0.000    0.000    0.000    0.000 
#
# Total GULP energy -139349.402707 kJ/mol
# GULP energy per Si atom -5573.976108 kJ/mol
# Density = 2.382482 g / cm^3
# Si number density = 23.879169 Si / 1000 Ang^3
#
#
#
# Elastic Constant Matrix: (Units=GPa)
#
#
# Indices 1 2 3 4 5 6 
#
# 1 154.6054 12.0146 14.8329 0.0000 22.6286 0.0000
# 2 12.0146 74.4967 2.3710 0.0000 5.4902 0.0000
# 3 14.8329 2.3710 22.3902 0.0000 4.1204 0.0000
# 4 0.0000 0.0000 0.0000 -9.6068 0.0000 -15.4896
# 5 22.6286 5.4902 4.1204 0.0000 38.1067 0.0000
# 6 0.0000 0.0000 0.0000 -15.4896 0.0000 6.6310
#
#
#
# Elastic Compliance Matrix: (Units=1/GPa)
#
#
# Indices 1 2 3 4 5 6 
#
# 1 0.007498 -0.000790 -0.004168 0.000000 -0.003888 0.000000
# 2 -0.000790 0.013677 -0.000662 0.000000 -0.001430 0.000000
# 3 -0.004168 -0.000662 0.047975 0.000000 -0.002617 0.000000
# 4 0.000000 0.000000 0.000000 -0.021839 0.000000 -0.051015
# 5 -0.003888 -0.001430 -0.002617 0.000000 0.029040 0.000000
# 6 0.000000 0.000000 0.000000 -0.051015 0.000000 0.031640
#
#
# Mechanical properties :
#
#
# Convention : Reuss Voigt Hill
#
# Bulk Modulus (GPa) = 17.26794 34.43657 25.85225
# Shear Modulus (GPa) = 36.09176 21.84445 28.96811
#
# Velocity S-wave (km/s) = 3.89193 3.02783 3.48675
# Velocity P-wave (km/s) = 5.23863 5.16490 5.20190
#
# Compressibility (1/GPa) = 0.05791079
#
# Stress axis : x y z
#
# Youngs Moduli (GPa) = 133.36030 73.11402 20.84399
#
# Poissons Ratio (x) = 0.05777 0.08688
# Poissons Ratio (y) = 0.10537 0.01379
# Poissons Ratio (z) = 0.55589 0.04838
#
# Static dielectric constant tensor:
#      x y z
#    x 2.102450 0.000000 -0.011840 
#    y 0.000000 1.926430 0.000000 
#    z -0.011840 0.000000 1.932990 
# 
# From -- ./inp_files/105866.got.cif
#   From: 2010.05.17/outbox.cif.g08.bks.cpg/sg12_53_cif.got.tgz:105866.got - 2010.06.03 13:09:07.
