data_PCOD9175377
_publ_section_title
;
Structure prediction by ZEFSAII (Michael W. Deem and Ramdas Pophale) SiO2 
 PCOD9175377
Probable space group: C 2/M
;
_chemical_formula_sum "Si O2"
_cell_formula_units_Z 44
_cell_length_a 23.401090
_cell_length_b 9.745141
_cell_length_c 13.558082
_cell_angle_alpha 90.000000
_cell_angle_beta 127.057855
_cell_angle_gamma 90.000000
_cell_volume 2467.404094
_symmetry_space_group_name_H-M "C 2/M"
_symmetry_group_IT_number 12
_symmetry_cell_setting 'monoclinic'
loop_
_space_group_symop_operation_xyz
x,y,z
-x,y,-z
-x,-y,-z
x,-y,z
1/2+x,1/2+y,z
1/2-x,1/2+y,-z
1/2-x,1/2-y,-z
1/2+x,1/2-y,z
loop_
_atom_site_type_symbol
_atom_site_label
_atom_site_fract_x
_atom_site_fract_y
_atom_site_fract_z
Si Si1 0.424359 0.847379 0.135508
Si Si2 0.792631 0.500000 0.697822
Si Si3 0.059479 0.500000 0.236071
Si Si4 0.796745 0.843320 0.973739
Si Si5 0.575099 0.160954 0.629305
Si Si6 0.690532 0.000000 0.507556
Si Si7 0.781882 0.729522 0.304660
O O1 0.430133 0.825322 0.258823
O O2 0.390052 0.000000 0.085403
O O3 0.504688 0.871658 0.178055
O O4 0.373576 0.730115 0.042087
O O5 0.879594 0.500000 0.783663
O O6 0.771924 0.500000 0.560046
O O7 0.760899 0.365810 0.714258
O O8 0.106357 0.500000 0.386286
O O9 0.757494 0.841820 0.827913
O O10 0.802523 0.000000 0.015387
O O11 0.750000 0.750000 0.000000
O O12 0.500000 0.188399 0.500000
O O13 0.637615 0.253191 0.649995
O O14 0.594065 0.000000 0.628938
O O15 0.710997 0.131502 0.593238
#
# Coordination Sequence:
#
# PCOD9175377 Si02
#       7
#     8   4   4   8   8   4   8
#     4   9  19  37  62  91 122 161 210 264 310 373
#     4  10  26  39  66  94 130 167 210 278 316 364
#     4   8  20  40  70  89 117 173 220 260 307 380
#     4  12  24  38  61  93 136 170 208 264 320 394
#     4  10  18  32  61  92 119 156 206 258 316 377
#     4  10  20  43  65  89 124 161 224 255 316 375
#     4  12  22  39  63  98 125 166 214 265 319 384
#
# _framework density 17.832505999999999
#
# number of rings (size 3 to 8) (size 9 to 14) (size 15 to 20)
#    1.091    0.545    3.636    2.182    2.545    0.000 
#    0.000    2.273    8.000    1.091    0.000    0.000 
#    0.000    0.000    0.000    0.000    0.000    0.000 
#
# Total GULP energy -122601.806205 kJ/mol
# GULP energy per Si atom -5572.809373 kJ/mol
# Density = 1.779192 g / cm^3
# Si number density = 17.832506 Si / 1000 Ang^3
#
#
#
# Elastic Constant Matrix: (Units=GPa)
#
#
# Indices 1 2 3 4 5 6 
#
# 1 116.4973 47.9297 20.4557 0.0000 30.2654 0.0000
# 2 47.9297 99.5844 30.7871 0.0000 24.4926 0.0000
# 3 20.4557 30.7871 75.9891 0.0000 18.6380 0.0000
# 4 0.0000 0.0000 0.0000 14.0905 0.0000 5.0365
# 5 30.2654 24.4926 18.6380 0.0000 18.9926 0.0000
# 6 0.0000 0.0000 0.0000 5.0365 0.0000 15.8501
#
#
#
# Elastic Compliance Matrix: (Units=1/GPa)
#
#
# Indices 1 2 3 4 5 6 
#
# 1 0.015313 -0.002274 0.002720 0.000000 -0.024138 0.000000
# 2 -0.002274 0.015217 -0.002145 0.000000 -0.013894 0.000000
# 3 0.002720 -0.002145 0.018018 0.000000 -0.019249 0.000000
# 4 0.000000 0.000000 0.000000 0.080063 0.000000 -0.025440
# 5 -0.024138 -0.013894 -0.019249 0.000000 0.127924 0.000000
# 6 0.000000 0.000000 0.000000 -0.025440 0.000000 0.071175
#
#
# Mechanical properties :
#
#
# Convention : Reuss Voigt Hill
#
# Bulk Modulus (GPa) = 22.14928 54.49067 38.31998
# Shear Modulus (GPa) = 14.44427 22.64652 18.54539
#
# Velocity S-wave (km/s) = 2.84913 3.56751 3.22837
# Velocity P-wave (km/s) = 4.82401 6.89875 5.95247
#
# Compressibility (1/GPa) = 0.04514819
#
# Stress axis : x y z
#
# Youngs Moduli (GPa) = 65.30466 65.71729 55.50000
#
# Poissons Ratio (x) = 0.14946 -0.15094
# Poissons Ratio (y) = 0.14852 0.11905
# Poissons Ratio (z) = -0.17760 0.14096
#
# Static dielectric constant tensor:
#      x y z
#    x 1.627400 0.000000 0.003770 
#    y 0.000000 1.601820 0.000000 
#    z 0.003770 0.000000 1.616390 
# 
# From -- ./inp_files/238080.got.cif
#   From: 2010.05.17/outbox.cif.g08.bks.cpg/sg12_120_cif.got.tgz:238080.got - 2010.06.03 13:09:07.
