data_PCOD9175400
_publ_section_title
;
Structure prediction by ZEFSAII (Michael W. Deem and Ramdas Pophale) SiO2 
 PCOD9175400
Probable space group: C 2/M
;
_chemical_formula_sum "Si O2"
_cell_formula_units_Z 44
_cell_length_a 12.131270
_cell_length_b 18.735607
_cell_length_c 14.332156
_cell_angle_alpha 90.000000
_cell_angle_beta 132.362666
_cell_angle_gamma 90.000000
_cell_volume 2406.955342
_symmetry_space_group_name_H-M "C 2/M"
_symmetry_group_IT_number 12
_symmetry_cell_setting 'monoclinic'
loop_
_space_group_symop_operation_xyz
x,y,z
-x,y,-z
-x,-y,-z
x,-y,z
1/2+x,1/2+y,z
1/2-x,1/2+y,-z
1/2-x,1/2-y,-z
1/2+x,1/2-y,z
loop_
_atom_site_type_symbol
_atom_site_label
_atom_site_fract_x
_atom_site_fract_y
_atom_site_fract_z
Si Si1 0.870134 0.647394 0.236828
Si Si2 0.544259 0.500000 0.244200
Si Si3 0.875647 0.500000 0.349074
Si Si4 0.376317 0.417912 0.006360
Si Si5 0.362584 0.500000 0.492671
Si Si6 0.286643 0.150801 0.572744
Si Si7 0.174819 0.710272 0.601264
O O1 0.893223 0.570854 0.299169
O O2 0.763010 0.633598 0.087703
O O3 0.786737 0.693505 0.269616
O O4 0.038827 0.670332 0.311447
O O5 0.710148 0.500000 0.297126
O O6 0.560056 0.500000 0.362199
O O7 0.456338 0.431609 0.150755
O O8 0.000000 0.500000 0.500000
O O9 0.329639 0.500000 0.955208
O O10 0.500000 0.398380 0.000000
O O11 0.500000 0.500000 0.500000
O O12 0.260971 0.571018 0.428442
O O13 0.197422 0.208658 0.582230
O O14 0.256027 0.164002 0.444288
O O15 0.000000 0.692364 0.500000
#
# Coordination Sequence:
#
# PCOD9175400 Si02
#       7
#     8   4   4   8   4   8   8
#     4  11  17  30  54  81 109 140 178 229 273 322
#     4  10  18  33  48  82 120 138 173 220 282 327
#     4  12  17  25  49  90 111 127 173 235 284 319
#     4   9  16  29  51  82 115 138 167 221 280 321
#     4  12  24  35  54  82 112 150 184 216 269 338
#     4  10  21  33  51  80 110 146 185 224 274 320
#     4   9  19  34  51  78 111 148 179 227 281 323
#
# _framework density 18.280355
#
# number of rings (size 3 to 8) (size 9 to 14) (size 15 to 20)
#    0.545    1.273    2.727    4.909    0.000    0.000 
#    0.000    0.455    0.000    3.273    0.000    0.000 
#    0.000    0.000    0.000    0.000    0.000    0.000 
#
# Total GULP energy -122541.764958 kJ/mol
# GULP energy per Si atom -5570.080225 kJ/mol
# Density = 1.823875 g / cm^3
# Si number density = 18.280355 Si / 1000 Ang^3
#
#
#
# Elastic Constant Matrix: (Units=GPa)
#
#
# Indices 1 2 3 4 5 6 
#
# 1 51.4071 13.3402 4.6888 0.0000 -1.9544 0.0000
# 2 13.3402 72.9050 -12.6253 0.0000 -1.0185 0.0000
# 3 4.6888 -12.6253 72.0191 0.0000 10.7928 0.0000
# 4 0.0000 0.0000 0.0000 3.2364 0.0000 8.3490
# 5 -1.9544 -1.0185 10.7928 0.0000 12.9577 0.0000
# 6 0.0000 0.0000 0.0000 8.3490 0.0000 21.6751
#
#
#
# Elastic Compliance Matrix: (Units=1/GPa)
#
#
# Indices 1 2 3 4 5 6 
#
# 1 0.021028 -0.004278 -0.002907 -0.000001 0.005256 0.000000
# 2 -0.004278 0.015030 0.003237 0.000000 -0.002160 0.000000
# 3 -0.002907 0.003237 0.016762 0.000000 -0.014145 0.000000
# 4 -0.000001 0.000000 0.000000 48.857068 -0.000004-18.819123
# 5 0.005256 -0.002160 -0.014145 -0.000004 0.089579 0.000002
# 6 0.000000 0.000000 0.000000-18.819123 0.000002 7.295024
#
#
# Mechanical properties :
#
#
# Convention : Reuss Voigt Hill
#
# Bulk Modulus (GPa) = 22.25963 23.01542 22.63752
# Shear Modulus (GPa) = 0.08878 20.30233 10.19556
#
# Velocity S-wave (km/s) = 0.22062 3.33620 2.36420
# Velocity P-wave (km/s) = 3.50259 5.24002 4.45679
#
# Compressibility (1/GPa) = 0.04492438
#
# Stress axis : x y z
#
# Youngs Moduli (GPa) = 47.55667 66.53545 59.65978
#
# Poissons Ratio (x) = 0.28461 0.17341
# Poissons Ratio (y) = 0.20343 -0.19312
# Poissons Ratio (z) = 0.13823 -0.21537
#
# Static dielectric constant tensor:
#      x y z
#    x 1.639370 0.000000 0.006660 
#    y 0.000000 1.643720 0.000000 
#    z 0.006660 0.000000 1.699370 
# 
# From -- ./inp_files/206384.got.cif
#   From: 2010.05.17/outbox.cif.g08.bks.cpg/sg12_104_cif.got.tgz:206384.got - 2010.06.03 13:09:07.
