data_PCOD9175920
_publ_section_title
;
Structure prediction by ZEFSAII (Michael W. Deem and Ramdas Pophale) SiO2 
 PCOD9175920
Probable space group: C 2/M
;
_chemical_formula_sum "Si O2"
_cell_formula_units_Z 56
_cell_length_a 30.146639
_cell_length_b 8.040628
_cell_length_c 12.967572
_cell_angle_alpha 90.000000
_cell_angle_beta 58.916215
_cell_angle_gamma 90.000000
_cell_volume 2691.974285
_symmetry_space_group_name_H-M "C 2/M"
_symmetry_group_IT_number 12
_symmetry_cell_setting 'monoclinic'
loop_
_space_group_symop_operation_xyz
x,y,z
-x,y,-z
-x,-y,-z
x,-y,z
1/2+x,1/2+y,z
1/2-x,1/2+y,-z
1/2-x,1/2-y,-z
1/2+x,1/2-y,z
loop_
_atom_site_type_symbol
_atom_site_label
_atom_site_fract_x
_atom_site_fract_y
_atom_site_fract_z
Si Si1 0.386369 0.295954 0.999880
Si Si2 0.037428 0.701310 0.549794
Si Si3 0.110160 0.203290 0.773717
Si Si4 0.002421 0.197004 0.817098
Si Si5 0.196956 0.801239 0.509449
Si Si6 0.347734 0.802964 0.646453
Si Si7 0.690900 0.696348 0.083740
O O1 0.386846 0.500000 0.995657
O O2 0.445187 0.237284 0.908958
O O3 0.347146 0.233989 0.959354
O O4 0.371609 0.248689 0.134106
O O5 0.037995 0.500000 0.559501
O O6 0.016601 0.775140 0.680953
O O7 0.095481 0.760902 0.454987
O O8 0.000000 0.743878 0.500000
O O9 0.051535 0.262131 0.822701
O O10 0.148932 0.260291 0.637529
O O11 0.109552 0.000000 0.770900
O O12 0.000055 0.000000 0.841571
O O13 0.250000 0.750000 0.500000
O O14 0.190808 0.735901 0.401031
O O15 0.194249 0.000000 0.508908
O O16 0.329653 0.736063 0.777787
O O17 0.352031 0.000000 0.652364
O O18 0.689908 0.500000 0.072002
O O19 0.750000 0.750000 0.000000
#
# Coordination Sequence:
#
# PCOD9175920 Si02
#       7
#     8   8   8   8   8   8   8
#     4   9  19  35  58  88 120 155 196 244 298 357
#     4  10  21  36  56  83 119 160 197 241 300 358
#     4   9  18  34  58  89 121 151 189 240 298 355
#     4  10  18  33  59  89 117 149 193 244 295 356
#     4  11  23  39  62  92 123 157 201 251 304 365
#     4  11  23  41  63  86 120 161 202 251 304 358
#     4  11  24  41  62  88 119 157 204 252 300 361
#
# _framework density 20.802575000000001
#
# number of rings (size 3 to 8) (size 9 to 14) (size 15 to 20)
#    0.000    1.857    1.429    2.571    2.000    2.571 
#    0.000    0.714    0.000    5.143    0.000    0.000 
#    0.000    0.000    0.000    0.000    0.000    0.000 
#
# Total GULP energy -156466.455703 kJ/mol
# GULP energy per Si atom -5588.087704 kJ/mol
# Density = 2.075523 g / cm^3
# Si number density = 20.802575 Si / 1000 Ang^3
#
#
#
# Elastic Constant Matrix: (Units=GPa)
#
#
# Indices 1 2 3 4 5 6 
#
# 1 134.8966 0.9359 37.9241 0.0000 19.9195 0.0000
# 2 0.9359 15.8784 -2.7012 0.0000 -6.1645 0.0000
# 3 37.9241 -2.7012 93.9701 0.0000 18.6507 0.0000
# 4 0.0000 0.0000 0.0000 12.5778 0.0000 -5.2362
# 5 19.9195 -6.1645 18.6507 0.0000 34.2632 0.0000
# 6 0.0000 0.0000 0.0000 -5.2362 0.0000 17.3392
#
#
#
# Elastic Compliance Matrix: (Units=1/GPa)
#
#
# Indices 1 2 3 4 5 6 
#
# 1 0.008825 -0.002575 -0.002831 0.000000 -0.004053 0.000000
# 2 -0.002575 0.068483 0.000297 0.000000 0.013656 0.000000
# 3 -0.002831 0.000297 0.012843 0.000000 -0.005291 0.000000
# 4 0.000000 0.000000 0.000000 0.090938 0.000000 0.027462
# 5 -0.004053 0.013656 -0.005291 0.000000 0.036879 0.000000
# 6 0.000000 0.000000 0.000000 0.027462 0.000000 0.065966
#
#
# Mechanical properties :
#
#
# Convention : Reuss Voigt Hill
#
# Bulk Modulus (GPa) = 12.51047 35.22918 23.86982
# Shear Modulus (GPa) = 15.58616 26.74179 21.16397
#
# Velocity S-wave (km/s) = 2.74020 3.58928 3.19309
# Velocity P-wave (km/s) = 4.00481 5.84372 5.00937
#
# Compressibility (1/GPa) = 0.07993305
#
# Stress axis : x y z
#
# Youngs Moduli (GPa) = 113.30900 14.60217 77.86275
#
# Poissons Ratio (x) = 0.03761 0.22046
# Poissons Ratio (y) = 0.29181 -0.02316
# Poissons Ratio (z) = 0.32082 -0.00434
#
# Static dielectric constant tensor:
#      x y z
#    x 1.764860 0.000000 -0.002170 
#    y 0.000000 1.760400 0.000000 
#    z -0.002170 0.000000 1.707820 
# 
# From -- ./inp_files/180693.got.cif
#   From: 2010.05.17/outbox.cif.g08.bks.cpg/sg12_91_cif.got.tgz:180693.got - 2010.06.03 13:09:07.
