data_PCOD9175665
_publ_section_title
;
Structure prediction by ZEFSAII (Michael W. Deem and Ramdas Pophale) SiO2 
 PCOD9175665
Probable space group: C 2/M
;
_chemical_formula_sum "Si O2"
_cell_formula_units_Z 64
_cell_length_a 21.312279
_cell_length_b 8.205922
_cell_length_c 25.944905
_cell_angle_alpha 90.000000
_cell_angle_beta 129.484457
_cell_angle_gamma 90.000000
_cell_volume 3501.970708
_symmetry_space_group_name_H-M "C 2/M"
_symmetry_group_IT_number 12
_symmetry_cell_setting 'monoclinic'
loop_
_space_group_symop_operation_xyz
x,y,z
-x,y,-z
-x,-y,-z
x,-y,z
1/2+x,1/2+y,z
1/2-x,1/2+y,-z
1/2-x,1/2-y,-z
1/2+x,1/2-y,z
loop_
_atom_site_type_symbol
_atom_site_label
_atom_site_fract_x
_atom_site_fract_y
_atom_site_fract_z
Si Si1 0.521346 0.196496 0.429268
Si Si2 0.785068 0.305914 0.718395
Si Si3 0.370239 0.196640 0.420859
Si Si4 0.285715 0.300501 0.209684
Si Si5 0.729341 0.196186 0.069989
Si Si6 0.621393 0.303677 0.924846
Si Si7 0.535438 0.696660 0.216872
Si Si8 0.972633 0.804081 0.294887
O O1 0.437340 0.249945 0.413382
O O2 0.594201 0.249260 0.505191
O O3 0.522233 0.257078 0.371616
O O4 0.520911 0.000000 0.428630
O O5 0.787421 0.500000 0.722593
O O6 0.717695 0.257295 0.641183
O O7 0.753627 0.243134 0.757567
O O8 0.874359 0.245394 0.751377
O O9 0.369560 0.000000 0.420137
O O10 0.286243 0.500000 0.210708
O O11 0.237725 0.248789 0.133248
O O12 0.379483 0.246917 0.253312
O O13 0.809028 0.252041 0.079391
O O14 0.731186 0.000000 0.071121
O O15 0.651482 0.250186 0.996677
O O16 0.621504 0.500000 0.923725
O O17 0.533874 0.246238 0.859396
O O18 0.531771 0.500000 0.215828
O O19 0.510527 0.755370 0.261052
O O20 0.969340 0.000000 0.290288
#
# Coordination Sequence:
#
# PCOD9175665 Si02
#       8
#     8   8   8   8   8   8   8   8
#     4   9  18  32  53  81 109 135 168 216 262 306
#     4  11  22  35  54  79 107 137 176 222 259 304
#     4   9  18  34  53  76 109 143 170 203 263 322
#     4   9  17  32  53  78 104 133 171 215 261 306
#     4   9  16  30  53  77 102 131 168 214 260 306
#     4   9  17  31  51  76 103 133 170 211 257 307
#     4  10  21  37  55  74 106 147 176 207 263 323
#     4  10  18  33  56  79 103 136 178 217 257 308
#
# _framework density 18.275423
#
# number of rings (size 3 to 8) (size 9 to 14) (size 15 to 20)
#    0.000    2.500    2.500    1.125    0.000    1.500 
#    0.000    4.375    0.000    3.750    0.000    0.000 
#    0.000    0.000    0.000    0.000    0.000    0.000 
#
# Total GULP energy -178460.310503 kJ/mol
# GULP energy per Si atom -5576.884703 kJ/mol
# Density = 1.823383 g / cm^3
# Si number density = 18.275423 Si / 1000 Ang^3
#
#
#
# Elastic Constant Matrix: (Units=GPa)
#
#
# Indices 1 2 3 4 5 6 
#
# 1 118.2916 13.1384 90.8604 0.0000 6.7383 0.0000
# 2 13.1384 7.3817 14.4120 0.0000 1.1090 0.0000
# 3 90.8604 14.4120 191.8775 0.0000 6.2318 0.0000
# 4 0.0000 0.0000 0.0000 28.3834 0.0000 0.1684
# 5 6.7383 1.1090 6.2318 0.0000 26.9823 0.0000
# 6 0.0000 0.0000 0.0000 0.1684 0.0000 17.1444
#
#
#
# Elastic Compliance Matrix: (Units=1/GPa)
#
#
# Indices 1 2 3 4 5 6 
#
# 1 0.014584 -0.014443 -0.005765 0.000000 -0.001717 0.000000
# 2 -0.014443 0.173440 -0.006119 0.000000 -0.002109 0.000000
# 3 -0.005765 -0.006119 0.008410 0.000000 -0.000251 0.000000
# 4 0.000000 0.000000 0.000000 0.035234 0.000000 -0.000346
# 5 -0.001717 -0.002109 -0.000251 0.000000 0.037635 0.000000
# 6 0.000000 0.000000 0.000000 -0.000346 0.000000 0.058331
#
#
# Mechanical properties :
#
#
# Convention : Reuss Voigt Hill
#
# Bulk Modulus (GPa) = 6.95517 61.59693 34.27605
# Shear Modulus (GPa) = 11.67636 27.77804 19.72720
#
# Velocity S-wave (km/s) = 2.53041 3.90290 3.28905
# Velocity P-wave (km/s) = 3.51444 7.35447 5.76366
#
# Compressibility (1/GPa) = 0.14377787
#
# Stress axis : x y z
#
# Youngs Moduli (GPa) = 68.56758 5.76568 118.91192
#
# Poissons Ratio (x) = 0.08327 0.68559
# Poissons Ratio (y) = 0.99033 0.72766
# Poissons Ratio (z) = 0.39533 0.03528
#
# Static dielectric constant tensor:
#      x y z
#    x 1.607410 0.000000 -0.009440 
#    y 0.000000 1.647290 0.000000 
#    z -0.009440 0.000000 1.637600 
# 
# From -- ./inp_files/346120.got.cif
#   From: 2010.05.17/outbox.cif.g08.bks.cpg/sg12_174_cif.got.tgz:346120.got - 2010.06.03 13:09:07.
