data_PCOD9175021
_publ_section_title
;
Structure prediction by ZEFSAII (Michael W. Deem and Ramdas Pophale) SiO2 
 PCOD9175021
Probable space group: C 2/M
;
_chemical_formula_sum "Si O2"
_cell_formula_units_Z 48
_cell_length_a 15.104314
_cell_length_b 7.683934
_cell_length_c 18.800256
_cell_angle_alpha 90.000000
_cell_angle_beta 83.462418
_cell_angle_gamma 90.000000
_cell_volume 2167.779596
_symmetry_space_group_name_H-M "C 2/M"
_symmetry_group_IT_number 12
_symmetry_cell_setting 'monoclinic'
loop_
_space_group_symop_operation_xyz
x,y,z
-x,y,-z
-x,-y,-z
x,-y,z
1/2+x,1/2+y,z
1/2-x,1/2+y,-z
1/2-x,1/2-y,-z
1/2+x,1/2-y,z
loop_
_atom_site_type_symbol
_atom_site_label
_atom_site_fract_x
_atom_site_fract_y
_atom_site_fract_z
Si Si1 0.400532 0.702264 0.502756
Si Si2 0.565722 0.786731 0.172036
Si Si3 0.620427 0.210990 0.861026
Si Si4 0.771817 0.298385 0.399149
Si Si5 0.145757 0.708364 0.015141
Si Si6 0.778989 0.701377 0.749132
O O1 0.500000 0.778629 0.500000
O O2 0.408879 0.500000 0.523388
O O3 0.320695 0.775677 0.559484
O O4 0.357498 0.712543 0.428059
O O5 0.462693 0.737412 0.180214
O O6 0.627164 0.726025 0.231150
O O7 0.569954 0.000000 0.172242
O O8 0.606338 0.725856 0.092815
O O9 0.604482 0.267706 0.943923
O O10 0.711397 0.283582 0.821296
O O11 0.626694 0.000000 0.860400
O O12 0.777452 0.500000 0.419800
O O13 0.763986 0.288087 0.315497
O O14 0.133702 0.500000 0.018159
O O15 0.250000 0.750000 0.000000
O O16 0.790894 0.500000 0.729338
#
# Coordination Sequence:
#
# PCOD9175021 Si02
#       6
#     8   8   8   8   8   8
#     4   9  19  38  63  89 116 145 178 219 267 315
#     4   9  19  35  54  77 106 143 184 226 279 334
#     4  10  20  35  56  79 104 141 187 232 277 332
#     4  10  21  37  58  85 116 147 182 220 262 321
#     4  10  18  32  55  78 104 138 181 231 281 331
#     4  11  22  37  55  77 112 148 181 226 275 324
#
# _framework density 22.142472999999999
#
# number of rings (size 3 to 8) (size 9 to 14) (size 15 to 20)
#    0.000    2.167    1.667    1.500    0.000    4.333 
#    0.000    5.833    0.000    2.000    0.000    0.000 
#    0.000    0.000    0.000    0.000    0.000    0.000 
#
# Total GULP energy -133974.292536 kJ/mol
# GULP energy per Si atom -5582.262189 kJ/mol
# Density = 2.209208 g / cm^3
# Si number density = 22.142473 Si / 1000 Ang^3
#
#
#
# Elastic Constant Matrix: (Units=GPa)
#
#
# Indices 1 2 3 4 5 6 
#
# 1 120.1014 -0.8662 7.4606 0.0000 30.4549 0.0000
# 2 -0.8662 39.3488 -0.7123 0.0000 -1.4580 0.0000
# 3 7.4606 -0.7123 71.6491 0.0000 23.3716 0.0000
# 4 0.0000 0.0000 0.0000 9.3988 0.0000 -3.6698
# 5 30.4549 -1.4580 23.3716 0.0000 24.1489 0.0000
# 6 0.0000 0.0000 0.0000 -3.6698 0.0000 11.1262
#
#
#
# Elastic Compliance Matrix: (Units=1/GPa)
#
#
# Indices 1 2 3 4 5 6 
#
# 1 0.013934 -0.000457 0.006263 0.000000 -0.023661 0.000000
# 2 -0.000457 0.025492 -0.000568 0.000000 0.002665 0.000000
# 3 0.006263 -0.000568 0.023216 0.000000 -0.030401 0.000000
# 4 0.000000 0.000000 0.000000 0.122124 0.000000 0.040281
# 5 -0.023661 0.002665 -0.030401 0.000000 0.100832 0.000000
# 6 0.000000 0.000000 0.000000 0.040281 0.000000 0.103164
#
#
# Mechanical properties :
#
#
# Convention : Reuss Voigt Hill
#
# Bulk Modulus (GPa) = 13.67670 26.98484 20.33077
# Shear Modulus (GPa) = 12.41746 23.94928 18.18337
#
# Velocity S-wave (km/s) = 2.37069 3.29234 2.86877
# Velocity P-wave (km/s) = 3.69914 5.16391 4.49164
#
# Compressibility (1/GPa) = 0.07311708
#
# Stress axis : x y z
#
# Youngs Moduli (GPa) = 71.76772 39.22775 43.07430
#
# Poissons Ratio (x) = 0.01791 -0.26976
# Poissons Ratio (y) = 0.03277 0.02448
# Poissons Ratio (z) = -0.44946 0.02229
#
# Static dielectric constant tensor:
#      x y z
#    x 1.818850 0.000000 0.006110 
#    y 0.000000 1.847530 0.000000 
#    z 0.006110 0.000000 1.821630 
# 
# From -- ./inp_files/267693.got.cif
#   From: 2010.05.17/outbox.cif.g08.bks.cpg/sg12_134_cif.got.tgz:267693.got - 2010.06.03 13:09:07.
