data_PCOD9175505
_publ_section_title
;
Structure prediction by ZEFSAII (Michael W. Deem and Ramdas Pophale) SiO2 
 PCOD9175505
Probable space group: C 2/M
;
_chemical_formula_sum "Si O2"
_cell_formula_units_Z 52
_cell_length_a 12.598548
_cell_length_b 21.356969
_cell_length_c 18.074368
_cell_angle_alpha 90.000000
_cell_angle_beta 39.658764
_cell_angle_gamma 90.000000
_cell_volume 3103.769775
_symmetry_space_group_name_H-M "C 2/M"
_symmetry_group_IT_number 12
_symmetry_cell_setting 'monoclinic'
loop_
_space_group_symop_operation_xyz
x,y,z
-x,y,-z
-x,-y,-z
x,-y,z
1/2+x,1/2+y,z
1/2-x,1/2+y,-z
1/2-x,1/2-y,-z
1/2+x,1/2-y,z
loop_
_atom_site_type_symbol
_atom_site_label
_atom_site_fract_x
_atom_site_fract_y
_atom_site_fract_z
Si Si1 0.312193 0.663121 0.628565
Si Si2 0.204264 0.322737 0.021263
Si Si3 0.518021 0.191499 0.267693
Si Si4 0.174491 0.927852 0.246628
Si Si5 0.500000 0.121372 0.000000
Si Si6 0.353377 0.803432 0.639608
Si Si7 0.009134 0.838708 0.761654
O O1 0.500000 0.659219 0.500000
O O2 0.286721 0.605691 0.696871
O O3 0.298528 0.730437 0.676531
O O4 0.170421 0.667637 0.642514
O O5 0.129595 0.337769 0.141753
O O6 0.065577 0.336890 0.033309
O O7 0.250000 0.250000 0.000000
O O8 0.374755 0.352278 0.898775
O O9 0.584479 0.176839 0.313197
O O10 0.517386 0.267301 0.254588
O O11 0.343829 0.919470 0.109104
O O12 0.034499 0.886796 0.280091
O O13 0.129112 0.000000 0.278307
O O14 0.500000 0.805838 0.500000
O O15 0.194098 0.840176 0.694467
#
# Coordination Sequence:
#
# PCOD9175505 Si02
#       7
#     8   8   8   8   4   8   8
#     4  10  21  33  53  79 110 140 178 227 270 321
#     4   9  18  28  51  77 110 135 163 223 271 321
#     4  10  18  33  53  80 109 139 169 221 283 319
#     4  11  21  36  56  77 108 145 183 219 258 315
#     4  10  19  36  50  82 112 138 177 210 272 324
#     4  10  21  33  53  79 111 144 173 219 277 330
#     4   9  20  32  50  81 107 139 176 216 264 326
#
# _framework density 16.753820000000001
#
# number of rings (size 3 to 8) (size 9 to 14) (size 15 to 20)
#    0.000    2.154    3.077    0.231    2.154    2.769 
#    0.000    0.000    0.000    1.385    0.000    2.154 
#    0.000    0.000    0.000    0.000    0.000    0.000 
#
# Total GULP energy -144866.283763 kJ/mol
# GULP energy per Si atom -5571.780145 kJ/mol
# Density = 1.671569 g / cm^3
# Si number density = 16.753820 Si / 1000 Ang^3
#
#
#
# Elastic Constant Matrix: (Units=GPa)
#
#
# Indices 1 2 3 4 5 6 
#
# 1 145.7250 38.0862 40.6099 -0.0001 -4.8405 -0.0003
# 2 38.0862 70.6877 12.6266 0.0000 -3.0569 0.0000
# 3 40.6099 12.6266 54.2125 0.0013 -10.3542 -0.0001
# 4 -0.0001 0.0000 0.0013 10.2545 -0.0003 0.5016
# 5 -4.8405 -3.0569 -10.3542 -0.0003 28.7323 0.0000
# 6 -0.0003 0.0000 -0.0001 0.5016 0.0000 13.1117
#
#
#
# Elastic Compliance Matrix: (Units=1/GPa)
#
#
# Indices 1 2 3 4 5 6 
#
# 1 0.009725 -0.004121 -0.006547 0.000001 -0.001159 0.000000
# 2 -0.004121 0.016510 -0.000597 0.000000 0.000847 0.000000
# 3 -0.006547 -0.000597 0.024986 -0.000003 0.007838 0.000000
# 4 0.000001 0.000000 -0.000003 0.097701 0.000000 -0.003738
# 5 -0.001159 0.000847 0.007838 0.000000 0.037523 0.000000
# 6 0.000000 0.000000 0.000000 -0.003738 0.000000 0.076411
#
#
# Mechanical properties :
#
#
# Convention : Reuss Voigt Hill
#
# Bulk Modulus (GPa) = 34.85175 50.36342 42.60758
# Shear Modulus (GPa) = 16.95210 22.37319 19.66265
#
# Velocity S-wave (km/s) = 3.18439 3.65829 3.42953
# Velocity P-wave (km/s) = 5.86241 6.92605 6.41631
#
# Compressibility (1/GPa) = 0.02869297
#
# Stress axis : x y z
#
# Youngs Moduli (GPa) = 102.82742 60.56888 40.02264
#
# Poissons Ratio (x) = 0.24958 0.26201
# Poissons Ratio (y) = 0.42371 0.02389
# Poissons Ratio (z) = 0.67317 0.03615
#
# Static dielectric constant tensor:
#      x y z
#    x 1.563570 0.000000 -0.001370 
#    y 0.000000 1.540650 0.000000 
#    z -0.001370 0.000000 1.619230 
# 
# From -- ./inp_files/184321.got.cif
#   From: 2010.05.17/outbox.cif.g08.bks.cpg/sg12_93_cif.got.tgz:184321.got - 2010.06.03 13:09:07.
