data_PCOD9175695
_publ_section_title
;
Structure prediction by ZEFSAII (Michael W. Deem and Ramdas Pophale) SiO2 
 PCOD9175695
Probable space group: C 2/M
;
_chemical_formula_sum "Si O2"
_cell_formula_units_Z 56
_cell_length_a 25.440279
_cell_length_b 8.870862
_cell_length_c 15.500452
_cell_angle_alpha 90.000000
_cell_angle_beta 105.312863
_cell_angle_gamma 90.000000
_cell_volume 3373.909712
_symmetry_space_group_name_H-M "C 2/M"
_symmetry_group_IT_number 12
_symmetry_cell_setting 'monoclinic'
loop_
_space_group_symop_operation_xyz
x,y,z
-x,y,-z
-x,-y,-z
x,-y,z
1/2+x,1/2+y,z
1/2-x,1/2+y,-z
1/2-x,1/2-y,-z
1/2+x,1/2-y,z
loop_
_atom_site_type_symbol
_atom_site_label
_atom_site_fract_x
_atom_site_fract_y
_atom_site_fract_z
Si Si1 0.240627 0.180507 0.590352
Si Si2 0.062759 0.819479 0.385757
Si Si3 0.618151 0.318691 0.590680
Si Si4 0.577074 0.682836 0.097981
Si Si5 0.447658 0.179062 0.282597
Si Si6 0.654758 0.318557 0.281850
Si Si7 0.455178 0.317776 0.103212
O O1 0.250000 0.250000 0.500000
O O2 0.180706 0.222410 0.598547
O O3 0.288669 0.239955 0.672072
O O4 0.242566 0.000000 0.584264
O O5 0.082668 0.780342 0.490397
O O6 0.111481 0.787226 0.339780
O O7 0.007775 0.736914 0.335269
O O8 0.052818 0.000000 0.377851
O O9 0.615204 0.500000 0.599633
O O10 0.593734 0.240841 0.663824
O O11 0.577561 0.500000 0.098486
O O12 0.626015 0.732036 0.180646
O O13 0.518641 0.724516 0.114042
O O14 0.576430 0.728788 0.997671
O O15 0.435497 0.245008 0.182718
O O16 0.446789 0.000000 0.280079
O O17 0.662364 0.500000 0.283162
O O18 0.453139 0.500000 0.109380
#
# Coordination Sequence:
#
# PCOD9175695 Si02
#       7
#     8   8   8   8   8   8   8
#     4  11  22  37  56  79 105 139 180 221 263 307
#     4  10  19  35  56  76 104 144 179 210 254 317
#     4  10  22  39  55  72 100 145 188 214 251 313
#     4   8  15  29  55  82 103 134 178 214 252 311
#     4  12  24  34  49  79 112 141 173 220 271 309
#     4  10  18  33  56  83 110 137 172 217 262 311
#     4   9  16  32  55  77 103 140 178 212 252 316
#
# _framework density 16.597954999999999
#
# number of rings (size 3 to 8) (size 9 to 14) (size 15 to 20)
#    0.000    2.000    2.857    3.000    0.000    4.000 
#    0.000    2.143    0.000    0.857    0.000    0.000 
#    0.000    0.000    0.000    0.000    0.000    0.000 
#
# Total GULP energy -156283.260814 kJ/mol
# GULP energy per Si atom -5581.545029 kJ/mol
# Density = 1.656018 g / cm^3
# Si number density = 16.597955 Si / 1000 Ang^3
#
#
#
# Elastic Constant Matrix: (Units=GPa)
#
#
# Indices 1 2 3 4 5 6 
#
# 1 76.8318 37.3919 61.9982 0.0000 -11.1621 0.0000
# 2 37.3919 34.5853 44.3156 0.0000 -8.4542 0.0000
# 3 61.9982 44.3156 162.5776 0.0000 -7.4778 0.0000
# 4 0.0000 0.0000 0.0000 13.1807 0.0000 7.4604
# 5 -11.1621 -8.4542 -7.4778 0.0000 26.3731 0.0000
# 6 0.0000 0.0000 0.0000 7.4604 0.0000 23.3526
#
#
#
# Elastic Compliance Matrix: (Units=1/GPa)
#
#
# Indices 1 2 3 4 5 6 
#
# 1 0.029173 -0.025715 -0.003979 0.000000 0.002976 0.000000
# 2 -0.025715 0.070458 -0.008978 0.000000 0.009157 0.000000
# 3 -0.003979 -0.008978 0.010037 0.000000 -0.001716 0.000000
# 4 0.000000 0.000000 0.000000 0.092616 0.000000 -0.029588
# 5 0.002976 0.009157 -0.001716 0.000000 0.041626 0.000000
# 6 0.000000 0.000000 0.000000 -0.029588 0.000000 0.052274
#
#
# Mechanical properties :
#
#
# Convention : Reuss Voigt Hill
#
# Bulk Modulus (GPa) = 30.93661 62.37845 46.65753
# Shear Modulus (GPa) = 13.01061 21.26720 17.13891
#
# Velocity S-wave (km/s) = 2.80280 3.58343 3.21688
# Velocity P-wave (km/s) = 5.39940 7.40168 6.47836
#
# Compressibility (1/GPa) = 0.03232416
#
# Stress axis : x y z
#
# Youngs Moduli (GPa) = 34.27821 14.19282 99.63617
#
# Poissons Ratio (x) = 0.36497 0.39642
# Poissons Ratio (y) = 0.88146 0.89455
# Poissons Ratio (z) = 0.13638 0.12743
#
# Static dielectric constant tensor:
#      x y z
#    x 1.532020 0.000000 0.004370 
#    y 0.000000 1.552570 0.000000 
#    z 0.004370 0.000000 1.567640 
# 
# From -- ./inp_files/237869.got.cif
#   From: 2010.05.17/outbox.cif.g08.bks.cpg/sg12_119_cif.got.tgz:237869.got - 2010.06.03 13:09:07.
