data_PCOD9175677
_publ_section_title
;
Structure prediction by ZEFSAII (Michael W. Deem and Ramdas Pophale) SiO2 
 PCOD9175677
Probable space group: C 2/M
;
_chemical_formula_sum "Si O2"
_cell_formula_units_Z 44
_cell_length_a 11.736330
_cell_length_b 13.923167
_cell_length_c 22.068845
_cell_angle_alpha 90.000000
_cell_angle_beta 152.502600
_cell_angle_gamma 90.000000
_cell_volume 1665.013230
_symmetry_space_group_name_H-M "C 2/M"
_symmetry_group_IT_number 12
_symmetry_cell_setting 'monoclinic'
loop_
_space_group_symop_operation_xyz
x,y,z
-x,y,-z
-x,-y,-z
x,-y,z
1/2+x,1/2+y,z
1/2-x,1/2+y,-z
1/2-x,1/2-y,-z
1/2+x,1/2-y,z
loop_
_atom_site_type_symbol
_atom_site_label
_atom_site_fract_x
_atom_site_fract_y
_atom_site_fract_z
Si Si1 0.274652 0.385442 0.151434
Si Si2 0.000000 0.287702 0.500000
Si Si3 0.895822 0.241659 0.781728
Si Si4 0.749972 0.391841 0.081442
Si Si5 0.555277 0.109663 0.697794
Si Si6 0.130362 0.113568 0.417030
O O1 0.309650 0.500000 0.164193
O O2 0.445511 0.329669 0.185722
O O3 0.368019 0.356240 0.263631
O O4 0.000000 0.364164 0.000000
O O5 0.165985 0.232196 0.628232
O O6 0.178562 0.358280 0.545996
O O7 0.776702 0.173370 0.776308
O O8 0.099622 0.323495 0.892501
O O9 0.710503 0.500000 0.038777
O O10 0.935282 0.394321 0.226027
O O11 0.500000 0.363762 0.000000
O O12 0.291997 0.148846 0.550556
O O13 0.588022 0.000000 0.690915
O O14 0.102869 0.000000 0.414183
#
# Coordination Sequence:
#
# PCOD9175677 Si02
#       6
#     8   4   8   8   8   8
#     4   9  16  26  45  78 116 145 172 218 277 326
#     4   8  15  26  45  78 106 132 172 222 270 316
#     4  10  18  33  56  80 108 144 181 225 275 325
#     4  10  22  39  57  78 107 146 189 228 270 326
#     4   9  18  34  58  84 108 141 185 227 270 326
#     4   8  13  24  44  71 105 142 176 213 264 324
#
# _framework density 26.426216
#
# number of rings (size 3 to 8) (size 9 to 14) (size 15 to 20)
#    0.000    2.909    0.000    1.364    0.000    5.091 
#    0.000    8.636    0.000    2.182    0.000    0.000 
#    0.000    0.000    0.000    0.000    0.000    0.000 
#
# Total GULP energy -122913.054884 kJ/mol
# GULP energy per Si atom -5586.957040 kJ/mol
# Density = 2.636607 g / cm^3
# Si number density = 26.426216 Si / 1000 Ang^3
#
#
#
# Elastic Constant Matrix: (Units=GPa)
#
#
# Indices 1 2 3 4 5 6 
#
# 1 23.3993 11.4835 21.1182 -0.0100 0.7482 -0.0096
# 2 11.4835 105.2880 17.4812 -0.0338 36.1061 -0.0422
# 3 21.1182 17.4812 159.1471 -0.0812 8.3158 -0.0961
# 4 -0.0100 -0.0338 -0.0812 178.0783 -0.0291 179.0646
# 5 0.7482 36.1061 8.3158 -0.0291 57.7149 -0.0345
# 6 -0.0096 -0.0422 -0.0961 179.0646 -0.0345 239.4483
#
#
#
# Elastic Compliance Matrix: (Units=1/GPa)
#
#
# Indices 1 2 3 4 5 6 
#
# 1 0.051235 -0.005880 -0.006358 0.000002 0.003931 -0.000002
# 2 -0.005880 0.012908 -0.000221 0.000000 -0.007967 0.000001
# 3 -0.006358 -0.000221 0.007194 0.000001 -0.000816 0.000002
# 4 0.000002 0.000000 0.000001 0.022640 0.000001 -0.016931
# 5 0.003931 -0.007967 -0.000816 0.000001 0.022377 0.000001
# 6 -0.000002 0.000001 0.000002 -0.016931 0.000001 0.016837
#
#
# Mechanical properties :
#
#
# Convention : Reuss Voigt Hill
#
# Bulk Modulus (GPa) = 21.54362 43.11114 32.32738
# Shear Modulus (GPa) = 28.80463 110.89841 69.85152
#
# Velocity S-wave (km/s) = 3.30510 6.48509 5.14685
# Velocity P-wave (km/s) = 4.76812 8.51025 6.89780
#
# Compressibility (1/GPa) = 0.04641746
#
# Stress axis : x y z
#
# Youngs Moduli (GPa) = 19.51797 77.47157 139.00230
#
# Poissons Ratio (x) = 0.45556 0.88380
# Poissons Ratio (y) = 0.11477 0.03076
# Poissons Ratio (z) = 0.12410 0.01714
#
# Static dielectric constant tensor:
#      x y z
#    x 2.054720 0.000000 -0.045810 
#    y 0.000000 2.116000 0.000000 
#    z -0.045810 0.000000 2.163230 
# 
# From -- ./inp_files/376525.got.cif
#   From: 2010.05.17/outbox.cif.g08.bks.cpg/sg12_189_cif.got.tgz:376525.got - 2010.06.03 13:09:07.
