data_PCOD9175963
_publ_section_title
;
Structure prediction by ZEFSAII (Michael W. Deem and Ramdas Pophale) SiO2 
 PCOD9175963
Probable space group: C 2/M
;
_chemical_formula_sum "Si O2"
_cell_formula_units_Z 40
_cell_length_a 13.379232
_cell_length_b 13.805195
_cell_length_c 20.688506
_cell_angle_alpha 90.000000
_cell_angle_beta 32.650748
_cell_angle_gamma 90.000000
_cell_volume 2061.616078
_symmetry_space_group_name_H-M "C 2/M"
_symmetry_group_IT_number 12
_symmetry_cell_setting 'monoclinic'
loop_
_space_group_symop_operation_xyz
x,y,z
-x,y,-z
-x,-y,-z
x,-y,z
1/2+x,1/2+y,z
1/2-x,1/2+y,-z
1/2-x,1/2-y,-z
1/2+x,1/2-y,z
loop_
_atom_site_type_symbol
_atom_site_label
_atom_site_fract_x
_atom_site_fract_y
_atom_site_fract_z
Si Si1 0.640045 0.387905 0.730632
Si Si2 0.268946 0.387717 0.539505
Si Si3 0.615140 0.609537 0.003483
Si Si4 0.943419 0.717759 0.772135
Si Si5 0.981609 0.707451 0.607769
O O1 0.655796 0.500000 0.703746
O O2 0.520270 0.381810 0.862044
O O3 0.529384 0.320986 0.741576
O O4 0.840531 0.341714 0.635848
O O5 0.317495 0.500000 0.514636
O O6 0.113816 0.358867 0.677293
O O7 0.435429 0.311582 0.455732
O O8 0.157371 0.359124 0.533862
O O9 0.693387 0.500000 0.961715
O O10 0.716904 0.815523 0.092946
O O11 0.500000 0.618581 0.000000
O O12 0.877305 0.718355 0.733715
#
# Coordination Sequence:
#
# PCOD9175963 Si02
#       5
#     8   8   8   8   8
#     4  11  22  36  57  85 113 147 187 228 276 332
#     4   9  18  37  58  78 112 149 185 228 276 328
#     4  10  18  33  61  85 107 145 184 225 278 328
#     4  10  20  35  55  87 114 140 183 235 275 323
#     4   9  20  36  56  83 113 145 189 223 278 325
#
# _framework density 19.402253000000002
#
# number of rings (size 3 to 8) (size 9 to 14) (size 15 to 20)
#    1.200    1.000    2.000    1.800    0.000    1.600 
#    0.000    4.000    0.000    1.800    0.000    0.000 
#    0.000    0.000    0.000    0.000    0.000    0.000 
#
# Total GULP energy -111494.218484 kJ/mol
# GULP energy per Si atom -5574.710924 kJ/mol
# Density = 1.935809 g / cm^3
# Si number density = 19.402253 Si / 1000 Ang^3
#
#
#
# Elastic Constant Matrix: (Units=GPa)
#
#
# Indices 1 2 3 4 5 6 
#
# 1 45.8596 38.5761 3.4097 -0.0003 -12.6665 0.0001
# 2 38.5761 165.8195 35.5156 -0.0003 -27.7719 0.0003
# 3 3.4097 35.5156 69.6813 -0.0013 -16.4059 0.0010
# 4 -0.0003 -0.0003 -0.0013 29.5066 0.0007 -1.3353
# 5 -12.6665 -27.7719 -16.4059 0.0007 25.1655 -0.0004
# 6 0.0001 0.0003 0.0010 -1.3353 -0.0004 20.8666
#
#
#
# Elastic Compliance Matrix: (Units=1/GPa)
#
#
# Indices 1 2 3 4 5 6 
#
# 1 0.029520 -0.005909 0.004170 0.000000 0.011056 0.000000
# 2 -0.005909 0.008873 -0.003105 0.000000 0.004794 0.000000
# 3 0.004170 -0.003105 0.018212 0.000001 0.010546 -0.000001
# 4 0.000000 0.000000 0.000001 0.033989 -0.000001 0.002175
# 5 0.011056 0.004794 0.010546 -0.000001 0.057467 0.000000
# 6 0.000000 0.000000 -0.000001 0.002175 0.000000 0.048063
#
#
# Mechanical properties :
#
#
# Convention : Reuss Voigt Hill
#
# Bulk Modulus (GPa) = 21.31362 48.48481 34.89922
# Shear Modulus (GPa) = 22.57839 28.69832 25.63836
#
# Velocity S-wave (km/s) = 3.41500 3.85011 3.63907
# Velocity P-wave (km/s) = 5.15351 6.69388 5.97355
#
# Compressibility (1/GPa) = 0.04691836
#
# Stress axis : x y z
#
# Youngs Moduli (GPa) = 33.87560 112.69883 54.90792
#
# Poissons Ratio (x) = 0.66594 -0.22898
# Poissons Ratio (y) = 0.20017 0.17047
# Poissons Ratio (z) = -0.14127 0.34990
#
# Static dielectric constant tensor:
#      x y z
#    x 1.680190 0.000000 0.027610 
#    y 0.000000 1.643750 0.000000 
#    z 0.027610 0.000000 1.727360 
# 
# From -- ./inp_files/316071.got.cif
#   From: 2010.05.17/outbox.cif.g08.bks.cpg/sg12_159_cif.got.tgz:316071.got - 2010.06.03 13:09:07.
