data_PCOD9175225
_publ_section_title
;
Structure prediction by ZEFSAII (Michael W. Deem and Ramdas Pophale) SiO2 
 PCOD9175225
Probable space group: C 2/M
;
_chemical_formula_sum "Si O2"
_cell_formula_units_Z 64
_cell_length_a 20.955388
_cell_length_b 7.464822
_cell_length_c 26.048229
_cell_angle_alpha 90.000000
_cell_angle_beta 133.189157
_cell_angle_gamma 90.000000
_cell_volume 2970.840717
_symmetry_space_group_name_H-M "C 2/M"
_symmetry_group_IT_number 12
_symmetry_cell_setting 'monoclinic'
loop_
_space_group_symop_operation_xyz
x,y,z
-x,y,-z
-x,-y,-z
x,-y,z
1/2+x,1/2+y,z
1/2-x,1/2+y,-z
1/2-x,1/2-y,-z
1/2+x,1/2-y,z
loop_
_atom_site_type_symbol
_atom_site_label
_atom_site_fract_x
_atom_site_fract_y
_atom_site_fract_z
Si Si1 0.189373 0.784400 0.917488
Si Si2 0.712783 0.785811 0.535808
Si Si3 0.551061 0.216745 0.079662
Si Si4 0.004240 0.792801 0.168220
Si Si5 0.982060 0.718536 0.548833
Si Si6 0.838150 0.283923 0.304127
Si Si7 0.261576 0.210083 0.850309
Si Si8 0.306517 0.280539 0.691356
O O1 0.234246 0.714914 0.890197
O O2 0.090048 0.714657 0.868608
O O3 0.182953 0.000000 0.909721
O O4 0.250000 0.750000 0.000000
O O5 0.750000 0.750000 0.500000
O O6 0.613281 0.718279 0.486366
O O7 0.772034 0.722777 0.616351
O O8 0.708727 0.000000 0.539707
O O9 0.511457 0.286300 0.110583
O O10 0.649984 0.283036 0.126300
O O11 0.549048 0.000000 0.082845
O O12 0.500000 0.266168 0.000000
O O13 0.095473 0.717293 0.240802
O O14 0.003295 0.000000 0.184280
O O15 0.981071 0.500000 0.550172
O O16 0.000000 0.768482 0.500000
O O17 0.065511 0.778795 0.627237
O O18 0.838031 0.500000 0.306331
O O19 0.812787 0.228835 0.233080
O O20 0.764040 0.223888 0.304182
O O21 0.279792 0.000000 0.868842
O O22 0.307549 0.500000 0.693138
#
# Coordination Sequence:
#
# PCOD9175225 Si02
#       8
#     8   8   8   8   8   8   8   8
#     4  10  22  39  57  77 107 144 179 218 266 321
#     4  10  20  35  55  81 112 143 178 220 266 316
#     4  10  20  34  53  77 106 139 173 212 264 322
#     4  10  20  35  56  81 104 135 181 223 262 311
#     4   9  16  30  55  81 103 138 186 225 258 304
#     4  10  18  32  57  83 105 137 183 227 262 306
#     4  10  21  36  53  78 111 142 171 214 272 323
#     4   9  17  32  55  79 106 139 175 219 267 311
#
# _framework density 21.542722999999999
#
# number of rings (size 3 to 8) (size 9 to 14) (size 15 to 20)
#    0.000    2.250    2.500    0.750    0.000    3.250 
#    0.000    3.125    0.000    0.750    0.000    0.000 
#    0.000    0.000    0.000    0.000    0.000    0.000 
#
# Total GULP energy -178735.571522 kJ/mol
# GULP energy per Si atom -5585.486610 kJ/mol
# Density = 2.149369 g / cm^3
# Si number density = 21.542723 Si / 1000 Ang^3
#
#
#
# Elastic Constant Matrix: (Units=GPa)
#
#
# Indices 1 2 3 4 5 6 
#
# 1 90.2967 -2.2218 3.9097 0.0000 -3.8189 0.0000
# 2 -2.2218 61.5798 -13.4451 0.0001 4.1671 -0.0002
# 3 3.9097 -13.4451 79.2977 0.0000 -3.6079 0.0000
# 4 0.0000 0.0001 0.0000 14.8785 0.0000 -5.6288
# 5 -3.8189 4.1671 -3.6079 0.0000 42.0569 0.0000
# 6 0.0000 -0.0002 0.0000 -5.6288 0.0000 7.5643
#
#
#
# Elastic Compliance Matrix: (Units=1/GPa)
#
#
# Indices 1 2 3 4 5 6 
#
# 1 0.011141 0.000236 -0.000466 0.000000 0.000948 0.000000
# 2 0.000236 0.016955 0.002799 0.000000 -0.001418 0.000000
# 3 -0.000466 0.002799 0.013145 0.000000 0.000808 0.000000
# 4 0.000000 0.000000 0.000000 0.093546 0.000000 0.069610
# 5 0.000948 -0.001418 0.000808 0.000000 0.024073 0.000000
# 6 0.000000 0.000000 0.000000 0.069610 0.000000 0.183999
#
#
# Mechanical properties :
#
#
# Convention : Reuss Voigt Hill
#
# Bulk Modulus (GPa) = 21.56238 23.07332 22.31785
# Shear Modulus (GPa) = 14.15706 29.09537 21.62622
#
# Velocity S-wave (km/s) = 2.56630 3.67902 3.17184
# Velocity P-wave (km/s) = 4.33729 5.36476 4.87815
#
# Compressibility (1/GPa) = 0.04637706
#
# Stress axis : x y z
#
# Youngs Moduli (GPa) = 89.76102 58.98104 76.07491
#
# Poissons Ratio (x) = -0.01392 0.03546
# Poissons Ratio (y) = -0.02118 -0.21290
# Poissons Ratio (z) = 0.04184 -0.16506
#
# Static dielectric constant tensor:
#      x y z
#    x 1.785770 0.000000 0.054930 
#    y 0.000000 1.845910 0.000000 
#    z 0.054930 0.000000 1.778780 
# 
# From -- ./inp_files/320994.got.cif
#   From: 2010.05.17/outbox.cif.g08.bks.cpg/sg12_161_cif.got.tgz:320994.got - 2010.06.03 13:09:07.
