data_PCOD9175978
_publ_section_title
;
Structure prediction by ZEFSAII (Michael W. Deem and Ramdas Pophale) SiO2 
 PCOD9175978
Probable space group: C 2/M
;
_chemical_formula_sum "Si O2"
_cell_formula_units_Z 40
_cell_length_a 14.295635
_cell_length_b 13.933745
_cell_length_c 9.260318
_cell_angle_alpha 90.000000
_cell_angle_beta 109.978017
_cell_angle_gamma 90.000000
_cell_volume 1733.579002
_symmetry_space_group_name_H-M "C 2/M"
_symmetry_group_IT_number 12
_symmetry_cell_setting 'monoclinic'
loop_
_space_group_symop_operation_xyz
x,y,z
-x,y,-z
-x,-y,-z
x,-y,z
1/2+x,1/2+y,z
1/2-x,1/2+y,-z
1/2-x,1/2-y,-z
1/2+x,1/2-y,z
loop_
_atom_site_type_symbol
_atom_site_label
_atom_site_fract_x
_atom_site_fract_y
_atom_site_fract_z
Si Si1 0.976939 0.718218 0.146941
Si Si2 0.886515 0.109649 0.443426
Si Si3 0.895843 0.110285 0.787202
Si Si4 0.292035 0.781733 0.248402
Si Si5 0.404380 0.893436 0.552738
O O1 0.000493 0.832146 0.157881
O O2 0.058492 0.669947 0.295181
O O3 0.868784 0.699076 0.158106
O O4 0.000000 0.680474 0.000000
O O5 0.864185 0.108686 0.601686
O O6 0.810661 0.172880 0.310490
O O7 0.000000 0.151175 0.500000
O O8 0.891344 0.000000 0.393196
O O9 0.817578 0.176609 0.833228
O O10 0.899476 0.000000 0.837879
O O11 0.329243 0.839762 0.408805
O O12 0.500000 0.903656 0.500000
O O13 0.370267 0.000000 0.577926
#
# Coordination Sequence:
#
# PCOD9175978 Si02
#       5
#     8   8   8   8   8
#     4  11  24  40  61  89 128 169 207 251 304 367
#     4  10  18  33  61  95 125 155 198 257 312 358
#     4  11  23  39  64  95 125 160 207 258 311 365
#     4  11  20  39  64  92 123 160 204 258 313 364
#     4   9  18  35  59  87 118 156 199 246 305 363
#
# _framework density 23.073651999999999
#
# number of rings (size 3 to 8) (size 9 to 14) (size 15 to 20)
#    0.000    1.600    4.000    1.800    0.000    2.400 
#    0.000    0.000    0.000    0.000    0.000    0.000 
#    0.000    0.000    0.000    0.000    0.000    0.000 
#
# Total GULP energy -111790.415956 kJ/mol
# GULP energy per Si atom -5589.520798 kJ/mol
# Density = 2.302114 g / cm^3
# Si number density = 23.073652 Si / 1000 Ang^3
#
#
#
# Elastic Constant Matrix: (Units=GPa)
#
#
# Indices 1 2 3 4 5 6 
#
# 1 134.7143 30.8230 23.6200 0.0000 -7.6130 0.0000
# 2 30.8230 135.4679 19.5383 0.0000 -0.5111 0.0000
# 3 23.6200 19.5383 89.1658 0.0000 -24.7344 0.0000
# 4 0.0000 0.0000 0.0000 -57.6752 0.0000 -49.8944
# 5 -7.6130 -0.5111 -24.7344 0.0000 26.9078 0.0000
# 6 0.0000 0.0000 0.0000 -49.8944 0.0000 -5.2910
#
#
#
# Elastic Compliance Matrix: (Units=1/GPa)
#
#
# Indices 1 2 3 4 5 6 
#
# 1 0.008114 -0.001617 -0.001566 0.000000 0.000825 0.000000
# 2 -0.001617 0.008016 -0.001896 0.000000 -0.002048 0.000000
# 3 -0.001566 -0.001896 0.015990 0.000000 0.014219 0.000000
# 4 0.000000 0.000000 0.000000 0.002422 0.000000 -0.022842
# 5 0.000825 -0.002048 0.014219 0.000000 0.050429 0.000000
# 6 0.000000 0.000000 0.000000 -0.022842 0.000000 0.026405
#
#
# Mechanical properties :
#
#
# Convention : Reuss Voigt Hill
#
# Bulk Modulus (GPa) = 45.53623 56.36784 50.95204
# Shear Modulus (GPa) = 38.80323 11.81276 25.30800
#
# Velocity S-wave (km/s) = 4.10532 2.26511 3.31544
# Velocity P-wave (km/s) = 6.49996 5.59674 6.06519
#
# Compressibility (1/GPa) = 0.02196053
#
# Stress axis : x y z
#
# Youngs Moduli (GPa) = 123.23772 124.75746 62.53998
#
# Poissons Ratio (x) = 0.20177 0.09795
# Poissons Ratio (y) = 0.19931 0.11859
# Poissons Ratio (z) = 0.19301 0.23656
#
# Static dielectric constant tensor:
#      x y z
#    x 1.939680 0.000000 0.006890 
#    y 0.000000 1.882630 0.000000 
#    z 0.006890 0.000000 1.893920 
# 
# From -- ./inp_files/59214.got.cif
#   From: 2010.05.17/outbox.cif.g08.bks.cpg/sg12_30_cif.got.tgz:59214.got - 2010.06.03 13:09:07.
