data_PCOD9175087
_publ_section_title
;
Structure prediction by ZEFSAII (Michael W. Deem and Ramdas Pophale) SiO2 
 PCOD9175087
Probable space group: C 2/M
;
_chemical_formula_sum "Si O2"
_cell_formula_units_Z 56
_cell_length_a 19.558531
_cell_length_b 14.117368
_cell_length_c 15.299296
_cell_angle_alpha 90.000000
_cell_angle_beta 45.452738
_cell_angle_gamma 90.000000
_cell_volume 3010.586692
_symmetry_space_group_name_H-M "C 2/M"
_symmetry_group_IT_number 12
_symmetry_cell_setting 'monoclinic'
loop_
_space_group_symop_operation_xyz
x,y,z
-x,y,-z
-x,-y,-z
x,-y,z
1/2+x,1/2+y,z
1/2-x,1/2+y,-z
1/2-x,1/2-y,-z
1/2+x,1/2-y,z
loop_
_atom_site_type_symbol
_atom_site_label
_atom_site_fract_x
_atom_site_fract_y
_atom_site_fract_z
Si Si1 0.902702 0.790053 0.048218
Si Si2 0.585541 0.388876 0.142076
Si Si3 0.625945 0.386028 0.592762
Si Si4 0.210995 0.111575 0.693409
Si Si5 0.388093 0.386796 0.586312
Si Si6 0.602028 0.111363 0.365159
Si Si7 0.201529 0.223297 0.174939
O O1 0.853342 0.840120 0.175156
O O2 0.815974 0.731406 0.082458
O O3 0.928096 0.862646 0.947239
O O4 0.000000 0.744810 0.000000
O O5 0.609057 0.500000 0.129499
O O6 0.485061 0.370994 0.281811
O O7 0.664510 0.324229 0.119228
O O8 0.639175 0.500000 0.575796
O O9 0.689419 0.350396 0.616201
O O10 0.644173 0.349081 0.479307
O O11 0.319560 0.120036 0.628192
O O12 0.186273 0.000000 0.715231
O O13 0.500000 0.365306 0.500000
O O14 0.378910 0.500000 0.595827
O O15 0.330940 0.343672 0.716814
O O16 0.500000 0.137711 0.500000
O O17 0.645087 0.178230 0.249588
O O18 0.597668 0.000000 0.342546
#
# Coordination Sequence:
#
# PCOD9175087 Si02
#       7
#     8   8   8   8   8   8   8
#     4  11  22  36  53  77 113 152 192 234 276 328
#     4  11  21  35  59  86 113 144 183 240 294 332
#     4   9  17  29  52  85 110 133 169 225 293 339
#     4   9  17  32  53  78 106 137 183 234 283 327
#     4  10  18  32  55  83 114 143 177 228 285 338
#     4   9  19  35  54  76 108 151 188 221 268 334
#     4  11  22  36  55  83 114 150 188 232 280 338
#
# _framework density 18.601026999999998
#
# number of rings (size 3 to 8) (size 9 to 14) (size 15 to 20)
#    0.000    2.000    2.857    1.714    0.000    1.143 
#    0.000    4.286    0.000    1.714    0.000    0.000 
#    0.000    0.000    0.000    0.000    0.000    0.000 
#
# Total GULP energy -156116.930478 kJ/mol
# GULP energy per Si atom -5575.604660 kJ/mol
# Density = 1.855869 g / cm^3
# Si number density = 18.601027 Si / 1000 Ang^3
#
#
#
# Elastic Constant Matrix: (Units=GPa)
#
#
# Indices 1 2 3 4 5 6 
#
# 1 96.9213 29.1830 36.4485 0.0000 4.1200 0.0000
# 2 29.1830 51.5079 3.1583 0.0000 -0.3859 0.0000
# 3 36.4485 3.1583 53.2717 0.0000 4.9775 0.0000
# 4 0.0000 0.0000 0.0000 -46.8858 0.0000 -0.0748
# 5 4.1200 -0.3859 4.9775 0.0000 36.1126 0.0000
# 6 0.0000 0.0000 0.0000 -0.0748 0.0000 21.6385
#
#
#
# Elastic Compliance Matrix: (Units=1/GPa)
#
#
# Indices 1 2 3 4 5 6 
#
# 1 0.017324 -0.009129 -0.011263 0.000000 -0.000522 0.000000
# 2 -0.009129 0.024301 0.004745 0.000000 0.000647 0.000000
# 3 -0.011263 0.004745 0.026412 0.000000 -0.002305 0.000000
# 4 0.000000 0.000000 0.000000 -0.021328 0.000000 -0.000074
# 5 -0.000522 0.000647 -0.002305 0.000000 0.028075 0.000000
# 6 0.000000 0.000000 0.000000 -0.000074 0.000000 0.046214
#
#
# Mechanical properties :
#
#
# Convention : Reuss Voigt Hill
#
# Bulk Modulus (GPa) = 27.21665 37.69783 32.45724
# Shear Modulus (GPa) = 30.38787 11.03378 20.71083
#
# Velocity S-wave (km/s) = 4.04625 2.43817 3.34042
# Velocity P-wave (km/s) = 6.04095 5.31383 5.68902
#
# Compressibility (1/GPa) = 0.03674221
#
# Stress axis : x y z
#
# Youngs Moduli (GPa) = 57.72282 41.15139 37.86154
#
# Poissons Ratio (x) = 0.37566 0.42644
# Poissons Ratio (y) = 0.52694 -0.17964
# Poissons Ratio (z) = 0.65015 -0.19525
#
# Static dielectric constant tensor:
#      x y z
#    x 1.672410 0.000000 -0.008710 
#    y 0.000000 1.670860 0.000000 
#    z -0.008710 0.000000 1.639950 
# 
# From -- ./inp_files/225167.got.cif
#   From: 2010.05.17/outbox.cif.g08.bks.cpg/sg12_113_cif.got.tgz:225167.got - 2010.06.03 13:09:07.
