data_PCOD9175000
_publ_section_title
;
Structure prediction by ZEFSAII (Michael W. Deem and Ramdas Pophale) SiO2 
 PCOD9175000
Probable space group: C 2/M
;
_chemical_formula_sum "Si O2"
_cell_formula_units_Z 56
_cell_length_a 20.541097
_cell_length_b 7.460664
_cell_length_c 18.020371
_cell_angle_alpha 90.000000
_cell_angle_beta 117.746204
_cell_angle_gamma 90.000000
_cell_volume 2444.089942
_symmetry_space_group_name_H-M "C 2/M"
_symmetry_group_IT_number 12
_symmetry_cell_setting 'monoclinic'
loop_
_space_group_symop_operation_xyz
x,y,z
-x,y,-z
-x,-y,-z
x,-y,z
1/2+x,1/2+y,z
1/2-x,1/2+y,-z
1/2-x,1/2-y,-z
1/2+x,1/2-y,z
loop_
_atom_site_type_symbol
_atom_site_label
_atom_site_fract_x
_atom_site_fract_y
_atom_site_fract_z
Si Si1 0.834008 0.713626 0.522938
Si Si2 0.088104 0.705879 0.742605
Si Si3 0.169287 0.212267 0.926107
Si Si4 0.067374 0.282210 0.287200
Si Si5 0.917851 0.219587 0.978611
Si Si6 0.672525 0.779193 0.647095
Si Si7 0.828431 0.792429 0.792206
O O1 0.844875 0.500000 0.526295
O O2 0.750000 0.750000 0.500000
O O3 0.886003 0.779086 0.616430
O O4 0.845879 0.781130 0.445730
O O5 0.068974 0.500000 0.715922
O O6 0.153466 0.709540 0.836993
O O7 0.115726 0.782629 0.679726
O O8 0.015804 0.781338 0.743827
O O9 0.160925 0.000000 0.914355
O O10 0.250000 0.250000 0.000000
O O11 0.110031 0.277532 0.955463
O O12 0.069470 0.500000 0.283701
O O13 0.106727 0.216616 0.233883
O O14 0.859937 0.283197 0.885572
O O15 0.917577 0.000000 0.978003
O O16 0.000000 0.275644 0.000000
O O17 0.754038 0.718831 0.715965
O O18 0.673064 0.000000 0.646245
O O19 0.811754 0.000000 0.799034
#
# Coordination Sequence:
#
# PCOD9175000 Si02
#       7
#     8   8   8   8   8   8   8
#     4  10  19  34  55  81 109 141 182 225 273 324
#     4  10  21  38  56  79 112 145 181 225 273 326
#     4  11  22  38  60  83 110 145 184 226 272 324
#     4  10  21  34  53  82 114 142 173 227 285 323
#     4   9  18  32  52  78 105 137 181 225 262 314
#     4   9  18  33  55  78 103 143 188 224 263 323
#     4  10  18  32  55  77 100 139 185 223 263 322
#
# _framework density 22.912414999999999
#
# number of rings (size 3 to 8) (size 9 to 14) (size 15 to 20)
#    0.000    2.143    1.429    2.143    0.000    4.571 
#    0.000    7.143    0.000    3.857    0.000    3.000 
#    0.000    0.000    0.000    0.000    0.000    0.000 
#
# Total GULP energy -156507.634650 kJ/mol
# GULP energy per Si atom -5589.558380 kJ/mol
# Density = 2.286027 g / cm^3
# Si number density = 22.912415 Si / 1000 Ang^3
#
#
#
# Elastic Constant Matrix: (Units=GPa)
#
#
# Indices 1 2 3 4 5 6 
#
# 1 70.2203 -9.8910 -11.2974 0.0000 -16.1146 0.0000
# 2 -9.8910 69.5581 -7.6261 0.0000 -1.6719 0.0000
# 3 -11.2974 -7.6261 86.2956 0.0000 -20.4765 0.0000
# 4 0.0000 0.0000 0.0000 0.1848 0.0000 -1.9614
# 5 -16.1146 -1.6719 -20.4765 0.0000 45.3653 0.0000
# 6 0.0000 0.0000 0.0000 -1.9614 0.0000 15.5212
#
#
#
# Elastic Compliance Matrix: (Units=1/GPa)
#
#
# Indices 1 2 3 4 5 6 
#
# 1 0.017319 0.003158 0.004518 0.000001 0.008307 0.000000
# 2 0.003158 0.015156 0.002410 0.000002 0.002768 0.000000
# 3 0.004518 0.002410 0.014329 0.000001 0.008161 0.000000
# 4 0.000001 0.000002 0.000001-15.867777 0.000001 -2.005154
# 5 0.008307 0.002768 0.008161 0.000001 0.028780 0.000000
# 6 0.000000 0.000000 0.000000 -2.005154 0.000000 -0.188956
#
#
# Mechanical properties :
#
#
# Convention : Reuss Voigt Hill
#
# Bulk Modulus (GPa) = 14.93125 18.71611 16.82368
# Shear Modulus (GPa) = -0.31291 29.20684 14.44697
#
# Velocity S-wave (km/s) = -0.36995 3.57419 2.51376
# Velocity P-wave (km/s) = 2.51959 5.02189 3.97289
#
# Compressibility (1/GPa) = 0.06697363
#
# Stress axis : x y z
#
# Youngs Moduli (GPa) = 57.74030 65.97968 69.78888
#
# Poissons Ratio (x) = -0.20834 -0.31528
# Poissons Ratio (y) = -0.18233 -0.16816
# Poissons Ratio (z) = -0.26085 -0.15898
#
# Static dielectric constant tensor:
#      x y z
#    x 1.824360 0.000000 0.004410 
#    y 0.000000 1.890520 0.000000 
#    z 0.004410 0.000000 1.817120 
# 
# From -- ./inp_files/281761.got.cif
#   From: 2010.05.17/outbox.cif.g08.bks.cpg/sg12_141_cif.got.tgz:281761.got - 2010.06.03 13:09:07.
