data_PCOD9175372
_publ_section_title
;
Structure prediction by ZEFSAII (Michael W. Deem and Ramdas Pophale) SiO2 
 PCOD9175372
Probable space group: C 2/M
;
_chemical_formula_sum "Si O2"
_cell_formula_units_Z 56
_cell_length_a 12.316988
_cell_length_b 27.223037
_cell_length_c 8.904172
_cell_angle_alpha 90.000000
_cell_angle_beta 67.274289
_cell_angle_gamma 90.000000
_cell_volume 2753.831508
_symmetry_space_group_name_H-M "C 2/M"
_symmetry_group_IT_number 12
_symmetry_cell_setting 'monoclinic'
loop_
_space_group_symop_operation_xyz
x,y,z
-x,y,-z
-x,-y,-z
x,-y,z
1/2+x,1/2+y,z
1/2-x,1/2+y,-z
1/2-x,1/2-y,-z
1/2+x,1/2-y,z
loop_
_atom_site_type_symbol
_atom_site_label
_atom_site_fract_x
_atom_site_fract_y
_atom_site_fract_z
Si Si1 0.194071 0.647488 0.748722
Si Si2 0.604667 0.306666 0.189970
Si Si3 0.737448 0.642112 0.853683
Si Si4 0.978384 0.699684 0.693491
Si Si5 0.495041 0.445855 0.835222
Si Si6 0.277173 0.057545 0.046902
Si Si7 0.882893 0.131342 0.394860
O O1 0.267497 0.689698 0.798005
O O2 0.169806 0.599390 0.867792
O O3 0.292547 0.631955 0.576862
O O4 0.084044 0.671431 0.722142
O O5 0.548599 0.253044 0.221494
O O6 0.504514 0.338207 0.328950
O O7 0.640997 0.333068 0.015651
O O8 0.859906 0.670304 0.789341
O O9 0.687340 0.647531 0.715177
O O10 0.771227 0.586769 0.890691
O O11 0.000000 0.703643 0.500000
O O12 0.540195 0.500000 0.837264
O O13 0.362378 0.445502 0.846647
O O14 0.574875 0.422488 0.667659
O O15 0.500000 0.421911 0.000000
O O16 0.320391 0.000000 0.023990
#
# Coordination Sequence:
#
# PCOD9175372 Si02
#       7
#     8   8   8   8   8   8   8
#     4  11  25  42  65  95 133 172 212 269 323 384
#     4  11  25  41  65  96 128 171 216 267 325 374
#     4  11  23  43  67  95 130 172 218 267 315 386
#     4  12  26  45  65  92 132 178 223 259 321 388
#     4  10  18  32  60  95 127 162 203 263 337 391
#     4  10  22  42  66  97 131 166 215 272 333 384
#     4  12  20  39  64  95 137 163 208 270 323 385
#
# _framework density 20.335303
#
# number of rings (size 3 to 8) (size 9 to 14) (size 15 to 20)
#    0.000    1.000    5.714    2.143    2.000    4.000 
#    5.143    2.857    0.000    0.857    0.000    0.000 
#    0.000    0.000    0.000    0.000    0.000    0.000 
#
# Total GULP energy -155990.391607 kJ/mol
# GULP energy per Si atom -5571.085415 kJ/mol
# Density = 2.028902 g / cm^3
# Si number density = 20.335303 Si / 1000 Ang^3
#
#
#
# Elastic Constant Matrix: (Units=GPa)
#
#
# Indices 1 2 3 4 5 6 
#
# 1 90.4540 42.4247 6.7308 0.0000 10.2954 0.0000
# 2 42.4247 119.7943 16.5696 0.0000 -6.9903 0.0000
# 3 6.7308 16.5696 40.8456 0.0000 0.0694 0.0000
# 4 0.0000 0.0000 0.0000 42.1288 0.0000 -49.0203
# 5 10.2954 -6.9903 0.0694 0.0000 33.3611 0.0000
# 6 0.0000 0.0000 0.0000 -49.0203 0.0000 74.6332
#
#
#
# Elastic Compliance Matrix: (Units=1/GPa)
#
#
# Indices 1 2 3 4 5 6 
#
# 1 0.014190 -0.005322 -0.000170 0.000000 -0.005494 0.000000
# 2 -0.005322 0.010957 -0.003575 0.000000 0.003946 0.000000
# 3 -0.000170 -0.003575 0.025962 0.000000 -0.000751 0.000000
# 4 0.000000 0.000000 0.000000 0.100689 0.000000 0.066134
# 5 -0.005494 0.003946 -0.000751 0.000000 0.032499 0.000000
# 6 0.000000 0.000000 0.000000 0.066134 0.000000 0.056837
#
#
# Mechanical properties :
#
#
# Convention : Reuss Voigt Hill
#
# Bulk Modulus (GPa) = 30.32594 42.50490 36.41542
# Shear Modulus (GPa) = 18.50081 42.38254 30.44168
#
# Velocity S-wave (km/s) = 3.01954 4.57024 3.87329
# Velocity P-wave (km/s) = 5.20597 6.98548 6.16032
#
# Compressibility (1/GPa) = 0.03297507
#
# Stress axis : x y z
#
# Youngs Moduli (GPa) = 70.47445 91.26437 38.51815
#
# Poissons Ratio (x) = 0.48573 0.00654
# Poissons Ratio (y) = 0.37508 0.13769
# Poissons Ratio (z) = 0.01197 0.32623
#
# Static dielectric constant tensor:
#      x y z
#    x 1.536080 0.000000 -0.276640 
#    y 0.000000 1.795380 0.000000 
#    z -0.276640 0.000000 1.240120 
# 
# From -- ./inp_files/53192.got.cif
#   From: 2010.05.17/outbox.cif.g08.bks.cpg/sg12_27_cif.got.tgz:53192.got - 2010.06.03 13:09:07.
