data_PCOD9175809
_publ_section_title
;
Structure prediction by ZEFSAII (Michael W. Deem and Ramdas Pophale) SiO2 
 PCOD9175809
Probable space group: C 2/M
;
_chemical_formula_sum "Si O2"
_cell_formula_units_Z 44
_cell_length_a 7.051587
_cell_length_b 19.916692
_cell_length_c 12.266610
_cell_angle_alpha 90.000000
_cell_angle_beta 78.217328
_cell_angle_gamma 90.000000
_cell_volume 1686.475017
_symmetry_space_group_name_H-M "C 2/M"
_symmetry_group_IT_number 12
_symmetry_cell_setting 'monoclinic'
loop_
_space_group_symop_operation_xyz
x,y,z
-x,y,-z
-x,-y,-z
x,-y,z
1/2+x,1/2+y,z
1/2-x,1/2+y,-z
1/2-x,1/2-y,-z
1/2+x,1/2-y,z
loop_
_atom_site_type_symbol
_atom_site_label
_atom_site_fract_x
_atom_site_fract_y
_atom_site_fract_z
Si Si1 0.518158 0.000000 0.629268
Si Si2 0.860632 0.000000 0.750733
Si Si3 0.932145 0.227566 0.409998
Si Si4 0.196815 0.650407 0.033876
Si Si5 0.396335 0.644602 0.790163
Si Si6 0.035086 0.645963 0.271568
Si Si7 0.769533 0.000000 0.000161
O O1 0.500000 0.000000 0.500000
O O2 0.435071 0.929430 0.686612
O O3 0.737478 0.000000 0.654731
O O4 0.969804 0.069110 0.759666
O O5 0.725680 0.000000 0.875495
O O6 0.750000 0.250000 0.500000
O O7 0.000000 0.177558 0.500000
O O8 0.963218 0.191173 0.293997
O O9 0.029139 0.299554 0.367798
O O10 0.181349 0.672459 0.160134
O O11 0.361291 0.660010 0.922158
O O12 0.188049 0.569811 0.050538
O O13 0.000000 0.675171 0.000000
O O14 0.181415 0.647251 0.759076
O O15 0.000000 0.000000 0.000000
#
# Coordination Sequence:
#
# PCOD9175809 Si02
#       7
#     4   4   8   8   8   8   4
#     4  10  19  35  65 100 130 166 225 269 317 393
#     4   8  18  38  64  89 133 172 205 270 328 377
#     4  12  24  42  62  85 124 172 221 266 328 392
#     4   9  18  36  65  91 123 167 217 267 334 395
#     4   9  19  39  65  95 122 166 217 264 328 398
#     4  10  20  38  64  95 126 166 212 272 324 388
#     4  10  18  33  57  98 142 171 207 262 331 401
#
# _framework density 26.089922999999999
#
# number of rings (size 3 to 8) (size 9 to 14) (size 15 to 20)
#    0.000    2.182    1.818    2.455    0.000    2.182 
#    6.545    1.364    0.000    0.000    0.000    0.000 
#    0.000    0.000    0.000    0.000    0.000    0.000 
#
# Total GULP energy -122631.354539 kJ/mol
# GULP energy per Si atom -5574.152479 kJ/mol
# Density = 2.603054 g / cm^3
# Si number density = 26.089923 Si / 1000 Ang^3
#
#
#
# Elastic Constant Matrix: (Units=GPa)
#
#
# Indices 1 2 3 4 5 6 
#
# 1 86.8489 16.6662 84.6072 0.0000 0.4463 0.0000
# 2 16.6662 124.6802 85.8284 0.0000 -16.2591 0.0000
# 3 84.6072 85.8284 290.6777 0.0000 -4.3625 0.0000
# 4 0.0000 0.0000 0.0000 41.2035 0.0000 -1.3365
# 5 0.4463 -16.2591 -4.3625 0.0000 59.7409 0.0000
# 6 0.0000 0.0000 0.0000 -1.3365 0.0000 -65.0817
#
#
#
# Elastic Compliance Matrix: (Units=1/GPa)
#
#
# Indices 1 2 3 4 5 6 
#
# 1 0.016254 0.001341 -0.005129 0.000000 -0.000131 0.000000
# 2 0.001341 0.010573 -0.003473 0.000000 0.002614 0.000000
# 3 -0.005129 -0.003473 0.005951 0.000000 -0.000472 0.000000
# 4 0.000000 0.000000 0.000000 0.024254 0.000000 -0.000498
# 5 -0.000131 0.002614 -0.000472 0.000000 0.017417 0.000000
# 6 0.000000 0.000000 0.000000 -0.000498 0.000000 -0.015355
#
#
# Mechanical properties :
#
#
# Convention : Reuss Voigt Hill
#
# Bulk Modulus (GPa) = 54.77475 97.37893 76.07684
# Shear Modulus (GPa) = 62.73409 28.17954 45.45681
#
# Velocity S-wave (km/s) = 4.90892 3.29004 4.17863
# Velocity P-wave (km/s) = 7.29179 7.19985 7.24597
#
# Compressibility (1/GPa) = 0.01825659
#
# Stress axis : x y z
#
# Youngs Moduli (GPa) = 61.52249 94.58175 168.02519
#
# Poissons Ratio (x) = -0.12683 0.86180
# Poissons Ratio (y) = -0.08250 0.58354
# Poissons Ratio (z) = 0.31555 0.32847
#
# Static dielectric constant tensor:
#      x y z
#    x 2.793550 0.000000 0.235330 
#    y 0.000000 2.077320 0.000000 
#    z 0.235330 0.000000 1.985790 
# 
# From -- ./inp_files/121781.got.cif
#   From: 2010.05.17/outbox.cif.g08.bks.cpg/sg12_61_cif.got.tgz:121781.got - 2010.06.03 13:09:07.
