data_PCOD9175612
_publ_section_title
;
Structure prediction by ZEFSAII (Michael W. Deem and Ramdas Pophale) SiO2 
 PCOD9175612
Probable space group: C 2/M
;
_chemical_formula_sum "Si O2"
_cell_formula_units_Z 64
_cell_length_a 20.596617
_cell_length_b 8.999259
_cell_length_c 20.548637
_cell_angle_alpha 90.000000
_cell_angle_beta 107.241040
_cell_angle_gamma 90.000000
_cell_volume 3637.635575
_symmetry_space_group_name_H-M "C 2/M"
_symmetry_group_IT_number 12
_symmetry_cell_setting 'monoclinic'
loop_
_space_group_symop_operation_xyz
x,y,z
-x,y,-z
-x,-y,-z
x,-y,z
1/2+x,1/2+y,z
1/2-x,1/2+y,-z
1/2-x,1/2-y,-z
1/2+x,1/2-y,z
loop_
_atom_site_type_symbol
_atom_site_label
_atom_site_fract_x
_atom_site_fract_y
_atom_site_fract_z
Si Si1 0.669045 0.177160 0.652113
Si Si2 0.418791 0.829205 0.990565
Si Si3 0.948997 0.822846 0.129994
Si Si4 0.571386 0.677645 0.727794
Si Si5 0.108364 0.176577 0.149039
Si Si6 0.583612 0.676625 0.363123
Si Si7 0.576452 0.822733 0.499326
Si Si8 0.315355 0.822669 0.710350
O O1 0.623216 0.234405 0.698106
O O2 0.627841 0.208855 0.573434
O O3 0.740761 0.259244 0.674552
O O4 0.678768 0.000000 0.659366
O O5 0.385601 0.734750 0.922870
O O6 0.396536 0.000000 0.981540
O O7 0.500000 0.825735 0.000000
O O8 0.412071 0.760679 0.060201
O O9 0.924939 0.781712 0.194971
O O10 0.030201 0.793904 0.148247
O O11 0.940607 0.000000 0.119021
O O12 0.583482 0.500000 0.725637
O O13 0.494424 0.705656 0.680817
O O14 0.157637 0.260829 0.212784
O O15 0.119196 0.000000 0.155852
O O16 0.595249 0.500000 0.361589
O O17 0.593170 0.733719 0.439194
O O18 0.633472 0.760587 0.329035
O O19 0.500000 0.786113 0.500000
O O20 0.578227 0.000000 0.486209
O O21 0.315316 0.000000 0.710404
#
# Coordination Sequence:
#
# PCOD9175612 Si02
#       8
#     8   8   8   8   8   8   8   8
#     4  11  24  41  61  84 116 153 192 236 289 349
#     4   9  17  28  45  78 116 149 189 235 282 332
#     4   9  17  31  52  80 114 150 188 235 283 335
#     4  10  20  36  58  86 117 149 192 238 285 340
#     4  10  18  33  55  80 113 153 192 232 287 343
#     4  11  22  38  62  89 116 151 193 237 287 345
#     4  10  21  39  61  88 117 149 190 239 290 341
#     4  12  25  40  59  84 118 154 194 241 289 342
#
# _framework density 17.593845999999999
#
# number of rings (size 3 to 8) (size 9 to 14) (size 15 to 20)
#    0.000    1.750    2.500    2.625    0.000    4.750 
#    0.000    0.000    0.000    0.750    0.000    0.000 
#    0.000    0.000    0.000    0.000    0.000    0.000 
#
# Total GULP energy -178728.715695 kJ/mol
# GULP energy per Si atom -5585.272365 kJ/mol
# Density = 1.755380 g / cm^3
# Si number density = 17.593846 Si / 1000 Ang^3
#
#
#
# Elastic Constant Matrix: (Units=GPa)
#
#
# Indices 1 2 3 4 5 6 
#
# 1 61.8284 49.3355 46.0574 0.0000 6.5722 0.0000
# 2 49.3355 84.0741 63.7911 0.0000 4.7730 0.0000
# 3 46.0574 63.7911 123.5609 0.0000 -8.8594 0.0000
# 4 0.0000 0.0000 0.0000 29.0188 0.0000 -3.0194
# 5 6.5722 4.7730 -8.8594 0.0000 24.0975 0.0000
# 6 0.0000 0.0000 0.0000 -3.0194 0.0000 28.4188
#
#
#
# Elastic Compliance Matrix: (Units=1/GPa)
#
#
# Indices 1 2 3 4 5 6 
#
# 1 0.032633 -0.014882 -0.005041 0.000000 -0.007806 0.000000
# 2 -0.014882 0.027876 -0.009192 0.000000 -0.004842 0.000000
# 3 -0.005041 -0.009192 0.015351 0.000000 0.008839 0.000000
# 4 0.000000 0.000000 0.000000 0.034846 0.000000 0.003702
# 5 -0.007806 -0.004842 0.008839 0.000000 0.047836 0.000000
# 6 0.000000 0.000000 0.000000 0.003702 0.000000 0.035581
#
#
# Mechanical properties :
#
#
# Convention : Reuss Voigt Hill
#
# Bulk Modulus (GPa) = 56.71377 65.31460 61.01418
# Shear Modulus (GPa) = 19.36267 23.65897 21.51082
#
# Velocity S-wave (km/s) = 3.32103 3.67103 3.50041
# Velocity P-wave (km/s) = 6.85643 7.42784 7.14785
#
# Compressibility (1/GPa) = 0.01763240
#
# Stress axis : x y z
#
# Youngs Moduli (GPa) = 30.64363 35.87308 65.14126
#
# Poissons Ratio (x) = 0.53385 0.32836
# Poissons Ratio (y) = 0.45603 0.59876
# Poissons Ratio (z) = 0.15446 0.32973
#
# Static dielectric constant tensor:
#      x y z
#    x 1.573250 0.000000 -0.001400 
#    y 0.000000 1.584950 0.000000 
#    z -0.001400 0.000000 1.586590 
# 
# From -- ./inp_files/320102.got.cif
#   From: 2010.05.17/outbox.cif.g08.bks.cpg/sg12_161_cif.got.tgz:320102.got - 2010.06.03 13:09:07.
