data_PCOD9175411
_publ_section_title
;
Structure prediction by ZEFSAII (Michael W. Deem and Ramdas Pophale) SiO2 
 PCOD9175411
Probable space group: C 2/M
;
_chemical_formula_sum "Si O2"
_cell_formula_units_Z 56
_cell_length_a 8.951276
_cell_length_b 27.900035
_cell_length_c 13.588347
_cell_angle_alpha 90.000000
_cell_angle_beta 72.013919
_cell_angle_gamma 90.000000
_cell_volume 3227.727904
_symmetry_space_group_name_H-M "C 2/M"
_symmetry_group_IT_number 12
_symmetry_cell_setting 'monoclinic'
loop_
_space_group_symop_operation_xyz
x,y,z
-x,y,-z
-x,-y,-z
x,-y,z
1/2+x,1/2+y,z
1/2-x,1/2+y,-z
1/2-x,1/2-y,-z
1/2+x,1/2-y,z
loop_
_atom_site_type_symbol
_atom_site_label
_atom_site_fract_x
_atom_site_fract_y
_atom_site_fract_z
Si Si1 0.417696 0.798558 0.648652
Si Si2 0.607568 0.624749 0.273023
Si Si3 0.787852 0.797143 0.594696
Si Si4 0.182305 0.054912 0.426140
Si Si5 0.772690 0.869638 0.426170
Si Si6 0.321635 0.281333 0.129019
Si Si7 0.169067 0.187321 0.089579
O O1 0.599687 0.794333 0.634938
O O2 0.360268 0.755091 0.590892
O O3 0.370347 0.847798 0.605196
O O4 0.310652 0.794616 0.766595
O O5 0.654792 0.672162 0.324335
O O6 0.684785 0.581653 0.320180
O O7 0.419606 0.618919 0.324895
O O8 0.662943 0.637947 0.151911
O O9 0.830382 0.827443 0.489024
O O10 0.265782 0.086690 0.492946
O O11 0.000000 0.056011 0.500000
O O12 0.233356 0.000000 0.410617
O O13 0.293865 0.225988 0.104607
O O14 0.494488 0.289768 0.137623
O O15 0.307620 0.312995 0.032634
#
# Coordination Sequence:
#
# PCOD9175411 Si02
#       7
#     8   8   8   8   8   8   8
#     4  12  20  32  44  66  97 134 164 196 230 270
#     4  10  18  33  50  69  95 122 160 199 239 282
#     4  11  22  30  44  66  98 132 166 193 225 279
#     4   8  16  31  52  75  94 117 153 199 243 292
#     4  10  20  32  47  68  96 124 158 193 236 284
#     4  10  20  31  47  63  94 131 166 197 225 272
#     4  10  19  33  46  67  91 131 166 196 233 265
#
# _framework density 17.349665999999999
#
# number of rings (size 3 to 8) (size 9 to 14) (size 15 to 20)
#    0.000    1.857    2.857    3.857    0.000    1.143 
#    0.000    0.000    0.000    6.857    0.000    3.000 
#    0.000    4.571    0.000    0.000    0.000    0.000 
#
# Total GULP energy -156268.527776 kJ/mol
# GULP energy per Si atom -5581.018849 kJ/mol
# Density = 1.731018 g / cm^3
# Si number density = 17.349666 Si / 1000 Ang^3
#
#
#
# Elastic Constant Matrix: (Units=GPa)
#
#
# Indices 1 2 3 4 5 6 
#
# 1 70.9045 17.5206 1.7386 0.0000 -6.9695 0.0000
# 2 17.5206 100.5208 26.6011 0.0000 7.4355 0.0000
# 3 1.7386 26.6011 94.9251 0.0000 -7.5066 0.0000
# 4 0.0000 0.0000 0.0000 14.6830 0.0000 0.7375
# 5 -6.9695 7.4355 -7.5066 0.0000 18.5824 0.0000
# 6 0.0000 0.0000 0.0000 0.7375 0.0000 13.6989
#
#
#
# Elastic Compliance Matrix: (Units=1/GPa)
#
#
# Indices 1 2 3 4 5 6 
#
# 1 0.015766 -0.003700 0.001377 0.000000 0.007950 0.000000
# 2 -0.003700 0.012231 -0.003984 0.000000 -0.007891 0.000000
# 3 0.001377 -0.003984 0.012182 0.000000 0.007031 0.000000
# 4 0.000000 0.000000 0.000000 0.068291 0.000000 -0.003677
# 5 0.007950 -0.007891 0.007031 0.000000 0.062794 0.000000
# 6 0.000000 0.000000 0.000000 -0.003677 0.000000 0.073197
#
#
# Mechanical properties :
#
#
# Convention : Reuss Voigt Hill
#
# Bulk Modulus (GPa) = 36.27931 39.78567 38.03249
# Shear Modulus (GPa) = 18.77849 24.09220 21.43535
#
# Velocity S-wave (km/s) = 3.29348 3.73047 3.51877
# Velocity P-wave (km/s) = 5.95137 6.44489 6.20304
#
# Compressibility (1/GPa) = 0.02756392
#
# Stress axis : x y z
#
# Youngs Moduli (GPa) = 63.42963 81.75876 82.08935
#
# Poissons Ratio (x) = 0.30253 -0.11303
# Poissons Ratio (y) = 0.23471 0.32703
# Poissons Ratio (z) = -0.08733 0.32571
#
# Static dielectric constant tensor:
#      x y z
#    x 1.609130 0.000000 0.005860 
#    y 0.000000 1.578020 0.000000 
#    z 0.005860 0.000000 1.639510 
# 
# From -- ./inp_files/199303.got.cif
#   From: 2010.05.17/outbox.cif.g08.bks.cpg/sg12_100_cif.got.tgz:199303.got - 2010.06.03 13:09:07.
