data_PCOD9175533
_publ_section_title
;
Structure prediction by ZEFSAII (Michael W. Deem and Ramdas Pophale) SiO2 
 PCOD9175533
Probable space group: C 2/M
;
_chemical_formula_sum "Si O2"
_cell_formula_units_Z 56
_cell_length_a 29.713058
_cell_length_b 12.231269
_cell_length_c 8.257097
_cell_angle_alpha 90.000000
_cell_angle_beta 71.158070
_cell_angle_gamma 90.000000
_cell_volume 2840.056819
_symmetry_space_group_name_H-M "C 2/M"
_symmetry_group_IT_number 12
_symmetry_cell_setting 'monoclinic'
loop_
_space_group_symop_operation_xyz
x,y,z
-x,y,-z
-x,-y,-z
x,-y,z
1/2+x,1/2+y,z
1/2-x,1/2+y,-z
1/2-x,1/2-y,-z
1/2+x,1/2-y,z
loop_
_atom_site_type_symbol
_atom_site_label
_atom_site_fract_x
_atom_site_fract_y
_atom_site_fract_z
Si Si1 0.606288 0.628338 0.992860
Si Si2 0.468274 0.617720 0.376994
Si Si3 0.728826 0.621378 0.332750
Si Si4 0.956883 0.703597 0.143511
Si Si5 0.868667 0.624348 0.436632
Si Si6 0.304062 0.287529 0.299279
Si Si7 0.125217 0.815604 0.340677
O O1 0.593639 0.500000 0.993566
O O2 0.571663 0.710633 0.937271
O O3 0.658156 0.648737 0.852847
O O4 0.608937 0.662081 0.177753
O O5 0.500000 0.621218 0.500000
O O6 0.475585 0.500000 0.288359
O O7 0.480247 0.718233 0.250834
O O8 0.413276 0.629337 0.494479
O O9 0.747374 0.500000 0.277074
O O10 0.719749 0.636589 0.536416
O O11 0.764654 0.719228 0.247307
O O12 0.677632 0.636904 0.309074
O O13 0.918246 0.630778 0.280424
O O14 0.000000 0.647168 0.000000
O O15 0.853501 0.500000 0.474671
O O16 0.832433 0.696085 0.371465
O O17 0.873982 0.690011 0.599179
#
# Coordination Sequence:
#
# PCOD9175533 Si02
#       7
#     8   8   8   8   8   8   8
#     4  11  21  35  54  79 114 143 169 213 265 314
#     4  10  19  32  52  77 107 141 173 210 262 317
#     4  10  18  33  54  75 105 140 177 219 263 310
#     4  10  21  34  53  81 108 135 176 219 260 316
#     4   9  19  38  57  73 102 140 179 223 266 307
#     4   9  20  33  53  81 103 135 181 220 261 316
#     4  10  21  34  52  78 105 138 179 216 258 316
#
# _framework density 19.717917
#
# number of rings (size 3 to 8) (size 9 to 14) (size 15 to 20)
#    0.000    2.143    0.000    4.286    0.000    3.143 
#    0.000    4.286    0.000   14.571    0.000    0.000 
#    0.000    0.000    0.000    0.000    0.000    0.000 
#
# Total GULP energy -156287.135270 kJ/mol
# GULP energy per Si atom -5581.683402 kJ/mol
# Density = 1.967304 g / cm^3
# Si number density = 19.717917 Si / 1000 Ang^3
#
#
#
# Elastic Constant Matrix: (Units=GPa)
#
#
# Indices 1 2 3 4 5 6 
#
# 1 59.1755 1.1025 -4.2660 0.0000 -3.6201 0.0000
# 2 1.1025 88.0240 5.5551 0.0000 13.4249 0.0000
# 3 -4.2660 5.5551 50.4515 0.0000 -2.3472 0.0000
# 4 0.0000 0.0000 0.0000 -2.4791 0.0000 7.3515
# 5 -3.6201 13.4249 -2.3472 0.0000 28.6742 0.0000
# 6 0.0000 0.0000 0.0000 7.3515 0.0000 6.4416
#
#
#
# Elastic Compliance Matrix: (Units=1/GPa)
#
#
# Indices 1 2 3 4 5 6 
#
# 1 0.017194 -0.000723 0.001657 0.000000 0.002645 0.000000
# 2 -0.000723 0.012398 -0.001707 0.000000 -0.006036 0.000000
# 3 0.001657 -0.001707 0.020273 0.000000 0.002668 0.000000
# 4 0.000000 0.000000 0.000000 -0.092005 0.000000 0.105001
# 5 0.002645 -0.006036 0.002668 0.000000 0.038253 0.000000
# 6 0.000000 0.000000 0.000000 0.105001 0.000000 0.035409
#
#
# Mechanical properties :
#
#
# Convention : Reuss Voigt Hill
#
# Bulk Modulus (GPa) = 20.69667 22.49269 21.59468
# Shear Modulus (GPa) = 101.67903 19.54461 60.61182
#
# Velocity S-wave (km/s) = 7.18879 3.15177 5.55033
# Velocity P-wave (km/s) = 8.91203 4.96758 7.21460
#
# Compressibility (1/GPa) = 0.04831695
#
# Stress axis : x y z
#
# Youngs Moduli (GPa) = 58.16119 80.65920 49.32632
#
# Poissons Ratio (x) = 0.05834 -0.08171
# Poissons Ratio (y) = 0.04207 0.08420
# Poissons Ratio (z) = -0.09634 0.13769
#
# Static dielectric constant tensor:
#      x y z
#    x 1.720120 0.000000 -0.021490 
#    y 0.000000 1.667750 0.000000 
#    z -0.021490 0.000000 1.697730 
# 
# From -- ./inp_files/109859.got.cif
#   From: 2010.05.17/outbox.cif.g08.bks.cpg/sg12_55_cif.got.tgz:109859.got - 2010.06.03 13:09:07.
