data_PCOD9175063
_publ_section_title
;
Structure prediction by ZEFSAII (Michael W. Deem and Ramdas Pophale) SiO2 
 PCOD9175063
Probable space group: C 2/M
;
_chemical_formula_sum "Si O2"
_cell_formula_units_Z 40
_cell_length_a 12.717408
_cell_length_b 13.699944
_cell_length_c 12.482993
_cell_angle_alpha 90.000000
_cell_angle_beta 122.044206
_cell_angle_gamma 90.000000
_cell_volume 1843.516583
_symmetry_space_group_name_H-M "C 2/M"
_symmetry_group_IT_number 12
_symmetry_cell_setting 'monoclinic'
loop_
_space_group_symop_operation_xyz
x,y,z
-x,y,-z
-x,-y,-z
x,-y,z
1/2+x,1/2+y,z
1/2-x,1/2+y,-z
1/2-x,1/2-y,-z
1/2+x,1/2-y,z
loop_
_atom_site_type_symbol
_atom_site_label
_atom_site_fract_x
_atom_site_fract_y
_atom_site_fract_z
Si Si1 0.374600 0.890150 0.318757
Si Si2 0.789007 0.886774 0.128508
Si Si3 0.355120 0.313833 0.397826
Si Si4 0.877614 0.388090 0.653853
Si Si5 0.589821 0.195875 0.886268
O O1 0.326915 0.799316 0.359094
O O2 0.526052 0.884443 0.392912
O O3 0.345388 0.863916 0.178170
O O4 0.337618 0.000000 0.326410
O O5 0.822221 0.870496 0.270566
O O6 0.874296 0.808645 0.110277
O O7 0.804508 0.000000 0.109195
O O8 0.650312 0.850396 0.023528
O O9 0.500000 0.326167 0.500000
O O10 0.261675 0.353608 0.436584
O O11 0.878346 0.500000 0.690137
O O12 0.946735 0.323392 0.781375
#
# Coordination Sequence:
#
# PCOD9175063 Si02
#       5
#     8   8   8   8   8
#     4   8  17  37  58  76 102 141 182 222 268 314
#     4  10  18  32  55  81 109 138 173 223 273 313
#     4  11  23  34  52  80 116 141 179 221 265 314
#     4   9  18  36  58  78 104 142 181 220 269 317
#     4   8  17  34  56  80 103 136 180 223 266 318
#
# _framework density 21.697664
#
# number of rings (size 3 to 8) (size 9 to 14) (size 15 to 20)
#    1.200    1.600    0.000    1.800    0.000    3.600 
#    0.000    3.000    0.000    0.000    0.000    8.400 
#    0.000    0.000    0.000    0.000    0.000    0.000 
#
# Total GULP energy -111438.660450 kJ/mol
# GULP energy per Si atom -5571.933023 kJ/mol
# Density = 2.164828 g / cm^3
# Si number density = 21.697664 Si / 1000 Ang^3
#
#
#
# Elastic Constant Matrix: (Units=GPa)
#
#
# Indices 1 2 3 4 5 6 
#
# 1 54.6852 38.4957 15.6643 0.0000 16.9234 0.0000
# 2 38.4957 168.0010 17.8870 0.0000 12.6053 0.0000
# 3 15.6643 17.8870 81.1695 0.0000 2.9452 0.0000
# 4 0.0000 0.0000 0.0000 23.9886 0.0000 1.1263
# 5 16.9234 12.6053 2.9452 0.0000 28.2620 0.0000
# 6 0.0000 0.0000 0.0000 1.1263 0.0000 22.6461
#
#
#
# Elastic Compliance Matrix: (Units=1/GPa)
#
#
# Indices 1 2 3 4 5 6 
#
# 1 0.026885 -0.004752 -0.003648 0.000000 -0.013599 0.000000
# 2 -0.004752 0.007130 -0.000644 0.000000 -0.000268 0.000000
# 3 -0.003648 -0.000644 0.013126 0.000000 0.001104 0.000000
# 4 0.000000 0.000000 0.000000 0.041784 0.000000 -0.002078
# 5 -0.013599 -0.000268 0.001104 0.000000 0.043531 0.000000
# 6 0.000000 0.000000 0.000000 -0.002078 0.000000 0.044261
#
#
# Mechanical properties :
#
#
# Convention : Reuss Voigt Hill
#
# Bulk Modulus (GPa) = 34.42015 49.77218 42.09616
# Shear Modulus (GPa) = 24.45124 30.43325 27.44225
#
# Velocity S-wave (km/s) = 3.36059 3.74920 3.56020
# Velocity P-wave (km/s) = 5.56381 6.45993 6.02855
#
# Compressibility (1/GPa) = 0.02905275
#
# Stress axis : x y z
#
# Youngs Moduli (GPa) = 37.19566 140.25593 76.18573
#
# Poissons Ratio (x) = 0.66645 0.27791
# Poissons Ratio (y) = 0.17674 0.04910
# Poissons Ratio (z) = 0.13568 0.09039
#
# Static dielectric constant tensor:
#      x y z
#    x 1.862950 0.000000 -0.029880 
#    y 0.000000 1.764240 0.000000 
#    z -0.029880 0.000000 1.864270 
# 
# From -- ./inp_files/277309.got.cif
#   From: 2010.05.17/outbox.cif.g08.bks.cpg/sg12_139_cif.got.tgz:277309.got - 2010.06.03 13:09:07.
