data_PCOD9175587
_publ_section_title
;
Structure prediction by ZEFSAII (Michael W. Deem and Ramdas Pophale) SiO2 
 PCOD9175587
Probable space group: C 2/M
;
_chemical_formula_sum "Si O2"
_cell_formula_units_Z 64
_cell_length_a 15.078029
_cell_length_b 8.261375
_cell_length_c 27.296624
_cell_angle_alpha 90.000000
_cell_angle_beta 105.134077
_cell_angle_gamma 90.000000
_cell_volume 3282.283110
_symmetry_space_group_name_H-M "C 2/M"
_symmetry_group_IT_number 12
_symmetry_cell_setting 'monoclinic'
loop_
_space_group_symop_operation_xyz
x,y,z
-x,y,-z
-x,-y,-z
x,-y,z
1/2+x,1/2+y,z
1/2-x,1/2+y,-z
1/2-x,1/2-y,-z
1/2+x,1/2-y,z
loop_
_atom_site_type_symbol
_atom_site_label
_atom_site_fract_x
_atom_site_fract_y
_atom_site_fract_z
Si Si1 0.314201 0.197524 0.749367
Si Si2 0.001759 0.698256 0.056311
Si Si3 0.473248 0.812500 0.426436
Si Si4 0.315970 0.806225 0.861561
Si Si5 0.124356 0.809077 0.683066
Si Si6 0.649679 0.310836 0.502846
Si Si7 0.978713 0.695468 0.236533
Si Si8 0.371867 0.194848 0.122118
O O1 0.304737 0.255081 0.804283
O O2 0.229027 0.251506 0.704138
O O3 0.414690 0.242352 0.745254
O O4 0.310414 0.000000 0.749802
O O5 0.002606 0.500000 0.055885
O O6 0.915833 0.748432 0.077293
O O7 0.092906 0.753013 0.098085
O O8 0.000000 0.752832 0.000000
O O9 0.432920 0.776784 0.367388
O O10 0.394323 0.769790 0.454862
O O11 0.567489 0.717480 0.451741
O O12 0.496509 0.000000 0.435076
O O13 0.226720 0.765553 0.879859
O O14 0.325153 0.000000 0.858941
O O15 0.078632 0.779065 0.729199
O O16 0.125501 0.000000 0.672197
O O17 0.658223 0.500000 0.514122
O O18 0.750000 0.250000 0.500000
O O19 0.971820 0.500000 0.240978
O O20 0.939089 0.736458 0.177203
O O21 0.365297 0.000000 0.120436
#
# Coordination Sequence:
#
# PCOD9175587 Si02
#       8
#     8   8   8   8   8   8   8   8
#     4   9  18  33  54  76 103 143 187 226 275 340
#     4   9  18  33  54  78 105 141 184 227 276 342
#     4  11  23  41  62  90 126 164 204 252 300 348
#     4  10  18  33  55  77 102 139 182 224 275 341
#     4  11  22  37  56  83 117 150 189 241 295 349
#     4  11  22  41  68  96 125 163 207 249 297 352
#     4  10  19  34  54  77 104 143 188 232 280 342
#     4  10  19  32  53  78 105 136 179 230 280 335
#
# _framework density 19.498624
#
# number of rings (size 3 to 8) (size 9 to 14) (size 15 to 20)
#    0.000    1.875    2.500    3.375    0.000    1.500 
#    0.000    6.250    0.000    0.750    0.000    0.000 
#    0.000    0.000    0.000    0.000    0.000    0.000 
#
# Total GULP energy -178657.876092 kJ/mol
# GULP energy per Si atom -5583.058628 kJ/mol
# Density = 1.945424 g / cm^3
# Si number density = 19.498624 Si / 1000 Ang^3
#
#
#
# Elastic Constant Matrix: (Units=GPa)
#
#
# Indices 1 2 3 4 5 6 
#
# 1 66.6975 -6.6078 -19.5722 0.0000 17.5193 0.0000
# 2 -6.6078 11.7452 -1.7780 0.0000 -2.0381 0.0000
# 3 -19.5722 -1.7780 43.7274 0.0000 3.0588 0.0000
# 4 0.0000 0.0000 0.0000 14.4390 0.0000 -5.1961
# 5 17.5193 -2.0381 3.0588 0.0000 20.3209 0.0000
# 6 0.0000 0.0000 0.0000 -5.1961 0.0000 28.7789
#
#
#
# Elastic Compliance Matrix: (Units=1/GPa)
#
#
# Indices 1 2 3 4 5 6 
#
# 1 0.026696 0.013024 0.014146 0.000000 -0.023839 0.000000
# 2 0.013024 0.093380 0.009860 0.000000 -0.003347 0.000000
# 3 0.014146 0.009860 0.030709 0.000000 -0.015829 0.000000
# 4 0.000000 0.000000 0.000000 0.074069 0.000000 0.013373
# 5 -0.023839 -0.003347 -0.015829 0.000000 0.071810 0.000000
# 6 0.000000 0.000000 0.000000 0.013373 0.000000 0.037162
#
#
# Mechanical properties :
#
#
# Convention : Reuss Voigt Hill
#
# Bulk Modulus (GPa) = 4.44748 7.36158 5.90453
# Shear Modulus (GPa) = 14.93809 22.71629 18.82719
#
# Velocity S-wave (km/s) = 2.77087 3.41694 3.11073
# Velocity P-wave (km/s) = 3.53876 4.39897 3.99210
#
# Compressibility (1/GPa) = 0.22484643
#
# Stress axis : x y z
#
# Youngs Moduli (GPa) = 37.45846 10.70889 32.56378
#
# Poissons Ratio (x) = -0.13947 -0.46065
# Poissons Ratio (y) = -0.48785 -0.32109
# Poissons Ratio (z) = -0.52990 -0.10559
#
# Static dielectric constant tensor:
#      x y z
#    x 1.669490 0.000000 0.007220 
#    y 0.000000 1.686800 0.000000 
#    z 0.007220 0.000000 1.672940 
# 
# From -- ./inp_files/375077.got.cif
#   From: 2010.05.17/outbox.cif.g08.bks.cpg/sg12_188_cif.got.tgz:375077.got - 2010.06.03 13:09:07.
