data_PCOD9175327
_publ_section_title
;
Structure prediction by ZEFSAII (Michael W. Deem and Ramdas Pophale) SiO2 
 PCOD9175327
Probable space group: C 2/M
;
_chemical_formula_sum "Si O2"
_cell_formula_units_Z 40
_cell_length_a 16.444149
_cell_length_b 18.278627
_cell_length_c 9.495871
_cell_angle_alpha 90.000000
_cell_angle_beta 145.415611
_cell_angle_gamma 90.000000
_cell_volume 1620.119496
_symmetry_space_group_name_H-M "C 2/M"
_symmetry_group_IT_number 12
_symmetry_cell_setting 'monoclinic'
loop_
_space_group_symop_operation_xyz
x,y,z
-x,y,-z
-x,-y,-z
x,-y,z
1/2+x,1/2+y,z
1/2-x,1/2+y,-z
1/2-x,1/2-y,-z
1/2+x,1/2-y,z
loop_
_atom_site_type_symbol
_atom_site_label
_atom_site_fract_x
_atom_site_fract_y
_atom_site_fract_z
Si Si1 0.647908 0.846548 0.980304
Si Si2 0.400833 0.314971 0.151460
Si Si3 0.224059 0.134283 0.580910
Si Si4 0.169807 0.084833 0.203843
Si Si5 0.334719 0.500000 0.298412
Si Si6 0.420021 0.000000 0.236635
O O1 0.597961 0.772399 0.835159
O O2 0.560112 0.919840 0.810734
O O3 0.814401 0.846925 0.160857
O O4 0.655461 0.825018 0.157056
O O5 0.566282 0.333239 0.366628
O O6 0.319469 0.356807 0.906617
O O7 0.249167 0.113805 0.456191
O O8 0.214812 0.063998 0.668293
O O9 0.213054 0.000000 0.236859
O O10 0.000000 0.081309 0.000000
O O11 0.500000 0.500000 0.500000
O O12 0.252856 0.500000 0.032263
O O13 0.500000 0.000000 0.500000
#
# Coordination Sequence:
#
# PCOD9175327 Si02
#       6
#     8   8   8   8   4   4
#     4  10  22  36  55  84 111 157 201 237 291 354
#     4  10  21  34  54  86 120 145 193 252 300 352
#     4  10  18  34  56  82 115 151 188 247 304 352
#     4   9  18  32  53  85 117 148 183 241 314 366
#     4  10  18  32  58  93 119 145 197 255 305 351
#     4  10  22  38  57  81 119 163 195 235 297 359
#
# _framework density 24.689537000000001
#
# number of rings (size 3 to 8) (size 9 to 14) (size 15 to 20)
#    0.000    2.200    1.000    3.000    2.800    4.000 
#    0.000    0.000    0.000    0.000    0.000   16.100 
#    0.000    0.000    0.000    0.000    0.000    0.000 
#
# Total GULP energy -111403.769070 kJ/mol
# GULP energy per Si atom -5570.188454 kJ/mol
# Density = 2.463334 g / cm^3
# Si number density = 24.689537 Si / 1000 Ang^3
#
#
#
# Elastic Constant Matrix: (Units=GPa)
#
#
# Indices 1 2 3 4 5 6 
#
# 1 80.9513 14.4554 38.5754 0.0000 -2.8297 0.0000
# 2 14.4554 137.0015 29.1005 0.0000 -18.1018 0.0000
# 3 38.5754 29.1005 132.7409 0.0000 -32.1280 0.0000
# 4 0.0000 0.0000 0.0000 4.7861 0.0000 -2.3737
# 5 -2.8297 -18.1018 -32.1280 0.0000 48.9492 0.0000
# 6 0.0000 0.0000 0.0000 -2.3737 0.0000 15.6465
#
#
#
# Elastic Compliance Matrix: (Units=1/GPa)
#
#
# Indices 1 2 3 4 5 6 
#
# 1 0.014654 -0.000889 -0.004682 0.000000 -0.002555 0.000000
# 2 -0.000889 0.007888 -0.000924 0.000000 0.002259 0.000000
# 3 -0.004682 -0.000924 0.010638 0.000000 0.006370 0.000000
# 4 0.000000 0.000000 0.000000 0.225938 0.000000 0.034277
# 5 -0.002555 0.002259 0.006370 0.000000 0.025298 0.000000
# 6 0.000000 0.000000 0.000000 0.034277 0.000000 0.069112
#
#
# Mechanical properties :
#
#
# Convention : Reuss Voigt Hill
#
# Bulk Modulus (GPa) = 49.53026 57.21736 53.37381
# Shear Modulus (GPa) = 13.39591 31.78052 22.58822
#
# Velocity S-wave (km/s) = 2.33185 3.59166 3.02800
# Velocity P-wave (km/s) = 5.23018 6.35807 5.82151
#
# Compressibility (1/GPa) = 0.02018968
#
# Stress axis : x y z
#
# Youngs Moduli (GPa) = 68.24263 126.77841 93.99887
#
# Poissons Ratio (x) = 0.11273 0.44008
# Poissons Ratio (y) = 0.06068 0.08686
# Poissons Ratio (z) = 0.31950 0.11715
#
# Static dielectric constant tensor:
#      x y z
#    x 1.980080 0.000000 -0.042610 
#    y 0.000000 2.005200 0.000000 
#    z -0.042610 0.000000 2.093840 
# 
# From -- ./inp_files/77787.got.cif
#   From: 2010.05.17/outbox.cif.g08.bks.cpg/sg12_39_cif.got.tgz:77787.got - 2010.06.03 13:09:07.
