data_PCOD9175719
_publ_section_title
;
Structure prediction by ZEFSAII (Michael W. Deem and Ramdas Pophale) SiO2 
 PCOD9175719
Probable space group: C 2/M
;
_chemical_formula_sum "Si O2"
_cell_formula_units_Z 44
_cell_length_a 17.989957
_cell_length_b 15.725406
_cell_length_c 23.362842
_cell_angle_alpha 90.000000
_cell_angle_beta 160.423250
_cell_angle_gamma 90.000000
_cell_volume 2214.584510
_symmetry_space_group_name_H-M "C 2/M"
_symmetry_group_IT_number 12
_symmetry_cell_setting 'monoclinic'
loop_
_space_group_symop_operation_xyz
x,y,z
-x,y,-z
-x,-y,-z
x,-y,z
1/2+x,1/2+y,z
1/2-x,1/2+y,-z
1/2-x,1/2-y,-z
1/2+x,1/2-y,z
loop_
_atom_site_type_symbol
_atom_site_label
_atom_site_fract_x
_atom_site_fract_y
_atom_site_fract_z
Si Si1 0.264171 0.500000 0.686284
Si Si2 0.999931 0.500000 0.066878
Si Si3 0.262795 0.844213 0.698942
Si Si4 0.252714 0.602706 0.847108
Si Si5 0.862405 0.000000 0.114441
Si Si6 0.849074 0.335646 0.100411
Si Si7 0.309348 0.165263 0.313457
O O1 0.374811 0.500000 0.704902
O O2 0.336203 0.585041 0.771068
O O3 0.000000 0.500000 0.500000
O O4 0.124678 0.419466 0.184279
O O5 0.000000 0.500000 0.000000
O O6 0.743702 0.500000 0.900767
O O7 0.393893 0.837335 0.733778
O O8 0.301166 0.756679 0.761810
O O9 0.000000 0.857975 0.500000
O O10 0.228771 0.500000 0.836016
O O11 0.191253 0.650647 0.861193
O O12 0.106646 0.639003 0.688111
O O13 0.500000 0.619977 0.000000
O O14 0.764643 0.917028 0.012230
O O15 0.750000 0.250000 0.000000
O O16 0.500000 0.171472 0.500000
#
# Coordination Sequence:
#
# PCOD9175719 Si02
#       7
#     4   4   8   8   4   8   8
#     4  10  18  33  56  85 125 161 191 239 315 387
#     4  10  23  41  63  86 114 161 218 277 311 356
#     4  10  22  42  63  87 123 171 216 259 317 379
#     4  11  21  35  60  91 121 158 207 255 308 377
#     4  10  20  36  55  83 117 154 208 248 310 373
#     4  11  22  37  61  91 124 166 211 263 315 372
#     4  10  21  37  60  89 127 165 195 247 320 382
#
# _framework density 19.868286000000001
#
# number of rings (size 3 to 8) (size 9 to 14) (size 15 to 20)
#    0.000    1.636    1.818    3.545    0.000    3.636 
#    0.000    7.273    0.000    0.000    0.000    0.000 
#    0.000    0.000    0.000    0.000    0.000    0.000 
#
# Total GULP energy -122634.252942 kJ/mol
# GULP energy per Si atom -5574.284225 kJ/mol
# Density = 1.982307 g / cm^3
# Si number density = 19.868286 Si / 1000 Ang^3
#
#
#
# Elastic Constant Matrix: (Units=GPa)
#
#
# Indices 1 2 3 4 5 6 
#
# 1 226.9118 61.0200 67.3988 0.0034 9.4669 0.0060
# 2 61.0200 174.1815 16.5646 -0.0841 -3.1437 -0.0149
# 3 67.3988 16.5646 82.5922 -0.0691 24.2749 -0.0120
# 4 0.0034 -0.0841 -0.0691 -1.4012 -0.0065 -2.6216
# 5 9.4669 -3.1437 24.2749 -0.0065 39.9269 -0.0055
# 6 0.0060 -0.0149 -0.0120 -2.6216 -0.0055 30.3362
#
#
#
# Elastic Compliance Matrix: (Units=1/GPa)
#
#
# Indices 1 2 3 4 5 6 
#
# 1 0.006383 -0.001699 -0.005337 0.000327 0.001598 0.000024
# 2 -0.001699 0.006373 -0.000192 -0.000334 0.001021 -0.000025
# 3 -0.005337 -0.000192 0.019643 -0.000802 -0.010693 -0.000063
# 4 0.000327 -0.000334 -0.000802 -0.614274 0.000276 -0.053086
# 5 0.001598 0.001021 -0.010693 0.000276 0.031248 0.000025
# 6 0.000024 -0.000025 -0.000063 -0.053086 0.000025 0.028376
#
#
# Mechanical properties :
#
#
# Convention : Reuss Voigt Hill
#
# Bulk Modulus (GPa) = 55.73330 85.96137 70.84734
# Shear Modulus (GPa) = -9.96386 36.35252 13.19433
#
# Velocity S-wave (km/s) = -2.24184 4.28211 2.57979
# Velocity P-wave (km/s) = 4.62722 8.23457 6.67905
#
# Compressibility (1/GPa) = 0.01794259
#
# Stress axis : x y z
#
# Youngs Moduli (GPa) = 156.67765 156.91201 50.90794
#
# Poissons Ratio (x) = 0.26666 0.27169
# Poissons Ratio (y) = 0.26626 0.00976
# Poissons Ratio (z) = 0.83617 0.03010
#
# Static dielectric constant tensor:
#      x y z
#    x 1.730640 0.000000 -0.023050 
#    y 0.000000 1.734960 -0.000020 
#    z -0.023050 -0.000020 1.909860 
# 
# From -- ./inp_files/344166.got.cif
#   From: 2010.05.17/outbox.cif.g08.bks.cpg/sg12_173_cif.got.tgz:344166.got - 2010.06.03 13:09:07.
