data_PCOD9175010
_publ_section_title
;
Structure prediction by ZEFSAII (Michael W. Deem and Ramdas Pophale) SiO2 
 PCOD9175010
Probable space group: C 2/M
;
_chemical_formula_sum "Si O2"
_cell_formula_units_Z 56
_cell_length_a 19.806142
_cell_length_b 8.086062
_cell_length_c 27.779651
_cell_angle_alpha 90.000000
_cell_angle_beta 41.130394
_cell_angle_gamma 90.000000
_cell_volume 2926.449526
_symmetry_space_group_name_H-M "C 2/M"
_symmetry_group_IT_number 12
_symmetry_cell_setting 'monoclinic'
loop_
_space_group_symop_operation_xyz
x,y,z
-x,y,-z
-x,-y,-z
x,-y,z
1/2+x,1/2+y,z
1/2-x,1/2+y,-z
1/2-x,1/2-y,-z
1/2+x,1/2-y,z
loop_
_atom_site_type_symbol
_atom_site_label
_atom_site_fract_x
_atom_site_fract_y
_atom_site_fract_z
Si Si1 0.306210 0.311671 0.821474
Si Si2 0.261406 0.802440 0.738324
Si Si3 0.967041 0.703139 0.571851
Si Si4 0.676096 0.700562 0.082798
Si Si5 0.440795 0.299152 0.205052
Si Si6 0.552633 0.687759 0.690400
Si Si7 0.637848 0.816053 0.551190
O O1 0.266778 0.500000 0.840683
O O2 0.276762 0.229856 0.786826
O O3 0.282165 0.238690 0.887377
O O4 0.429833 0.317434 0.757102
O O5 0.358153 0.741509 0.653805
O O6 0.150661 0.737832 0.779819
O O7 0.259663 0.000000 0.732505
O O8 0.963272 0.500000 0.575177
O O9 0.000000 0.749178 0.500000
O O10 0.058183 0.766877 0.557547
O O11 0.672156 0.500000 0.088649
O O12 0.558699 0.758734 0.135785
O O13 0.750000 0.750000 0.000000
O O14 0.445400 0.500000 0.198502
O O15 0.410463 0.263899 0.276569
O O16 0.588987 0.500000 0.660097
O O17 0.585500 0.808696 0.631152
O O18 0.750000 0.750000 0.500000
O O19 0.650497 0.000000 0.525549
#
# Coordination Sequence:
#
# PCOD9175010 Si02
#       7
#     8   8   8   8   8   8   8
#     4   9  18  33  53  76 106 136 164 203 261 314
#     4  10  18  32  55  78 101 133 176 217 251 300
#     4   9  19  33  50  74 101 132 173 218 258 298
#     4   9  18  35  56  80 106 137 172 209 252 304
#     4   8  17  32  54  79 102 133 174 210 250 304
#     4   9  17  33  54  72  95 132 170 210 255 302
#     4  11  22  34  50  73 100 130 171 218 260 308
#
# _framework density 19.135815000000001
#
# number of rings (size 3 to 8) (size 9 to 14) (size 15 to 20)
#    0.000    2.714    1.429    2.143    2.000    0.571 
#    0.000    4.286    0.000    6.429    0.000    0.000 
#    0.000    0.000    0.000    0.000    0.000    0.000 
#
# Total GULP energy -155878.828792 kJ/mol
# GULP energy per Si atom -5567.101028 kJ/mol
# Density = 1.909226 g / cm^3
# Si number density = 19.135815 Si / 1000 Ang^3
#
#
#
# Elastic Constant Matrix: (Units=GPa)
#
#
# Indices 1 2 3 4 5 6 
#
# 1 154.7456 9.4598 71.7571 0.0000 9.6598 0.0011
# 2 9.4598 7.1109 3.9198 -0.0001 -2.0817 0.0015
# 3 71.7571 3.9198 117.5912 0.0001 12.8727 -0.0003
# 4 0.0000 -0.0001 0.0001 23.2171 0.0001 4.1052
# 5 9.6598 -2.0817 12.8727 0.0001 19.4651 0.0000
# 6 0.0011 0.0015 -0.0003 4.1052 0.0000 15.2880
#
#
#
# Elastic Compliance Matrix: (Units=1/GPa)
#
#
# Indices 1 2 3 4 5 6 
#
# 1 0.009737 -0.010747 -0.005313 0.000000 -0.002468 0.000000
# 2 -0.010747 0.162666 -0.001458 0.000003 0.023694 -0.000016
# 3 -0.005313 -0.001458 0.012423 0.000000 -0.005735 0.000001
# 4 0.000000 0.000003 0.000000 0.045219 0.000000 -0.012142
# 5 -0.002468 0.023694 -0.005735 0.000000 0.058925 -0.000002
# 6 0.000000 -0.000016 0.000001 -0.012142 -0.000002 0.068671
#
#
# Mechanical properties :
#
#
# Convention : Reuss Voigt Hill
#
# Bulk Modulus (GPa) = 6.67606 49.96903 28.32255
# Shear Modulus (GPa) = 11.29669 24.54811 17.92240
#
# Velocity S-wave (km/s) = 2.43233 3.58556 3.06369
# Velocity P-wave (km/s) = 3.37412 6.58112 5.22952
#
# Compressibility (1/GPa) = 0.14978897
#
# Stress axis : x y z
#
# Youngs Moduli (GPa) = 102.69948 6.14756 80.49704
#
# Poissons Ratio (x) = 0.06607 0.42772
# Poissons Ratio (y) = 1.10371 0.11737
# Poissons Ratio (z) = 0.54569 0.00896
#
# Static dielectric constant tensor:
#      x y z
#    x 1.595980 0.000000 0.210370 
#    y 0.000000 1.712500 -0.000010 
#    z 0.210370 -0.000010 1.185620 
# 
# From -- ./inp_files/342273.got.cif
#   From: 2010.05.17/outbox.cif.g08.bks.cpg/sg12_172_cif.got.tgz:342273.got - 2010.06.03 13:09:07.
