data_PCOD9175354
_publ_section_title
;
Structure prediction by ZEFSAII (Michael W. Deem and Ramdas Pophale) SiO2 
 PCOD9175354
Probable space group: C 2/M
;
_chemical_formula_sum "Si O2"
_cell_formula_units_Z 48
_cell_length_a 22.096735
_cell_length_b 20.003343
_cell_length_c 7.371278
_cell_angle_alpha 90.000000
_cell_angle_beta 33.787850
_cell_angle_gamma 90.000000
_cell_volume 1811.930413
_symmetry_space_group_name_H-M "C 2/M"
_symmetry_group_IT_number 12
_symmetry_cell_setting 'monoclinic'
loop_
_space_group_symop_operation_xyz
x,y,z
-x,y,-z
-x,-y,-z
x,-y,z
1/2+x,1/2+y,z
1/2-x,1/2+y,-z
1/2-x,1/2-y,-z
1/2+x,1/2-y,z
loop_
_atom_site_type_symbol
_atom_site_label
_atom_site_fract_x
_atom_site_fract_y
_atom_site_fract_z
Si Si1 0.414955 0.572051 0.470133
Si Si2 0.021700 0.217702 0.659783
Si Si3 0.219774 0.406364 0.687885
Si Si4 0.756799 0.116731 0.181606
Si Si5 0.497816 0.867545 0.289286
Si Si6 0.249273 0.736863 0.716867
O O1 0.472398 0.500000 0.334080
O O2 0.491707 0.638158 0.258144
O O3 0.322674 0.567527 0.543920
O O4 0.340058 0.581895 0.837221
O O5 0.975721 0.290322 0.844576
O O6 0.139121 0.227582 0.455640
O O7 0.000000 0.222786 0.500000
O O8 0.258626 0.405776 0.384763
O O9 0.204012 0.336978 0.839505
O O10 0.089986 0.420622 0.997120
O O11 0.627977 0.115737 0.449888
O O12 0.793691 0.194611 0.094626
O O13 0.500000 0.868728 0.500000
O O14 0.250000 0.750000 0.500000
#
# Coordination Sequence:
#
# PCOD9175354 Si02
#       6
#     8   8   8   8   8   8
#     4  11  24  40  59  82 119 171 214 241 281 353
#     4   9  20  34  59  90 120 159 197 249 308 358
#     4  10  20  36  59  87 117 153 196 254 308 361
#     4  10  20  35  57  87 117 154 198 251 307 363
#     4  10  18  32  59  92 122 144 181 250 327 373
#     4   8  17  32  56  88 117 147 195 246 313 369
#
# _framework density 26.491081999999999
#
# number of rings (size 3 to 8) (size 9 to 14) (size 15 to 20)
#    0.000    2.333    1.667    0.500    4.667    3.000 
#    0.000    1.667    3.667    2.000    0.000    4.667 
#    0.000    0.000    0.000    0.000    0.000    0.000 
#
# Total GULP energy -133632.076643 kJ/mol
# GULP energy per Si atom -5568.003193 kJ/mol
# Density = 2.643079 g / cm^3
# Si number density = 26.491082 Si / 1000 Ang^3
#
#
#
# Elastic Constant Matrix: (Units=GPa)
#
#
# Indices 1 2 3 4 5 6 
#
# 1 192.6833 16.9359 43.9063 0.0000 3.3839 0.0000
# 2 16.9359 112.5400 -6.8725 0.0000 -10.4445 0.0000
# 3 43.9063 -6.8725 82.2630 0.0000 -19.4860 0.0000
# 4 0.0000 0.0000 0.0000 -97.1878 0.0000 35.6448
# 5 3.3839 -10.4445 -19.4860 0.0000 17.1252 0.0000
# 6 0.0000 0.0000 0.0000 35.6448 0.0000 -29.7005
#
#
#
# Elastic Compliance Matrix: (Units=1/GPa)
#
#
# Indices 1 2 3 4 5 6 
#
# 1 0.007013 -0.002370 -0.006313 0.000000 -0.010015 0.000000
# 2 -0.002370 0.010770 0.005245 0.000000 0.013005 0.000000
# 3 -0.006313 0.005245 0.023296 0.000000 0.030954 0.000000
# 4 0.000000 0.000000 0.000000 -0.018379 0.000000 -0.022058
# 5 -0.010015 0.013005 0.030954 0.000000 0.103526 0.000000
# 6 0.000000 0.000000 0.000000 -0.022058 0.000000 -0.060142
#
#
# Mechanical properties :
#
#
# Convention : Reuss Voigt Hill
#
# Bulk Modulus (GPa) = 29.23749 55.04729 42.14239
# Shear Modulus (GPa) = 59.26967 0.28182 29.77574
#
# Velocity S-wave (km/s) = 4.73519 0.32652 3.35624
# Velocity P-wave (km/s) = 6.39974 4.57895 5.56433
#
# Compressibility (1/GPa) = 0.03420266
#
# Stress axis : x y z
#
# Youngs Moduli (GPa) = 142.59973 92.85279 42.92552
#
# Poissons Ratio (x) = 0.22009 0.27099
# Poissons Ratio (y) = 0.33800 -0.22516
# Poissons Ratio (z) = 0.90025 -0.48706
#
# Static dielectric constant tensor:
#      x y z
#    x 2.052150 0.000000 -0.073060 
#    y 0.000000 2.153630 0.000000 
#    z -0.073060 0.000000 2.173840 
# 
# From -- ./inp_files/99745.got.cif
#   From: 2010.05.17/outbox.cif.g08.bks.cpg/sg12_50_cif.got.tgz:99745.got - 2010.06.03 13:09:07.
