data_PCOD9175480
_publ_section_title
;
Structure prediction by ZEFSAII (Michael W. Deem and Ramdas Pophale) SiO2 
 PCOD9175480
Probable space group: C 2/M
;
_chemical_formula_sum "Si O2"
_cell_formula_units_Z 64
_cell_length_a 25.553525
_cell_length_b 7.760432
_cell_length_c 22.289714
_cell_angle_alpha 90.000000
_cell_angle_beta 133.086692
_cell_angle_gamma 90.000000
_cell_volume 3228.159439
_symmetry_space_group_name_H-M "C 2/M"
_symmetry_group_IT_number 12
_symmetry_cell_setting 'monoclinic'
loop_
_space_group_symop_operation_xyz
x,y,z
-x,y,-z
-x,-y,-z
x,-y,z
1/2+x,1/2+y,z
1/2-x,1/2+y,-z
1/2-x,1/2-y,-z
1/2+x,1/2-y,z
loop_
_atom_site_type_symbol
_atom_site_label
_atom_site_fract_x
_atom_site_fract_y
_atom_site_fract_z
Si Si1 0.520631 0.295339 0.139859
Si Si2 0.107462 0.799444 0.761342
Si Si3 0.528480 0.288156 0.283509
Si Si4 0.166884 0.706753 0.936140
Si Si5 0.885741 0.195701 0.976276
Si Si6 0.690275 0.704629 0.404999
Si Si7 0.742907 0.704494 0.794053
Si Si8 0.815230 0.296421 0.735182
O O1 0.507432 0.500000 0.131245
O O2 0.510153 0.230241 0.200530
O O3 0.465745 0.225638 0.046386
O O4 0.604234 0.271083 0.191586
O O5 0.136100 0.785467 0.851494
O O6 0.171618 0.723093 0.770810
O O7 0.027425 0.726896 0.709610
O O8 0.098885 0.000000 0.737585
O O9 0.525931 0.500000 0.280741
O O10 0.610194 0.232422 0.358534
O O11 0.155806 0.500000 0.929773
O O12 0.136097 0.795462 0.970961
O O13 0.250000 0.750000 0.000000
O O14 0.891164 0.000000 0.957686
O O15 0.817686 0.275121 0.888997
O O16 0.685109 0.500000 0.397718
O O17 0.750000 0.750000 0.500000
O O18 0.706648 0.765243 0.350429
O O19 0.730187 0.500000 0.780565
O O20 0.760483 0.774593 0.741775
O O21 0.819695 0.500000 0.747982
#
# Coordination Sequence:
#
# PCOD9175480 Si02
#       8
#     8   8   8   8   8   8   8   8
#     4   9  18  33  51  73 100 139 185 229 274 317
#     4  10  18  33  53  73 101 140 179 222 266 308
#     4   8  15  30  53  79 106 130 166 214 264 311
#     4  12  22  31  45  70 101 138 185 233 276 313
#     4  11  21  33  50  71 100 140 189 235 276 314
#     4  10  20  37  62  90 110 132 162 206 263 322
#     4  10  22  35  50  73 105 145 186 222 264 313
#     4  10  21  37  54  78 109 141 175 216 263 319
#
# _framework density 19.825538000000002
#
# number of rings (size 3 to 8) (size 9 to 14) (size 15 to 20)
#    0.000    2.000    2.500    3.000    0.000    2.500 
#    0.000    3.125    0.000    0.750    0.000    5.250 
#    0.000    0.000    0.000    0.000    0.000    0.000 
#
# Total GULP energy -178362.095159 kJ/mol
# GULP energy per Si atom -5573.815474 kJ/mol
# Density = 1.978041 g / cm^3
# Si number density = 19.825538 Si / 1000 Ang^3
#
#
#
# Elastic Constant Matrix: (Units=GPa)
#
#
# Indices 1 2 3 4 5 6 
#
# 1 152.4210 0.9664 72.0799 0.0000 -2.7979 0.0000
# 2 0.9664 43.4553 -6.6714 -0.0001 1.4547 0.0003
# 3 72.0799 -6.6714 82.3281 0.0000 12.3847 0.0000
# 4 0.0000 -0.0001 0.0000 19.7717 0.0000 2.6353
# 5 -2.7979 1.4547 12.3847 0.0000 18.6390 0.0000
# 6 0.0000 0.0003 0.0000 2.6353 0.0000 16.8765
#
#
#
# Elastic Compliance Matrix: (Units=1/GPa)
#
#
# Indices 1 2 3 4 5 6 
#
# 1 0.013089 -0.002709 -0.013340 0.000000 0.011040 0.000000
# 2 -0.002709 0.024060 0.005183 0.000000 -0.005728 0.000000
# 3 -0.013340 0.005183 0.027341 0.000000 -0.020574 0.000000
# 4 0.000000 0.000000 0.000000 0.051652 0.000000 -0.008066
# 5 0.011040 -0.005728 -0.020574 0.000000 0.069426 0.000000
# 6 0.000000 0.000000 0.000000 -0.008066 0.000000 0.060514
#
#
# Mechanical properties :
#
#
# Convention : Reuss Voigt Hill
#
# Bulk Modulus (GPa) = 23.38739 45.66161 34.52450
# Shear Modulus (GPa) = 17.72637 25.17940 21.45288
#
# Velocity S-wave (km/s) = 2.99342 3.56764 3.29307
# Velocity P-wave (km/s) = 4.87541 6.32870 5.64899
#
# Compressibility (1/GPa) = 0.04275808
#
# Stress axis : x y z
#
# Youngs Moduli (GPa) = 76.39934 41.56308 36.57522
#
# Poissons Ratio (x) = 0.11258 0.48792
# Poissons Ratio (y) = 0.20694 -0.18956
# Poissons Ratio (z) = 1.01917 -0.21541
#
# Static dielectric constant tensor:
#      x y z
#    x 1.707730 0.000000 0.073550 
#    y 0.000000 1.959720 0.000000 
#    z 0.073550 0.000000 1.693880 
# 
# From -- ./inp_files/324248.got.cif
#   From: 2010.05.17/outbox.cif.g08.bks.cpg/sg12_163_cif.got.tgz:324248.got - 2010.06.03 13:09:07.
