data_PCOD9175024
_publ_section_title
;
Structure prediction by ZEFSAII (Michael W. Deem and Ramdas Pophale) SiO2 
 PCOD9175024
Probable space group: C 2/M
;
_chemical_formula_sum "Si O2"
_cell_formula_units_Z 48
_cell_length_a 21.382932
_cell_length_b 10.314745
_cell_length_c 15.149160
_cell_angle_alpha 90.000000
_cell_angle_beta 50.859192
_cell_angle_gamma 90.000000
_cell_volume 2591.495361
_symmetry_space_group_name_H-M "C 2/M"
_symmetry_group_IT_number 12
_symmetry_cell_setting 'monoclinic'
loop_
_space_group_symop_operation_xyz
x,y,z
-x,y,-z
-x,-y,-z
x,-y,z
1/2+x,1/2+y,z
1/2-x,1/2+y,-z
1/2-x,1/2-y,-z
1/2+x,1/2-y,z
loop_
_atom_site_type_symbol
_atom_site_label
_atom_site_fract_x
_atom_site_fract_y
_atom_site_fract_z
Si Si1 0.443163 0.655547 0.422002
Si Si2 0.906092 0.643273 0.111770
Si Si3 0.200707 0.641198 0.144742
Si Si4 0.369852 0.257468 0.960852
Si Si5 0.946444 0.153390 0.219733
Si Si6 0.123072 0.155322 0.335637
O O1 0.429015 0.500000 0.224300
O O2 0.427045 0.698968 0.336839
O O3 0.535293 0.680834 0.369496
O O4 0.385980 0.695473 0.553786
O O5 0.881301 0.500000 0.165403
O O6 0.901934 0.755968 0.188322
O O7 0.864636 0.680568 0.057187
O O8 0.000000 0.636867 0.000000
O O9 0.184739 0.500000 0.197806
O O10 0.143391 0.666151 0.111649
O O11 0.292685 0.648853 0.029042
O O12 0.456777 0.326101 0.878455
O O13 0.184178 0.243881 0.227908
O O14 0.937359 0.000000 0.424394
O O15 0.138424 0.000000 0.315802
#
# Coordination Sequence:
#
# PCOD9175024 Si02
#       6
#     8   8   8   8   8   8
#     4   8  15  30  52  75  98 129 171 208 245 302
#     4   9  19  34  50  71 101 135 167 203 250 302
#     4  11  22  33  50  77 107 135 169 212 250 294
#     4  10  21  34  50  71 105 142 170 196 249 311
#     4  10  18  32  55  78  99 128 170 214 248 289
#     4   9  17  32  52  72  99 136 170 203 249 306
#
# _framework density 18.522124999999999
#
# number of rings (size 3 to 8) (size 9 to 14) (size 15 to 20)
#    0.000    2.500    1.667    2.000    0.000    7.667 
#    0.000    2.500    0.000    1.000    0.000    0.000 
#    0.000    0.000    0.000    0.000    0.000    0.000 
#
# Total GULP energy -133702.827286 kJ/mol
# GULP energy per Si atom -5570.951137 kJ/mol
# Density = 1.847997 g / cm^3
# Si number density = 18.522125 Si / 1000 Ang^3
#
#
#
# Elastic Constant Matrix: (Units=GPa)
#
#
# Indices 1 2 3 4 5 6 
#
# 1 40.2133 27.3998 31.6115 0.0000 17.2143 0.0000
# 2 27.3998 100.3245 39.2690 0.0000 18.7177 0.0001
# 3 31.6115 39.2690 80.5409 0.0000 30.8006 0.0000
# 4 0.0000 0.0000 0.0000 14.0944 0.0000 -1.6604
# 5 17.2143 18.7177 30.8006 0.0000 28.9403 0.0000
# 6 0.0000 0.0001 0.0000 -1.6604 0.0000 -3.1012
#
#
#
# Elastic Compliance Matrix: (Units=1/GPa)
#
#
# Indices 1 2 3 4 5 6 
#
# 1 0.040319 -0.005458 -0.009009 0.000000 -0.010864 0.000000
# 2 -0.005458 0.013180 -0.003820 0.000000 -0.001212 0.000000
# 3 -0.009009 -0.003820 0.024992 0.000000 -0.018770 0.000000
# 4 0.000000 0.000000 0.000000 0.066741 0.000000 -0.035732
# 5 -0.010864 -0.001212 -0.018770 0.000000 0.061776 0.000000
# 6 0.000000 0.000000 0.000000 -0.035732 0.000000 -0.303322
#
#
# Mechanical properties :
#
#
# Convention : Reuss Voigt Hill
#
# Bulk Modulus (GPa) = 23.85697 46.40436 35.13066
# Shear Modulus (GPa) = -109.24930 16.17326 -46.53802
#
# Velocity S-wave (km/s) = -7.68838 2.95818 -5.01799
# Velocity P-wave (km/s) = 8.11829 6.06429 3.81648
#
# Compressibility (1/GPa) = 0.04191648
#
# Stress axis : x y z
#
# Youngs Moduli (GPa) = 24.80222 75.87361 40.01217
#
# Poissons Ratio (x) = 0.41415 0.36046
# Poissons Ratio (y) = 0.13538 0.15286
# Poissons Ratio (z) = 0.22343 0.28986
#
# Static dielectric constant tensor:
#      x y z
#    x 1.653450 0.000000 0.007670 
#    y 0.000000 1.639490 0.000000 
#    z 0.007670 0.000000 1.659630 
# 
# From -- ./inp_files/318807.got.cif
#   From: 2010.05.17/outbox.cif.g08.bks.cpg/sg12_160_cif.got.tgz:318807.got - 2010.06.03 13:09:07.
