data_PCOD9175361
_publ_section_title
;
Structure prediction by ZEFSAII (Michael W. Deem and Ramdas Pophale) SiO2 
 PCOD9175361
Probable space group: C 2/M
;
_chemical_formula_sum "Si O2"
_cell_formula_units_Z 56
_cell_length_a 18.028314
_cell_length_b 32.526713
_cell_length_c 5.676865
_cell_angle_alpha 90.000000
_cell_angle_beta 120.643520
_cell_angle_gamma 90.000000
_cell_volume 2864.056685
_symmetry_space_group_name_H-M "C 2/M"
_symmetry_group_IT_number 12
_symmetry_cell_setting 'monoclinic'
loop_
_space_group_symop_operation_xyz
x,y,z
-x,y,-z
-x,-y,-z
x,-y,z
1/2+x,1/2+y,z
1/2-x,1/2+y,-z
1/2-x,1/2-y,-z
1/2+x,1/2-y,z
loop_
_atom_site_type_symbol
_atom_site_label
_atom_site_fract_x
_atom_site_fract_y
_atom_site_fract_z
Si Si1 0.477535 0.405150 0.715283
Si Si2 0.947217 0.500000 0.165613
Si Si3 0.042054 0.812605 0.820870
Si Si4 0.370695 0.088320 0.099882
Si Si5 0.353751 0.147776 0.455465
Si Si6 0.500000 0.856900 0.000000
Si Si7 0.713975 0.629781 0.615481
Si Si8 0.771030 0.202438 0.023285
O O1 0.500000 0.425618 0.500000
O O2 0.531719 0.362289 0.801184
O O3 0.378159 0.390931 0.562237
O O4 0.500000 0.426540 0.000000
O O5 0.890616 0.541221 0.087812
O O6 0.000000 0.500000 0.500000
O O7 0.000000 0.500000 0.000000
O O8 0.142784 0.802330 0.990818
O O9 0.000000 0.798647 0.500000
O O10 0.000000 0.798386 0.000000
O O11 0.387303 0.106066 0.386997
O O12 0.434686 0.114686 0.040237
O O13 0.273237 0.101808 0.882176
O O14 0.434038 0.166890 0.725621
O O15 0.272633 0.134784 0.481571
O O16 0.314309 0.179740 0.209289
O O17 0.705119 0.675666 0.707328
O O18 0.750000 0.250000 0.000000
#
# Coordination Sequence:
#
# PCOD9175361 Si02
#       8
#     8   4   8   8   8   4   8   8
#     4  10  18  32  60  86 112 145 198 256 312 366
#     4  12  24  40  66 100 134 177 222 265 314 374
#     4  10  19  36  60  81 111 143 196 258 310 364
#     4  10  22  37  63  90 128 167 213 261 313 381
#     4  10  21  37  59  82 121 163 211 260 320 381
#     4  10  18  37  60  82 116 166 212 254 308 383
#     4  10  21  38  60  89 118 159 204 270 326 383
#     4  11  23  39  59  85 118 163 208 271 329 389
#
# _framework density 19.552686999999999
#
# number of rings (size 3 to 8) (size 9 to 14) (size 15 to 20)
#    0.000    1.714    3.571    3.000    4.000    0.571 
#    0.000    4.286    7.857    0.000    0.000    1.000 
#    0.000    0.000    0.000    0.000    0.000    0.000 
#
# Total GULP energy -156060.683730 kJ/mol
# GULP energy per Si atom -5573.595848 kJ/mol
# Density = 1.950818 g / cm^3
# Si number density = 19.552687 Si / 1000 Ang^3
#
#
#
# Elastic Constant Matrix: (Units=GPa)
#
#
# Indices 1 2 3 4 5 6 
#
# 1 101.8538 20.1639 28.7650 0.0000 -9.8936 0.0000
# 2 20.1639 67.2209 14.9412 0.0000 0.5096 0.0000
# 3 28.7650 14.9412 106.2644 0.0000 -4.1443 0.0000
# 4 0.0000 0.0000 0.0000 0.6957 0.0000 4.2883
# 5 -9.8936 0.5096 -4.1443 0.0000 45.0326 0.0000
# 6 0.0000 0.0000 0.0000 4.2883 0.0000 17.0211
#
#
#
# Elastic Compliance Matrix: (Units=1/GPa)
#
#
# Indices 1 2 3 4 5 6 
#
# 1 0.011331 -0.002843 -0.002578 0.000000 0.002284 0.000000
# 2 -0.002843 0.016076 -0.001528 0.000000 -0.000947 0.000000
# 3 -0.002578 -0.001528 0.010339 0.000000 0.000402 0.000000
# 4 0.000000 0.000000 0.000000 -2.599350 0.000000 0.654886
# 5 0.002284 -0.000947 0.000402 0.000000 0.022756 0.000000
# 6 0.000000 0.000000 0.000000 0.654886 0.000000 -0.106243
#
#
# Mechanical properties :
#
#
# Convention : Reuss Voigt Hill
#
# Bulk Modulus (GPa) = 41.93318 44.78660 43.35989
# Shear Modulus (GPa) = -1.90604 26.64781 12.37089
#
# Velocity S-wave (km/s) = -0.98840 3.69571 2.51807
# Velocity P-wave (km/s) = 4.49335 6.41610 5.53880
#
# Compressibility (1/GPa) = 0.02384746
#
# Stress axis : x y z
#
# Youngs Moduli (GPa) = 88.25435 62.20495 96.72190
#
# Poissons Ratio (x) = 0.17685 0.24938
# Poissons Ratio (y) = 0.25092 0.14776
# Poissons Ratio (z) = 0.22755 0.09503
#
# Static dielectric constant tensor:
#      x y z
#    x 1.711340 0.000000 -0.042270 
#    y 0.000000 1.635820 0.000000 
#    z -0.042270 0.000000 1.834940 
# 
# From -- ./inp_files/18278.got.cif
#   From: 2010.05.17/outbox.cif.g08.bks.cpg/sg12_10_cif.got.tgz:18278.got - 2010.06.03 13:09:07.
