data_PCOD9175671
_publ_section_title
;
Structure prediction by ZEFSAII (Michael W. Deem and Ramdas Pophale) SiO2 
 PCOD9175671
Probable space group: C 2/M
;
_chemical_formula_sum "Si O2"
_cell_formula_units_Z 64
_cell_length_a 25.973727
_cell_length_b 7.587458
_cell_length_c 15.570195
_cell_angle_alpha 90.000000
_cell_angle_beta 71.506952
_cell_angle_gamma 90.000000
_cell_volume 2910.039172
_symmetry_space_group_name_H-M "C 2/M"
_symmetry_group_IT_number 12
_symmetry_cell_setting 'monoclinic'
loop_
_space_group_symop_operation_xyz
x,y,z
-x,y,-z
-x,-y,-z
x,-y,z
1/2+x,1/2+y,z
1/2-x,1/2+y,-z
1/2-x,1/2-y,-z
1/2+x,1/2-y,z
loop_
_atom_site_type_symbol
_atom_site_label
_atom_site_fract_x
_atom_site_fract_y
_atom_site_fract_z
Si Si1 0.149373 0.784739 0.374255
Si Si2 0.107956 0.709664 0.096986
Si Si3 0.313694 0.709183 0.460747
Si Si4 0.325189 0.783597 0.100135
Si Si5 0.625317 0.209089 0.747354
Si Si6 0.471587 0.713143 0.602568
Si Si7 0.704724 0.287630 0.176563
Si Si8 0.493850 0.207703 0.227142
O O1 0.159447 0.721159 0.465426
O O2 0.090922 0.730623 0.369223
O O3 0.193769 0.730447 0.280575
O O4 0.149721 0.000000 0.376796
O O5 0.101138 0.500000 0.090713
O O6 0.154025 0.735824 0.144718
O O7 0.049353 0.782486 0.156623
O O8 0.133084 0.777400 0.994770
O O9 0.320488 0.500000 0.458027
O O10 0.250000 0.750000 0.500000
O O11 0.341365 0.770247 0.358314
O O12 0.343522 0.724622 0.184987
O O13 0.263507 0.725547 0.114226
O O14 0.324728 0.000000 0.098767
O O15 0.564255 0.282824 0.770338
O O16 0.619959 0.000000 0.763490
O O17 0.500000 0.771391 0.500000
O O18 0.472971 0.500000 0.603700
O O19 0.500141 0.775748 0.673573
O O20 0.705692 0.500000 0.176232
O O21 0.492971 0.000000 0.206983
#
# Coordination Sequence:
#
# PCOD9175671 Si02
#       8
#     8   8   8   8   8   8   8   8
#     4   9  18  32  52  77 105 141 181 217 267 334
#     4  10  20  35  54  82 113 143 181 230 286 336
#     4  11  22  38  59  84 114 148 187 231 275 328
#     4   9  19  35  57  79 106 146 190 232 276 333
#     4  10  21  39  58  79 110 151 192 232 276 329
#     4  10  19  33  54  77 102 140 186 223 264 327
#     4  10  18  33  56  80 105 140 183 229 279 333
#     4  10  21  35  54  81 114 145 180 231 287 330
#
# _framework density 21.992832
#
# number of rings (size 3 to 8) (size 9 to 14) (size 15 to 20)
#    0.000    2.125    1.250    2.250    0.000    4.250 
#    0.000    7.500    0.000    0.000    0.000    2.625 
#    0.000    0.000    0.000    0.000    0.000    0.000 
#
# Total GULP energy -178776.837382 kJ/mol
# GULP energy per Si atom -5586.776168 kJ/mol
# Density = 2.194278 g / cm^3
# Si number density = 21.992832 Si / 1000 Ang^3
#
#
#
# Elastic Constant Matrix: (Units=GPa)
#
#
# Indices 1 2 3 4 5 6 
#
# 1 124.0340 -4.1459 43.4331 0.0000 -17.4576 0.0000
# 2 -4.1459 46.3861 -4.6226 0.0000 -3.8919 0.0000
# 3 43.4331 -4.6226 132.0684 0.0000 -17.5320 0.0000
# 4 0.0000 0.0000 0.0000 0.7200 0.0000 1.8067
# 5 -17.4576 -3.8919 -17.5320 0.0000 40.9648 0.0000
# 6 0.0000 0.0000 0.0000 1.8067 0.0000 16.4249
#
#
#
# Elastic Compliance Matrix: (Units=1/GPa)
#
#
# Indices 1 2 3 4 5 6 
#
# 1 0.009446 0.000825 -0.002685 0.000000 0.002955 0.000000
# 2 0.000825 0.021954 0.000870 0.000000 0.002810 0.000000
# 3 -0.002685 0.000870 0.008847 0.000000 0.002725 0.000000
# 4 0.000000 0.000000 0.000000 1.918398 0.000000 -0.211020
# 5 0.002955 0.002810 0.002725 0.000000 0.027103 0.000000
# 6 0.000000 0.000000 0.000000 -0.211020 0.000000 0.084095
#
#
# Mechanical properties :
#
#
# Convention : Reuss Voigt Hill
#
# Bulk Modulus (GPa) = 26.13267 41.31308 33.72287
# Shear Modulus (GPa) = 2.39856 29.47684 15.93770
#
# Velocity S-wave (km/s) = 1.04546 3.66497 2.69490
# Velocity P-wave (km/s) = 3.65588 6.06094 5.00502
#
# Compressibility (1/GPa) = 0.03826628
#
# Stress axis : x y z
#
# Youngs Moduli (GPa) = 105.86394 45.54906 113.03078
#
# Poissons Ratio (x) = -0.03756 0.30354
# Poissons Ratio (y) = -0.08729 -0.09837
# Poissons Ratio (z) = 0.28429 -0.03964
#
# Static dielectric constant tensor:
#      x y z
#    x 1.790810 0.000000 -0.013910 
#    y 0.000000 1.812890 0.000000 
#    z -0.013910 0.000000 1.785420 
# 
# From -- ./inp_files/243833.got.cif
#   From: 2010.05.17/outbox.cif.g08.bks.cpg/sg12_122_cif.got.tgz:243833.got - 2010.06.03 13:09:07.
