data_PCOD9175166
_publ_section_title
;
Structure prediction by ZEFSAII (Michael W. Deem and Ramdas Pophale) SiO2 
 PCOD9175166
Probable space group: C 2/M
;
_chemical_formula_sum "Si O2"
_cell_formula_units_Z 44
_cell_length_a 5.965175
_cell_length_b 23.826710
_cell_length_c 14.831641
_cell_angle_alpha 90.000000
_cell_angle_beta 99.455361
_cell_angle_gamma 90.000000
_cell_volume 2079.388568
_symmetry_space_group_name_H-M "C 2/M"
_symmetry_group_IT_number 12
_symmetry_cell_setting 'monoclinic'
loop_
_space_group_symop_operation_xyz
x,y,z
-x,y,-z
-x,-y,-z
x,-y,z
1/2+x,1/2+y,z
1/2-x,1/2+y,-z
1/2-x,1/2-y,-z
1/2+x,1/2-y,z
loop_
_atom_site_type_symbol
_atom_site_label
_atom_site_fract_x
_atom_site_fract_y
_atom_site_fract_z
Si Si1 0.500000 0.778561 0.000000
Si Si2 0.908825 0.760476 0.638152
Si Si3 0.684862 0.060297 0.756767
Si Si4 0.534114 0.829931 0.198362
Si Si5 0.339519 0.063349 0.567328
Si Si6 0.963956 0.119878 0.322133
O O1 0.535739 0.810217 0.096573
O O2 0.750000 0.750000 0.000000
O O3 0.149142 0.758539 0.597064
O O4 0.978965 0.722369 0.731158
O O5 0.877390 0.826427 0.654896
O O6 0.647212 0.119168 0.804986
O O7 0.493132 0.059093 0.666946
O O8 0.914985 0.067749 0.716001
O O9 0.678474 0.000000 0.804981
O O10 0.769065 0.858445 0.243083
O O11 0.500000 0.087485 0.500000
O O12 0.137705 0.101156 0.589523
O O13 0.273170 0.000000 0.535205
#
# Coordination Sequence:
#
# PCOD9175166 Si02
#       6
#     4   8   8   8   8   8
#     4  12  26  40  67 100 133 160 208 266 320 366
#     4  10  18  32  56  83 112 149 195 242 297 350
#     4  10  20  36  61  88 117 162 209 253 309 377
#     4  10  22  38  58  89 123 157 204 259 311 368
#     4   9  19  35  55  86 122 156 205 265 315 364
#     4  10  19  33  58  84 120 158 204 250 311 373
#
# _framework density 21.160066
#
# number of rings (size 3 to 8) (size 9 to 14) (size 15 to 20)
#    0.000    2.000    1.818    2.727    2.545    1.455 
#    0.000    3.182    0.000   10.909    0.000    0.000 
#    0.000    0.000    0.000    0.000    0.000    0.000 
#
# Total GULP energy -122503.096586 kJ/mol
# GULP energy per Si atom -5568.322572 kJ/mol
# Density = 2.111191 g / cm^3
# Si number density = 21.160066 Si / 1000 Ang^3
#
#
#
# Elastic Constant Matrix: (Units=GPa)
#
#
# Indices 1 2 3 4 5 6 
#
# 1 93.7541 31.9129 51.3684 0.0000 -14.7187 0.0000
# 2 31.9129 122.4486 44.8950 0.0000 -20.1143 0.0000
# 3 51.3684 44.8950 91.8125 0.0000 -7.8559 0.0000
# 4 0.0000 0.0000 0.0000 16.5344 0.0000 -4.7351
# 5 -14.7187 -20.1143 -7.8559 0.0000 29.5105 0.0000
# 6 0.0000 0.0000 0.0000 -4.7351 0.0000 -7.0194
#
#
#
# Elastic Compliance Matrix: (Units=1/GPa)
#
#
# Indices 1 2 3 4 5 6 
#
# 1 0.016311 -0.000173 -0.008550 0.000000 0.005741 0.000000
# 2 -0.000173 0.010953 -0.004736 0.000000 0.006119 0.000000
# 3 -0.008550 -0.004736 0.017754 0.000000 -0.002766 0.000000
# 4 0.000000 0.000000 0.000000 0.050688 0.000000 -0.034193
# 5 0.005741 0.006119 -0.002766 0.000000 0.040184 0.000000
# 6 0.000000 0.000000 0.000000 -0.034193 0.000000 -0.119397
#
#
# Mechanical properties :
#
#
# Convention : Reuss Voigt Hill
#
# Bulk Modulus (GPa) = 55.24477 62.70754 58.97616
# Shear Modulus (GPa) = 101.12371 19.79435 60.45903
#
# Velocity S-wave (km/s) = 6.92052 3.06184 5.35110
# Velocity P-wave (km/s) = 9.48804 6.49608 8.13086
#
# Compressibility (1/GPa) = 0.01810126
#
# Stress axis : x y z
#
# Youngs Moduli (GPa) = 61.30803 91.29777 56.32410
#
# Poissons Ratio (x) = 0.01581 0.48157
# Poissons Ratio (y) = 0.01061 0.26673
# Poissons Ratio (z) = 0.52419 0.43234
#
# Static dielectric constant tensor:
#      x y z
#    x 1.879130 0.000000 -0.030030 
#    y 0.000000 1.802280 0.000000 
#    z -0.030030 0.000000 1.750470 
# 
# From -- ./inp_files/191579.got.cif
#   From: 2010.05.17/outbox.cif.g08.bks.cpg/sg12_96_cif.got.tgz:191579.got - 2010.06.03 13:09:07.
