data_PCOD9175980
_publ_section_title
;
Structure prediction by ZEFSAII (Michael W. Deem and Ramdas Pophale) SiO2 
 PCOD9175980
Probable space group: C 2/M
;
_chemical_formula_sum "Si O2"
_cell_formula_units_Z 56
_cell_length_a 14.206460
_cell_length_b 13.518878
_cell_length_c 23.691639
_cell_angle_alpha 90.000000
_cell_angle_beta 32.529721
_cell_angle_gamma 90.000000
_cell_volume 2446.761119
_symmetry_space_group_name_H-M "C 2/M"
_symmetry_group_IT_number 12
_symmetry_cell_setting 'monoclinic'
loop_
_space_group_symop_operation_xyz
x,y,z
-x,y,-z
-x,-y,-z
x,-y,z
1/2+x,1/2+y,z
1/2-x,1/2+y,-z
1/2-x,1/2-y,-z
1/2+x,1/2-y,z
loop_
_atom_site_type_symbol
_atom_site_label
_atom_site_fract_x
_atom_site_fract_y
_atom_site_fract_z
Si Si1 0.455386 0.617020 0.763230
Si Si2 0.315388 0.777020 0.608204
Si Si3 0.607274 0.119643 0.999376
Si Si4 0.617500 0.880264 0.116276
Si Si5 0.612404 0.117533 0.656748
Si Si6 0.848905 0.732527 0.721455
Si Si7 0.508163 0.388665 0.928661
O O1 0.453369 0.500000 0.755068
O O2 0.647480 0.653562 0.683320
O O3 0.389165 0.673895 0.740893
O O4 0.311508 0.640343 0.884314
O O5 0.500000 0.825773 0.500000
O O6 0.282868 0.681993 0.584271
O O7 0.328181 0.744221 0.666521
O O8 0.537191 0.147588 0.096505
O O9 0.591739 0.000000 0.005686
O O10 0.500000 0.159415 0.000000
O O11 0.513923 0.855513 0.225433
O O12 0.628919 0.000000 0.112464
O O13 0.817491 0.845158 0.012143
O O14 0.511345 0.158542 0.653364
O O15 0.637593 0.000000 0.642328
O O16 0.676130 0.673273 0.827347
O O17 0.522970 0.500000 0.896317
O O18 0.500000 0.398696 0.000000
#
# Coordination Sequence:
#
# PCOD9175980 Si02
#       7
#     8   8   8   8   8   8   8
#     4  10  24  45  65  95 134 175 224 271 325 395
#     4  11  27  48  67  94 130 171 223 286 344 388
#     4   9  18  33  56  87 128 174 209 245 306 384
#     4   9  17  32  56  90 131 169 211 257 304 382
#     4  10  22  42  68  99 130 168 219 274 334 398
#     4  11  23  41  66 100 131 172 221 279 324 392
#     4  10  18  33  61  98 136 173 211 258 320 387
#
# _framework density 22.887398999999998
#
# number of rings (size 3 to 8) (size 9 to 14) (size 15 to 20)
#    0.000    2.000    1.429    1.286    2.000    6.286 
#    0.000    3.571    0.000    0.000    0.000    0.000 
#    0.000    0.000    0.000    0.000    0.000    0.000 
#
# Total GULP energy -156640.685540 kJ/mol
# GULP energy per Si atom -5594.310198 kJ/mol
# Density = 2.283531 g / cm^3
# Si number density = 22.887399 Si / 1000 Ang^3
#
#
#
# Elastic Constant Matrix: (Units=GPa)
#
#
# Indices 1 2 3 4 5 6 
#
# 1 96.3636 8.8546 17.5666 0.0003 -19.7792 0.0002
# 2 8.8546 118.1421 14.3098 -0.0001 -13.3578 0.0002
# 3 17.5666 14.3098 61.7028 -0.0013 -28.9298 0.0007
# 4 0.0003 -0.0001 -0.0013 9.1729 0.0001 -12.5020
# 5 -19.7792 -13.3578 -28.9298 0.0001 25.0139 -0.0001
# 6 0.0002 0.0002 0.0007 -12.5020 -0.0001 11.7349
#
#
#
# Elastic Compliance Matrix: (Units=1/GPa)
#
#
# Indices 1 2 3 4 5 6 
#
# 1 0.012548 0.000217 0.002368 0.000001 0.012776 0.000001
# 2 0.000217 0.009016 0.000405 0.000000 0.005454 0.000000
# 3 0.002368 0.000405 0.035867 -0.000005 0.043570 -0.000007
# 4 0.000001 0.000000 -0.000005 -0.241174 -0.000005 -0.256940
# 5 0.012776 0.005454 0.043570 -0.000005 0.103384 -0.000007
# 6 0.000001 0.000000 -0.000007 -0.256940 -0.000007 -0.188520
#
#
# Mechanical properties :
#
#
# Convention : Reuss Voigt Hill
#
# Bulk Modulus (GPa) = 15.77039 39.74116 27.75577
# Shear Modulus (GPa) = -19.70675 24.88284 2.58805
#
# Velocity S-wave (km/s) = -2.93752 3.30083 1.06453
# Velocity P-wave (km/s) = 2.14475 5.65055 3.69654
#
# Compressibility (1/GPa) = 0.06340996
#
# Stress axis : x y z
#
# Youngs Moduli (GPa) = 79.69232 110.91647 27.88062
#
# Poissons Ratio (x) = -0.02411 -0.06601
# Poissons Ratio (y) = -0.01732 -0.01128
# Poissons Ratio (z) = -0.18867 -0.04487
#
# Static dielectric constant tensor:
#      x y z
#    x 1.872780 0.000000 -0.023080 
#    y 0.000000 1.879970 0.000000 
#    z -0.023080 0.000000 1.838260 
# 
# From -- ./inp_files/340325.got.cif
#   From: 2010.05.17/outbox.cif.g08.bks.cpg/sg12_171_cif.got.tgz:340325.got - 2010.06.03 13:09:07.
