data_PCOD9175399
_publ_section_title
;
Structure prediction by ZEFSAII (Michael W. Deem and Ramdas Pophale) SiO2 
 PCOD9175399
Probable space group: C 2/M
;
_chemical_formula_sum "Si O2"
_cell_formula_units_Z 64
_cell_length_a 23.701113
_cell_length_b 25.458267
_cell_length_c 19.586866
_cell_angle_alpha 90.000000
_cell_angle_beta 18.121005
_cell_angle_gamma 90.000000
_cell_volume 3675.848915
_symmetry_space_group_name_H-M "C 2/M"
_symmetry_group_IT_number 12
_symmetry_cell_setting 'monoclinic'
loop_
_space_group_symop_operation_xyz
x,y,z
-x,y,-z
-x,-y,-z
x,-y,z
1/2+x,1/2+y,z
1/2-x,1/2+y,-z
1/2-x,1/2-y,-z
1/2+x,1/2-y,z
loop_
_atom_site_type_symbol
_atom_site_label
_atom_site_fract_x
_atom_site_fract_y
_atom_site_fract_z
Si Si1 0.812263 0.142923 0.967037
Si Si2 0.767363 0.292725 0.075194
Si Si3 0.020909 0.700110 0.398581
Si Si4 0.367672 0.561819 0.801671
Si Si5 0.163644 0.256328 0.760226
Si Si6 0.877222 0.389412 0.034638
Si Si7 0.069547 0.218494 0.725710
Si Si8 0.242970 0.122596 0.343749
O O1 0.807683 0.173490 0.900086
O O2 0.797400 0.083927 0.955711
O O3 0.004354 0.160471 0.780226
O O4 0.646428 0.162725 0.206093
O O5 0.627961 0.255780 0.274767
O O6 0.863435 0.331782 0.017026
O O7 0.913155 0.254438 0.873791
O O8 0.000000 0.680378 0.500000
O O9 0.823241 0.716710 0.598881
O O10 0.398139 0.500000 0.768135
O O11 0.229801 0.575206 0.897412
O O12 0.556173 0.593019 0.572853
O O13 0.065496 0.227179 0.810684
O O14 0.252061 0.314368 0.646334
O O15 0.000000 0.266513 0.000000
O O16 0.783888 0.385982 0.216171
O O17 0.087877 0.400996 0.807805
O O18 0.250000 0.250000 0.500000
#
# Coordination Sequence:
#
# PCOD9175399 Si02
#       8
#     8   8   8   8   8   8   8   8
#     4  10  22  37  52  77 111 147 190 240 285 333
#     4  10  18  33  48  78 113 151 185 205 270 339
#     4  11  21  33  53  80 116 152 184 226 271 342
#     4  11  25  42  60  77 104 151 206 252 297 330
#     4  12  20  32  53  85 118 152 178 208 267 349
#     4  10  20  35  57  81 120 154 188 231 271 338
#     4  11  18  28  49  77 108 143 178 213 262 329
#     4  11  20  36  56  88 119 152 189 229 277 332
#
# _framework density 17.410944000000001
#
# number of rings (size 3 to 8) (size 9 to 14) (size 15 to 20)
#    0.000    1.250    2.500    7.875    0.000    1.500 
#    0.000    1.250    0.000    0.375    0.000    0.000 
#    0.000    2.000    0.000    0.000    0.000    0.000 
#
# Total GULP energy -178283.949763 kJ/mol
# GULP energy per Si atom -5571.373430 kJ/mol
# Density = 1.737132 g / cm^3
# Si number density = 17.410944 Si / 1000 Ang^3
#
#
#
# Elastic Constant Matrix: (Units=GPa)
#
#
# Indices 1 2 3 4 5 6 
#
# 1 97.9437 47.4386 34.9159 0.0079 -7.4556 -0.0053
# 2 47.4386 62.0211 25.6435 0.0085 -5.1816 -0.0077
# 3 34.9159 25.6435 87.2281 -0.0080 -5.3663 0.0148
# 4 0.0079 0.0085 -0.0080 11.9490 0.0036 -2.0081
# 5 -7.4556 -5.1816 -5.3663 0.0036 29.3625 0.0065
# 6 -0.0053 -0.0077 0.0148 -2.0081 0.0065 17.1450
#
#
#
# Elastic Compliance Matrix: (Units=1/GPa)
#
#
# Indices 1 2 3 4 5 6 
#
# 1 0.017146 -0.011587 -0.003353 -0.000005 0.001696 0.000002
# 2 -0.011587 0.026337 -0.003034 -0.000012 0.001151 0.000009
# 3 -0.003353 -0.003034 0.013768 0.000011 0.001130 -0.000013
# 4 -0.000005 -0.000012 0.000011 0.085369 -0.000014 0.009999
# 5 0.001696 0.001151 0.001130 -0.000014 0.034897 -0.000015
# 6 0.000002 0.000009 -0.000013 0.009999 -0.000015 0.059497
#
#
# Mechanical properties :
#
#
# Convention : Reuss Voigt Hill
#
# Bulk Modulus (GPa) = 46.93952 51.46543 49.20247
# Shear Modulus (GPa) = 17.85318 20.97097 19.41208
#
# Velocity S-wave (km/s) = 3.20566 3.47431 3.34269
# Velocity P-wave (km/s) = 6.38122 6.76150 6.57411
#
# Compressibility (1/GPa) = 0.02130401
#
# Stress axis : x y z
#
# Youngs Moduli (GPa) = 58.32139 37.96992 72.63464
#
# Poissons Ratio (x) = 0.43996 0.24352
# Poissons Ratio (y) = 0.67577 0.22035
# Poissons Ratio (z) = 0.19553 0.11519
#
# Static dielectric constant tensor:
#      x y z
#    x 1.598880 -0.000020 -0.034430 
#    y -0.000020 1.648360 0.000030 
#    z -0.034430 0.000030 1.643760 
# 
# From -- ./inp_files/286683.got.cif
#   From: 2010.05.17/outbox.cif.g08.bks.cpg/sg12_144_cif.got.tgz:286683.got - 2010.06.03 13:09:07.
