data_PCOD9175629
_publ_section_title
;
Structure prediction by ZEFSAII (Michael W. Deem and Ramdas Pophale) SiO2 
 PCOD9175629
Probable space group: C 2/M
;
_chemical_formula_sum "Si O2"
_cell_formula_units_Z 64
_cell_length_a 26.035277
_cell_length_b 15.116894
_cell_length_c 15.644321
_cell_angle_alpha 90.000000
_cell_angle_beta 28.297843
_cell_angle_gamma 90.000000
_cell_volume 2918.839918
_symmetry_space_group_name_H-M "C 2/M"
_symmetry_group_IT_number 12
_symmetry_cell_setting 'monoclinic'
loop_
_space_group_symop_operation_xyz
x,y,z
-x,y,-z
-x,-y,-z
x,-y,z
1/2+x,1/2+y,z
1/2-x,1/2+y,-z
1/2-x,1/2-y,-z
1/2+x,1/2-y,z
loop_
_atom_site_type_symbol
_atom_site_label
_atom_site_fract_x
_atom_site_fract_y
_atom_site_fract_z
Si Si1 0.693452 0.211062 0.899044
Si Si2 0.729654 0.147100 0.512268
Si Si3 0.826363 0.901135 0.045724
Si Si4 0.021258 0.402583 0.369335
Si Si5 0.120745 0.601300 0.846729
Si Si6 0.049627 0.717159 0.664235
Si Si7 0.268875 0.399844 0.942977
Si Si8 0.428790 0.595624 0.293878
O O1 0.567918 0.209216 0.117203
O O2 0.765490 0.165254 0.867382
O O3 0.728311 0.313191 0.838222
O O4 0.683118 0.158672 0.825772
O O5 0.750000 0.250000 0.500000
O O6 0.683482 0.103769 0.665691
O O7 0.636615 0.149983 0.578465
O O8 0.849061 0.106380 0.329700
O O9 0.841296 0.883073 0.921202
O O10 0.777099 0.000000 0.125706
O O11 0.944876 0.903894 0.913816
O O12 0.985259 0.500000 0.388626
O O13 0.148462 0.397141 0.160323
O O14 0.000000 0.401721 0.500000
O O15 0.967877 0.318233 0.404187
O O16 0.109157 0.500000 0.894751
O O17 0.000000 0.635762 0.000000
O O18 0.086272 0.818141 0.624637
O O19 0.290090 0.500000 0.882169
O O20 0.407358 0.500000 0.366794
#
# Coordination Sequence:
#
# PCOD9175629 Si02
#       8
#     8   8   8   8   8   8   8   8
#     4  10  18  33  55  83 112 143 179 227 290 345
#     4  10  20  37  57  79 112 150 187 224 280 343
#     4   9  18  33  55  78 105 147 194 232 264 320
#     4   9  18  32  51  78 111 142 176 228 287 337
#     4  11  22  35  57  89 120 145 179 239 301 347
#     4   9  18  33  55  80 108 140 184 224 276 345
#     4   9  17  31  53  80 110 144 185 230 283 342
#     4   9  18  33  55  76 103 143 185 224 265 320
#
# _framework density 21.926518999999999
#
# number of rings (size 3 to 8) (size 9 to 14) (size 15 to 20)
#    0.000    2.500    1.250    1.125    0.000    1.500 
#    4.500    0.000    0.000    4.500    0.000    0.000 
#    0.000    0.000    0.000    0.000    0.000    0.000 
#
# Total GULP energy -178388.433643 kJ/mol
# GULP energy per Si atom -5574.638551 kJ/mol
# Density = 2.187661 g / cm^3
# Si number density = 21.926519 Si / 1000 Ang^3
#
#
#
# Elastic Constant Matrix: (Units=GPa)
#
#
# Indices 1 2 3 4 5 6 
#
# 1 43.1664 23.6244 0.2300 0.0000 -5.2095 0.0000
# 2 23.6244 119.8822 -4.3085 0.0000 7.6252 0.0000
# 3 0.2300 -4.3085 28.2668 0.0000 -6.6466 0.0000
# 4 0.0000 0.0000 0.0000 13.5203 0.0000 -1.6193
# 5 -5.2095 7.6252 -6.6466 0.0000 23.4302 0.0000
# 6 0.0000 0.0000 0.0000 -1.6193 0.0000 36.8344
#
#
#
# Elastic Compliance Matrix: (Units=1/GPa)
#
#
# Indices 1 2 3 4 5 6 
#
# 1 0.027379 -0.005890 0.000816 0.000000 0.008236 0.000000
# 2 -0.005890 0.009798 0.000518 0.000000 -0.004351 0.000000
# 3 0.000816 0.000518 0.037986 0.000000 0.010789 0.000000
# 4 0.000000 0.000000 0.000000 0.074354 0.000000 0.003269
# 5 0.008236 -0.004351 0.010789 0.000000 0.048988 0.000000
# 6 0.000000 0.000000 0.000000 0.003269 0.000000 0.027292
#
#
# Mechanical properties :
#
#
# Convention : Reuss Voigt Hill
#
# Bulk Modulus (GPa) = 15.13966 25.60081 20.37024
# Shear Modulus (GPa) = 19.46083 26.20828 22.83456
#
# Velocity S-wave (km/s) = 2.98241 3.46103 3.23059
# Velocity P-wave (km/s) = 4.33352 5.26049 4.81934
#
# Compressibility (1/GPa) = 0.06605170
#
# Stress axis : x y z
#
# Youngs Moduli (GPa) = 36.52400 102.06576 26.32524
#
# Poissons Ratio (x) = 0.60117 -0.02148
# Poissons Ratio (y) = 0.21513 -0.01364
# Poissons Ratio (z) = -0.02981 -0.05289
#
# Static dielectric constant tensor:
#      x y z
#    x 1.833680 0.000000 -0.068260 
#    y 0.000000 1.831240 0.000000 
#    z -0.068260 0.000000 1.833350 
# 
# From -- ./inp_files/240652.got.cif
#   From: 2010.05.17/outbox.cif.g08.bks.cpg/sg12_121_cif.got.tgz:240652.got - 2010.06.03 13:09:07.
