data_PCOD9175434
_publ_section_title
;
Structure prediction by ZEFSAII (Michael W. Deem and Ramdas Pophale) SiO2 
 PCOD9175434
Probable space group: C 2/M
;
_chemical_formula_sum "Si O2"
_cell_formula_units_Z 56
_cell_length_a 15.804409
_cell_length_b 19.256090
_cell_length_c 13.047952
_cell_angle_alpha 90.000000
_cell_angle_beta 135.471633
_cell_angle_gamma 90.000000
_cell_volume 2784.641003
_symmetry_space_group_name_H-M "C 2/M"
_symmetry_group_IT_number 12
_symmetry_cell_setting 'monoclinic'
loop_
_space_group_symop_operation_xyz
x,y,z
-x,y,-z
-x,-y,-z
x,-y,z
1/2+x,1/2+y,z
1/2-x,1/2+y,-z
1/2-x,1/2-y,-z
1/2+x,1/2-y,z
loop_
_atom_site_type_symbol
_atom_site_label
_atom_site_fract_x
_atom_site_fract_y
_atom_site_fract_z
Si Si1 0.954011 0.282784 0.344915
Si Si2 0.214096 0.671798 0.348422
Si Si3 0.653871 0.075215 0.813258
Si Si4 0.090704 0.917295 0.876948
Si Si5 0.777626 0.165030 0.185409
Si Si6 0.964131 0.606185 0.079267
Si Si7 0.386003 0.692565 0.674187
O O1 0.922207 0.362785 0.300785
O O2 0.832592 0.240257 0.216852
O O3 0.000000 0.271124 0.500000
O O4 0.045391 0.246531 0.343710
O O5 0.289861 0.648014 0.315697
O O6 0.285807 0.658456 0.514314
O O7 0.183203 0.754202 0.310922
O O8 0.087502 0.633320 0.232591
O O9 0.605114 0.069566 0.888258
O O10 0.638399 0.000000 0.749784
O O11 0.797131 0.090887 0.947207
O O12 0.148629 0.889321 0.820063
O O13 0.978032 0.864877 0.796999
O O14 0.061217 0.000000 0.847491
O O15 0.635750 0.163828 0.037304
O O16 0.000000 0.573900 0.000000
#
# Coordination Sequence:
#
# PCOD9175434 Si02
#       7
#     8   8   8   8   8   8   8
#     4  11  20  34  56  79 105 141 187 233 270 310
#     4  10  18  33  51  81 111 140 176 221 270 323
#     4  10  21  36  54  76 106 144 186 226 270 321
#     4   9  20  37  56  81 109 143 183 226 274 330
#     4   9  19  32  56  81 109 138 181 227 269 322
#     4   9  18  32  53  81 109 135 174 215 272 334
#     4  10  20  32  57  76 113 145 180 228 270 322
#
# _framework density 20.110312
#
# number of rings (size 3 to 8) (size 9 to 14) (size 15 to 20)
#    0.000    2.286    2.857    0.000    2.000    2.286 
#    0.000    4.286    0.000    0.857    0.000    2.000 
#    0.000    0.000    0.000    0.000    0.000    0.000 
#
# Total GULP energy -155905.170036 kJ/mol
# GULP energy per Si atom -5568.041787 kJ/mol
# Density = 2.006454 g / cm^3
# Si number density = 20.110312 Si / 1000 Ang^3
#
#
#
# Elastic Constant Matrix: (Units=GPa)
#
#
# Indices 1 2 3 4 5 6 
#
# 1 18.9312 -6.3026 -1.1095 0.0000 9.9467 0.0000
# 2 -6.3026 89.7921 33.5133 0.0000 11.2072 0.0000
# 3 -1.1095 33.5133 65.3725 0.0000 22.2280 0.0000
# 4 0.0000 0.0000 0.0000 13.8637 0.0000 8.8780
# 5 9.9467 11.2072 22.2280 0.0000 23.5286 0.0000
# 6 0.0000 0.0000 0.0000 8.8780 0.0000 11.7291
#
#
#
# Elastic Compliance Matrix: (Units=1/GPa)
#
#
# Indices 1 2 3 4 5 6 
#
# 1 0.084710 0.006548 0.016674 0.000000 -0.054682 0.000000
# 2 0.006548 0.014278 -0.005827 0.000000 -0.004065 0.000000
# 3 0.016674 -0.005827 0.029494 0.000000 -0.032137 0.000000
# 4 0.000000 0.000000 0.000000 0.139983 0.000000 -0.105956
# 5 -0.054682 -0.004065 -0.032137 0.000000 0.097915 0.000000
# 6 0.000000 0.000000 0.000000 -0.105956 0.000000 0.165459
#
#
# Mechanical properties :
#
#
# Convention : Reuss Voigt Hill
#
# Bulk Modulus (GPa) = 6.12470 25.14426 15.63448
# Shear Modulus (GPa) = 9.06660 19.69059 14.37859
#
# Velocity S-wave (km/s) = 2.12561 3.13250 2.67682
# Velocity P-wave (km/s) = 3.01272 5.06100 4.16474
#
# Compressibility (1/GPa) = 0.16327322
#
# Stress axis : x y z
#
# Youngs Moduli (GPa) = 11.80492 70.03562 33.90476
#
# Poissons Ratio (x) = -0.45857 -0.56533
# Poissons Ratio (y) = -0.07729 0.19755
# Poissons Ratio (z) = -0.19684 0.40808
#
# Static dielectric constant tensor:
#      x y z
#    x 1.789350 0.000000 -0.005170 
#    y 0.000000 1.717090 0.000000 
#    z -0.005170 0.000000 1.713910 
# 
# From -- ./inp_files/226532.got.cif
#   From: 2010.05.17/outbox.cif.g08.bks.cpg/sg12_114_cif.got.tgz:226532.got - 2010.06.03 13:09:07.
