data_PCOD9175315
_publ_section_title
;
Structure prediction by ZEFSAII (Michael W. Deem and Ramdas Pophale) SiO2 
 PCOD9175315
Probable space group: C 2/M
;
_chemical_formula_sum "Si O2"
_cell_formula_units_Z 48
_cell_length_a 28.417720
_cell_length_b 13.858698
_cell_length_c 24.772226
_cell_angle_alpha 90.000000
_cell_angle_beta 165.548328
_cell_angle_gamma 90.000000
_cell_volume 2434.767039
_symmetry_space_group_name_H-M "C 2/M"
_symmetry_group_IT_number 12
_symmetry_cell_setting 'monoclinic'
loop_
_space_group_symop_operation_xyz
x,y,z
-x,y,-z
-x,-y,-z
x,-y,z
1/2+x,1/2+y,z
1/2-x,1/2+y,-z
1/2-x,1/2-y,-z
1/2+x,1/2-y,z
loop_
_atom_site_type_symbol
_atom_site_label
_atom_site_fract_x
_atom_site_fract_y
_atom_site_fract_z
Si Si1 0.032382 0.894734 0.629381
Si Si2 0.694866 0.220204 0.878842
Si Si3 0.325088 0.676834 0.836691
Si Si4 0.337452 0.113877 0.448367
Si Si5 0.450876 0.387956 0.082540
Si Si6 0.296107 0.893508 0.816683
O O1 0.102260 0.811701 0.745768
O O2 0.159468 0.892019 0.716570
O O3 0.823349 0.890290 0.371638
O O4 0.055009 0.000000 0.680385
O O5 0.528899 0.141040 0.691375
O O6 0.873831 0.179302 0.044430
O O7 0.750000 0.250000 0.000000
O O8 0.167563 0.667865 0.615669
O O9 0.301688 0.624804 0.867405
O O10 0.384315 0.787072 0.916546
O O11 0.500000 0.628395 0.000000
O O12 0.328183 0.000000 0.427616
O O13 0.153905 0.139242 0.281439
O O14 0.459452 0.500000 0.108228
O O15 0.390432 0.000000 0.924865
#
# Coordination Sequence:
#
# PCOD9175315 Si02
#       6
#     8   8   8   8   8   8
#     4   9  18  33  52  77 111 145 186 240 289 341
#     4  12  24  38  62  85 111 159 208 239 286 347
#     4  10  18  32  58  89 121 152 186 236 303 367
#     4  10  22  40  61  90 124 153 190 244 300 355
#     4  10  22  40  61  90 124 153 190 244 300 355
#     4   9  16  30  53  78 108 148 187 233 298 345
#
# _framework density 19.714410999999998
#
# number of rings (size 3 to 8) (size 9 to 14) (size 15 to 20)
#    0.000    2.000    3.333    2.000    0.000    5.000 
#    0.000    1.667    0.000    1.000    0.000    0.000 
#    0.000    0.000    0.000    0.000    0.000    0.000 
#
# Total GULP energy -133668.642827 kJ/mol
# GULP energy per Si atom -5569.526784 kJ/mol
# Density = 1.966954 g / cm^3
# Si number density = 19.714411 Si / 1000 Ang^3
#
#
#
# Elastic Constant Matrix: (Units=GPa)
#
#
# Indices 1 2 3 4 5 6 
#
# 1 82.7947 14.6485 9.9026 -0.0007 -13.8347 -0.0023
# 2 14.6485 105.5627 -2.7294 0.0286 -4.2978 0.0173
# 3 9.9026 -2.7294 32.3361 -0.0075 -6.9090 -0.0165
# 4 -0.0007 0.0286 -0.0075 -36.7029 -0.0145 -44.6805
# 5 -13.8347 -4.2978 -6.9090 -0.0145 28.4057 -0.0128
# 6 -0.0023 0.0173 -0.0165 -44.6805 -0.0128 -20.9705
#
#
#
# Elastic Compliance Matrix: (Units=1/GPa)
#
#
# Indices 1 2 3 4 5 6 
#
# 1 0.013707 -0.001753 -0.003139 -0.000001 0.005647 -0.000002
# 2 -0.001753 0.009798 0.001580 0.000001 0.001013 0.000005
# 3 -0.003139 0.001580 0.033484 -0.000017 0.006855 0.000007
# 4 -0.000001 0.000001 -0.000017 0.017096 -0.000012 -0.036424
# 5 0.005647 0.001013 0.006855 -0.000012 0.039775 -0.000003
# 6 -0.000002 0.000005 0.000007 -0.036424 -0.000003 0.029921
#
#
# Mechanical properties :
#
#
# Convention : Reuss Voigt Hill
#
# Bulk Modulus (GPa) = 19.85460 29.37077 24.61268
# Shear Modulus (GPa) = 29.90528 7.40460 18.65494
#
# Velocity S-wave (km/s) = 3.89900 1.94013 3.07947
# Velocity P-wave (km/s) = 5.51022 4.46646 5.01556
#
# Compressibility (1/GPa) = 0.05036617
#
# Stress axis : x y z
#
# Youngs Moduli (GPa) = 72.95344 102.05698 29.86458
#
# Poissons Ratio (x) = 0.17894 0.09375
# Poissons Ratio (y) = 0.12791 -0.04720
# Poissons Ratio (z) = 0.22901 -0.16130
#
# Static dielectric constant tensor:
#      x y z
#    x 1.681520 0.000000 0.030890 
#    y 0.000000 1.749700 0.000000 
#    z 0.030890 0.000000 1.746210 
# 
# From -- ./inp_files/325697.got.cif
#   From: 2010.05.17/outbox.cif.g08.bks.cpg/sg12_163_cif.got.tgz:325697.got - 2010.06.03 13:09:07.
