data_PCOD9175850
_publ_section_title
;
Structure prediction by ZEFSAII (Michael W. Deem and Ramdas Pophale) SiO2 
 PCOD9175850
Probable space group: C 2/M
;
_chemical_formula_sum "Si O2"
_cell_formula_units_Z 36
_cell_length_a 22.263323
_cell_length_b 15.414993
_cell_length_c 11.359497
_cell_angle_alpha 90.000000
_cell_angle_beta 156.255753
_cell_angle_gamma 90.000000
_cell_volume 1569.731170
_symmetry_space_group_name_H-M "C 2/M"
_symmetry_group_IT_number 12
_symmetry_cell_setting 'monoclinic'
loop_
_space_group_symop_operation_xyz
x,y,z
-x,y,-z
-x,-y,-z
x,-y,z
1/2+x,1/2+y,z
1/2-x,1/2+y,-z
1/2-x,1/2-y,-z
1/2+x,1/2-y,z
loop_
_atom_site_type_symbol
_atom_site_label
_atom_site_fract_x
_atom_site_fract_y
_atom_site_fract_z
Si Si1 0.946835 0.594386 0.734533
Si Si2 0.854916 0.901428 0.654533
Si Si3 0.996835 0.775735 0.240166
Si Si4 0.500000 0.798598 0.500000
Si Si5 0.263913 0.903977 0.169185
O O1 0.018445 0.500000 0.890850
O O2 0.800559 0.603909 0.554258
O O3 0.883893 0.587695 0.489030
O O4 0.031521 0.685949 0.881108
O O5 0.871511 0.827444 0.587444
O O6 0.867729 0.000000 0.630468
O O7 0.000000 0.890188 0.000000
O O8 0.027184 0.755679 0.431484
O O9 0.859869 0.841593 0.000070
O O10 0.353110 0.858442 0.223594
O O11 0.208066 0.000000 0.039842
#
# Coordination Sequence:
#
# PCOD9175850 Si02
#       5
#     8   8   8   4   8
#     4   9  19  34  56  86 112 139 180 226 273 319
#     4  10  18  33  58  86 109 138 182 228 269 316
#     4  11  20  34  57  84 111 145 179 226 269 324
#     4  10  23  36  51  82 114 144 181 222 275 326
#     4  10  19  36  59  81 107 143 186 229 267 316
#
# _framework density 22.933862000000001
#
# number of rings (size 3 to 8) (size 9 to 14) (size 15 to 20)
#    0.000    2.000    2.222    2.333    0.000    0.889 
#    0.000    2.222    0.000   11.333    0.000    0.000 
#    0.000    0.000    0.000    0.000    0.000    0.000 
#
# Total GULP energy -100493.944393 kJ/mol
# GULP energy per Si atom -5582.996911 kJ/mol
# Density = 2.288166 g / cm^3
# Si number density = 22.933862 Si / 1000 Ang^3
#
#
#
# Elastic Constant Matrix: (Units=GPa)
#
#
# Indices 1 2 3 4 5 6 
#
# 1 112.6556 59.1290 4.2008 0.0000 6.1673 0.0000
# 2 59.1290 183.9753 27.5810 0.0000 5.7942 0.0000
# 3 4.2008 27.5810 42.2049 0.0000 3.5203 0.0000
# 4 0.0000 0.0000 0.0000 126.5310 0.0000 129.9141
# 5 6.1673 5.7942 3.5203 0.0000 21.2825 0.0000
# 6 0.0000 0.0000 0.0000 129.9141 0.0000 161.5162
#
#
#
# Elastic Compliance Matrix: (Units=1/GPa)
#
#
# Indices 1 2 3 4 5 6 
#
# 1 0.010863 -0.003640 0.001498 0.000000 -0.002405 0.000000
# 2 -0.003640 0.007267 -0.004370 0.000000 -0.000201 0.000000
# 3 0.001498 -0.004370 0.026706 0.000000 -0.003662 0.000000
# 4 0.000000 0.000000 0.000000 0.045381 0.000000 -0.036502
# 5 -0.002405 -0.000201 -0.003662 0.000000 0.048344 0.000000
# 6 0.000000 0.000000 0.000000 -0.036502 0.000000 0.035551
#
#
# Mechanical properties :
#
#
# Convention : Reuss Voigt Hill
#
# Bulk Modulus (GPa) = 31.43450 57.85081 44.64265
# Shear Modulus (GPa) = 25.28576 78.39427 51.84001
#
# Velocity S-wave (km/s) = 3.32407 5.85295 4.75954
# Velocity P-wave (km/s) = 5.33563 8.42353 7.05070
#
# Compressibility (1/GPa) = 0.03181218
#
# Stress axis : x y z
#
# Youngs Moduli (GPa) = 92.05557 137.61020 37.44480
#
# Poissons Ratio (x) = 0.50093 -0.05610
# Poissons Ratio (y) = 0.33510 0.16363
# Poissons Ratio (z) = -0.13792 0.60134
#
# Static dielectric constant tensor:
#      x y z
#    x 1.856950 0.000000 -0.020690 
#    y 0.000000 1.962110 0.000000 
#    z -0.020690 0.000000 1.898270 
# 
# From -- ./inp_files/128968.got.cif
#   From: 2010.05.17/outbox.cif.g08.bks.cpg/sg12_65_cif.got.tgz:128968.got - 2010.06.03 13:09:07.
