data_PCOD9175546
_publ_section_title
;
Structure prediction by ZEFSAII (Michael W. Deem and Ramdas Pophale) SiO2 
 PCOD9175546
Probable space group: C 2/M
;
_chemical_formula_sum "Si O2"
_cell_formula_units_Z 44
_cell_length_a 19.004604
_cell_length_b 14.660111
_cell_length_c 17.450450
_cell_angle_alpha 90.000000
_cell_angle_beta 156.679018
_cell_angle_gamma 90.000000
_cell_volume 1924.723139
_symmetry_space_group_name_H-M "C 2/M"
_symmetry_group_IT_number 12
_symmetry_cell_setting 'monoclinic'
loop_
_space_group_symop_operation_xyz
x,y,z
-x,y,-z
-x,-y,-z
x,-y,z
1/2+x,1/2+y,z
1/2-x,1/2+y,-z
1/2-x,1/2-y,-z
1/2+x,1/2-y,z
loop_
_atom_site_type_symbol
_atom_site_label
_atom_site_fract_x
_atom_site_fract_y
_atom_site_fract_z
Si Si1 0.167770 0.000000 0.573790
Si Si2 0.305518 0.665654 0.002693
Si Si3 0.261085 0.000000 0.839306
Si Si4 0.859017 0.304601 0.927407
Si Si5 0.079842 0.339974 0.420199
Si Si6 0.500000 0.228490 0.500000
Si Si7 0.364036 0.366391 0.586430
O O1 0.271756 0.000000 0.756816
O O2 0.206697 0.913577 0.560298
O O3 0.952608 0.000000 0.365045
O O4 0.394282 0.719709 0.019665
O O5 0.118310 0.622805 0.792317
O O6 0.250000 0.750000 0.000000
O O7 0.444013 0.606320 0.188277
O O8 0.347896 0.905375 0.953897
O O9 0.657648 0.287888 0.694915
O O10 0.000000 0.304395 0.000000
O O11 0.230149 0.388049 0.521502
O O12 0.104143 0.238025 0.408162
O O13 0.090244 0.328913 0.521963
#
# Coordination Sequence:
#
# PCOD9175546 Si02
#       7
#     4   8   4   8   8   4   8
#     4  11  22  36  56  79 113 151 175 215 274 328
#     4   9  18  32  50  72 100 137 183 222 254 303
#     4  11  21  34  50  79 119 150 175 209 266 331
#     4  11  21  33  52  79 111 147 180 215 264 321
#     4   9  18  32  53  77 101 136 179 224 267 312
#     4  10  18  33  54  77 106 136 182 234 270 313
#     4  10  19  34  53  75 105 140 180 220 265 321
#
# _framework density 22.860430999999998
#
# number of rings (size 3 to 8) (size 9 to 14) (size 15 to 20)
#    0.000    2.000    0.000    6.818    0.000    2.909 
#    0.000    2.727    0.000    0.545    0.000   12.091 
#    0.000    0.000    0.000    0.000    0.000    0.364 
#
# Total GULP energy -122821.049128 kJ/mol
# GULP energy per Si atom -5582.774960 kJ/mol
# Density = 2.280840 g / cm^3
# Si number density = 22.860431 Si / 1000 Ang^3
#
#
#
# Elastic Constant Matrix: (Units=GPa)
#
#
# Indices 1 2 3 4 5 6 
#
# 1 131.6222 0.6600 13.5669 0.0009 19.0185 0.0086
# 2 0.6600 40.7459 14.5144 0.0064 -1.3585 0.0203
# 3 13.5669 14.5144 43.3199 0.0018 -3.5462 0.0022
# 4 0.0009 0.0064 0.0018 28.1282 -0.0009 -38.8283
# 5 19.0185 -1.3585 -3.5462 -0.0009 32.6830 0.0059
# 6 0.0086 0.0203 0.0022 -38.8283 0.0059 61.9889
#
#
#
# Elastic Compliance Matrix: (Units=1/GPa)
#
#
# Indices 1 2 3 4 5 6 
#
# 1 0.008736 0.000920 -0.003488 -0.000012 -0.005424 -0.000009
# 2 0.000920 0.027966 -0.009693 -0.000134 -0.000425 -0.000093
# 3 -0.003488 -0.009693 0.027804 0.000028 0.004644 0.000020
# 4 -0.000012 -0.000134 0.000028 0.262662 -0.000018 0.164525
# 5 -0.005424 -0.000425 0.004644 -0.000018 0.034239 -0.000014
# 6 -0.000009 -0.000093 0.000020 0.164525 -0.000014 0.119186
#
#
# Mechanical properties :
#
#
# Convention : Reuss Voigt Hill
#
# Bulk Modulus (GPa) = 25.00973 30.35229 27.68101
# Shear Modulus (GPa) = 9.64423 37.02313 23.33368
#
# Velocity S-wave (km/s) = 2.05619 4.02870 3.19831
# Velocity P-wave (km/s) = 4.07445 5.91157 5.07680
#
# Compressibility (1/GPa) = 0.03998443
#
# Stress axis : x y z
#
# Youngs Moduli (GPa) = 114.46684 35.75750 35.96564
#
# Poissons Ratio (x) = -0.03291 0.12546
# Poissons Ratio (y) = -0.10534 0.34862
# Poissons Ratio (z) = 0.39929 0.34660
#
# Static dielectric constant tensor:
#      x y z
#    x 1.897110 0.000000 0.011110 
#    y 0.000000 1.956970 0.000010 
#    z 0.011110 0.000010 1.888510 
# 
# From -- ./inp_files/277980.got.cif
#   From: 2010.05.17/outbox.cif.g08.bks.cpg/sg12_139_cif.got.tgz:277980.got - 2010.06.03 13:09:07.
