data_PCOD9175295
_publ_section_title
;
Structure prediction by ZEFSAII (Michael W. Deem and Ramdas Pophale) SiO2 
 PCOD9175295
Probable space group: C 2/M
;
_chemical_formula_sum "Si O2"
_cell_formula_units_Z 56
_cell_length_a 17.998202
_cell_length_b 15.062674
_cell_length_c 14.884102
_cell_angle_alpha 90.000000
_cell_angle_beta 141.805780
_cell_angle_gamma 90.000000
_cell_volume 2495.017135
_symmetry_space_group_name_H-M "C 2/M"
_symmetry_group_IT_number 12
_symmetry_cell_setting 'monoclinic'
loop_
_space_group_symop_operation_xyz
x,y,z
-x,y,-z
-x,-y,-z
x,-y,z
1/2+x,1/2+y,z
1/2-x,1/2+y,-z
1/2-x,1/2-y,-z
1/2+x,1/2-y,z
loop_
_atom_site_type_symbol
_atom_site_label
_atom_site_fract_x
_atom_site_fract_y
_atom_site_fract_z
Si Si1 0.779594 0.603094 0.602986
Si Si2 0.569498 0.108312 0.414565
Si Si3 0.808283 0.147287 0.123122
Si Si4 0.202245 0.651811 0.846012
Si Si5 0.133697 0.898310 0.626113
Si Si6 0.294362 0.605514 0.747252
Si Si7 0.545431 0.603418 0.252128
O O1 0.814136 0.500000 0.652722
O O2 0.884917 0.641255 0.640293
O O3 0.731032 0.642726 0.650298
O O4 0.662947 0.604155 0.427284
O O5 0.436666 0.139596 0.310523
O O6 0.670570 0.136772 0.582375
O O7 0.568111 0.000000 0.412758
O O8 0.768273 0.245352 0.112351
O O9 0.820796 0.098451 0.229205
O O10 0.938684 0.152938 0.200159
O O11 0.725693 0.108813 0.965681
O O12 0.284530 0.618381 0.843517
O O13 0.000000 0.856551 0.500000
O O14 0.116085 0.000000 0.575597
O O15 0.298575 0.500000 0.734332
O O16 0.408341 0.640021 0.799418
O O17 0.506260 0.500000 0.207102
#
# Coordination Sequence:
#
# PCOD9175295 Si02
#       7
#     8   8   8   8   8   8   8
#     4   8  15  31  56  86 110 128 167 227 278 320
#     4   9  18  36  61  84 108 138 178 227 275 328
#     4  11  24  38  51  75 116 153 184 221 268 328
#     4  11  24  39  50  75 116 155 185 215 268 331
#     4  10  18  32  58  85 106 136 180 228 273 317
#     4   9  19  37  64  89 107 134 182 239 284 324
#     4   9  17  35  61  87 109 135 179 236 286 322
#
# _framework density 22.444737
#
# number of rings (size 3 to 8) (size 9 to 14) (size 15 to 20)
#    0.000    2.429    1.429    3.000    0.000    5.143 
#    2.571    3.571    0.000    2.571    0.000    0.000 
#    0.000    0.000    0.000    0.000    0.000    0.000 
#
# Total GULP energy -156252.426964 kJ/mol
# GULP energy per Si atom -5580.443820 kJ/mol
# Density = 2.239365 g / cm^3
# Si number density = 22.444737 Si / 1000 Ang^3
#
#
#
# Elastic Constant Matrix: (Units=GPa)
#
#
# Indices 1 2 3 4 5 6 
#
# 1 135.6360 6.5097 15.7876 0.0000 -23.4884 0.0000
# 2 6.5097 22.3779 5.0581 0.0000 -7.2354 0.0000
# 3 15.7876 5.0581 34.8562 0.0000 -16.1012 0.0000
# 4 0.0000 0.0000 0.0000 17.9352 0.0000 3.2714
# 5 -23.4884 -7.2354 -16.1012 0.0000 30.7779 0.0000
# 6 0.0000 0.0000 0.0000 3.2714 0.0000 73.2652
#
#
#
# Elastic Compliance Matrix: (Units=1/GPa)
#
#
# Indices 1 2 3 4 5 6 
#
# 1 0.008531 -0.000339 -0.001113 0.000000 0.005849 0.000000
# 2 -0.000339 0.048520 -0.002292 0.000000 0.009949 0.000000
# 3 -0.001113 -0.002292 0.038089 0.000000 0.018538 0.000000
# 4 0.000000 0.000000 0.000000 0.056214 0.000000 -0.002510
# 5 0.005849 0.009949 0.018538 0.000000 0.048991 0.000000
# 6 0.000000 0.000000 0.000000 -0.002510 0.000000 0.013761
#
#
# Mechanical properties :
#
#
# Convention : Reuss Voigt Hill
#
# Bulk Modulus (GPa) = 11.40867 27.50900 19.45883
# Shear Modulus (GPa) = 19.93519 35.42997 27.68258
#
# Velocity S-wave (km/s) = 2.98349 3.97740 3.51574
# Velocity P-wave (km/s) = 4.11853 5.77718 5.01688
#
# Compressibility (1/GPa) = 0.08765265
#
# Stress axis : x y z
#
# Youngs Moduli (GPa) = 117.21462 20.60998 26.25415
#
# Poissons Ratio (x) = 0.00699 0.02923
# Poissons Ratio (y) = 0.03974 0.06017
# Poissons Ratio (z) = 0.13049 0.04723
#
# Static dielectric constant tensor:
#      x y z
#    x 1.851310 0.000000 -0.025890 
#    y 0.000000 1.851180 0.000000 
#    z -0.025890 0.000000 1.846250 
# 
# From -- ./inp_files/226592.got.cif
#   From: 2010.05.17/outbox.cif.g08.bks.cpg/sg12_114_cif.got.tgz:226592.got - 2010.06.03 13:09:07.
