data_PCOD9175997
_publ_section_title
;
Structure prediction by ZEFSAII (Michael W. Deem and Ramdas Pophale) SiO2 
 PCOD9175997
Probable space group: C 2/M
;
_chemical_formula_sum "Si O2"
_cell_formula_units_Z 64
_cell_length_a 14.206563
_cell_length_b 19.059219
_cell_length_c 24.036229
_cell_angle_alpha 90.000000
_cell_angle_beta 149.212735
_cell_angle_gamma 90.000000
_cell_volume 3331.231410
_symmetry_space_group_name_H-M "C 2/M"
_symmetry_group_IT_number 12
_symmetry_cell_setting 'monoclinic'
loop_
_space_group_symop_operation_xyz
x,y,z
-x,y,-z
-x,-y,-z
x,-y,z
1/2+x,1/2+y,z
1/2-x,1/2+y,-z
1/2-x,1/2-y,-z
1/2+x,1/2-y,z
loop_
_atom_site_type_symbol
_atom_site_label
_atom_site_fract_x
_atom_site_fract_y
_atom_site_fract_z
Si Si1 0.867769 0.806632 0.380772
Si Si2 0.350451 0.728948 0.969660
Si Si3 0.329814 0.926444 0.654722
Si Si4 0.571334 0.915295 0.476271
Si Si5 0.304885 0.580715 0.770821
Si Si6 0.264740 0.577545 0.879959
Si Si7 0.518866 0.714554 0.175623
Si Si8 0.595915 0.417099 0.425141
O O1 0.743458 0.864653 0.346541
O O2 0.719464 0.748990 0.287034
O O3 0.000000 0.783534 0.500000
O O4 0.967812 0.852602 0.382417
O O5 0.315193 0.646354 0.939831
O O6 0.147925 0.764676 0.867744
O O7 0.500000 0.753361 0.000000
O O8 0.444061 0.738444 0.077207
O O9 0.546299 0.924175 0.762920
O O10 0.241743 0.923460 0.549513
O O11 0.266477 0.000000 0.648520
O O12 0.500000 0.891015 0.500000
O O13 0.406195 0.898027 0.349984
O O14 0.775347 0.893162 0.561113
O O15 0.583090 0.000000 0.483539
O O16 0.325539 0.500000 0.763958
O O17 0.333638 0.585129 0.851579
O O18 0.442063 0.631903 0.808709
O O19 0.316532 0.500000 0.928686
O O20 0.527870 0.500000 0.382713
#
# Coordination Sequence:
#
# PCOD9175997 Si02
#       8
#     8   8   8   8   8   8   8   8
#     4  10  20  34  55  86 129 160 193 235 292 366
#     4  11  23  42  63  84 119 161 195 245 305 368
#     4   9  15  28  54  87 121 154 187 235 297 356
#     4   9  17  31  50  75 110 155 201 238 278 336
#     4  10  20  37  61  84 112 150 202 262 304 349
#     4  10  18  33  63  94 116 143 193 258 312 350
#     4  11  24  40  60  87 120 157 201 240 304 370
#     4   9  16  29  52  82 120 163 200 235 290 355
#
# _framework density 19.212115000000001
#
# number of rings (size 3 to 8) (size 9 to 14) (size 15 to 20)
#    0.000    2.125    3.750    0.375    0.000    2.750 
#    2.250    0.625    0.000    0.375    0.000    0.000 
#    0.000    0.000    0.000    0.000    0.000    0.000 
#
# Total GULP energy -178167.945269 kJ/mol
# GULP energy per Si atom -5567.748290 kJ/mol
# Density = 1.916839 g / cm^3
# Si number density = 19.212115 Si / 1000 Ang^3
#
#
#
# Elastic Constant Matrix: (Units=GPa)
#
#
# Indices 1 2 3 4 5 6 
#
# 1 111.6163 44.7929 22.0911 0.0003 23.0777 0.0001
# 2 44.7929 76.3126 35.6369 0.0003 14.4853 0.0001
# 3 22.0911 35.6369 65.3879 0.0023 24.5236 0.0004
# 4 0.0003 0.0003 0.0023 16.0636 0.0007 -3.5497
# 5 23.0777 14.4853 24.5236 0.0007 28.3353 0.0002
# 6 0.0001 0.0001 0.0004 -3.5497 0.0002 17.3618
#
#
#
# Elastic Compliance Matrix: (Units=1/GPa)
#
#
# Indices 1 2 3 4 5 6 
#
# 1 0.013364 -0.007500 0.003282 0.000000 -0.009891 0.000000
# 2 -0.007500 0.021806 -0.011046 0.000001 0.004521 0.000000
# 3 0.003282 -0.011046 0.028264 -0.000003 -0.021488 -0.000001
# 4 0.000000 0.000001 -0.000003 0.065198 0.000001 0.013330
# 5 -0.009891 0.004521 -0.021488 0.000001 0.059634 0.000000
# 6 0.000000 0.000000 -0.000001 0.013330 0.000000 0.060323
#
#
# Mechanical properties :
#
#
# Convention : Reuss Voigt Hill
#
# Bulk Modulus (GPa) = 30.38923 50.92875 40.65899
# Shear Modulus (GPa) = 17.23621 22.40520 19.82071
#
# Velocity S-wave (km/s) = 2.99850 3.41867 3.21546
# Velocity P-wave (km/s) = 5.27637 6.49225 5.91563
#
# Compressibility (1/GPa) = 0.03290639
#
# Stress axis : x y z
#
# Youngs Moduli (GPa) = 74.82531 45.85811 35.38078
#
# Poissons Ratio (x) = 0.34392 -0.11611
# Poissons Ratio (y) = 0.56116 0.39083
# Poissons Ratio (z) = -0.24556 0.50657
#
# Static dielectric constant tensor:
#      x y z
#    x 1.702400 0.000000 -0.001240 
#    y 0.000000 1.687490 0.000000 
#    z -0.001240 0.000000 1.738440 
# 
# From -- ./inp_files/340873.got.cif
#   From: 2010.05.17/outbox.cif.g08.bks.cpg/sg12_171_cif.got.tgz:340873.got - 2010.06.03 13:09:07.
