data_PCOD9175199
_publ_section_title
;
Structure prediction by ZEFSAII (Michael W. Deem and Ramdas Pophale) SiO2 
 PCOD9175199
Probable space group: C 2/M
;
_chemical_formula_sum "Si O2"
_cell_formula_units_Z 44
_cell_length_a 7.477228
_cell_length_b 29.560776
_cell_length_c 9.810501
_cell_angle_alpha 90.000000
_cell_angle_beta 90.328646
_cell_angle_gamma 90.000000
_cell_volume 2168.405480
_symmetry_space_group_name_H-M "C 2/M"
_symmetry_group_IT_number 12
_symmetry_cell_setting 'monoclinic'
loop_
_space_group_symop_operation_xyz
x,y,z
-x,y,-z
-x,-y,-z
x,-y,z
1/2+x,1/2+y,z
1/2-x,1/2+y,-z
1/2-x,1/2-y,-z
1/2+x,1/2-y,z
loop_
_atom_site_type_symbol
_atom_site_label
_atom_site_fract_x
_atom_site_fract_y
_atom_site_fract_z
Si Si1 0.744876 0.112552 0.708692
Si Si2 0.000000 0.077047 0.500000
Si Si3 0.683155 0.705311 0.171803
Si Si4 0.761888 0.196008 0.140255
Si Si5 0.596534 0.900382 0.147163
Si Si6 0.954163 0.949746 0.203757
O O1 0.732544 0.165710 0.738761
O O2 0.555985 0.089730 0.741389
O O3 0.834506 0.105093 0.562083
O O4 0.889811 0.088018 0.811193
O O5 0.065126 0.050039 0.631629
O O6 0.698484 0.757829 0.211482
O O7 0.474360 0.693824 0.159858
O O8 0.771280 0.701491 0.022268
O O9 0.674202 0.149243 0.181797
O O10 0.765731 0.933525 0.144680
O O11 0.500000 0.899208 0.000000
O O12 0.005697 0.000000 0.158822
#
# Coordination Sequence:
#
# PCOD9175199 Si02
#       6
#     8   4   8   8   8   8
#     4  10  21  39  63  90 125 158 208 258 313 357
#     4   8  21  44  68  86 114 164 216 264 309 350
#     4  10  18  32  56  88 126 161 202 255 296 361
#     4  10  19  31  55  88 126 163 203 240 302 374
#     4  12  23  37  62  94 130 163 199 255 319 384
#     4  10  23  44  65  89 121 162 215 264 310 369
#
# _framework density 20.291408000000001
#
# number of rings (size 3 to 8) (size 9 to 14) (size 15 to 20)
#    1.091    0.727    3.636    1.364    2.545    2.545 
#    0.000    1.818    0.000    9.818    0.000    0.000 
#    0.000    0.000    0.000    0.000    0.000    0.000 
#
# Total GULP energy -122599.102065 kJ/mol
# GULP energy per Si atom -5572.686457 kJ/mol
# Density = 2.024522 g / cm^3
# Si number density = 20.291408 Si / 1000 Ang^3
#
#
#
# Elastic Constant Matrix: (Units=GPa)
#
#
# Indices 1 2 3 4 5 6 
#
# 1 77.0607 8.5395 2.2240 0.0000 -8.2192 0.0000
# 2 8.5395 94.5640 1.1065 0.0000 1.8566 0.0000
# 3 2.2240 1.1065 40.1864 0.0000 -12.0674 0.0000
# 4 0.0000 0.0000 0.0000 21.4520 0.0000 3.4307
# 5 -8.2192 1.8566 -12.0674 0.0000 29.5725 0.0000
# 6 0.0000 0.0000 0.0000 3.4307 0.0000 19.4819
#
#
#
# Elastic Compliance Matrix: (Units=1/GPa)
#
#
# Indices 1 2 3 4 5 6 
#
# 1 0.013539 -0.001308 0.000503 0.000000 0.004050 0.000000
# 2 -0.001308 0.010725 -0.000609 0.000000 -0.001285 0.000000
# 3 0.000503 -0.000609 0.028407 0.000000 0.011770 0.000000
# 4 0.000000 0.000000 0.000000 0.047966 0.000000 -0.008447
# 5 0.004050 -0.001285 0.011770 0.000000 0.039824 0.000000
# 6 0.000000 0.000000 0.000000 -0.008447 0.000000 0.052817
#
#
# Mechanical properties :
#
#
# Convention : Reuss Voigt Hill
#
# Bulk Modulus (GPa) = 20.06262 26.17235 23.11748
# Shear Modulus (GPa) = 23.50480 27.43070 25.46775
#
# Velocity S-wave (km/s) = 3.40716 3.68072 3.54658
# Velocity P-wave (km/s) = 5.03856 5.56686 5.30928
#
# Compressibility (1/GPa) = 0.04984395
#
# Stress axis : x y z
#
# Youngs Moduli (GPa) = 73.85947 93.23722 35.20220
#
# Poissons Ratio (x) = 0.12196 -0.01771
# Poissons Ratio (y) = 0.09661 0.02143
# Poissons Ratio (z) = -0.03715 0.05677
#
# Static dielectric constant tensor:
#      x y z
#    x 1.738760 0.000000 -0.006600 
#    y 0.000000 1.729570 0.000000 
#    z -0.006600 0.000000 1.733520 
# 
# From -- ./inp_files/41633.got.cif
#   From: 2010.05.17/outbox.cif.g08.bks.cpg/sg12_21_cif.got.tgz:41633.got - 2010.06.03 13:09:07.
