data_PCOD9175138
_publ_section_title
;
Structure prediction by ZEFSAII (Michael W. Deem and Ramdas Pophale) SiO2 
 PCOD9175138
Probable space group: C 2/M
;
_chemical_formula_sum "Si O2"
_cell_formula_units_Z 48
_cell_length_a 11.839386
_cell_length_b 18.017212
_cell_length_c 11.786587
_cell_angle_alpha 90.000000
_cell_angle_beta 79.936874
_cell_angle_gamma 90.000000
_cell_volume 2475.549713
_symmetry_space_group_name_H-M "C 2/M"
_symmetry_group_IT_number 12
_symmetry_cell_setting 'monoclinic'
loop_
_space_group_symop_operation_xyz
x,y,z
-x,y,-z
-x,-y,-z
x,-y,z
1/2+x,1/2+y,z
1/2-x,1/2+y,-z
1/2-x,1/2-y,-z
1/2+x,1/2-y,z
loop_
_atom_site_type_symbol
_atom_site_label
_atom_site_fract_x
_atom_site_fract_y
_atom_site_fract_z
Si Si1 0.294062 0.343553 0.106936
Si Si2 0.798319 0.824236 0.848696
Si Si3 0.882611 0.359302 0.293058
Si Si4 0.755026 0.836989 0.469255
Si Si5 0.956297 0.814269 0.282679
Si Si6 0.372738 0.917744 0.704538
O O1 0.233709 0.262803 0.132014
O O2 0.401131 0.341564 0.173646
O O3 0.204390 0.402361 0.171774
O O4 0.322730 0.353333 0.970519
O O5 0.689140 0.862834 0.809986
O O6 0.909079 0.828464 0.748363
O O7 0.793752 0.375299 0.410294
O O8 0.929206 0.273974 0.293984
O O9 0.995171 0.407881 0.287168
O O10 0.750000 0.750000 0.500000
O O11 0.882055 0.850803 0.396900
O O12 0.669073 0.858580 0.382111
O O13 0.351025 0.000000 0.662968
#
# Coordination Sequence:
#
# PCOD9175138 Si02
#       6
#     8   8   8   8   8   8
#     4   9  19  33  53  84 110 151 198 239 288 348
#     4  10  18  32  56  81 117 146 188 252 297 330
#     4  10  20  32  50  84 116 148 193 233 291 349
#     4   9  20  35  56  82 113 147 195 249 283 339
#     4   9  17  32  54  80 114 145 189 253 296 326
#     4  11  22  39  59  82 120 157 191 235 294 360
#
# _framework density 19.389631999999999
#
# number of rings (size 3 to 8) (size 9 to 14) (size 15 to 20)
#    0.000    2.333    1.667    2.000    0.000    2.667 
#    0.000    1.667    0.000   12.000    0.000    5.833 
#    0.000    0.000    0.000    0.000    0.000    0.000 
#
# Total GULP energy -133811.900782 kJ/mol
# GULP energy per Si atom -5575.495866 kJ/mol
# Density = 1.934550 g / cm^3
# Si number density = 19.389632 Si / 1000 Ang^3
#
#
#
# Elastic Constant Matrix: (Units=GPa)
#
#
# Indices 1 2 3 4 5 6 
#
# 1 85.2465 26.1633 25.8302 0.0000 -15.7294 0.0000
# 2 26.1633 37.5177 20.3845 0.0000 3.3396 0.0000
# 3 25.8302 20.3845 77.4404 0.0000 -8.6596 0.0000
# 4 0.0000 0.0000 0.0000 6.7290 0.0000 3.8150
# 5 -15.7294 3.3396 -8.6596 0.0000 19.4571 0.0000
# 6 0.0000 0.0000 0.0000 3.8150 0.0000 2.3546
#
#
#
# Elastic Compliance Matrix: (Units=1/GPa)
#
#
# Indices 1 2 3 4 5 6 
#
# 1 0.020028 -0.015306 -0.000576 0.000000 0.018561 0.000000
# 2 -0.015306 0.044544 -0.009323 0.000000 -0.024168 0.000000
# 3 -0.000576 -0.009323 0.016508 0.000000 0.008482 0.000000
# 4 0.000000 0.000000 0.000000 1.825474 0.000000 -2.957692
# 5 0.018561 -0.024168 0.008482 0.000000 0.074323 0.000000
# 6 0.000000 0.000000 0.000000 -2.957692 0.000000 5.216850
#
#
# Mechanical properties :
#
#
# Convention : Reuss Voigt Hill
#
# Bulk Modulus (GPa) = 32.60384 38.32894 35.46639
# Shear Modulus (GPa) = 0.68886 14.22991 7.45938
#
# Velocity S-wave (km/s) = 0.59669 2.71198 1.96353
# Velocity P-wave (km/s) = 4.16249 5.44216 4.84476
#
# Compressibility (1/GPa) = 0.03067123
#
# Stress axis : x y z
#
# Youngs Moduli (GPa) = 49.93125 22.44957 60.57817
#
# Poissons Ratio (x) = 0.34361 0.03487
# Poissons Ratio (y) = 0.76424 0.56475
# Poissons Ratio (z) = 0.02874 0.20929
#
# Static dielectric constant tensor:
#      x y z
#    x 1.684730 0.000000 -0.005420 
#    y 0.000000 1.688450 0.000000 
#    z -0.005420 0.000000 1.700180 
# 
# From -- ./inp_files/131159.got.cif
#   From: 2010.05.17/outbox.cif.g08.bks.cpg/sg12_66_cif.got.tgz:131159.got - 2010.06.03 13:09:07.
