data_PCOD9175500
_publ_section_title
;
Structure prediction by ZEFSAII (Michael W. Deem and Ramdas Pophale) SiO2 
 PCOD9175500
Probable space group: C 2/M
;
_chemical_formula_sum "Si O2"
_cell_formula_units_Z 64
_cell_length_a 23.440758
_cell_length_b 13.714154
_cell_length_c 11.825466
_cell_angle_alpha 90.000000
_cell_angle_beta 67.757638
_cell_angle_gamma 90.000000
_cell_volume 3518.666023
_symmetry_space_group_name_H-M "C 2/M"
_symmetry_group_IT_number 12
_symmetry_cell_setting 'monoclinic'
loop_
_space_group_symop_operation_xyz
x,y,z
-x,y,-z
-x,-y,-z
x,-y,z
1/2+x,1/2+y,z
1/2-x,1/2+y,-z
1/2-x,1/2-y,-z
1/2+x,1/2-y,z
loop_
_atom_site_type_symbol
_atom_site_label
_atom_site_fract_x
_atom_site_fract_y
_atom_site_fract_z
Si Si1 0.120189 0.391805 0.624001
Si Si2 0.794559 0.886007 0.939773
Si Si3 0.245823 0.319817 0.610580
Si Si4 0.884670 0.188331 0.499566
Si Si5 0.191958 0.725027 0.885982
Si Si6 0.462441 0.613010 0.234858
Si Si7 0.439310 0.802345 0.112209
Si Si8 0.417750 0.615716 0.707693
O O1 0.106016 0.500000 0.591101
O O2 0.189903 0.391322 0.621989
O O3 0.117101 0.302011 0.537590
O O4 0.076280 0.362977 0.762447
O O5 0.732282 0.854377 0.922936
O O6 0.852538 0.862764 0.815493
O O7 0.795207 0.000000 0.962885
O O8 0.802277 0.822913 0.046422
O O9 0.250000 0.250000 0.500000
O O10 0.315898 0.353029 0.574972
O O11 0.222589 0.264812 0.739773
O O12 0.913538 0.131164 0.372216
O O13 0.922236 0.172076 0.586272
O O14 0.121451 0.695090 0.919717
O O15 0.461745 0.500000 0.199500
O O16 0.448701 0.690715 0.147622
O O17 0.528040 0.636531 0.244120
O O18 0.500000 0.834206 0.000000
O O19 0.420961 0.500000 0.680041
#
# Coordination Sequence:
#
# PCOD9175500 Si02
#       8
#     8   8   8   8   8   8   8   8
#     4   9  20  35  53  78 109 144 188 231 273 328
#     4  10  21  36  58  83 111 148 183 226 278 326
#     4   9  18  34  55  79 108 145 182 226 277 325
#     4  10  18  33  53  78 112 145 182 224 278 326
#     4  10  20  37  57  81 114 141 188 231 270 335
#     4  10  21  34  52  84 116 142 179 226 281 342
#     4  10  21  37  57  80 106 147 184 229 284 328
#     4  10  19  33  56  83 109 145 186 222 274 338
#
# _framework density 18.188711000000001
#
# number of rings (size 3 to 8) (size 9 to 14) (size 15 to 20)
#    0.000    2.250    1.250    2.250    0.000    5.000 
#    0.000    2.500    0.000    6.000    0.000    0.000 
#    0.000    0.000    0.000    0.000    0.000    0.000 
#
# Total GULP energy -178458.133235 kJ/mol
# GULP energy per Si atom -5576.816664 kJ/mol
# Density = 1.814731 g / cm^3
# Si number density = 18.188711 Si / 1000 Ang^3
#
#
#
# Elastic Constant Matrix: (Units=GPa)
#
#
# Indices 1 2 3 4 5 6 
#
# 1 95.4993 6.4209 25.0815 0.0000 -21.1384 0.0000
# 2 6.4209 53.0116 11.1521 0.0000 -2.7043 0.0000
# 3 25.0815 11.1521 66.5740 0.0000 -9.9173 0.0000
# 4 0.0000 0.0000 0.0000 9.3492 0.0000 -0.7446
# 5 -21.1384 -2.7043 -9.9173 0.0000 29.7669 0.0000
# 6 0.0000 0.0000 0.0000 -0.7446 0.0000 11.0561
#
#
#
# Elastic Compliance Matrix: (Units=1/GPa)
#
#
# Indices 1 2 3 4 5 6 
#
# 1 0.013281 -0.000410 -0.003720 0.000000 0.008154 0.000000
# 2 -0.000410 0.019580 -0.003056 0.000000 0.000470 0.000000
# 3 -0.003720 -0.003056 0.017361 0.000000 0.002865 0.000000
# 4 0.000000 0.000000 0.000000 0.107538 0.000000 0.007242
# 5 0.008154 0.000470 0.002865 0.000000 0.040382 0.000000
# 6 0.000000 0.000000 0.000000 0.007242 0.000000 0.090936
#
#
# Mechanical properties :
#
#
# Convention : Reuss Voigt Hill
#
# Bulk Modulus (GPa) = 27.89341 33.37712 30.63526
# Shear Modulus (GPa) = 15.85292 21.52980 18.69136
#
# Velocity S-wave (km/s) = 2.95546 3.44421 3.20915
# Velocity P-wave (km/s) = 5.19761 5.84868 5.53273
#
# Compressibility (1/GPa) = 0.03585076
#
# Stress axis : x y z
#
# Youngs Moduli (GPa) = 75.29644 51.07200 57.60040
#
# Poissons Ratio (x) = 0.02094 0.21428
# Poissons Ratio (y) = 0.03087 0.17600
# Poissons Ratio (z) = 0.28011 0.15605
#
# Static dielectric constant tensor:
#      x y z
#    x 1.662770 0.000000 -0.010560 
#    y 0.000000 1.605740 0.000000 
#    z -0.010560 0.000000 1.613720 
# 
# From -- ./inp_files/175247.got.cif
#   From: 2010.05.17/outbox.cif.g08.bks.cpg/sg12_88_cif.got.tgz:175247.got - 2010.06.03 13:09:07.
