data_PCOD9175623
_publ_section_title
;
Structure prediction by ZEFSAII (Michael W. Deem and Ramdas Pophale) SiO2 
 PCOD9175623
Probable space group: C 2/M
;
_chemical_formula_sum "Si O2"
_cell_formula_units_Z 64
_cell_length_a 9.104656
_cell_length_b 19.848199
_cell_length_c 25.241290
_cell_angle_alpha 90.000000
_cell_angle_beta 128.535385
_cell_angle_gamma 90.000000
_cell_volume 3568.018370
_symmetry_space_group_name_H-M "C 2/M"
_symmetry_group_IT_number 12
_symmetry_cell_setting 'monoclinic'
loop_
_space_group_symop_operation_xyz
x,y,z
-x,y,-z
-x,-y,-z
x,-y,z
1/2+x,1/2+y,z
1/2-x,1/2+y,-z
1/2-x,1/2-y,-z
1/2+x,1/2-y,z
loop_
_atom_site_type_symbol
_atom_site_label
_atom_site_fract_x
_atom_site_fract_y
_atom_site_fract_z
Si Si1 0.535169 0.209145 0.261260
Si Si2 0.365247 0.182180 0.518652
Si Si3 0.343895 0.691269 0.134603
Si Si4 0.495408 0.578481 0.240886
Si Si5 0.034977 0.774634 0.951208
Si Si6 0.250556 0.923051 0.708149
Si Si7 0.046827 0.920874 0.450513
Si Si8 0.167035 0.318874 0.675418
O O1 0.439320 0.251869 0.193130
O O2 0.598617 0.136072 0.255640
O O3 0.714323 0.254514 0.318510
O O4 0.401603 0.200193 0.281424
O O5 0.500000 0.192201 0.500000
O O6 0.250000 0.250000 0.500000
O O7 0.222915 0.122594 0.473004
O O8 0.489892 0.167429 0.598414
O O9 0.373637 0.620775 0.171166
O O10 0.458638 0.689397 0.104713
O O11 0.126163 0.716283 0.083119
O O12 0.518860 0.500000 0.232553
O O13 0.387574 0.582479 0.272718
O O14 0.691901 0.618006 0.290514
O O15 0.250000 0.750000 0.000000
O O16 0.000000 0.811885 0.000000
O O17 0.128029 0.911188 0.627784
O O18 0.324109 0.000000 0.723247
O O19 0.000000 0.900696 0.500000
O O20 0.092272 0.000000 0.460225
#
# Coordination Sequence:
#
# PCOD9175623 Si02
#       8
#     8   8   8   8   8   8   8   8
#     4  11  20  34  54  78 106 134 174 218 267 319
#     4  12  23  35  52  73 100 135 178 227 281 334
#     4  10  18  33  55  82 107 139 174 210 257 302
#     4  10  21  36  54  78 109 143 179 223 270 316
#     4   9  18  32  55  84 112 136 167 209 245 293
#     4  10  20  35  53  74 103 137 175 221 272 323
#     4  10  21  37  54  71  97 135 177 222 273 330
#     4  11  22  34  52  75 103 137 176 229 278 325
#
# _framework density 17.937127
#
# number of rings (size 3 to 8) (size 9 to 14) (size 15 to 20)
#    0.000    1.625    0.000    7.125    0.000    1.250 
#    0.000    0.000    0.000    3.750    0.000    3.500 
#    0.000    0.000    0.000    0.000    0.000    0.000 
#
# Total GULP energy -178540.923731 kJ/mol
# GULP energy per Si atom -5579.403867 kJ/mol
# Density = 1.789630 g / cm^3
# Si number density = 17.937127 Si / 1000 Ang^3
#
#
#
# Elastic Constant Matrix: (Units=GPa)
#
#
# Indices 1 2 3 4 5 6 
#
# 1 100.2216 45.4697 11.2234 0.0000 -16.0183 0.0000
# 2 45.4697 106.4594 28.6625 0.0000 2.2398 0.0000
# 3 11.2234 28.6625 53.2468 0.0000 -13.3909 0.0000
# 4 0.0000 0.0000 0.0000 123.0523 0.0000 73.7857
# 5 -16.0183 2.2398 -13.3909 0.0000 39.4579 0.0000
# 6 0.0000 0.0000 0.0000 73.7857 0.0000 79.7735
#
#
#
# Elastic Compliance Matrix: (Units=1/GPa)
#
#
# Indices 1 2 3 4 5 6 
#
# 1 0.013838 -0.006701 0.002404 0.000000 0.006814 0.000000
# 2 -0.006701 0.014537 -0.007986 0.000000 -0.006256 0.000000
# 3 0.002404 -0.007986 0.025072 0.000000 0.009938 0.000000
# 4 0.000000 0.000000 0.000000 0.018246 0.000000 -0.016877
# 5 0.006814 -0.006256 0.009938 0.000000 0.031837 0.000000
# 6 0.000000 0.000000 0.000000 -0.016877 0.000000 0.028146
#
#
# Mechanical properties :
#
#
# Convention : Reuss Voigt Hill
#
# Bulk Modulus (GPa) = 34.62513 47.84874 41.23693
# Shear Modulus (GPa) = 30.14432 60.09491 45.11961
#
# Velocity S-wave (km/s) = 4.10390 5.79446 5.02085
# Velocity P-wave (km/s) = 6.46541 8.45585 7.52672
#
# Compressibility (1/GPa) = 0.02888076
#
# Stress axis : x y z
#
# Youngs Moduli (GPa) = 72.26569 68.79033 39.88533
#
# Poissons Ratio (x) = 0.46095 -0.09588
# Poissons Ratio (y) = 0.48424 0.31852
# Poissons Ratio (z) = -0.17372 0.54936
#
# Static dielectric constant tensor:
#      x y z
#    x 1.613190 0.000000 -0.013210 
#    y 0.000000 1.592480 0.000000 
#    z -0.013210 0.000000 1.664210 
# 
# From -- ./inp_files/333763.got.cif
#   From: 2010.05.17/outbox.cif.g08.bks.cpg/sg12_167_cif.got.tgz:333763.got - 2010.06.03 13:09:07.
