data_PCOD9175331
_publ_section_title
;
Structure prediction by ZEFSAII (Michael W. Deem and Ramdas Pophale) SiO2 
 PCOD9175331
Probable space group: C 2/M
;
_chemical_formula_sum "Si O2"
_cell_formula_units_Z 48
_cell_length_a 16.334615
_cell_length_b 17.949991
_cell_length_c 8.327174
_cell_angle_alpha 90.000000
_cell_angle_beta 121.851893
_cell_angle_gamma 90.000000
_cell_volume 2073.914002
_symmetry_space_group_name_H-M "C 2/M"
_symmetry_group_IT_number 12
_symmetry_cell_setting 'monoclinic'
loop_
_space_group_symop_operation_xyz
x,y,z
-x,y,-z
-x,-y,-z
x,-y,z
1/2+x,1/2+y,z
1/2-x,1/2+y,-z
1/2-x,1/2-y,-z
1/2+x,1/2-y,z
loop_
_atom_site_type_symbol
_atom_site_label
_atom_site_fract_x
_atom_site_fract_y
_atom_site_fract_z
Si Si1 0.731080 0.089023 0.510688
Si Si2 0.174317 0.414749 0.797662
Si Si3 0.000000 0.202808 0.000000
Si Si4 0.600449 0.583932 0.877677
Si Si5 0.000000 0.166175 0.500000
Si Si6 0.857488 0.782599 0.610175
Si Si7 0.389656 0.911036 0.933524
O O1 0.674053 0.114839 0.613797
O O2 0.833667 0.129927 0.618126
O O3 0.678816 0.107407 0.288599
O O4 0.741324 0.000000 0.533818
O O5 0.137040 0.500000 0.743792
O O6 0.286370 0.416609 0.966323
O O7 0.126063 0.377094 0.904026
O O8 0.919801 0.247808 0.821997
O O9 0.053314 0.148123 0.934070
O O10 0.564600 0.500000 0.869946
O O11 0.571436 0.611706 0.671666
O O12 0.927960 0.216846 0.531383
O O13 0.750000 0.750000 0.500000
O O14 0.370328 0.000000 0.935431
O O15 0.500000 0.903503 0.000000
#
# Coordination Sequence:
#
# PCOD9175331 Si02
#       7
#     8   8   4   8   4   8   8
#     4  10  20  37  64  93 127 169 209 265 334 389
#     4   9  17  30  52  83 121 163 201 250 323 382
#     4  10  21  38  64  92 123 170 212 246 324 402
#     4  10  18  32  58  97 133 157 196 257 324 400
#     4  10  23  38  62  94 123 174 220 252 326 402
#     4  11  24  45  66  91 133 170 215 274 324 391
#     4   9  18  32  51  81 122 165 217 268 310 368
#
# _framework density 23.144645000000001
#
# number of rings (size 3 to 8) (size 9 to 14) (size 15 to 20)
#    0.000    2.167    1.667    1.500    0.000    5.333 
#    1.500    8.333    0.000    0.000    0.000    0.000 
#    0.000    0.000    0.000    0.000    0.000    0.000 
#
# Total GULP energy -133886.141773 kJ/mol
# GULP energy per Si atom -5578.589241 kJ/mol
# Density = 2.309197 g / cm^3
# Si number density = 23.144645 Si / 1000 Ang^3
#
#
#
# Elastic Constant Matrix: (Units=GPa)
#
#
# Indices 1 2 3 4 5 6 
#
# 1 118.5165 11.2490 42.8952 0.0000 -25.1599 0.0000
# 2 11.2490 64.2096 10.9150 0.0000 3.4464 0.0000
# 3 42.8952 10.9150 66.8336 0.0000 -18.8927 0.0000
# 4 0.0000 0.0000 0.0000 -2.9678 0.0000 30.2062
# 5 -25.1599 3.4464 -18.8927 0.0000 40.7683 0.0000
# 6 0.0000 0.0000 0.0000 30.2062 0.0000 3.9262
#
#
#
# Elastic Compliance Matrix: (Units=1/GPa)
#
#
# Indices 1 2 3 4 5 6 
#
# 1 0.011700 -0.001270 -0.006019 0.000000 0.004539 0.000000
# 2 -0.001270 0.016472 -0.002865 0.000000 -0.003504 0.000000
# 3 -0.006019 -0.002865 0.021073 0.000000 0.006293 0.000000
# 4 0.000000 0.000000 0.000000 -0.004249 0.000000 0.032688
# 5 0.004539 -0.003504 0.006293 0.000000 0.030543 0.000000
# 6 0.000000 0.000000 0.000000 0.032688 0.000000 0.003212
#
#
# Mechanical properties :
#
#
# Convention : Reuss Voigt Hill
#
# Bulk Modulus (GPa) = 34.55992 42.18645 38.37318
# Shear Modulus (GPa) = 45.99642 20.64537 33.32089
#
# Velocity S-wave (km/s) = 4.46280 2.98990 3.79843
# Velocity P-wave (km/s) = 6.44360 5.49420 5.98775
#
# Compressibility (1/GPa) = 0.02893526
#
# Stress axis : x y z
#
# Youngs Moduli (GPa) = 85.46853 60.71009 47.45517
#
# Poissons Ratio (x) = 0.07712 0.28563
# Poissons Ratio (y) = 0.10857 0.13598
# Poissons Ratio (z) = 0.51443 0.17396
#
# Static dielectric constant tensor:
#      x y z
#    x 1.500830 0.000000 0.055850 
#    y 0.000000 1.912530 0.000000 
#    z 0.055850 0.000000 1.896890 
# 
# From -- ./inp_files/77044.got.cif
#   From: 2010.05.17/outbox.cif.g08.bks.cpg/sg12_39_cif.got.tgz:77044.got - 2010.06.03 13:09:07.
