data_PCOD9175216
_publ_section_title
;
Structure prediction by ZEFSAII (Michael W. Deem and Ramdas Pophale) SiO2 
 PCOD9175216
Probable space group: C 2/M
;
_chemical_formula_sum "Si O2"
_cell_formula_units_Z 60
_cell_length_a 16.081116
_cell_length_b 7.611090
_cell_length_c 19.002781
_cell_angle_alpha 90.000000
_cell_angle_beta 90.385956
_cell_angle_gamma 90.000000
_cell_volume 2325.789213
_symmetry_space_group_name_H-M "C 2/M"
_symmetry_group_IT_number 12
_symmetry_cell_setting 'monoclinic'
loop_
_space_group_symop_operation_xyz
x,y,z
-x,y,-z
-x,-y,-z
x,-y,z
1/2+x,1/2+y,z
1/2-x,1/2+y,-z
1/2-x,1/2-y,-z
1/2+x,1/2-y,z
loop_
_atom_site_type_symbol
_atom_site_label
_atom_site_fract_x
_atom_site_fract_y
_atom_site_fract_z
Si Si1 0.585098 0.311001 0.198349
Si Si2 0.665047 0.211878 0.587094
Si Si3 0.187740 0.301386 0.078005
Si Si4 0.150247 0.289495 0.425844
Si Si5 0.994310 0.288509 0.333714
Si Si6 0.333421 0.706638 0.177465
Si Si7 0.252500 0.500000 0.753468
Si Si8 0.920787 0.286749 0.044961
O O1 0.565339 0.500000 0.166403
O O2 0.610917 0.193217 0.133009
O O3 0.516710 0.258444 0.254204
O O4 0.671418 0.349011 0.242227
O O5 0.760309 0.248425 0.607280
O O6 0.652673 0.275384 0.506524
O O7 0.590942 0.282061 0.634417
O O8 0.658915 0.000000 0.587128
O O9 0.213173 0.500000 0.065181
O O10 0.261104 0.216050 0.123349
O O11 0.155481 0.223969 0.005365
O O12 0.143489 0.500000 0.429281
O O13 0.071124 0.223986 0.382580
O O14 0.994129 0.500000 0.338229
O O15 0.320428 0.500000 0.194539
O O16 0.410882 0.722877 0.124543
O O17 0.319961 0.844180 0.239754
O O18 0.919775 0.500000 0.046316
O O19 0.000000 0.231522 0.000000
#
# Coordination Sequence:
#
# PCOD9175216 Si02
#       8
#     8   8   8   8   8   8   4   8
#     4   9  19  33  53  75 103 139 176 231 275 322
#     4   9  18  33  54  83 117 150 187 234 287 342
#     4   9  18  33  54  77 101 136 178 218 269 331
#     4   9  18  33  54  83 117 150 185 236 288 336
#     4  10  19  33  57  82 110 149 196 234 281 349
#     4  10  18  32  57  81 102 136 179 223 276 336
#     4   8  18  36  53  80 108 134 178 238 272 328
#     4  10  20  33  52  79 113 141 169 221 284 340
#
# _framework density 25.797694
#
# number of rings (size 3 to 8) (size 9 to 14) (size 15 to 20)
#    0.400    2.267    0.667    1.200    0.000    4.000 
#    0.000    0.000    5.867    4.000    0.000    0.000 
#    0.000    0.000    0.000    0.000    0.000    0.000 
#
# Total GULP energy -167154.930611 kJ/mol
# GULP energy per Si atom -5571.831020 kJ/mol
# Density = 2.573898 g / cm^3
# Si number density = 25.797694 Si / 1000 Ang^3
#
#
#
# Elastic Constant Matrix: (Units=GPa)
#
#
# Indices 1 2 3 4 5 6 
#
# 1 131.0319 20.3656 75.3182 0.0000 -21.9888 0.0000
# 2 20.3656 107.5686 12.9394 0.0000 -10.5839 0.0000
# 3 75.3182 12.9394 125.6402 0.0000 -13.1757 0.0000
# 4 0.0000 0.0000 0.0000 5.6750 0.0000 -2.9648
# 5 -21.9888 -10.5839 -13.1757 0.0000 58.3513 0.0000
# 6 0.0000 0.0000 0.0000 -2.9648 0.0000 19.0767
#
#
#
# Elastic Compliance Matrix: (Units=1/GPa)
#
#
# Indices 1 2 3 4 5 6 
#
# 1 0.012288 -0.001212 -0.006944 0.000000 0.002843 0.000000
# 2 -0.001212 0.009667 -0.000137 0.000000 0.001266 0.000000
# 3 -0.006944 -0.000137 0.012146 0.000000 0.000101 0.000000
# 4 0.000000 0.000000 0.000000 0.191781 0.000000 0.029806
# 5 0.002843 0.001266 0.000101 0.000000 0.018461 0.000000
# 6 0.000000 0.000000 0.000000 0.029806 0.000000 0.057052
#
#
# Mechanical properties :
#
#
# Convention : Reuss Voigt Hill
#
# Bulk Modulus (GPa) = 57.08346 64.60967 60.84656
# Shear Modulus (GPa) = 15.44069 33.66177 24.55123
#
# Velocity S-wave (km/s) = 2.44914 3.61617 3.08828
# Velocity P-wave (km/s) = 5.49301 6.52186 6.02942
#
# Compressibility (1/GPa) = 0.01751821
#
# Stress axis : x y z
#
# Youngs Moduli (GPa) = 81.37743 103.44734 82.32833
#
# Poissons Ratio (x) = 0.12533 0.57166
# Poissons Ratio (y) = 0.09859 0.01124
# Poissons Ratio (z) = 0.56506 0.01412
#
# Static dielectric constant tensor:
#      x y z
#    x 2.176130 0.000000 0.012120 
#    y 0.000000 2.016930 0.000000 
#    z 0.012120 0.000000 2.115890 
# 
# From -- ./inp_files/313947.got.cif
#   From: 2010.05.17/outbox.cif.g08.bks.cpg/sg12_157_cif.got.tgz:313947.got - 2010.06.03 13:09:07.
