data_PCOD9175796
_publ_section_title
;
Structure prediction by ZEFSAII (Michael W. Deem and Ramdas Pophale) SiO2 
 PCOD9175796
Probable space group: C 2/M
;
_chemical_formula_sum "Si O2"
_cell_formula_units_Z 60
_cell_length_a 12.475744
_cell_length_b 32.059647
_cell_length_c 9.485172
_cell_angle_alpha 90.000000
_cell_angle_beta 116.518439
_cell_angle_gamma 90.000000
_cell_volume 3394.625524
_symmetry_space_group_name_H-M "C 2/M"
_symmetry_group_IT_number 12
_symmetry_cell_setting 'monoclinic'
loop_
_space_group_symop_operation_xyz
x,y,z
-x,y,-z
-x,-y,-z
x,-y,z
1/2+x,1/2+y,z
1/2-x,1/2+y,-z
1/2-x,1/2-y,-z
1/2+x,1/2-y,z
loop_
_atom_site_type_symbol
_atom_site_label
_atom_site_fract_x
_atom_site_fract_y
_atom_site_fract_z
Si Si1 0.643030 0.675945 0.293921
Si Si2 0.528431 0.402273 0.854305
Si Si3 0.944734 0.224279 0.311181
Si Si4 0.500000 0.865904 0.500000
Si Si5 0.707001 0.120717 0.420454
Si Si6 0.899874 0.047104 0.560990
Si Si7 0.339634 0.186789 0.187509
Si Si8 0.741072 0.351260 0.853970
O O1 0.554315 0.636990 0.234966
O O2 0.560889 0.714610 0.284882
O O3 0.735736 0.661845 0.469923
O O4 0.710772 0.682231 0.187565
O O5 0.475391 0.441928 0.743859
O O6 0.659966 0.387807 0.879439
O O7 0.500000 0.408155 0.000000
O O8 0.879468 0.265441 0.218426
O O9 0.852322 0.185355 0.248309
O O10 0.000000 0.229069 0.500000
O O11 0.405394 0.889700 0.544528
O O12 0.571544 0.838245 0.656544
O O13 0.798897 0.082094 0.481193
O O14 0.692776 0.132246 0.247645
O O15 0.000000 0.051633 0.500000
O O16 0.852790 0.000000 0.533377
O O17 0.326690 0.167807 0.024499
#
# Coordination Sequence:
#
# PCOD9175796 Si02
#       8
#     8   8   8   4   8   8   8   8
#     4   9  20  34  55  75 109 149 195 236 286 353
#     4  10  18  33  57  86 117 154 184 225 287 347
#     4  11  21  34  54  80 111 150 196 246 311 339
#     4  10  24  40  59  80 108 160 202 236 275 340
#     4  10  20  39  61  83 115 151 195 228 280 350
#     4  10  20  35  62  99 123 142 177 228 290 350
#     4  11  22  38  53  79 110 150 201 250 288 325
#     4  11  21  35  57  86 109 154 195 243 287 348
#
# _framework density 17.674999
#
# number of rings (size 3 to 8) (size 9 to 14) (size 15 to 20)
#    0.000    1.733    4.667    0.400    0.000    2.400 
#    0.000    1.667    0.000    0.000    0.000    0.933 
#    0.000    0.000    0.000    0.000    0.000    0.000 
#
# Total GULP energy -167190.578037 kJ/mol
# GULP energy per Si atom -5573.019268 kJ/mol
# Density = 1.763477 g / cm^3
# Si number density = 17.674999 Si / 1000 Ang^3
#
#
#
# Elastic Constant Matrix: (Units=GPa)
#
#
# Indices 1 2 3 4 5 6 
#
# 1 70.5110 37.1046 30.4199 0.0000 -14.8516 0.0000
# 2 37.1046 70.5205 19.5479 0.0000 -5.8174 0.0000
# 3 30.4199 19.5479 115.5853 0.0000 -20.1775 0.0000
# 4 0.0000 0.0000 0.0000 10.8647 0.0000 -2.2257
# 5 -14.8516 -5.8174 -20.1775 0.0000 27.4701 0.0000
# 6 0.0000 0.0000 0.0000 -2.2257 0.0000 17.6127
#
#
#
# Elastic Compliance Matrix: (Units=1/GPa)
#
#
# Indices 1 2 3 4 5 6 
#
# 1 0.022546 -0.010437 -0.002784 0.000000 0.007935 0.000000
# 2 -0.010437 0.019763 -0.000975 0.000000 -0.002173 0.000000
# 3 -0.002784 -0.000975 0.010611 0.000000 0.006083 0.000000
# 4 0.000000 0.000000 0.000000 0.094487 0.000000 0.011940
# 5 0.007935 -0.002173 0.006083 0.000000 0.044701 0.000000
# 6 0.000000 0.000000 0.000000 0.011940 0.000000 0.058286
#
#
# Mechanical properties :
#
#
# Convention : Reuss Voigt Hill
#
# Bulk Modulus (GPa) = 40.76735 47.86240 44.31488
# Shear Modulus (GPa) = 17.42403 22.49247 19.95825
#
# Velocity S-wave (km/s) = 3.14315 3.57116 3.36397
# Velocity P-wave (km/s) = 6.02392 6.64396 6.34152
#
# Compressibility (1/GPa) = 0.02452944
#
# Stress axis : x y z
#
# Youngs Moduli (GPa) = 44.35296 50.60079 94.24258
#
# Poissons Ratio (x) = 0.52811 0.26233
# Poissons Ratio (y) = 0.46290 0.09188
# Poissons Ratio (z) = 0.12346 0.04933
#
# Static dielectric constant tensor:
#      x y z
#    x 1.679120 0.000000 -0.282570 
#    y 0.000000 1.578870 0.000000 
#    z -0.282570 0.000000 3.296080 
# 
# From -- ./inp_files/54753.got.cif
#   From: 2010.05.17/outbox.cif.g08.bks.cpg/sg12_28_cif.got.tgz:54753.got - 2010.06.03 13:09:07.
