data_PCOD9175151
_publ_section_title
;
Structure prediction by ZEFSAII (Michael W. Deem and Ramdas Pophale) SiO2 
 PCOD9175151
Probable space group: C 2/M
;
_chemical_formula_sum "Si O2"
_cell_formula_units_Z 56
_cell_length_a 21.647076
_cell_length_b 7.811969
_cell_length_c 16.006827
_cell_angle_alpha 90.000000
_cell_angle_beta 92.108205
_cell_angle_gamma 90.000000
_cell_volume 2705.022902
_symmetry_space_group_name_H-M "C 2/M"
_symmetry_group_IT_number 12
_symmetry_cell_setting 'monoclinic'
loop_
_space_group_symop_operation_xyz
x,y,z
-x,y,-z
-x,-y,-z
x,-y,z
1/2+x,1/2+y,z
1/2-x,1/2+y,-z
1/2-x,1/2-y,-z
1/2+x,1/2-y,z
loop_
_atom_site_type_symbol
_atom_site_label
_atom_site_fract_x
_atom_site_fract_y
_atom_site_fract_z
Si Si1 0.593313 0.707361 0.450906
Si Si2 0.231899 0.698762 0.769651
Si Si3 0.430961 0.710270 0.022822
Si Si4 0.958276 0.208813 0.378580
Si Si5 0.595414 0.302138 0.793767
Si Si6 0.725709 0.806034 0.407698
Si Si7 0.196631 0.205807 0.065181
O O1 0.599868 0.500000 0.448185
O O2 0.528343 0.753308 0.405183
O O3 0.586261 0.760704 0.547471
O O4 0.652039 0.788560 0.410764
O O5 0.219418 0.500000 0.788014
O O6 0.168205 0.796230 0.781026
O O7 0.252364 0.711147 0.674534
O O8 0.281321 0.761255 0.841283
O O9 0.429802 0.500000 0.021058
O O10 0.419276 0.771187 0.116709
O O11 0.500000 0.761944 0.000000
O O12 0.371471 0.768094 0.965782
O O13 0.937324 0.276551 0.288522
O O14 0.955737 0.000000 0.378139
O O15 0.574887 0.500000 0.796255
O O16 0.750000 0.750000 0.500000
O O17 0.746217 0.000000 0.396933
O O18 0.192652 0.000000 0.066189
O O19 0.250000 0.250000 0.000000
#
# Coordination Sequence:
#
# PCOD9175151 Si02
#       7
#     8   8   8   8   8   8   8
#     4   9  17  34  55  79 113 147 187 233 284 342
#     4  11  23  37  57  85 115 153 197 241 295 354
#     4   9  18  32  53  83 115 148 193 247 294 342
#     4   8  16  30  54  82 107 146 190 232 280 340
#     4  10  18  32  56  82 110 149 198 243 287 342
#     4  12  25  40  58  83 116 151 191 239 291 344
#     4  10  20  36  59  85 115 152 194 244 295 348
#
# _framework density 20.702228000000002
#
# number of rings (size 3 to 8) (size 9 to 14) (size 15 to 20)
#    0.000    2.143    1.429    3.429    0.000    2.857 
#    0.000    6.429    0.000    1.714    0.000    0.000 
#    0.000    0.000    0.000    0.000    0.000    0.000 
#
# Total GULP energy -156280.124797 kJ/mol
# GULP energy per Si atom -5581.433028 kJ/mol
# Density = 2.065511 g / cm^3
# Si number density = 20.702228 Si / 1000 Ang^3
#
#
#
# Elastic Constant Matrix: (Units=GPa)
#
#
# Indices 1 2 3 4 5 6 
#
# 1 107.1871 -11.0017 67.7290 0.0000 -4.5427 0.0000
# 2 -11.0017 29.9628 -0.8842 0.0000 6.3702 0.0000
# 3 67.7290 -0.8842 162.7441 0.0000 12.7379 0.0000
# 4 0.0000 0.0000 0.0000 -0.2299 0.0000 -9.1771
# 5 -4.5427 6.3702 12.7379 0.0000 35.9578 0.0000
# 6 0.0000 0.0000 0.0000 -9.1771 0.0000 18.8648
#
#
#
# Elastic Compliance Matrix: (Units=1/GPa)
#
#
# Indices 1 2 3 4 5 6 
#
# 1 0.013601 0.004170 -0.005877 0.000000 0.003062 0.000000
# 2 0.004170 0.036034 -0.001112 0.000000 -0.005463 0.000000
# 3 -0.005877 -0.001112 0.008873 0.000000 -0.003689 0.000000
# 4 0.000000 0.000000 0.000000 -0.213025 0.000000 -0.103630
# 5 0.003062 -0.005463 -0.003689 0.000000 0.030472 0.000000
# 6 0.000000 0.000000 0.000000 -0.103630 0.000000 0.002596
#
#
# Mechanical properties :
#
#
# Convention : Reuss Voigt Hill
#
# Bulk Modulus (GPa) = 18.91452 45.73114 32.32283
# Shear Modulus (GPa) = -50.92371 27.18859 -11.86756
#
# Velocity S-wave (km/s) = -4.96504 3.62790 -2.39686
# Velocity P-wave (km/s) = 4.86954 6.29975 2.82616
#
# Compressibility (1/GPa) = 0.05286943
#
# Stress axis : x y z
#
# Youngs Moduli (GPa) = 73.52463 27.75128 112.69865
#
# Poissons Ratio (x) = -0.11571 0.66236
# Poissons Ratio (y) = -0.30657 0.12531
# Poissons Ratio (z) = 0.43212 0.03086
#
# Static dielectric constant tensor:
#      x y z
#    x 1.709170 0.000000 0.026950 
#    y 0.000000 1.778350 0.000000 
#    z 0.026950 0.000000 1.761680 
# 
# From -- ./inp_files/231041.got.cif
#   From: 2010.05.17/outbox.cif.g08.bks.cpg/sg12_116_cif.got.tgz:231041.got - 2010.06.03 13:09:07.
