data_PCOD9175272
_publ_section_title
;
Structure prediction by ZEFSAII (Michael W. Deem and Ramdas Pophale) SiO2 
 PCOD9175272
Probable space group: C 2/M
;
_chemical_formula_sum "Si O2"
_cell_formula_units_Z 60
_cell_length_a 16.730585
_cell_length_b 14.620882
_cell_length_c 17.555673
_cell_angle_alpha 90.000000
_cell_angle_beta 41.200232
_cell_angle_gamma 90.000000
_cell_volume 2828.687066
_symmetry_space_group_name_H-M "C 2/M"
_symmetry_group_IT_number 12
_symmetry_cell_setting 'monoclinic'
loop_
_space_group_symop_operation_xyz
x,y,z
-x,y,-z
-x,-y,-z
x,-y,z
1/2+x,1/2+y,z
1/2-x,1/2+y,-z
1/2-x,1/2-y,-z
1/2+x,1/2-y,z
loop_
_atom_site_type_symbol
_atom_site_label
_atom_site_fract_x
_atom_site_fract_y
_atom_site_fract_z
Si Si1 0.676741 0.358054 0.630358
Si Si2 0.091890 0.606756 0.832064
Si Si3 0.668141 0.112210 0.942330
Si Si4 0.374553 0.389431 0.056129
Si Si5 0.897058 0.110938 0.869442
Si Si6 0.279044 0.344351 0.569103
Si Si7 0.672793 0.896388 0.326366
Si Si8 0.500000 0.260100 0.500000
O O1 0.534830 0.364870 0.750634
O O2 0.703672 0.392159 0.525159
O O3 0.716145 0.253118 0.600694
O O4 0.754732 0.397645 0.644831
O O5 0.076032 0.500000 0.859285
O O6 0.147534 0.645096 0.870595
O O7 0.185857 0.612853 0.696034
O O8 0.952893 0.640193 0.923684
O O9 0.794865 0.145175 0.884979
O O10 0.675645 0.000000 0.937841
O O11 0.385982 0.500000 0.043468
O O12 0.267135 0.374631 0.191940
O O13 0.500000 0.353029 0.000000
O O14 0.360803 0.357370 0.979943
O O15 0.894306 0.000000 0.870958
O O16 0.408360 0.321826 0.516166
O O17 0.578633 0.812995 0.395197
O O18 0.622868 0.000000 0.350549
#
# Coordination Sequence:
#
# PCOD9175272 Si02
#       8
#     8   8   8   8   8   8   8   4
#     4  10  21  37  55  78 118 155 182 230 281 333
#     4   9  18  38  62  81 107 143 184 231 283 336
#     4   8  17  34  58  88 113 134 174 235 288 328
#     4   9  16  29  52  83 116 142 177 231 283 329
#     4  10  18  32  57  89 116 142 180 231 283 335
#     4  10  23  40  55  77 114 153 192 229 283 331
#     4  10  19  37  62  86 110 151 196 231 279 333
#     4  10  23  40  57  78 116 156 188 238 281 328
#
# _framework density 21.211255000000001
#
# number of rings (size 3 to 8) (size 9 to 14) (size 15 to 20)
#    0.000    2.533    1.333    1.400    1.867    1.067 
#    7.200    6.333    0.000    0.000    0.000    0.000 
#    0.000    0.000    0.000    0.000    0.000    0.000 
#
# Total GULP energy -167328.175302 kJ/mol
# GULP energy per Si atom -5577.605843 kJ/mol
# Density = 2.116298 g / cm^3
# Si number density = 21.211255 Si / 1000 Ang^3
#
#
#
# Elastic Constant Matrix: (Units=GPa)
#
#
# Indices 1 2 3 4 5 6 
#
# 1 50.5548 -0.9326 18.3936 0.0000 -7.0236 0.0000
# 2 -0.9326 39.8976 -8.4190 0.0000 1.2123 0.0000
# 3 18.3936 -8.4190 116.5980 0.0000 13.7219 0.0000
# 4 0.0000 0.0000 0.0000 47.4075 0.0000 -35.0195
# 5 -7.0236 1.2123 13.7219 0.0000 27.1647 0.0000
# 6 0.0000 0.0000 0.0000 -35.0195 0.0000 35.7638
#
#
#
# Elastic Compliance Matrix: (Units=1/GPa)
#
#
# Indices 1 2 3 4 5 6 
#
# 1 0.022567 -0.000686 -0.004572 0.000000 0.008175 0.000000
# 2 -0.000686 0.025596 0.002245 0.000000 -0.002454 0.000000
# 3 -0.004572 0.002245 0.010218 0.000000 -0.006444 0.000000
# 4 0.000000 0.000000 0.000000 0.076237 0.000000 0.074650
# 5 0.008175 -0.002454 -0.006444 0.000000 0.042290 0.000000
# 6 0.000000 0.000000 0.000000 0.074650 0.000000 0.101058
#
#
# Mechanical properties :
#
#
# Convention : Reuss Voigt Hill
#
# Bulk Modulus (GPa) = 19.09946 25.01493 22.05720
# Shear Modulus (GPa) = 16.58687 35.26777 25.92732
#
# Velocity S-wave (km/s) = 2.79943 4.08204 3.49999
# Velocity P-wave (km/s) = 4.41283 5.83405 5.17249
#
# Compressibility (1/GPa) = 0.05235749
#
# Stress axis : x y z
#
# Youngs Moduli (GPa) = 44.31276 39.06789 97.86571
#
# Poissons Ratio (x) = 0.02678 0.44739
# Poissons Ratio (y) = 0.03038 -0.21972
# Poissons Ratio (z) = 0.20258 -0.08771
#
# Static dielectric constant tensor:
#      x y z
#    x 1.774230 0.000000 0.017540 
#    y 0.000000 1.808490 0.000000 
#    z 0.017540 0.000000 1.775140 
# 
# From -- ./inp_files/216766.got.cif
#   From: 2010.05.17/outbox.cif.g08.bks.cpg/sg12_109_cif.got.tgz:216766.got - 2010.06.03 13:09:07.
