data_PCOD9175998
_publ_section_title
;
Structure prediction by ZEFSAII (Michael W. Deem and Ramdas Pophale) SiO2 
 PCOD9175998
Probable space group: C 2/M
;
_chemical_formula_sum "Si O2"
_cell_formula_units_Z 40
_cell_length_a 16.842060
_cell_length_b 16.913677
_cell_length_c 14.030660
_cell_angle_alpha 90.000000
_cell_angle_beta 154.928959
_cell_angle_gamma 90.000000
_cell_volume 1693.606510
_symmetry_space_group_name_H-M "C 2/M"
_symmetry_group_IT_number 12
_symmetry_cell_setting 'monoclinic'
loop_
_space_group_symop_operation_xyz
x,y,z
-x,y,-z
-x,-y,-z
x,-y,z
1/2+x,1/2+y,z
1/2-x,1/2+y,-z
1/2-x,1/2-y,-z
1/2+x,1/2-y,z
loop_
_atom_site_type_symbol
_atom_site_label
_atom_site_fract_x
_atom_site_fract_y
_atom_site_fract_z
Si Si1 0.833520 0.207707 0.381427
Si Si2 0.138339 0.411291 0.297008
Si Si3 0.720161 0.121414 0.735618
Si Si4 0.963334 0.729922 0.209509
Si Si5 0.563791 0.385505 0.222380
O O1 0.693646 0.141074 0.265724
O O2 0.758093 0.282751 0.240763
O O3 0.000000 0.170758 0.500000
O O4 0.927472 0.250952 0.574542
O O5 0.073518 0.500000 0.207162
O O6 0.329070 0.415915 0.568414
O O7 0.998928 0.357618 0.208994
O O8 0.500000 0.102465 0.500000
O O9 0.812044 0.096039 0.735480
O O10 0.852118 0.090618 0.964186
O O11 0.049036 0.791887 0.227568
O O12 0.750000 0.750000 0.000000
#
# Coordination Sequence:
#
# PCOD9175998 Si02
#       5
#     8   8   8   8   8
#     4  10  19  37  64  93 119 161 220 270 306 366
#     4  11  23  41  60  92 139 169 201 261 335 394
#     4  10  18  33  63  98 121 151 222 277 303 351
#     4  11  20  38  63  89 120 168 227 263 305 376
#     4  10  20  36  62  91 122 166 217 262 311 372
#
# _framework density 23.618238000000002
#
# number of rings (size 3 to 8) (size 9 to 14) (size 15 to 20)
#    0.000    1.600    4.000    3.600    0.000    0.400 
#    0.000    6.000    0.000   11.400    0.000    0.000 
#    0.000    0.000    0.000    0.000    0.000    0.000 
#
# Total GULP energy -111812.455075 kJ/mol
# GULP energy per Si atom -5590.622754 kJ/mol
# Density = 2.356448 g / cm^3
# Si number density = 23.618238 Si / 1000 Ang^3
#
#
#
# Elastic Constant Matrix: (Units=GPa)
#
#
# Indices 1 2 3 4 5 6 
#
# 1 98.3527 31.1367 40.0936 0.0000 25.6522 0.0000
# 2 31.1367 170.9060 21.3962 0.0000 25.0406 0.0000
# 3 40.0936 21.3962 136.7653 0.0000 19.9462 0.0000
# 4 0.0000 0.0000 0.0000 -1.9615 0.0000 -0.1185
# 5 25.6522 25.0406 19.9462 0.0000 36.7652 0.0000
# 6 0.0000 0.0000 0.0000 -0.1185 0.0000 -31.1443
#
#
#
# Elastic Compliance Matrix: (Units=1/GPa)
#
#
# Indices 1 2 3 4 5 6 
#
# 1 0.013501 -0.001060 -0.002740 0.000000 -0.007211 0.000000
# 2 -0.001060 0.006604 -0.000189 0.000000 -0.003655 0.000000
# 3 -0.002740 -0.000189 0.008521 0.000000 -0.002582 0.000000
# 4 0.000000 0.000000 0.000000 -0.509920 0.000000 0.001940
# 5 -0.007211 -0.003655 -0.002582 0.000000 0.036122 0.000000
# 6 0.000000 0.000000 0.000000 0.001940 0.000000 -0.032116
#
#
# Mechanical properties :
#
#
# Convention : Reuss Voigt Hill
#
# Bulk Modulus (GPa) = 48.43394 65.69745 57.06569
# Shear Modulus (GPa) = -10.81252 21.62505 5.40626
#
# Velocity S-wave (km/s) = -2.14196 3.02918 1.51459
# Velocity P-wave (km/s) = 3.79924 6.33336 5.22234
#
# Compressibility (1/GPa) = 0.02064668
#
# Stress axis : x y z
#
# Youngs Moduli (GPa) = 74.06838 151.43353 117.35250
#
# Poissons Ratio (x) = 0.16053 0.32159
# Poissons Ratio (y) = 0.07852 0.02221
# Poissons Ratio (z) = 0.20297 0.02865
#
# Static dielectric constant tensor:
#      x y z
#    x 1.908370 0.000000 -0.016890 
#    y 0.000000 1.915000 0.000000 
#    z -0.016890 0.000000 1.951630 
# 
# From -- ./inp_files/285054.got.cif
#   From: 2010.05.17/outbox.cif.g08.bks.cpg/sg12_143_cif.got.tgz:285054.got - 2010.06.03 13:09:07.
