data_PCOD9175097
_publ_section_title
;
Structure prediction by ZEFSAII (Michael W. Deem and Ramdas Pophale) SiO2 
 PCOD9175097
Probable space group: C 2/M
;
_chemical_formula_sum "Si O2"
_cell_formula_units_Z 56
_cell_length_a 15.129560
_cell_length_b 18.407804
_cell_length_c 21.732227
_cell_angle_alpha 90.000000
_cell_angle_beta 28.977771
_cell_angle_gamma 90.000000
_cell_volume 2932.240804
_symmetry_space_group_name_H-M "C 2/M"
_symmetry_group_IT_number 12
_symmetry_cell_setting 'monoclinic'
loop_
_space_group_symop_operation_xyz
x,y,z
-x,y,-z
-x,-y,-z
x,-y,z
1/2+x,1/2+y,z
1/2-x,1/2+y,-z
1/2-x,1/2-y,-z
1/2+x,1/2-y,z
loop_
_atom_site_type_symbol
_atom_site_label
_atom_site_fract_x
_atom_site_fract_y
_atom_site_fract_z
Si Si1 0.502816 0.577877 0.853201
Si Si2 0.065677 0.718892 0.794950
Si Si3 0.814760 0.802477 0.028536
Si Si4 0.165007 0.584151 0.551640
Si Si5 0.764876 0.919081 0.162770
Si Si6 0.204068 0.651448 0.401075
Si Si7 0.786306 0.085709 0.616730
O O1 0.417169 0.500000 0.898142
O O2 0.619297 0.582339 0.845485
O O3 0.652812 0.592387 0.710705
O O4 0.351800 0.638983 0.951542
O O5 0.217639 0.774836 0.676952
O O6 0.156706 0.639777 0.734283
O O7 0.889978 0.724549 0.857015
O O8 0.976555 0.745090 0.914596
O O9 0.813687 0.851240 0.090185
O O10 0.213640 0.500000 0.505360
O O11 0.208309 0.641531 0.471795
O O12 0.249906 0.600361 0.566526
O O13 0.947091 0.585439 0.692520
O O14 0.793678 0.000000 0.116386
O O15 0.000000 0.638700 0.500000
O O16 0.000000 0.098118 0.500000
O O17 0.745960 0.000000 0.652049
#
# Coordination Sequence:
#
# PCOD9175097 Si02
#       7
#     8   8   8   8   8   8   8
#     4  10  20  32  54  85 118 156 184 217 273 337
#     4  10  22  37  54  77 111 150 190 236 280 334
#     4  10  20  35  50  75 115 150 189 229 265 321
#     4  10  20  34  57  86 115 150 188 227 278 338
#     4  10  18  32  55  84 117 150 188 227 268 332
#     4  11  21  35  54  83 124 154 180 224 282 345
#     4  10  21  40  62  83 107 141 193 250 292 327
#
# _framework density 19.098020999999999
#
# number of rings (size 3 to 8) (size 9 to 14) (size 15 to 20)
#    0.000    1.857    2.857    1.714    0.000    2.857 
#    0.000    1.429    0.000    0.000    0.000    0.000 
#    0.000   41.143    0.000    0.000    0.000    0.000 
#
# Total GULP energy -156020.485492 kJ/mol
# GULP energy per Si atom -5572.160196 kJ/mol
# Density = 1.905455 g / cm^3
# Si number density = 19.098021 Si / 1000 Ang^3
#
#
#
# Elastic Constant Matrix: (Units=GPa)
#
#
# Indices 1 2 3 4 5 6 
#
# 1 29.5138 11.6036 3.6769 -0.0061 8.3690 0.0039
# 2 11.6036 78.7348 22.0104 -0.0107 14.8916 0.0096
# 3 3.6769 22.0104 73.2236 -0.0042 11.7495 0.0102
# 4 -0.0061 -0.0107 -0.0042 28.3171 0.0085 2.6840
# 5 8.3690 14.8916 11.7495 0.0085 20.7065 -0.0042
# 6 0.0039 0.0096 0.0102 2.6840 -0.0042 18.6232
#
#
#
# Elastic Compliance Matrix: (Units=1/GPa)
#
#
# Indices 1 2 3 4 5 6 
#
# 1 0.039066 -0.003474 0.001337 0.000013 -0.014050 -0.000012
# 2 -0.003474 0.015632 -0.003241 0.000008 -0.007999 -0.000009
# 3 0.001337 -0.003241 0.015707 0.000004 -0.007122 -0.000009
# 4 0.000013 0.000008 0.000004 0.035803 -0.000029 -0.005160
# 5 -0.014050 -0.007999 -0.007122 -0.000029 0.063767 0.000030
# 6 -0.000012 -0.000009 -0.000009 -0.005160 0.000030 0.054440
#
#
# Mechanical properties :
#
#
# Convention : Reuss Voigt Hill
#
# Bulk Modulus (GPa) = 16.76480 28.45042 22.60761
# Shear Modulus (GPa) = 19.60383 23.14145 21.37264
#
# Velocity S-wave (km/s) = 3.20736 3.48475 3.34893
# Velocity P-wave (km/s) = 4.74484 5.57860 5.17853
#
# Compressibility (1/GPa) = 0.05964879
#
# Stress axis : x y z
#
# Youngs Moduli (GPa) = 25.59793 63.97265 63.66735
#
# Poissons Ratio (x) = 0.22222 -0.08512
# Poissons Ratio (y) = 0.08892 0.20633
# Poissons Ratio (z) = -0.03422 0.20732
#
# Static dielectric constant tensor:
#      x y z
#    x 1.649910 0.000000 0.017280 
#    y 0.000000 1.728270 0.000000 
#    z 0.017280 0.000000 1.689160 
# 
# From -- ./inp_files/157957.got.cif
#   From: 2010.05.17/outbox.cif.g08.bks.cpg/sg12_79_cif.got.tgz:157957.got - 2010.06.03 13:09:07.
