data_PCOD9175888
_publ_section_title
;
Structure prediction by ZEFSAII (Michael W. Deem and Ramdas Pophale) SiO2 
 PCOD9175888
Probable space group: C 2/M
;
_chemical_formula_sum "Si O2"
_cell_formula_units_Z 56
_cell_length_a 8.964750
_cell_length_b 18.715757
_cell_length_c 21.209120
_cell_angle_alpha 90.000000
_cell_angle_beta 60.812108
_cell_angle_gamma 90.000000
_cell_volume 3106.669024
_symmetry_space_group_name_H-M "C 2/M"
_symmetry_group_IT_number 12
_symmetry_cell_setting 'monoclinic'
loop_
_space_group_symop_operation_xyz
x,y,z
-x,y,-z
-x,-y,-z
x,-y,z
1/2+x,1/2+y,z
1/2-x,1/2+y,-z
1/2-x,1/2-y,-z
1/2+x,1/2-y,z
loop_
_atom_site_type_symbol
_atom_site_label
_atom_site_fract_x
_atom_site_fract_y
_atom_site_fract_z
Si Si1 0.440021 0.797852 0.147271
Si Si2 0.716597 0.920353 0.743848
Si Si3 0.909608 0.334416 0.339488
Si Si4 0.712409 0.292867 0.713974
Si Si5 0.824439 0.328855 0.497060
Si Si6 0.383465 0.583049 0.359087
Si Si7 0.817773 0.214229 0.050696
O O1 0.322965 0.862301 0.195033
O O2 0.408901 0.734143 0.204545
O O3 0.639459 0.821089 0.109506
O O4 0.376028 0.770324 0.092642
O O5 0.604045 0.898022 0.707131
O O6 0.911874 0.915740 0.681005
O O7 0.681612 0.000000 0.773097
O O8 0.791034 0.270306 0.337469
O O9 0.863326 0.357697 0.419203
O O10 0.096967 0.300541 0.300209
O O11 0.665464 0.366895 0.690073
O O12 0.750000 0.250000 0.500000
O O13 0.698276 0.378610 0.563268
O O14 0.000000 0.323942 0.500000
O O15 0.328516 0.500000 0.365029
O O16 0.750000 0.250000 0.000000
O O17 0.000000 0.174686 0.000000
#
# Coordination Sequence:
#
# PCOD9175888 Si02
#       7
#     8   8   8   8   8   8   8
#     4  10  18  33  59  84 112 148 182 224 278 328
#     4  10  23  39  57  82 114 149 193 239 286 338
#     4  11  21  36  57  80 108 144 193 246 289 337
#     4  11  20  36  57  84 109 143 191 237 283 340
#     4  12  24  38  58  79 105 148 194 241 296 351
#     4  11  24  39  54  79 112 148 191 244 294 342
#     4   9  18  32  55  89 119 140 173 223 267 319
#
# _framework density 18.025738
#
# number of rings (size 3 to 8) (size 9 to 14) (size 15 to 20)
#    0.000    1.429    2.857    4.286    2.000    1.429 
#    0.000    1.429    0.000    4.286    0.000    4.000 
#    0.000    0.000    0.000    0.000    0.000    0.000 
#
# Total GULP energy -156119.228055 kJ/mol
# GULP energy per Si atom -5575.686716 kJ/mol
# Density = 1.798471 g / cm^3
# Si number density = 18.025738 Si / 1000 Ang^3
#
#
#
# Elastic Constant Matrix: (Units=GPa)
#
#
# Indices 1 2 3 4 5 6 
#
# 1 77.2075 19.7264 26.4323 0.0000 1.0044 0.0000
# 2 19.7264 92.0760 32.1980 0.0000 -0.7267 0.0000
# 3 26.4323 32.1980 94.5853 0.0000 3.9454 0.0000
# 4 0.0000 0.0000 0.0000 4.3146 0.0000 -9.6948
# 5 1.0044 -0.7267 3.9454 0.0000 40.3397 0.0000
# 6 0.0000 0.0000 0.0000 -9.6948 0.0000 16.2731
#
#
#
# Elastic Compliance Matrix: (Units=1/GPa)
#
#
# Indices 1 2 3 4 5 6 
#
# 1 0.014620 -0.001935 -0.003424 0.000000 -0.000064 0.000000
# 2 -0.001935 0.012601 -0.003775 0.000000 0.000644 0.000000
# 3 -0.003424 -0.003775 0.012866 0.000000 -0.001241 0.000000
# 4 0.000000 0.000000 0.000000 -0.684434 0.000000 -0.407755
# 5 -0.000064 0.000644 -0.001241 0.000000 0.024924 0.000000
# 6 0.000000 0.000000 0.000000 -0.407755 0.000000 -0.181471
#
#
# Mechanical properties :
#
#
# Convention : Reuss Voigt Hill
#
# Bulk Modulus (GPa) = 45.83594 46.73135 46.28364
# Shear Modulus (GPa) = -6.44868 24.55296 9.05214
#
# Velocity S-wave (km/s) = -1.89348 3.69468 2.24337
# Velocity P-wave (km/s) = 4.55005 6.64695 5.69582
#
# Compressibility (1/GPa) = 0.02181694
#
# Stress axis : x y z
#
# Youngs Moduli (GPa) = 68.40113 79.36185 77.72231
#
# Poissons Ratio (x) = 0.15359 0.26613
# Poissons Ratio (y) = 0.13237 0.29344
# Poissons Ratio (z) = 0.23421 0.29963
#
# Static dielectric constant tensor:
#      x y z
#    x 1.641160 0.000000 -0.021840 
#    y 0.000000 1.609700 0.000000 
#    z -0.021840 0.000000 1.672400 
# 
# From -- ./inp_files/300705.got.cif
#   From: 2010.05.17/outbox.cif.g08.bks.cpg/sg12_151_cif.got.tgz:300705.got - 2010.06.03 13:09:07.
