data_PCOD9175634
_publ_section_title
;
Structure prediction by ZEFSAII (Michael W. Deem and Ramdas Pophale) SiO2 
 PCOD9175634
Probable space group: C 2/M
;
_chemical_formula_sum "Si O2"
_cell_formula_units_Z 48
_cell_length_a 22.513355
_cell_length_b 22.171066
_cell_length_c 4.991488
_cell_angle_alpha 90.000000
_cell_angle_beta 121.262903
_cell_angle_gamma 90.000000
_cell_volume 2129.701858
_symmetry_space_group_name_H-M "C 2/M"
_symmetry_group_IT_number 12
_symmetry_cell_setting 'monoclinic'
loop_
_space_group_symop_operation_xyz
x,y,z
-x,y,-z
-x,-y,-z
x,-y,z
1/2+x,1/2+y,z
1/2-x,1/2+y,-z
1/2-x,1/2-y,-z
1/2+x,1/2-y,z
loop_
_atom_site_type_symbol
_atom_site_label
_atom_site_fract_x
_atom_site_fract_y
_atom_site_fract_z
Si Si1 0.369010 0.177928 0.145922
Si Si2 0.300806 0.573020 0.890398
Si Si3 0.712123 0.071080 0.190777
Si Si4 0.453620 0.570406 0.126751
Si Si5 0.320996 0.240872 0.507535
Si Si6 0.545650 0.271454 0.369614
O O1 0.308983 0.202194 0.209104
O O2 0.433421 0.205693 0.457200
O O3 0.354153 0.108265 0.063565
O O4 0.365058 0.207749 0.844996
O O5 0.303377 0.500000 0.864817
O O6 0.242252 0.593679 0.543713
O O7 0.274326 0.582377 0.127044
O O8 0.377548 0.596857 0.005570
O O9 0.698077 0.000000 0.168321
O O10 0.500000 0.568289 0.500000
O O11 0.440952 0.500000 0.015579
O O12 0.500000 0.598750 0.000000
O O13 0.250000 0.250000 0.500000
O O14 0.375556 0.292050 0.527242
O O15 0.500000 0.301370 0.500000
O O16 0.500000 0.268054 0.000000
#
# Coordination Sequence:
#
# PCOD9175634 Si02
#       6
#     8   8   8   8   8   8
#     4  10  20  32  55  80 115 144 184 225 279 310
#     4   9  17  27  42  63  92 124 169 223 271 319
#     4  10  19  32  48  72 104 142 185 228 274 318
#     4   9  15  23  36  56  82 109 148 208 269 316
#     4  10  20  34  56  86 116 136 178 229 276 335
#     4  10  18  33  55  84 114 148 178 221 269 333
#
# _framework density 22.538364999999999
#
# number of rings (size 3 to 8) (size 9 to 14) (size 15 to 20)
#    1.000    1.333    1.667    2.500    0.000    4.000 
#    0.000    0.000    0.000    1.000    0.000   17.500 
#    0.000    0.000    0.000    0.000    0.000    0.167 
#
# Total GULP energy -133687.683940 kJ/mol
# GULP energy per Si atom -5570.320164 kJ/mol
# Density = 2.248707 g / cm^3
# Si number density = 22.538365 Si / 1000 Ang^3
#
#
#
# Elastic Constant Matrix: (Units=GPa)
#
#
# Indices 1 2 3 4 5 6 
#
# 1 117.1596 21.7952 3.2423 0.0000 -9.3650 0.0000
# 2 21.7952 57.6257 14.9069 0.0000 8.9687 0.0000
# 3 3.2423 14.9069 68.9926 0.0000 -15.5740 0.0000
# 4 0.0000 0.0000 0.0000 -8.8775 0.0000 -1.8308
# 5 -9.3650 8.9687 -15.5740 0.0000 44.8081 0.0000
# 6 0.0000 0.0000 0.0000 -1.8308 0.0000 16.0707
#
#
#
# Elastic Compliance Matrix: (Units=1/GPa)
#
#
# Indices 1 2 3 4 5 6 
#
# 1 0.009601 -0.004481 0.001272 0.000000 0.003346 0.000000
# 2 -0.004481 0.021807 -0.006183 0.000000 -0.007451 0.000000
# 3 0.001272 -0.006183 0.017481 0.000000 0.007580 0.000000
# 4 0.000000 0.000000 0.000000 -0.110059 0.000000 -0.012538
# 5 0.003346 -0.007451 0.007580 0.000000 0.027142 0.000000
# 6 0.000000 0.000000 0.000000 -0.012538 0.000000 0.060796
#
#
# Mechanical properties :
#
#
# Convention : Reuss Voigt Hill
#
# Bulk Modulus (GPa) = 33.21595 35.96295 34.58945
# Shear Modulus (GPa) = 89.94586 23.98919 56.96752
#
# Velocity S-wave (km/s) = 6.32412 3.26601 5.03296
# Velocity P-wave (km/s) = 8.25200 5.49667 7.01102
#
# Compressibility (1/GPa) = 0.03010602
#
# Stress axis : x y z
#
# Youngs Moduli (GPa) = 104.15316 45.85624 57.20356
#
# Poissons Ratio (x) = 0.20549 -0.07278
# Poissons Ratio (y) = 0.46674 0.35369
# Poissons Ratio (z) = -0.13251 0.28353
#
# Static dielectric constant tensor:
#      x y z
#    x 1.935230 0.000000 0.021680 
#    y 0.000000 1.905670 0.000000 
#    z 0.021680 0.000000 1.820880 
# 
# From -- ./inp_files/26138.got.cif
#   From: 2010.05.17/outbox.cif.g08.bks.cpg/sg12_14_cif.got.tgz:26138.got - 2010.06.03 13:09:07.
