data_PCOD9175636
_publ_section_title
;
Structure prediction by ZEFSAII (Michael W. Deem and Ramdas Pophale) SiO2 
 PCOD9175636
Probable space group: C 2/M
;
_chemical_formula_sum "Si O2"
_cell_formula_units_Z 52
_cell_length_a 21.867211
_cell_length_b 19.454226
_cell_length_c 5.530634
_cell_angle_alpha 90.000000
_cell_angle_beta 70.866283
_cell_angle_gamma 90.000000
_cell_volume 2222.808339
_symmetry_space_group_name_H-M "C 2/M"
_symmetry_group_IT_number 12
_symmetry_cell_setting 'monoclinic'
loop_
_space_group_symop_operation_xyz
x,y,z
-x,y,-z
-x,-y,-z
x,-y,z
1/2+x,1/2+y,z
1/2-x,1/2+y,-z
1/2-x,1/2-y,-z
1/2+x,1/2-y,z
loop_
_atom_site_type_symbol
_atom_site_label
_atom_site_fract_x
_atom_site_fract_y
_atom_site_fract_z
Si Si1 0.304060 0.082801 0.866269
Si Si2 0.506339 0.614365 0.242174
Si Si3 0.567363 0.077173 0.552940
Si Si4 0.234687 0.083286 0.450923
Si Si5 0.000000 0.327760 0.000000
Si Si6 0.872551 0.804858 0.430678
Si Si7 0.102546 0.233970 0.101420
O O1 0.377456 0.100824 0.702516
O O2 0.263343 0.101535 0.678400
O O3 0.301658 0.000000 0.881521
O O4 0.278838 0.104864 0.162281
O O5 0.500000 0.575789 0.500000
O O6 0.447986 0.671042 0.320937
O O7 0.573180 0.656376 0.152161
O O8 0.500000 0.576110 0.000000
O O9 0.500000 0.072828 0.500000
O O10 0.585244 0.000000 0.617249
O O11 0.552635 0.126385 0.793825
O O12 0.169272 0.126175 0.504700
O O13 0.226162 0.000000 0.454994
O O14 0.959064 0.282791 0.863164
O O15 0.863629 0.759755 0.683815
O O16 0.858109 0.765041 0.199759
#
# Coordination Sequence:
#
# PCOD9175636 Si02
#       7
#     8   8   8   8   4   8   8
#     4   9  20  39  60  87 122 156 198 244 301 362
#     4   8  14  26  45  71 103 142 189 232 286 326
#     4  10  24  41  64  96 127 152 184 251 317 364
#     4  10  20  36  63  89 115 163 212 247 291 360
#     4  12  23  36  64  94 119 154 210 236 298 384
#     4  10  18  33  55  85 119 153 208 247 293 346
#     4  10  20  33  56  86 116 160 202 248 295 346
#
# _framework density 23.393830000000001
#
# number of rings (size 3 to 8) (size 9 to 14) (size 15 to 20)
#    0.000    2.308    2.308    1.154    4.308    0.000 
#    0.000    0.000    0.000   13.846    0.000    0.000 
#    0.000    0.000    0.000    0.000    0.000    0.000 
#
# Total GULP energy -145123.441945 kJ/mol
# GULP energy per Si atom -5581.670844 kJ/mol
# Density = 2.334058 g / cm^3
# Si number density = 23.393830 Si / 1000 Ang^3
#
#
#
# Elastic Constant Matrix: (Units=GPa)
#
#
# Indices 1 2 3 4 5 6 
#
# 1 57.7765 17.3616 19.7068 0.0000 6.0372 0.0000
# 2 17.3616 75.2786 27.6600 0.0000 5.6041 0.0000
# 3 19.7068 27.6600 164.8874 0.0000 36.1672 0.0000
# 4 0.0000 0.0000 0.0000 19.2698 0.0000 17.9899
# 5 6.0372 5.6041 36.1672 0.0000 45.5881 0.0000
# 6 0.0000 0.0000 0.0000 17.9899 0.0000 16.4402
#
#
#
# Elastic Compliance Matrix: (Units=1/GPa)
#
#
# Indices 1 2 3 4 5 6 
#
# 1 0.019034 -0.003793 -0.001438 0.000000 -0.000913 0.000000
# 2 -0.003793 0.014914 -0.002127 0.000000 0.000356 0.000000
# 3 -0.001438 -0.002127 0.007862 0.000000 -0.005786 0.000000
# 4 0.000000 0.000000 0.000000 -2.404834 0.000000 2.631516
# 5 -0.000913 0.000356 -0.005786 0.000000 0.026603 0.000000
# 6 0.000000 0.000000 0.000000 2.631516 0.000000 -2.818739
#
#
# Mechanical properties :
#
#
# Convention : Reuss Voigt Hill
#
# Bulk Modulus (GPa) = 36.90868 47.48881 42.19874
# Shear Modulus (GPa) = -0.97439 31.80722 15.41642
#
# Velocity S-wave (km/s) = -0.64608 3.69133 2.56987
# Velocity P-wave (km/s) = 3.90574 6.20578 5.18491
#
# Compressibility (1/GPa) = 0.02709390
#
# Stress axis : x y z
#
# Youngs Moduli (GPa) = 52.53770 67.05238 127.18691
#
# Poissons Ratio (x) = 0.25436 0.18292
# Poissons Ratio (y) = 0.19930 0.27047
# Poissons Ratio (z) = 0.07556 0.14259
#
# Static dielectric constant tensor:
#      x y z
#    x 1.882430 0.000000 0.067220 
#    y 0.000000 1.860960 0.000000 
#    z 0.067220 0.000000 1.990140 
# 
# From -- ./inp_files/26007.got.cif
#   From: 2010.05.17/outbox.cif.g08.bks.cpg/sg12_14_cif.got.tgz:26007.got - 2010.06.03 13:09:07.
