data_PCOD9175506
_publ_section_title
;
Structure prediction by ZEFSAII (Michael W. Deem and Ramdas Pophale) SiO2 
 PCOD9175506
Probable space group: C 2/M
;
_chemical_formula_sum "Si O2"
_cell_formula_units_Z 60
_cell_length_a 16.522110
_cell_length_b 13.285432
_cell_length_c 23.875553
_cell_angle_alpha 90.000000
_cell_angle_beta 140.442474
_cell_angle_gamma 90.000000
_cell_volume 3337.594511
_symmetry_space_group_name_H-M "C 2/M"
_symmetry_group_IT_number 12
_symmetry_cell_setting 'monoclinic'
loop_
_space_group_symop_operation_xyz
x,y,z
-x,y,-z
-x,-y,-z
x,-y,z
1/2+x,1/2+y,z
1/2-x,1/2+y,-z
1/2-x,1/2-y,-z
1/2+x,1/2-y,z
loop_
_atom_site_type_symbol
_atom_site_label
_atom_site_fract_x
_atom_site_fract_y
_atom_site_fract_z
Si Si1 0.181909 0.108613 0.174573
Si Si2 0.500000 0.278365 0.500000
Si Si3 0.371863 0.695684 0.635672
Si Si4 0.800174 0.881949 0.475228
Si Si5 0.849698 0.729870 0.931614
Si Si6 0.112854 0.112375 0.955598
Si Si7 0.689702 0.115516 0.636757
Si Si8 0.611429 0.615651 0.822510
O O1 0.207139 0.200582 0.147750
O O2 0.233781 0.121017 0.264577
O O3 0.029881 0.104215 0.097238
O O4 0.227605 0.000000 0.176977
O O5 0.406996 0.345221 0.488127
O O6 0.581735 0.200304 0.580754
O O7 0.321142 0.809632 0.600463
O O8 0.351140 0.642174 0.564860
O O9 0.280233 0.643270 0.632888
O O10 0.513428 0.683388 0.735156
O O11 0.773447 0.000000 0.455223
O O12 0.758301 0.634595 0.886110
O O13 0.831641 0.797033 0.978201
O O14 0.000000 0.710773 0.000000
O O15 0.101579 0.134384 0.883820
O O16 0.172023 0.000000 0.993703
O O17 0.644236 0.000000 0.606400
O O18 0.574212 0.500000 0.792581
#
# Coordination Sequence:
#
# PCOD9175506 Si02
#       8
#     8   4   8   8   8   8   8   8
#     4   9  17  31  53  77 105 136 175 225 275 317
#     4  10  22  32  54  82 114 148 178 212 272 332
#     4  10  21  37  60  82 104 143 190 228 267 318
#     4  10  21  39  59  81 113 147 179 220 271 328
#     4  10  21  34  52  78 112 144 175 220 277 331
#     4   9  17  33  56  79 101 135 179 223 273 319
#     4  10  18  33  53  80 111 141 183 231 270 310
#     4  11  21  35  57  80 106 143 187 227 264 321
#
# _framework density 17.977018999999999
#
# number of rings (size 3 to 8) (size 9 to 14) (size 15 to 20)
#    0.000    2.133    1.333    2.400    1.867    1.867 
#    0.000    2.000    0.000    0.800    0.000    0.000 
#    0.000    0.000    0.000    0.000    0.000    0.000 
#
# Total GULP energy -167204.770225 kJ/mol
# GULP energy per Si atom -5573.492341 kJ/mol
# Density = 1.793610 g / cm^3
# Si number density = 17.977019 Si / 1000 Ang^3
#
#
#
# Elastic Constant Matrix: (Units=GPa)
#
#
# Indices 1 2 3 4 5 6 
#
# 1 45.0413 32.4931 28.9683 0.0000 -2.2077 0.0000
# 2 32.4931 103.3960 37.5531 0.0000 -1.4314 0.0000
# 3 28.9683 37.5531 63.1078 0.0000 -7.5135 0.0000
# 4 0.0000 0.0000 0.0000 23.6112 0.0000 -1.6511
# 5 -2.2077 -1.4314 -7.5135 0.0000 23.9340 0.0000
# 6 0.0000 0.0000 0.0000 -1.6511 0.0000 17.6525
#
#
#
# Elastic Compliance Matrix: (Units=1/GPa)
#
#
# Indices 1 2 3 4 5 6 
#
# 1 0.034658 -0.006485 -0.012170 0.000000 -0.001012 0.000000
# 2 -0.006485 0.013613 -0.005296 0.000000 -0.001447 0.000000
# 3 -0.012170 -0.005296 0.025360 0.000000 0.006522 0.000000
# 4 0.000000 0.000000 0.000000 0.042632 0.000000 0.003988
# 5 -0.001012 -0.001447 0.006522 0.000000 0.043649 0.000000
# 6 0.000000 0.000000 0.000000 0.003988 0.000000 0.057022
#
#
# Mechanical properties :
#
#
# Convention : Reuss Voigt Hill
#
# Bulk Modulus (GPa) = 38.86760 45.50824 42.18792
# Shear Modulus (GPa) = 18.28729 20.54159 19.41444
#
# Velocity S-wave (km/s) = 3.19291 3.38399 3.28984
# Velocity P-wave (km/s) = 5.93806 6.37481 6.16030
#
# Compressibility (1/GPa) = 0.02572837
#
# Stress axis : x y z
#
# Youngs Moduli (GPa) = 28.85318 73.45879 39.43166
#
# Poissons Ratio (x) = 0.47641 0.47990
# Poissons Ratio (y) = 0.18712 0.20883
# Poissons Ratio (z) = 0.35115 0.38903
#
# Static dielectric constant tensor:
#      x y z
#    x 1.611560 0.000000 0.009030 
#    y 0.000000 1.629820 0.000000 
#    z 0.009030 0.000000 1.609100 
# 
# From -- ./inp_files/343392.got.cif
#   From: 2010.05.17/outbox.cif.g08.bks.cpg/sg12_172_cif.got.tgz:343392.got - 2010.06.03 13:09:07.
