data_PCOD9175878
_publ_section_title
;
Structure prediction by ZEFSAII (Michael W. Deem and Ramdas Pophale) SiO2 
 PCOD9175878
Probable space group: C 2/M
;
_chemical_formula_sum "Si O2"
_cell_formula_units_Z 56
_cell_length_a 29.239594
_cell_length_b 14.424661
_cell_length_c 11.861468
_cell_angle_alpha 90.000000
_cell_angle_beta 143.352025
_cell_angle_gamma 90.000000
_cell_volume 2986.171220
_symmetry_space_group_name_H-M "C 2/M"
_symmetry_group_IT_number 12
_symmetry_cell_setting 'monoclinic'
loop_
_space_group_symop_operation_xyz
x,y,z
-x,y,-z
-x,-y,-z
x,-y,z
1/2+x,1/2+y,z
1/2-x,1/2+y,-z
1/2-x,1/2-y,-z
1/2+x,1/2-y,z
loop_
_atom_site_type_symbol
_atom_site_label
_atom_site_fract_x
_atom_site_fract_y
_atom_site_fract_z
Si Si1 0.241030 0.110841 0.024049
Si Si2 0.982199 0.111271 0.593983
Si Si3 0.972267 0.608684 0.316253
Si Si4 0.121986 0.781167 0.943419
Si Si5 0.637302 0.890667 0.547882
Si Si6 0.690837 0.609909 0.682937
Si Si7 0.245501 0.741721 0.624171
O O1 0.174812 0.168034 0.954903
O O2 0.240217 0.134976 0.891222
O O3 0.223820 0.000000 0.997377
O O4 0.318751 0.127932 0.246474
O O5 0.896252 0.136833 0.458465
O O6 0.000000 0.139878 0.500000
O O7 0.044835 0.158400 0.796553
O O8 0.988627 0.000000 0.611023
O O9 0.949911 0.500000 0.261774
O O10 0.906808 0.679810 0.150831
O O11 0.000000 0.622630 0.500000
O O12 0.047651 0.626930 0.388882
O O13 0.173013 0.781475 0.156712
O O14 0.682534 0.832053 0.544353
O O15 0.646656 0.000000 0.543583
O O16 0.693641 0.500000 0.673525
O O17 0.719888 0.662935 0.632169
O O18 0.250000 0.750000 0.500000
#
# Coordination Sequence:
#
# PCOD9175878 Si02
#       7
#     8   8   8   8   8   8   8
#     4   9  18  33  57  91 117 144 180 228 296 359
#     4  10  18  33  58  93 125 142 168 222 299 372
#     4  10  22  36  54  88 125 152 181 224 285 356
#     4  11  21  34  60  84 117 153 184 235 287 343
#     4   9  20  39  61  82 116 153 189 236 287 342
#     4  10  21  37  59  85 119 150 184 234 288 345
#     4  11  26  42  57  80 111 156 210 246 273 318
#
# _framework density 18.753111000000001
#
# number of rings (size 3 to 8) (size 9 to 14) (size 15 to 20)
#    0.000    2.000    1.429    1.714    4.000    2.857 
#    0.000    2.857    0.000    3.429    0.000    0.000 
#    0.000    0.000    0.000    0.000    0.000    0.000 
#
# Total GULP energy -156501.938145 kJ/mol
# GULP energy per Si atom -5589.354934 kJ/mol
# Density = 1.871043 g / cm^3
# Si number density = 18.753111 Si / 1000 Ang^3
#
#
#
# Elastic Constant Matrix: (Units=GPa)
#
#
# Indices 1 2 3 4 5 6 
#
# 1 119.0763 44.4739 69.3620 0.0000 -20.3633 0.0000
# 2 44.4739 65.0753 40.9464 0.0000 -0.7151 0.0000
# 3 69.3620 40.9464 96.6996 0.0000 -1.8677 0.0000
# 4 0.0000 0.0000 0.0000 23.3245 0.0000 13.6525
# 5 -20.3633 -0.7151 -1.8677 0.0000 32.6230 0.0000
# 6 0.0000 0.0000 0.0000 13.6525 0.0000 20.9482
#
#
#
# Elastic Compliance Matrix: (Units=1/GPa)
#
#
# Indices 1 2 3 4 5 6 
#
# 1 0.018723 -0.005941 -0.010703 0.000000 0.010944 0.000000
# 2 -0.005941 0.022833 -0.005475 0.000000 -0.003521 0.000000
# 3 -0.010703 -0.005475 0.020228 0.000000 -0.005643 0.000000
# 4 0.000000 0.000000 0.000000 0.069315 0.000000 -0.045175
# 5 0.010944 -0.003521 -0.005643 0.000000 0.037084 0.000000
# 6 0.000000 0.000000 0.000000 -0.045175 0.000000 0.077179
#
#
# Mechanical properties :
#
#
# Convention : Reuss Voigt Hill
#
# Bulk Modulus (GPa) = 56.99243 65.60174 61.29708
# Shear Modulus (GPa) = 16.92346 23.78372 20.35359
#
# Velocity S-wave (km/s) = 3.00731 3.56512 3.29803
# Velocity P-wave (km/s) = 6.52039 7.21141 6.87459
#
# Compressibility (1/GPa) = 0.01754619
#
# Stress axis : x y z
#
# Youngs Moduli (GPa) = 53.41122 43.79559 49.43733
#
# Poissons Ratio (x) = 0.26019 0.52911
# Poissons Ratio (y) = 0.31731 0.27068
# Poissons Ratio (z) = 0.57164 0.23979
#
# Static dielectric constant tensor:
#      x y z
#    x 1.617320 0.000000 0.032870 
#    y 0.000000 1.688740 0.000000 
#    z 0.032870 0.000000 1.651410 
# 
# From -- ./inp_files/183557.got.cif
#   From: 2010.05.17/outbox.cif.g08.bks.cpg/sg12_92_cif.got.tgz:183557.got - 2010.06.03 13:09:07.
