data_PCOD9175545
_publ_section_title
;
Structure prediction by ZEFSAII (Michael W. Deem and Ramdas Pophale) SiO2 
 PCOD9175545
Probable space group: C 2/M
;
_chemical_formula_sum "Si O2"
_cell_formula_units_Z 56
_cell_length_a 17.257990
_cell_length_b 17.505537
_cell_length_c 9.694131
_cell_angle_alpha 90.000000
_cell_angle_beta 67.184891
_cell_angle_gamma 90.000000
_cell_volume 2699.559049
_symmetry_space_group_name_H-M "C 2/M"
_symmetry_group_IT_number 12
_symmetry_cell_setting 'monoclinic'
loop_
_space_group_symop_operation_xyz
x,y,z
-x,y,-z
-x,-y,-z
x,-y,z
1/2+x,1/2+y,z
1/2-x,1/2+y,-z
1/2-x,1/2-y,-z
1/2+x,1/2-y,z
loop_
_atom_site_type_symbol
_atom_site_label
_atom_site_fract_x
_atom_site_fract_y
_atom_site_fract_z
Si Si1 0.957343 0.586430 0.679930
Si Si2 0.406160 0.590170 0.305581
Si Si3 0.869951 0.793983 0.076242
Si Si4 0.262637 0.841619 0.488917
Si Si5 0.176074 0.697360 0.271183
Si Si6 0.040534 0.200800 0.274976
Si Si7 0.924895 0.331841 0.227072
O O1 0.929913 0.500000 0.681749
O O2 0.880053 0.640054 0.778018
O O3 0.000000 0.607989 0.500000
O O4 0.021375 0.596318 0.762972
O O5 0.411712 0.500000 0.275925
O O6 0.395033 0.640273 0.170949
O O7 0.322537 0.611872 0.448675
O O8 0.486696 0.624505 0.329292
O O9 0.768861 0.784819 0.152209
O O10 0.913517 0.715321 0.095219
O O11 0.905761 0.810630 0.901934
O O12 0.250000 0.750000 0.500000
O O13 0.309671 0.851771 0.601153
O O14 0.329627 0.855189 0.326146
O O15 0.111469 0.768632 0.332001
O O16 0.969173 0.266582 0.296297
#
# Coordination Sequence:
#
# PCOD9175545 Si02
#       7
#     8   8   8   8   8   8   8
#     4  10  20  31  48  78 111 136 167 218 276 321
#     4  10  21  34  54  83 111 140 176 219 269 321
#     4  10  20  35  56  81 105 141 185 220 261 308
#     4  11  18  34  54  82 106 137 177 220 270 312
#     4  10  20  32  55  79 108 135 179 224 271 309
#     4  10  20  34  54  80 109 142 179 220 262 315
#     4  10  18  33  54  77 104 138 178 220 263 313
#
# _framework density 20.744129000000001
#
# number of rings (size 3 to 8) (size 9 to 14) (size 15 to 20)
#    0.000    1.857    5.714    2.143    0.000    4.000 
#    0.000    0.000    0.000    9.429    0.000    0.000 
#    0.000    0.000    0.000    0.000    0.000    0.000 
#
# Total GULP energy -155868.097164 kJ/mol
# GULP energy per Si atom -5566.717756 kJ/mol
# Density = 2.069691 g / cm^3
# Si number density = 20.744129 Si / 1000 Ang^3
#
#
#
# Elastic Constant Matrix: (Units=GPa)
#
#
# Indices 1 2 3 4 5 6 
#
# 1 108.4425 39.0474 31.8003 0.0000 -31.1232 0.0000
# 2 39.0474 76.7710 13.8485 0.0000 -2.7679 0.0000
# 3 31.8003 13.8485 55.3591 0.0000 -19.6202 0.0000
# 4 0.0000 0.0000 0.0000 7.4983 0.0000 1.4784
# 5 -31.1232 -2.7679 -19.6202 0.0000 22.2936 0.0000
# 6 0.0000 0.0000 0.0000 1.4784 0.0000 18.2602
#
#
#
# Elastic Compliance Matrix: (Units=1/GPa)
#
#
# Indices 1 2 3 4 5 6 
#
# 1 0.020502 -0.009509 0.000476 0.000000 0.027860 0.000000
# 2 -0.009509 0.018107 -0.004324 0.000000 -0.014833 0.000000
# 3 0.000476 -0.004324 0.027493 0.000000 0.024323 0.000000
# 4 0.000000 0.000000 0.000000 0.135527 0.000000 -0.010972
# 5 0.027860 -0.014833 0.024323 0.000000 0.103314 0.000000
# 6 0.000000 0.000000 0.000000 -0.010972 0.000000 0.055652
#
#
# Mechanical properties :
#
#
# Convention : Reuss Voigt Hill
#
# Bulk Modulus (GPa) = 25.38920 45.55166 35.47043
# Shear Modulus (GPa) = 12.48625 20.00217 16.24421
#
# Velocity S-wave (km/s) = 2.45606 3.10858 2.80138
# Velocity P-wave (km/s) = 4.50653 5.90685 5.25355
#
# Compressibility (1/GPa) = 0.03938683
#
# Stress axis : x y z
#
# Youngs Moduli (GPa) = 48.77652 55.22574 36.37305
#
# Poissons Ratio (x) = 0.52514 -0.01730
# Poissons Ratio (y) = 0.46381 0.15729
# Poissons Ratio (z) = -0.02320 0.23882
#
# Static dielectric constant tensor:
#      x y z
#    x 1.075950 0.000000 -0.459830 
#    y 0.000000 1.798090 0.000000 
#    z -0.459830 0.000000 1.510880 
# 
# From -- ./inp_files/157717.got.cif
#   From: 2010.05.17/outbox.cif.g08.bks.cpg/sg12_79_cif.got.tgz:157717.got - 2010.06.03 13:09:07.
