data_PCOD9175442
_publ_section_title
;
Structure prediction by ZEFSAII (Michael W. Deem and Ramdas Pophale) SiO2 
 PCOD9175442
Probable space group: C 2/M
;
_chemical_formula_sum "Si O2"
_cell_formula_units_Z 56
_cell_length_a 28.956644
_cell_length_b 20.439605
_cell_length_c 5.436349
_cell_angle_alpha 90.000000
_cell_angle_beta 67.945968
_cell_angle_gamma 90.000000
_cell_volume 2982.141316
_symmetry_space_group_name_H-M "C 2/M"
_symmetry_group_IT_number 12
_symmetry_cell_setting 'monoclinic'
loop_
_space_group_symop_operation_xyz
x,y,z
-x,y,-z
-x,-y,-z
x,-y,z
1/2+x,1/2+y,z
1/2-x,1/2+y,-z
1/2-x,1/2-y,-z
1/2+x,1/2-y,z
loop_
_atom_site_type_symbol
_atom_site_label
_atom_site_fract_x
_atom_site_fract_y
_atom_site_fract_z
Si Si1 0.060482 0.692233 0.129037
Si Si2 0.855640 0.923703 0.538689
Si Si3 0.867813 0.578575 0.014366
Si Si4 0.694332 0.419578 0.861367
Si Si5 0.972141 0.897924 0.305717
Si Si6 0.950592 0.744673 0.348816
Si Si7 0.690486 0.079110 0.369036
O O1 0.077481 0.728391 0.343919
O O2 0.000553 0.700004 0.248894
O O3 0.081156 0.619231 0.087689
O O4 0.077481 0.728391 0.846156
O O5 0.833138 0.896165 0.331080
O O6 0.915109 0.919895 0.419776
O O7 0.841162 0.000000 0.567639
O O8 0.833132 0.896164 0.836303
O O9 0.874986 0.500000 0.000023
O O10 0.837734 0.597145 0.322528
O O11 0.837737 0.597144 0.826507
O O12 0.692436 0.500000 0.865164
O O13 0.752070 0.399614 0.745865
O O14 0.969454 0.818837 0.311092
O O15 0.000000 0.918676 0.500000
O O16 0.000000 0.918676 0.000000
O O17 0.691602 0.000000 0.366807
#
# Coordination Sequence:
#
# PCOD9175442 Si02
#       7
#     8   8   8   8   8   8   8
#     4  10  18  33  52  71 101 130 169 221 241 298
#     4  10  21  33  51  80 108 136 165 201 258 307
#     4  10  19  30  48  81 108 130 164 207 262 303
#     4   9  17  33  51  73 106 140 171 197 238 310
#     4  12  21  36  55  76 104 129 175 219 246 293
#     4  10  19  35  51  71  93 131 184 214 241 287
#     4   9  17  30  50  74 106 138 166 203 244 300
#
# _framework density 18.778454
#
# number of rings (size 3 to 8) (size 9 to 14) (size 15 to 20)
#    0.000    2.000    2.857    2.571    0.000    4.000 
#    0.000    2.857    0.000    0.000    0.000   20.000 
#    0.000    0.000    0.000    0.000    0.000    0.000 
#
# Total GULP energy -156042.096829 kJ/mol
# GULP energy per Si atom -5572.932030 kJ/mol
# Density = 1.873571 g / cm^3
# Si number density = 18.778454 Si / 1000 Ang^3
#
#
#
# Elastic Constant Matrix: (Units=GPa)
#
#
# Indices 1 2 3 4 5 6 
#
# 1 75.7125 20.5748 53.9920 0.0000 20.1814 0.0000
# 2 20.5748 24.8170 27.9443 0.0000 5.6239 0.0000
# 3 53.9920 27.9443 153.8133 0.0000 39.4061 0.0000
# 4 0.0000 0.0000 0.0000 -6.9294 0.0000 1.5379
# 5 20.1814 5.6239 39.4061 0.0000 38.7516 0.0000
# 6 0.0000 0.0000 0.0000 1.5379 0.0000 -8.9454
#
#
#
# Elastic Compliance Matrix: (Units=1/GPa)
#
#
# Indices 1 2 3 4 5 6 
#
# 1 0.020375 -0.011511 -0.003746 0.000000 -0.005131 0.000000
# 2 -0.011511 0.057373 -0.007824 0.000000 0.005624 0.000000
# 3 -0.003746 -0.007824 0.011423 0.000000 -0.008529 0.000000
# 4 0.000000 0.000000 0.000000 -0.150038 0.000000 -0.025795
# 5 -0.005131 0.005624 -0.008529 0.000000 0.036335 0.000000
# 6 0.000000 0.000000 0.000000 -0.025795 0.000000 -0.116224
#
#
# Mechanical properties :
#
#
# Convention : Reuss Voigt Hill
#
# Bulk Modulus (GPa) = 23.25073 51.04057 37.14565
# Shear Modulus (GPa) = -62.30022 14.69748 -23.80137
#
# Velocity S-wave (km/s) = -5.76615 2.80067 -3.56404
# Velocity P-wave (km/s) = 5.65003 6.13985 1.69926
#
# Compressibility (1/GPa) = 0.04300940
#
# Stress axis : x y z
#
# Youngs Moduli (GPa) = 49.07907 17.42967 87.54258
#
# Poissons Ratio (x) = 0.20064 0.32796
# Poissons Ratio (y) = 0.56496 0.68490
# Poissons Ratio (z) = 0.18387 0.13636
#
# Static dielectric constant tensor:
#      x y z
#    x 1.630180 0.000000 0.011700 
#    y 0.000000 1.643540 0.000000 
#    z 0.011700 0.000000 1.645530 
# 
# From -- ./inp_files/29134.got.cif
#   From: 2010.05.17/outbox.cif.g08.bks.cpg/sg12_15_cif.got.tgz:29134.got - 2010.06.03 13:09:07.
