data_PCOD9175489
_publ_section_title
;
Structure prediction by ZEFSAII (Michael W. Deem and Ramdas Pophale) SiO2 
 PCOD9175489
Probable space group: C 2/M
;
_chemical_formula_sum "Si O2"
_cell_formula_units_Z 56
_cell_length_a 26.474191
_cell_length_b 17.275300
_cell_length_c 8.968021
_cell_angle_alpha 90.000000
_cell_angle_beta 132.154871
_cell_angle_gamma 90.000000
_cell_volume 3040.594510
_symmetry_space_group_name_H-M "C 2/M"
_symmetry_group_IT_number 12
_symmetry_cell_setting 'monoclinic'
loop_
_space_group_symop_operation_xyz
x,y,z
-x,y,-z
-x,-y,-z
x,-y,z
1/2+x,1/2+y,z
1/2-x,1/2+y,-z
1/2-x,1/2-y,-z
1/2+x,1/2-y,z
loop_
_atom_site_type_symbol
_atom_site_label
_atom_site_fract_x
_atom_site_fract_y
_atom_site_fract_z
Si Si1 0.764589 0.791709 0.869853
Si Si2 0.564134 0.818361 0.520321
Si Si3 0.360102 0.284150 0.543711
Si Si4 0.978835 0.413133 0.130561
Si Si5 0.640851 0.795567 0.151417
Si Si6 0.805982 0.587947 0.117523
Si Si7 0.244303 0.910853 0.661131
O O1 0.705798 0.764603 0.640994
O O2 0.832458 0.762021 0.924848
O O3 0.751848 0.880690 0.883898
O O4 0.750000 0.750000 0.000000
O O5 0.500000 0.805992 0.500000
O O6 0.585242 0.741014 0.472185
O O7 0.540471 0.881719 0.351548
O O8 0.628963 0.856305 0.731559
O O9 0.380420 0.253304 0.746171
O O10 0.329916 0.370740 0.488489
O O11 0.957815 0.500000 0.135675
O O12 0.918605 0.351320 0.022160
O O13 0.000000 0.415828 0.000000
O O14 0.702945 0.854026 0.318441
O O15 0.825762 0.500000 0.186702
O O16 0.774020 0.591981 0.888966
O O17 0.244821 0.000000 0.613086
#
# Coordination Sequence:
#
# PCOD9175489 Si02
#       7
#     8   8   8   8   8   8   8
#     4  10  18  33  53  76 102 139 181 217 264 313
#     4  11  23  36  55  78 109 147 187 218 255 319
#     4  10  21  36  51  79 107 140 181 224 265 316
#     4  11  23  38  53  79 114 147 182 216 260 320
#     4  11  20  36  55  76 111 145 179 217 260 323
#     4  10  20  34  53  83 115 139 175 227 268 310
#     4  10  19  33  57  81 105 139 178 223 277 319
#
# _framework density 18.417451
#
# number of rings (size 3 to 8) (size 9 to 14) (size 15 to 20)
#    0.000    1.571    4.286    3.429    2.000    2.286 
#    0.000    4.286    0.000    0.429    0.000    3.000 
#    0.000    0.000    0.000    0.000    0.000    0.000 
#
# Total GULP energy -156164.393122 kJ/mol
# GULP energy per Si atom -5577.299754 kJ/mol
# Density = 1.837553 g / cm^3
# Si number density = 18.417451 Si / 1000 Ang^3
#
#
#
# Elastic Constant Matrix: (Units=GPa)
#
#
# Indices 1 2 3 4 5 6 
#
# 1 77.4690 42.4635 12.5117 0.0000 -0.0426 0.0000
# 2 42.4635 69.7890 15.0241 0.0000 5.4868 0.0000
# 3 12.5117 15.0241 62.6629 0.0000 -1.2146 0.0000
# 4 0.0000 0.0000 0.0000 24.7023 0.0000 4.7949
# 5 -0.0426 5.4868 -1.2146 0.0000 22.0560 0.0000
# 6 0.0000 0.0000 0.0000 4.7949 0.0000 23.6347
#
#
#
# Elastic Compliance Matrix: (Units=1/GPa)
#
#
# Indices 1 2 3 4 5 6 
#
# 1 0.019627 -0.011961 -0.000994 0.000000 0.002959 0.000000
# 2 -0.011961 0.022752 -0.003180 0.000000 -0.005858 0.000000
# 3 -0.000994 -0.003180 0.016953 0.000000 0.001723 0.000000
# 4 0.000000 0.000000 0.000000 0.042142 0.000000 -0.008550
# 5 0.002959 -0.005858 0.001723 0.000000 0.046897 0.000000
# 6 0.000000 0.000000 0.000000 -0.008550 0.000000 0.044045
#
#
# Mechanical properties :
#
#
# Convention : Reuss Voigt Hill
#
# Bulk Modulus (GPa) = 36.95278 38.87994 37.91636
# Shear Modulus (GPa) = 21.39453 23.40669 22.40061
#
# Velocity S-wave (km/s) = 3.41199 3.56883 3.49129
# Velocity P-wave (km/s) = 5.96907 6.17562 6.07322
#
# Compressibility (1/GPa) = 0.02706156
#
# Stress axis : x y z
#
# Youngs Moduli (GPa) = 50.95150 43.95297 58.98746
#
# Poissons Ratio (x) = 0.52570 0.05862
# Poissons Ratio (y) = 0.60941 0.18760
# Poissons Ratio (z) = 0.05063 0.13979
#
# Static dielectric constant tensor:
#      x y z
#    x 1.698470 0.000000 -0.006840 
#    y 0.000000 1.667510 0.000000 
#    z -0.006840 0.000000 1.652580 
# 
# From -- ./inp_files/105622.got.cif
#   From: 2010.05.17/outbox.cif.g08.bks.cpg/sg12_53_cif.got.tgz:105622.got - 2010.06.03 13:09:07.
