data_PCOD9175608
_publ_section_title
;
Structure prediction by ZEFSAII (Michael W. Deem and Ramdas Pophale) SiO2 
 PCOD9175608
Probable space group: C 2/M
;
_chemical_formula_sum "Si O2"
_cell_formula_units_Z 52
_cell_length_a 17.097674
_cell_length_b 12.171764
_cell_length_c 17.317714
_cell_angle_alpha 90.000000
_cell_angle_beta 149.628654
_cell_angle_gamma 90.000000
_cell_volume 1822.175504
_symmetry_space_group_name_H-M "C 2/M"
_symmetry_group_IT_number 12
_symmetry_cell_setting 'monoclinic'
loop_
_space_group_symop_operation_xyz
x,y,z
-x,y,-z
-x,-y,-z
x,-y,z
1/2+x,1/2+y,z
1/2-x,1/2+y,-z
1/2-x,1/2-y,-z
1/2+x,1/2-y,z
loop_
_atom_site_type_symbol
_atom_site_label
_atom_site_fract_x
_atom_site_fract_y
_atom_site_fract_z
Si Si1 0.553902 0.385323 0.363793
Si Si2 0.622290 0.000000 0.362032
Si Si3 0.066536 0.874716 0.914277
Si Si4 0.770578 0.350408 0.312170
Si Si5 0.779727 0.385895 0.746740
Si Si6 0.875238 0.375508 0.007167
Si Si7 0.019098 0.350408 0.646281
O O1 0.485293 0.500000 0.335857
O O2 0.737627 0.405025 0.524599
O O3 0.500917 0.375606 0.229987
O O4 0.490917 0.278837 0.350671
O O5 0.497167 0.094346 0.284889
O O6 0.911524 0.867476 0.835444
O O7 0.154068 0.754874 0.996002
O O8 0.130225 0.000000 0.981321
O O9 0.807223 0.221969 0.347207
O O10 0.869047 0.390717 0.468897
O O11 0.839081 0.382672 0.287983
O O12 0.700038 0.500000 0.661950
O O13 0.938269 0.385620 0.832043
O O14 0.830150 0.379658 0.878557
O O15 0.826374 0.500000 0.996386
#
# Coordination Sequence:
#
# PCOD9175608 Si02
#       7
#     8   4   8   8   8   8   8
#     4   9  20  35  53  72 104 141 178 216 259 310
#     4  10  20  35  56  65 101 155 175 219 250 322
#     4  10  18  33  55  80 109 140 178 220 269 317
#     4  10  21  30  52  78 108 138 174 220 262 320
#     4   8  15  31  48  72 108 139 170 209 271 315
#     4   8  15  30  53  76 103 139 178 221 260 318
#     4  11  21  35  50  78 106 140 181 212 264 314
#
# _framework density 28.537317999999999
#
# number of rings (size 3 to 8) (size 9 to 14) (size 15 to 20)
#    0.462    2.154    1.538    1.385    1.077    1.846 
#    1.385    7.692    0.000    0.923    0.000    0.000 
#    0.000    0.000    0.000    0.000    0.000    0.000 
#
# Total GULP energy -144868.971880 kJ/mol
# GULP energy per Si atom -5571.883534 kJ/mol
# Density = 2.847237 g / cm^3
# Si number density = 28.537318 Si / 1000 Ang^3
#
#
#
# Elastic Constant Matrix: (Units=GPa)
#
#
# Indices 1 2 3 4 5 6 
#
# 1 136.6925 42.2468 37.3626 0.0001 20.1393 0.0000
# 2 42.2468 324.5475 32.5297 0.0002 -2.5482 0.0000
# 3 37.3626 32.5297 96.7421 0.0002 -8.9364 0.0001
# 4 0.0001 0.0002 0.0002 5.2822 0.0001 -13.7866
# 5 20.1393 -2.5482 -8.9364 0.0001 49.8076 0.0000
# 6 0.0000 0.0000 0.0001 -13.7866 0.0000 16.4740
#
#
#
# Elastic Compliance Matrix: (Units=1/GPa)
#
#
# Indices 1 2 3 4 5 6 
#
# 1 0.009248 -0.000869 -0.003690 0.000000 -0.004446 0.000000
# 2 -0.000869 0.003270 -0.000728 0.000000 0.000388 0.000000
# 3 -0.003690 -0.000728 0.012346 0.000001 0.003670 0.000000
# 4 0.000000 0.000000 0.000001 -0.159862 0.000001 -0.133784
# 5 -0.004446 0.000388 0.003670 0.000001 0.022553 0.000000
# 6 0.000000 0.000000 0.000000 -0.133784 0.000000 -0.051258
#
#
# Mechanical properties :
#
#
# Convention : Reuss Voigt Hill
#
# Bulk Modulus (GPa) = 69.98130 86.91781 78.44956
# Shear Modulus (GPa) = -33.70063 44.03562 5.16750
#
# Velocity S-wave (km/s) = -3.44020 3.93248 1.34711
# Velocity P-wave (km/s) = 2.96581 7.15143 5.47444
#
# Compressibility (1/GPa) = 0.01428953
#
# Stress axis : x y z
#
# Youngs Moduli (GPa) = 108.13288 305.77729 80.99918
#
# Poissons Ratio (x) = 0.26568 0.29890
# Poissons Ratio (y) = 0.09395 0.05899
# Poissons Ratio (z) = 0.39903 0.22269
#
# Static dielectric constant tensor:
#      x y z
#    x 2.290370 0.000000 -0.087520 
#    y 0.000000 2.284400 0.000000 
#    z -0.087520 0.000000 2.258300 
# 
# From -- ./inp_files/315804.got.cif
#   From: 2010.05.17/outbox.cif.g08.bks.cpg/sg12_158_cif.got.tgz:315804.got - 2010.06.03 13:09:07.
