data_PCOD9175819
_publ_section_title
;
Structure prediction by ZEFSAII (Michael W. Deem and Ramdas Pophale) SiO2 
 PCOD9175819
Probable space group: C 2/M
;
_chemical_formula_sum "Si O2"
_cell_formula_units_Z 64
_cell_length_a 15.165293
_cell_length_b 7.569485
_cell_length_c 22.502732
_cell_angle_alpha 90.000000
_cell_angle_beta 101.364755
_cell_angle_gamma 90.000000
_cell_volume 2532.517180
_symmetry_space_group_name_H-M "C 2/M"
_symmetry_group_IT_number 12
_symmetry_cell_setting 'monoclinic'
loop_
_space_group_symop_operation_xyz
x,y,z
-x,y,-z
-x,-y,-z
x,-y,z
1/2+x,1/2+y,z
1/2-x,1/2+y,-z
1/2-x,1/2-y,-z
1/2+x,1/2-y,z
loop_
_atom_site_type_symbol
_atom_site_label
_atom_site_fract_x
_atom_site_fract_y
_atom_site_fract_z
Si Si1 0.277109 0.783326 0.095328
Si Si2 0.598987 0.291212 0.129431
Si Si3 0.299671 0.211300 0.611496
Si Si4 0.124997 0.787469 0.645944
Si Si5 0.042127 0.211830 0.444239
Si Si6 0.434277 0.203118 0.040392
Si Si7 0.887216 0.290525 0.224582
Si Si8 0.591030 0.787331 0.259234
O O1 0.174035 0.729285 0.091926
O O2 0.339203 0.719877 0.048940
O O3 0.329278 0.723453 0.161887
O O4 0.277357 0.000000 0.093429
O O5 0.587589 0.500000 0.121103
O O6 0.502313 0.203842 0.105812
O O7 0.632320 0.257042 0.200568
O O8 0.198055 0.274355 0.607452
O O9 0.356106 0.249785 0.560202
O O10 0.355862 0.279189 0.676213
O O11 0.296137 0.000000 0.615440
O O12 0.154086 0.738448 0.715913
O O13 0.025793 0.721287 0.616094
O O14 0.121813 0.000000 0.643772
O O15 0.000000 0.278392 0.500000
O O16 0.036492 0.000000 0.445586
O O17 0.418677 0.000000 0.021148
O O18 0.500000 0.288362 0.000000
O O19 0.894105 0.500000 0.216249
O O20 0.988670 0.217965 0.242588
O O21 0.588370 0.000000 0.263507
#
# Coordination Sequence:
#
# PCOD9175819 Si02
#       8
#     8   8   8   8   8   8   8   8
#     4   9  19  36  55  80 112 144 177 219 272 328
#     4  11  22  35  56  84 114 143 177 226 276 320
#     4  10  21  37  57  83 111 142 180 229 277 320
#     4  10  21  36  55  81 113 141 177 229 277 324
#     4  10  22  39  56  77 109 148 187 229 277 330
#     4  10  21  40  62  79 105 150 193 226 270 327
#     4  10  18  33  58  81 109 145 179 218 268 330
#     4  10  19  34  57  82 112 144 178 219 269 333
#
# _framework density 25.2713
#
# number of rings (size 3 to 8) (size 9 to 14) (size 15 to 20)
#    0.000    2.000    2.500    1.125    0.000    3.000 
#    0.000    1.875    0.000    0.000    0.000    0.000 
#    0.000    0.000    0.000    0.000    0.000    0.000 
#
# Total GULP energy -178928.763927 kJ/mol
# GULP energy per Si atom -5591.523873 kJ/mol
# Density = 2.521378 g / cm^3
# Si number density = 25.271300 Si / 1000 Ang^3
#
#
#
# Elastic Constant Matrix: (Units=GPa)
#
#
# Indices 1 2 3 4 5 6 
#
# 1 134.3317 1.4203 12.7724 0.0000 -36.4263 0.0000
# 2 1.4203 67.6732 -8.9316 0.0000 5.2229 0.0000
# 3 12.7724 -8.9316 70.5168 0.0000 -34.0701 0.0000
# 4 0.0000 0.0000 0.0000 20.2397 0.0000 -6.3541
# 5 -36.4263 5.2229 -34.0701 0.0000 46.2482 0.0000
# 6 0.0000 0.0000 0.0000 -6.3541 0.0000 7.2107
#
#
#
# Elastic Compliance Matrix: (Units=1/GPa)
#
#
# Indices 1 2 3 4 5 6 
#
# 1 0.009896 -0.000589 0.002998 0.000000 0.010069 0.000000
# 2 -0.000589 0.015069 0.001504 0.000000 -0.001058 0.000000
# 3 0.002998 0.001504 0.023114 0.000000 0.019219 0.000000
# 4 0.000000 0.000000 0.000000 0.068303 0.000000 0.060189
# 5 0.010069 -0.001058 0.019219 0.000000 0.043831 0.000000
# 6 0.000000 0.000000 0.000000 0.060189 0.000000 0.191721
#
#
# Mechanical properties :
#
#
# Convention : Reuss Voigt Hill
#
# Bulk Modulus (GPa) = 17.88710 31.44931 24.66820
# Shear Modulus (GPa) = 13.78382 32.55710 23.17046
#
# Velocity S-wave (km/s) = 2.33799 3.59319 3.03127
# Velocity P-wave (km/s) = 3.79231 5.44852 4.69404
#
# Compressibility (1/GPa) = 0.05590622
#
# Stress axis : x y z
#
# Youngs Moduli (GPa) = 101.05170 66.35946 43.26324
#
# Poissons Ratio (x) = 0.03910 -0.12970
# Poissons Ratio (y) = 0.05953 -0.06509
# Poissons Ratio (z) = -0.30295 -0.09983
#
# Static dielectric constant tensor:
#      x y z
#    x 2.013390 0.000000 -0.011440 
#    y 0.000000 1.925550 0.000000 
#    z -0.011440 0.000000 2.043790 
# 
# From -- ./inp_files/338858.got.cif
#   From: 2010.05.17/outbox.cif.g08.bks.cpg/sg12_170_cif.got.tgz:338858.got - 2010.06.03 13:09:07.
