data_PCOD9175890
_publ_section_title
;
Structure prediction by ZEFSAII (Michael W. Deem and Ramdas Pophale) SiO2 
 PCOD9175890
Probable space group: C 2/M
;
_chemical_formula_sum "Si O2"
_cell_formula_units_Z 64
_cell_length_a 16.028253
_cell_length_b 7.632130
_cell_length_c 33.845204
_cell_angle_alpha 90.000000
_cell_angle_beta 134.291555
_cell_angle_gamma 90.000000
_cell_volume 2963.590198
_symmetry_space_group_name_H-M "C 2/M"
_symmetry_group_IT_number 12
_symmetry_cell_setting 'monoclinic'
loop_
_space_group_symop_operation_xyz
x,y,z
-x,y,-z
-x,-y,-z
x,-y,z
1/2+x,1/2+y,z
1/2-x,1/2+y,-z
1/2-x,1/2-y,-z
1/2+x,1/2-y,z
loop_
_atom_site_type_symbol
_atom_site_label
_atom_site_fract_x
_atom_site_fract_y
_atom_site_fract_z
Si Si1 0.849769 0.208758 0.064360
Si Si2 0.965188 0.784931 0.364337
Si Si3 0.076094 0.796357 0.560544
Si Si4 0.697834 0.792869 0.861369
Si Si5 0.101264 0.796641 0.123671
Si Si6 0.043806 0.287366 0.254137
Si Si7 0.665340 0.702963 0.375209
Si Si8 0.226116 0.712004 0.245478
O O1 0.817975 0.274640 0.097295
O O2 0.974956 0.281512 0.091537
O O3 0.860410 0.000000 0.071672
O O4 0.750000 0.250000 0.000000
O O5 0.944523 0.723495 0.402329
O O6 0.855184 0.731536 0.301012
O O7 0.086585 0.727329 0.385063
O O8 0.964211 0.000000 0.363629
O O9 0.211654 0.790065 0.593777
O O10 0.000000 0.716751 0.500000
O O11 0.040685 0.000000 0.552104
O O12 0.818141 0.718178 0.884046
O O13 0.583186 0.723192 0.801251
O O14 0.699636 0.000000 0.852953
O O15 0.178654 0.786577 0.188908
O O16 0.078803 0.000000 0.105970
O O17 0.043519 0.500000 0.256340
O O18 0.085863 0.217258 0.309887
O O19 0.136924 0.239796 0.251055
O O20 0.691306 0.500000 0.391746
O O21 0.225055 0.500000 0.241788
#
# Coordination Sequence:
#
# PCOD9175890 Si02
#       8
#     8   8   8   8   8   8   8   8
#     4  11  24  41  60  83 113 151 193 239 284 336
#     4   9  19  36  55  81 115 148 182 224 281 336
#     4  10  21  40  62  79 105 150 196 234 279 340
#     4  10  21  39  61  86 116 150 185 231 283 333
#     4  10  22  38  58  86 118 146 182 233 286 334
#     4  10  19  34  59  86 115 150 186 223 272 340
#     4  11  22  35  56  84 116 148 181 232 284 329
#     4  10  18  33  59  84 113 150 184 224 274 336
#
# _framework density 21.595427000000001
#
# number of rings (size 3 to 8) (size 9 to 14) (size 15 to 20)
#    0.000    1.875    2.500    1.500    0.000    3.250 
#    0.000    4.375    0.000    0.000    0.000    0.000 
#    0.000    0.000    0.000    0.000    0.000    0.000 
#
# Total GULP energy -178804.591133 kJ/mol
# GULP energy per Si atom -5587.643473 kJ/mol
# Density = 2.154627 g / cm^3
# Si number density = 21.595427 Si / 1000 Ang^3
#
#
#
# Elastic Constant Matrix: (Units=GPa)
#
#
# Indices 1 2 3 4 5 6 
#
# 1 180.0307 -6.4500 58.1507 0.0000 4.8539 0.0000
# 2 -6.4500 37.1669 -20.4459 0.0000 -0.2830 0.0000
# 3 58.1507 -20.4459 122.5197 0.0000 9.6088 0.0000
# 4 0.0000 0.0000 0.0000 4.6084 0.0000 -1.8847
# 5 4.8539 -0.2830 9.6088 0.0000 -3.7017 0.0000
# 6 0.0000 0.0000 0.0000 -1.8847 0.0000 5.4957
#
#
#
# Elastic Compliance Matrix: (Units=1/GPa)
#
#
# Indices 1 2 3 4 5 6 
#
# 1 0.006574 -0.000643 -0.003246 0.000000 0.000242 0.000000
# 2 -0.000643 0.029349 0.004524 0.000000 0.008657 0.000000
# 3 -0.003246 0.004524 0.008989 0.000000 0.018730 0.000000
# 4 0.000000 0.000000 0.000000 0.252395 0.000001 0.086556
# 5 0.000242 0.008657 0.018730 0.000001 -0.221873 -0.000001
# 6 0.000000 0.000000 0.000000 0.086556 -0.000001 0.211642
#
#
# Mechanical properties :
#
#
# Convention : Reuss Voigt Hill
#
# Bulk Modulus (GPa) = 21.65438 44.69188 33.17313
# Shear Modulus (GPa) = 16.60028 21.84466 19.22247
#
# Velocity S-wave (km/s) = 2.77554 3.18392 2.98672
# Velocity P-wave (km/s) = 4.50783 5.85290 5.22384
#
# Compressibility (1/GPa) = 0.04618004
#
# Stress axis : x y z
#
# Youngs Moduli (GPa) = 152.12344 34.07309 111.25051
#
# Poissons Ratio (x) = 0.02192 0.36115
# Poissons Ratio (y) = 0.09785 -0.50330
# Poissons Ratio (z) = 0.49384 -0.15415
#
# Static dielectric constant tensor:
#      x y z
#    x 1.794480 0.000000 0.014310 
#    y 0.000000 1.810620 0.000000 
#    z 0.014310 0.000000 1.731530 
# 
# From -- ./inp_files/375628.got.cif
#   From: 2010.05.17/outbox.cif.g08.bks.cpg/sg12_188_cif.got.tgz:375628.got - 2010.06.03 13:09:07.
