data_PCOD9175435
_publ_section_title
;
Structure prediction by ZEFSAII (Michael W. Deem and Ramdas Pophale) SiO2 
 PCOD9175435
Probable space group: C 2/M
;
_chemical_formula_sum "Si O2"
_cell_formula_units_Z 60
_cell_length_a 22.194122
_cell_length_b 16.342294
_cell_length_c 9.840384
_cell_angle_alpha 90.000000
_cell_angle_beta 47.859492
_cell_angle_gamma 90.000000
_cell_volume 2646.519907
_symmetry_space_group_name_H-M "C 2/M"
_symmetry_group_IT_number 12
_symmetry_cell_setting 'monoclinic'
loop_
_space_group_symop_operation_xyz
x,y,z
-x,y,-z
-x,-y,-z
x,-y,z
1/2+x,1/2+y,z
1/2-x,1/2+y,-z
1/2-x,1/2-y,-z
1/2+x,1/2-y,z
loop_
_atom_site_type_symbol
_atom_site_label
_atom_site_fract_x
_atom_site_fract_y
_atom_site_fract_z
Si Si1 0.844730 0.000000 0.448143
Si Si2 0.311877 0.092184 0.928002
Si Si3 0.068770 0.146141 0.783581
Si Si4 0.858652 0.706072 0.457506
Si Si5 0.732504 0.402935 0.760821
Si Si6 0.830871 0.856731 0.694722
Si Si7 0.022823 0.664738 0.307662
Si Si8 0.577851 0.347800 0.169138
O O1 0.870457 0.071596 0.297962
O O2 0.827397 0.072649 0.587609
O O3 0.293397 0.110278 0.799129
O O4 0.406263 0.099805 0.815845
O O5 0.282280 0.000000 0.997915
O O6 0.257286 0.150786 0.102492
O O7 0.116670 0.231224 0.699171
O O8 0.011173 0.120867 0.740390
O O9 0.000000 0.153442 0.000000
O O10 0.777623 0.652541 0.579276
O O11 0.853485 0.771743 0.588887
O O12 0.938670 0.651075 0.357276
O O13 0.736694 0.500000 0.729121
O O14 0.646599 0.373839 0.956141
O O15 0.891411 0.875126 0.728954
O O16 0.062192 0.750646 0.200103
O O17 0.000000 0.671549 0.500000
#
# Coordination Sequence:
#
# PCOD9175435 Si02
#       8
#     4   8   8   8   8   8   8   8
#     4  10  21  33  58  80 114 137 175 213 262 336
#     4  10  19  29  47  75 121 148 170 212 261 333
#     4  10  23  39  56  80 105 143 182 230 276 309
#     4  10  20  34  56  78 108 144 182 221 261 329
#     4  10  20  33  50  80 110 146 178 215 270 319
#     4  10  18  33  51  83 112 144 174 209 271 324
#     4  11  18  30  47  76 110 146 182 210 258 318
#     4  10  21  33  53  79 113 140 175 223 265 328
#
# _framework density 22.671279999999999
#
# number of rings (size 3 to 8) (size 9 to 14) (size 15 to 20)
#    0.000    1.867    3.333    1.000    1.867    3.467 
#    0.000    0.667    0.000    0.400    0.000    0.000 
#    0.000    0.000    0.000    0.000    0.000    0.000 
#
# Total GULP energy -167072.410689 kJ/mol
# GULP energy per Si atom -5569.080356 kJ/mol
# Density = 2.261968 g / cm^3
# Si number density = 22.671280 Si / 1000 Ang^3
#
#
#
# Elastic Constant Matrix: (Units=GPa)
#
#
# Indices 1 2 3 4 5 6 
#
# 1 46.9422 1.5753 27.5869 0.0000 -17.5025 0.0000
# 2 1.5753 45.8253 50.3443 0.0000 1.2214 0.0000
# 3 27.5869 50.3443 108.8124 0.0000 -10.3097 0.0000
# 4 0.0000 0.0000 0.0000 14.0112 0.0000 4.6244
# 5 -17.5025 1.2214 -10.3097 0.0000 33.3174 0.0000
# 6 0.0000 0.0000 0.0000 4.6244 0.0000 13.8861
#
#
#
# Elastic Compliance Matrix: (Units=1/GPa)
#
#
# Indices 1 2 3 4 5 6 
#
# 1 0.033584 0.013216 -0.013396 0.000000 0.013013 0.000000
# 2 0.013216 0.051880 -0.027688 0.000000 -0.003527 0.000000
# 3 -0.013396 -0.027688 0.025576 0.000000 0.001892 0.000000
# 4 0.000000 0.000000 0.000000 0.080185 0.000000 -0.026703
# 5 0.013013 -0.003527 0.001892 0.000000 0.037565 0.000000
# 6 0.000000 0.000000 0.000000 -0.026703 0.000000 0.080908
#
#
# Mechanical properties :
#
#
# Convention : Reuss Voigt Hill
#
# Bulk Modulus (GPa) = 18.08213 40.06587 29.07400
# Shear Modulus (GPa) = 13.02526 20.38115 16.70320
#
# Velocity S-wave (km/s) = 2.39953 3.00156 2.71727
# Velocity P-wave (km/s) = 3.95855 5.45192 4.76411
#
# Compressibility (1/GPa) = 0.05530322
#
# Stress axis : x y z
#
# Youngs Moduli (GPa) = 29.77638 19.27508 39.09887
#
# Poissons Ratio (x) = -0.25473 0.52377
# Poissons Ratio (y) = -0.39352 1.08258
# Poissons Ratio (z) = 0.39888 0.53369
#
# Static dielectric constant tensor:
#      x y z
#    x 1.967300 0.000000 0.052350 
#    y 0.000000 1.796230 0.000000 
#    z 0.052350 0.000000 1.871180 
# 
# From -- ./inp_files/184183.got.cif
#   From: 2010.05.17/outbox.cif.g08.bks.cpg/sg12_93_cif.got.tgz:184183.got - 2010.06.03 13:09:07.
