data_PCOD9175289
_publ_section_title
;
Structure prediction by ZEFSAII (Michael W. Deem and Ramdas Pophale) SiO2 
 PCOD9175289
Probable space group: C 2/M
;
_chemical_formula_sum "Si O2"
_cell_formula_units_Z 64
_cell_length_a 18.831732
_cell_length_b 26.909861
_cell_length_c 16.534547
_cell_angle_alpha 90.000000
_cell_angle_beta 156.249030
_cell_angle_gamma 90.000000
_cell_volume 3374.758575
_symmetry_space_group_name_H-M "C 2/M"
_symmetry_group_IT_number 12
_symmetry_cell_setting 'monoclinic'
loop_
_space_group_symop_operation_xyz
x,y,z
-x,y,-z
-x,-y,-z
x,-y,z
1/2+x,1/2+y,z
1/2-x,1/2+y,-z
1/2-x,1/2-y,-z
1/2+x,1/2-y,z
loop_
_atom_site_type_symbol
_atom_site_label
_atom_site_fract_x
_atom_site_fract_y
_atom_site_fract_z
Si Si1 0.316539 0.398663 0.215757
Si Si2 0.281519 0.198117 0.625405
Si Si3 0.260087 0.186892 0.093234
Si Si4 0.614302 0.856902 0.431168
Si Si5 0.272693 0.592868 0.354522
Si Si6 0.866878 0.791970 0.216527
Si Si7 0.983210 0.556716 0.780362
Si Si8 0.577123 0.695840 0.169448
O O1 0.519453 0.411950 0.405290
O O2 0.268107 0.417655 0.254465
O O3 0.324083 0.338567 0.228118
O O4 0.167996 0.417225 0.999034
O O5 0.348214 0.180135 0.606831
O O6 0.293018 0.149367 0.694590
O O7 0.379533 0.247896 0.755853
O O8 0.072851 0.209840 0.408610
O O9 0.422484 0.150684 0.268892
O O10 0.309476 0.238651 0.188573
O O11 0.237849 0.197654 0.975036
O O12 0.072209 0.171658 0.929763
O O13 0.612988 0.910866 0.388969
O O14 0.754155 0.839006 0.642671
O O15 0.145735 0.559792 0.276457
O O16 0.014419 0.500000 0.790122
O O17 0.500000 0.697815 0.000000
#
# Coordination Sequence:
#
# PCOD9175289 Si02
#       8
#     8   8   8   8   8   8   8   8
#     4  10  20  37  54  86 124 165 197 238 285 344
#     4  10  19  36  56  83 122 164 200 224 269 347
#     4  11  21  34  59  82 113 158 198 235 288 337
#     4  11  22  42  60  82 120 154 198 252 295 350
#     4   9  22  35  55  85 131 164 194 237 285 340
#     4  10  18  32  58  83 115 161 203 230 271 339
#     4  11  24  40  64  86 107 153 213 259 302 348
#     4  12  26  37  55  88 124 157 191 239 296 360
#
# _framework density 18.964321000000002
#
# number of rings (size 3 to 8) (size 9 to 14) (size 15 to 20)
#    0.000    1.500    3.750    2.250    3.500    2.000 
#    0.000    1.250    0.000    0.375    0.000    0.875 
#    0.000    0.000    0.000    0.000    0.000    0.000 
#
# Total GULP energy -178642.737404 kJ/mol
# GULP energy per Si atom -5582.585544 kJ/mol
# Density = 1.892116 g / cm^3
# Si number density = 18.964321 Si / 1000 Ang^3
#
#
#
# Elastic Constant Matrix: (Units=GPa)
#
#
# Indices 1 2 3 4 5 6 
#
# 1 23.2106 16.6594 18.1649 0.0000 5.8150 0.0000
# 2 16.6594 72.3519 28.1265 0.0000 -4.5844 0.0000
# 3 18.1649 28.1265 76.6413 0.0000 2.3346 0.0000
# 4 0.0000 0.0000 0.0000 10.0134 0.0000 4.2087
# 5 5.8150 -4.5844 2.3346 0.0000 30.1627 0.0000
# 6 0.0000 0.0000 0.0000 4.2087 0.0000 9.6277
#
#
#
# Elastic Compliance Matrix: (Units=1/GPa)
#
#
# Indices 1 2 3 4 5 6 
#
# 1 0.062410 -0.011189 -0.010292 0.000000 -0.012936 0.000000
# 2 -0.011189 0.018387 -0.004257 0.000000 0.005281 0.000000
# 3 -0.010292 -0.004257 0.017049 0.000000 0.000018 0.000000
# 4 0.000000 0.000000 0.000000 0.122346 0.000000 -0.053483
# 5 -0.012936 0.005281 0.000018 0.000000 0.036449 0.000000
# 6 0.000000 0.000000 0.000000 -0.053483 0.000000 0.127247
#
#
# Mechanical properties :
#
#
# Convention : Reuss Voigt Hill
#
# Bulk Modulus (GPa) = 21.56528 33.12283 27.34405
# Shear Modulus (GPa) = 11.09091 17.24427 14.16759
#
# Velocity S-wave (km/s) = 2.42095 3.01873 2.73622
# Velocity P-wave (km/s) = 4.38302 5.44556 4.94292
#
# Compressibility (1/GPa) = 0.04637083
#
# Stress axis : x y z
#
# Youngs Moduli (GPa) = 16.02307 54.38593 58.65545
#
# Poissons Ratio (x) = 0.60853 0.60366
# Poissons Ratio (y) = 0.17928 0.24968
# Poissons Ratio (z) = 0.16490 0.23151
#
# Static dielectric constant tensor:
#      x y z
#    x 1.675180 0.000000 -0.001610 
#    y 0.000000 1.670040 0.000000 
#    z -0.001610 0.000000 1.699010 
# 
# From -- ./inp_files/286708.got.cif
#   From: 2010.05.17/outbox.cif.g08.bks.cpg/sg12_144_cif.got.tgz:286708.got - 2010.06.03 13:09:07.
