data_PCOD9175133
_publ_section_title
;
Structure prediction by ZEFSAII (Michael W. Deem and Ramdas Pophale) SiO2 
 PCOD9175133
Probable space group: C 2/M
;
_chemical_formula_sum "Si O2"
_cell_formula_units_Z 64
_cell_length_a 19.271603
_cell_length_b 20.348445
_cell_length_c 7.886153
_cell_angle_alpha 90.000000
_cell_angle_beta 88.279124
_cell_angle_gamma 90.000000
_cell_volume 3091.137673
_symmetry_space_group_name_H-M "C 2/M"
_symmetry_group_IT_number 12
_symmetry_cell_setting 'monoclinic'
loop_
_space_group_symop_operation_xyz
x,y,z
-x,y,-z
-x,-y,-z
x,-y,z
1/2+x,1/2+y,z
1/2-x,1/2+y,-z
1/2-x,1/2-y,-z
1/2+x,1/2-y,z
loop_
_atom_site_type_symbol
_atom_site_label
_atom_site_fract_x
_atom_site_fract_y
_atom_site_fract_z
Si Si1 0.149351 0.710541 0.096701
Si Si2 0.298827 0.927477 0.867951
Si Si3 0.607635 0.706343 0.581192
Si Si4 0.236040 0.071834 0.254487
Si Si5 0.416710 0.426891 0.882606
Si Si6 0.853911 0.073332 0.265506
Si Si7 0.970554 0.789967 0.768356
Si Si8 0.773433 0.285767 0.271240
O O1 0.152164 0.635048 0.157022
O O2 0.074212 0.743457 0.107597
O O3 0.202461 0.752106 0.211554
O O4 0.181797 0.712368 0.906634
O O5 0.227970 0.918213 0.766896
O O6 0.327673 0.000000 0.827944
O O7 0.272522 0.928384 0.065881
O O8 0.620653 0.629746 0.614198
O O9 0.571269 0.715707 0.405099
O O10 0.549533 0.727340 0.723077
O O11 0.679330 0.744306 0.604776
O O12 0.154230 0.076412 0.220909
O O13 0.259858 0.139956 0.335189
O O14 0.250390 0.000000 0.333231
O O15 0.447310 0.500000 0.855314
O O16 0.463180 0.365322 0.829169
O O17 0.390790 0.421138 0.078892
O O18 0.866221 0.000000 0.330004
#
# Coordination Sequence:
#
# PCOD9175133 Si02
#       8
#     8   8   8   8   8   8   8   8
#     4  10  18  32  56  81 101 128 171 217 259 304
#     4   8  14  27  50  79 106 127 154 204 263 307
#     4  11  24  37  48  69 106 146 177 210 255 305
#     4   8  14  27  50  79 106 127 154 204 263 307
#     4   9  17  32  54  77 102 134 172 212 253 301
#     4   9  17  32  54  77 102 134 172 212 253 301
#     4  11  24  37  48  69 106 146 177 210 255 305
#     4  10  18  32  56  81 101 128 171 217 259 304
#
# _framework density 20.704352
#
# number of rings (size 3 to 8) (size 9 to 14) (size 15 to 20)
#    0.000    2.500    2.500    2.250    0.000    3.500 
#    0.000    2.500    0.000    1.500    0.000    5.250 
#    0.000    0.000    0.000    0.000    0.000    0.000 
#
# Total GULP energy -178843.592160 kJ/mol
# GULP energy per Si atom -5588.862255 kJ/mol
# Density = 2.065723 g / cm^3
# Si number density = 20.704352 Si / 1000 Ang^3
#
#
#
# Elastic Constant Matrix: (Units=GPa)
#
#
# Indices 1 2 3 4 5 6 
#
# 1 79.3610 41.6749 13.9645 0.0000 -5.4448 0.0000
# 2 41.6749 117.1512 15.3938 0.0000 -1.6290 0.0000
# 3 13.9645 15.3938 54.5082 0.0000 -0.4676 0.0000
# 4 0.0000 0.0000 0.0000 10.3972 0.0000 8.6537
# 5 -5.4448 -1.6290 -0.4676 0.0000 27.5420 0.0000
# 6 0.0000 0.0000 0.0000 8.6537 0.0000 -8.0089
#
#
#
# Elastic Compliance Matrix: (Units=1/GPa)
#
#
# Indices 1 2 3 4 5 6 
#
# 1 0.016047 -0.005330 -0.002582 0.000000 0.002813 0.000000
# 2 -0.005330 0.010642 -0.001644 0.000000 -0.000452 0.000000
# 3 -0.002582 -0.001644 0.019469 0.000000 -0.000277 0.000000
# 4 0.000000 0.000000 0.000000 0.050639 0.000000 0.054716
# 5 0.002813 -0.000452 -0.000277 0.000000 0.036833 0.000000
# 6 0.000000 0.000000 0.000000 0.054716 0.000000 -0.065739
#
#
# Mechanical properties :
#
#
# Convention : Reuss Voigt Hill
#
# Bulk Modulus (GPa) = 36.97291 43.67630 40.32460
# Shear Modulus (GPa) = 52.07416 17.98520 35.02968
#
# Velocity S-wave (km/s) = 5.02055 2.95051 4.11773
# Velocity P-wave (km/s) = 7.17664 5.72262 6.49048
#
# Compressibility (1/GPa) = 0.02704683
#
# Stress axis : x y z
#
# Youngs Moduli (GPa) = 62.31722 93.96921 51.36347
#
# Poissons Ratio (x) = 0.50087 0.13260
# Poissons Ratio (y) = 0.33216 0.08443
# Poissons Ratio (z) = 0.16088 0.15446
#
# Static dielectric constant tensor:
#      x y z
#    x 1.709140 0.000000 -0.020930 
#    y 0.000000 1.751970 0.000000 
#    z -0.020930 0.000000 1.796500 
# 
# From -- ./inp_files/77494.got.cif
#   From: 2010.05.17/outbox.cif.g08.bks.cpg/sg12_39_cif.got.tgz:77494.got - 2010.06.03 13:09:07.
