data_PCOD9175913
_publ_section_title
;
Structure prediction by ZEFSAII (Michael W. Deem and Ramdas Pophale) SiO2 
 PCOD9175913
Probable space group: C 2/M
;
_chemical_formula_sum "Si O2"
_cell_formula_units_Z 48
_cell_length_a 14.342702
_cell_length_b 17.465430
_cell_length_c 16.469017
_cell_angle_alpha 90.000000
_cell_angle_beta 33.264078
_cell_angle_gamma 90.000000
_cell_volume 2262.838368
_symmetry_space_group_name_H-M "C 2/M"
_symmetry_group_IT_number 12
_symmetry_cell_setting 'monoclinic'
loop_
_space_group_symop_operation_xyz
x,y,z
-x,y,-z
-x,-y,-z
x,-y,z
1/2+x,1/2+y,z
1/2-x,1/2+y,-z
1/2-x,1/2-y,-z
1/2+x,1/2-y,z
loop_
_atom_site_type_symbol
_atom_site_label
_atom_site_fract_x
_atom_site_fract_y
_atom_site_fract_z
Si Si1 0.172968 0.000000 0.922638
Si Si2 0.791610 0.877429 0.410643
Si Si3 0.537412 0.803051 0.380450
Si Si4 0.701019 0.000000 0.345956
Si Si5 0.119630 0.138044 0.481685
Si Si6 0.788359 0.829701 0.070039
Si Si7 0.037003 0.269930 0.792781
O O1 0.291375 0.000000 0.757114
O O2 0.182291 0.079779 0.963401
O O3 0.000000 0.000000 0.000000
O O4 0.598168 0.852591 0.570076
O O5 0.858035 0.905995 0.449377
O O6 0.886368 0.799716 0.316022
O O7 0.784935 0.930784 0.336471
O O8 0.500000 0.825647 0.500000
O O9 0.485973 0.714532 0.416580
O O10 0.721618 0.817545 0.210550
O O11 0.500000 0.000000 0.500000
O O12 0.302736 0.171251 0.315081
O O13 0.000000 0.101106 0.500000
O O14 0.625365 0.806457 0.134235
O O15 0.945563 0.774725 0.933963
#
# Coordination Sequence:
#
# PCOD9175913 Si02
#       7
#     4   8   8   4   8   8   8
#     4  12  26  40  54  96 138 168 196 255 333 397
#     4  11  19  39  56  86 127 168 220 259 319 385
#     4  10  18  33  59  87 118 163 207 267 321 372
#     4  12  26  38  63  96 129 175 206 252 339 398
#     4  10  20  36  59  86 118 163 218 274 319 359
#     4  11  21  38  60  88 129 170 218 257 323 387
#     4  10  21  38  63  87 120 174 221 269 316 366
#
# _framework density 21.212297
#
# number of rings (size 3 to 8) (size 9 to 14) (size 15 to 20)
#    0.000    1.333    3.333    4.500    0.000    3.333 
#    0.000    0.417    0.000    0.000    0.000    0.000 
#    0.000    5.667    0.000    0.000    0.000    0.000 
#
# Total GULP energy -133755.184550 kJ/mol
# GULP energy per Si atom -5573.132690 kJ/mol
# Density = 2.116402 g / cm^3
# Si number density = 21.212297 Si / 1000 Ang^3
#
#
#
# Elastic Constant Matrix: (Units=GPa)
#
#
# Indices 1 2 3 4 5 6 
#
# 1 125.1314 21.6661 15.9058 0.0004 -9.0360 -0.0003
# 2 21.6661 85.5143 4.2928 0.0003 -9.4360 -0.0005
# 3 15.9058 4.2928 119.8038 0.0007 1.8854 -0.0010
# 4 0.0004 0.0003 0.0007 5.8334 -0.0007 3.6975
# 5 -9.0360 -9.4360 1.8854 -0.0007 37.4340 0.0003
# 6 -0.0003 -0.0005 -0.0010 3.6975 0.0003 27.7600
#
#
#
# Elastic Compliance Matrix: (Units=1/GPa)
#
#
# Indices 1 2 3 4 5 6 
#
# 1 0.008585 -0.001939 -0.001096 0.000000 0.001639 0.000000
# 2 -0.001939 0.012494 -0.000233 0.000000 0.002693 0.000000
# 3 -0.001096 -0.000233 0.008513 -0.000001 -0.000752 0.000000
# 4 0.000000 0.000000 -0.000001 0.187233 0.000004 -0.024939
# 5 0.001639 0.002693 -0.000752 0.000004 0.027826 -0.000001
# 6 0.000000 0.000000 0.000000 -0.024939 -0.000001 0.039345
#
#
# Mechanical properties :
#
#
# Convention : Reuss Voigt Hill
#
# Bulk Modulus (GPa) = 43.37289 46.01987 44.69638
# Shear Modulus (GPa) = 16.76630 33.44447 25.10538
#
# Velocity S-wave (km/s) = 2.81446 3.97502 3.44398
# Velocity P-wave (km/s) = 5.57253 6.54291 6.07712
#
# Compressibility (1/GPa) = 0.02305587
#
# Stress axis : x y z
#
# Youngs Moduli (GPa) = 116.48174 80.03762 117.47189
#
# Poissons Ratio (x) = 0.15522 0.12876
# Poissons Ratio (y) = 0.22589 0.02732
# Poissons Ratio (z) = 0.12767 0.01862
#
# Static dielectric constant tensor:
#      x y z
#    x 1.870960 0.000000 0.007040 
#    y 0.000000 1.791190 0.000000 
#    z 0.007040 0.000000 1.774070 
# 
# From -- ./inp_files/61778.got.cif
#   From: 2010.05.17/outbox.cif.g08.bks.cpg/sg12_31_cif.got.tgz:61778.got - 2010.06.03 13:09:07.
