data_PCOD9175244
_publ_section_title
;
Structure prediction by ZEFSAII (Michael W. Deem and Ramdas Pophale) SiO2 
 PCOD9175244
Probable space group: C 2/M
;
_chemical_formula_sum "Si O2"
_cell_formula_units_Z 56
_cell_length_a 10.282657
_cell_length_b 14.575150
_cell_length_c 24.263821
_cell_angle_alpha 90.000000
_cell_angle_beta 45.676166
_cell_angle_gamma 90.000000
_cell_volume 2601.523857
_symmetry_space_group_name_H-M "C 2/M"
_symmetry_group_IT_number 12
_symmetry_cell_setting 'monoclinic'
loop_
_space_group_symop_operation_xyz
x,y,z
-x,y,-z
-x,-y,-z
x,-y,z
1/2+x,1/2+y,z
1/2-x,1/2+y,-z
1/2-x,1/2-y,-z
1/2+x,1/2-y,z
loop_
_atom_site_type_symbol
_atom_site_label
_atom_site_fract_x
_atom_site_fract_y
_atom_site_fract_z
Si Si1 0.021184 0.646718 0.055202
Si Si2 0.210718 0.749761 0.447139
Si Si3 0.905758 0.141383 0.951257
Si Si4 0.686273 0.100605 0.157908
Si Si5 0.622827 0.311823 0.167285
Si Si6 0.199076 0.107545 0.665901
Si Si7 0.999607 0.603615 0.331302
O O1 0.074622 0.753959 0.034251
O O2 0.814331 0.653411 0.137233
O O3 0.204862 0.605953 0.027662
O O4 0.000000 0.607632 0.000000
O O5 0.250000 0.750000 0.500000
O O6 0.260308 0.652972 0.404549
O O7 0.338486 0.823931 0.379271
O O8 0.000000 0.769649 0.500000
O O9 0.902508 0.142828 0.885355
O O10 0.095202 0.097481 0.912724
O O11 0.625583 0.201776 0.155190
O O12 0.628989 0.109174 0.239469
O O13 0.611114 0.000000 0.162781
O O14 0.463364 0.340606 0.254881
O O15 0.375632 0.119411 0.652235
O O16 0.157612 0.000000 0.674699
O O17 0.927245 0.500000 0.354851
#
# Coordination Sequence:
#
# PCOD9175244 Si02
#       7
#     8   8   8   8   8   8   8
#     4   8  16  29  49  78 112 156 201 248 300 349
#     4  12  25  43  68  95 127 163 205 251 314 377
#     4   9  16  29  52  79 113 157 202 246 300 358
#     4  10  19  32  56  86 115 153 200 248 301 363
#     4  10  18  32  57  84 118 155 203 252 302 361
#     4  11  23  40  64  92 124 164 209 252 309 376
#     4  10  21  39  63  91 123 160 203 249 304 371
#
# _framework density 21.525845
#
# number of rings (size 3 to 8) (size 9 to 14) (size 15 to 20)
#    0.000    2.000    4.286    0.000    0.000    1.143 
#    0.000    0.714    0.000   56.571    0.000    0.000 
#    0.000    0.000    0.000    0.000    0.000    0.000 
#
# Total GULP energy -156244.317877 kJ/mol
# GULP energy per Si atom -5580.154210 kJ/mol
# Density = 2.147685 g / cm^3
# Si number density = 21.525845 Si / 1000 Ang^3
#
#
#
# Elastic Constant Matrix: (Units=GPa)
#
#
# Indices 1 2 3 4 5 6 
#
# 1 72.3550 22.3286 36.5187 0.0000 -11.5070 0.0000
# 2 22.3286 105.6655 48.6281 0.0000 -20.7016 0.0000
# 3 36.5187 48.6281 105.1058 -0.0002 -5.6596 0.0001
# 4 0.0000 0.0000 -0.0002 5.6037 0.0000 -1.7247
# 5 -11.5070 -20.7016 -5.6596 0.0000 42.6529 0.0000
# 6 0.0000 0.0000 0.0001 -1.7247 0.0000 13.6787
#
#
#
# Elastic Compliance Matrix: (Units=1/GPa)
#
#
# Indices 1 2 3 4 5 6 
#
# 1 0.017393 -0.000313 -0.005695 0.000000 0.003785 0.000000
# 2 -0.000313 0.013260 -0.005725 0.000000 0.005592 0.000000
# 3 -0.005695 -0.005725 0.014009 0.000000 -0.002456 0.000000
# 4 0.000000 0.000000 0.000000 0.185658 0.000000 0.023408
# 5 0.003785 0.005592 -0.002456 0.000000 0.026854 0.000000
# 6 0.000000 0.000000 0.000000 0.023408 0.000000 0.076058
#
#
# Mechanical properties :
#
#
# Convention : Reuss Voigt Hill
#
# Bulk Modulus (GPa) = 47.17600 55.34189 51.25894
# Shear Modulus (GPa) = 13.74517 24.09712 18.92115
#
# Velocity S-wave (km/s) = 2.52968 3.34945 2.96800
# Velocity P-wave (km/s) = 5.52231 6.38152 5.96740
#
# Compressibility (1/GPa) = 0.02119722
#
# Stress axis : x y z
#
# Youngs Moduli (GPa) = 57.49286 75.41343 71.38131
#
# Poissons Ratio (x) = 0.02363 0.40649
# Poissons Ratio (y) = 0.01801 0.40866
# Poissons Ratio (z) = 0.32740 0.43174
#
# Static dielectric constant tensor:
#      x y z
#    x 1.839350 0.000000 0.027750 
#    y 0.000000 1.797380 0.000000 
#    z 0.027750 0.000000 1.788410 
# 
# From -- ./inp_files/358189.got.cif
#   From: 2010.05.17/outbox.cif.g08.bks.cpg/sg12_180_cif.got.tgz:358189.got - 2010.06.03 13:09:07.
