data_PCOD9175039
_publ_section_title
;
Structure prediction by ZEFSAII (Michael W. Deem and Ramdas Pophale) SiO2 
 PCOD9175039
Probable space group: C 2/M
;
_chemical_formula_sum "Si O2"
_cell_formula_units_Z 56
_cell_length_a 12.893549
_cell_length_b 13.791046
_cell_length_c 25.446022
_cell_angle_alpha 90.000000
_cell_angle_beta 140.706119
_cell_angle_gamma 90.000000
_cell_volume 2865.483101
_symmetry_space_group_name_H-M "C 2/M"
_symmetry_group_IT_number 12
_symmetry_cell_setting 'monoclinic'
loop_
_space_group_symop_operation_xyz
x,y,z
-x,y,-z
-x,-y,-z
x,-y,z
1/2+x,1/2+y,z
1/2-x,1/2+y,-z
1/2-x,1/2-y,-z
1/2+x,1/2-y,z
loop_
_atom_site_type_symbol
_atom_site_label
_atom_site_fract_x
_atom_site_fract_y
_atom_site_fract_z
Si Si1 0.240870 0.608750 0.031368
Si Si2 0.611327 0.611677 0.217658
Si Si3 0.777388 0.612453 0.598631
Si Si4 0.300080 0.797388 0.380865
Si Si5 0.150314 0.383970 0.490468
Si Si6 0.150222 0.614206 0.784891
Si Si7 0.174677 0.186970 0.048176
O O1 0.174977 0.500000 0.014617
O O2 0.423288 0.613733 0.127283
O O3 0.150791 0.701689 0.020334
O O4 0.262064 0.628795 0.977666
O O5 0.654678 0.500000 0.248810
O O6 0.658611 0.679660 0.284317
O O7 0.722210 0.638854 0.211200
O O8 0.732503 0.500000 0.586739
O O9 0.679470 0.684985 0.597249
O O10 0.768565 0.640448 0.533585
O O11 0.967241 0.624401 0.690817
O O12 0.467476 0.840692 0.423248
O O13 0.263466 0.847874 0.422631
O O14 0.135745 0.500000 0.486086
O O15 0.173309 0.500000 0.806837
O O16 0.196604 0.675312 0.854211
O O17 0.000000 0.148612 0.000000
#
# Coordination Sequence:
#
# PCOD9175039 Si02
#       7
#     8   8   8   8   8   8   8
#     4  10  22  36  53  80 107 135 175 217 259 310
#     4  10  18  32  55  80 103 132 174 221 260 300
#     4  10  21  36  53  76 107 140 174 211 259 313
#     4  11  19  32  56  80 104 137 173 216 260 305
#     4  10  20  35  55  82 107 133 176 220 261 306
#     4  10  19  33  55  80 104 134 173 218 260 303
#     4  11  21  35  56  79 105 139 174 213 262 313
#
# _framework density 19.542953000000001
#
# number of rings (size 3 to 8) (size 9 to 14) (size 15 to 20)
#    0.000    1.714    2.857    3.429    0.000    0.857 
#    0.000    1.429    0.000    3.429    0.000    0.000 
#    0.000    0.000    0.000    0.000    0.000    0.000 
#
# Total GULP energy -156384.322324 kJ/mol
# GULP energy per Si atom -5585.154369 kJ/mol
# Density = 1.949847 g / cm^3
# Si number density = 19.542953 Si / 1000 Ang^3
#
#
#
# Elastic Constant Matrix: (Units=GPa)
#
#
# Indices 1 2 3 4 5 6 
#
# 1 39.1504 18.6297 14.8965 0.0000 -19.5795 0.0000
# 2 18.6297 76.4644 7.1671 0.0000 -23.1932 0.0000
# 3 14.8965 7.1671 65.9137 0.0000 -26.0461 0.0000
# 4 0.0000 0.0000 0.0000 20.0268 0.0000 -6.5757
# 5 -19.5795 -23.1932 -26.0461 0.0000 29.2934 0.0000
# 6 0.0000 0.0000 0.0000 -6.5757 0.0000 21.2612
#
#
#
# Elastic Compliance Matrix: (Units=1/GPa)
#
#
# Indices 1 2 3 4 5 6 
#
# 1 0.038738 -0.001681 0.001748 0.000000 0.026115 0.000000
# 2 -0.001681 0.018637 0.005766 0.000000 0.018760 0.000000
# 3 0.001748 0.005766 0.025307 0.000000 0.028235 0.000000
# 4 0.000000 0.000000 0.000000 0.055577 0.000000 0.017189
# 5 0.026115 0.018760 0.028235 0.000000 0.091551 0.000000
# 6 0.000000 0.000000 0.000000 0.017189 0.000000 0.052350
#
#
# Mechanical properties :
#
#
# Convention : Reuss Voigt Hill
#
# Bulk Modulus (GPa) = 10.59901 29.21279 19.90590
# Shear Modulus (GPa) = 16.55946 23.50529 20.03238
#
# Velocity S-wave (km/s) = 2.91406 3.47183 3.20510
# Velocity P-wave (km/s) = 4.09360 5.57243 4.88925
#
# Compressibility (1/GPa) = 0.09434845
#
# Stress axis : x y z
#
# Youngs Moduli (GPa) = 25.81459 53.65604 39.51550
#
# Poissons Ratio (x) = 0.09017 -0.06906
# Poissons Ratio (y) = 0.04338 -0.22786
# Poissons Ratio (z) = -0.04511 -0.30940
#
# Static dielectric constant tensor:
#      x y z
#    x 1.658290 0.000000 0.000190 
#    y 0.000000 1.708420 0.000000 
#    z 0.000190 0.000000 1.675680 
# 
# From -- ./inp_files/268884.got.cif
#   From: 2010.05.17/outbox.cif.g08.bks.cpg/sg12_135_cif.got.tgz:268884.got - 2010.06.03 13:09:07.
