data_PCOD9175067
_publ_section_title
;
Structure prediction by ZEFSAII (Michael W. Deem and Ramdas Pophale) SiO2 
 PCOD9175067
Probable space group: C 2/M
;
_chemical_formula_sum "Si O2"
_cell_formula_units_Z 48
_cell_length_a 14.905956
_cell_length_b 8.878297
_cell_length_c 25.196536
_cell_angle_alpha 90.000000
_cell_angle_beta 138.731248
_cell_angle_gamma 90.000000
_cell_volume 2199.407086
_symmetry_space_group_name_H-M "C 2/M"
_symmetry_group_IT_number 12
_symmetry_cell_setting 'monoclinic'
loop_
_space_group_symop_operation_xyz
x,y,z
-x,y,-z
-x,-y,-z
x,-y,z
1/2+x,1/2+y,z
1/2-x,1/2+y,-z
1/2-x,1/2-y,-z
1/2+x,1/2-y,z
loop_
_atom_site_type_symbol
_atom_site_label
_atom_site_fract_x
_atom_site_fract_y
_atom_site_fract_z
Si Si1 0.412449 0.182756 0.697149
Si Si2 0.322218 0.325855 0.813985
Si Si3 0.179004 0.324087 0.866281
Si Si4 0.572332 0.827309 0.973906
Si Si5 0.158378 0.179212 0.646126
Si Si6 0.898478 0.320068 0.571131
O O1 0.527315 0.237077 0.789029
O O2 0.260572 0.229201 0.644945
O O3 0.446349 0.222266 0.652066
O O4 0.416560 0.000000 0.702128
O O5 0.318366 0.500000 0.795018
O O6 0.247284 0.318094 0.837893
O O7 0.474990 0.268924 0.892750
O O8 0.242238 0.224897 0.736253
O O9 0.174684 0.500000 0.879577
O O10 0.277613 0.236471 0.949516
O O11 0.574622 0.000000 0.957460
O O12 0.500000 0.822793 0.000000
O O13 0.012218 0.256523 0.582506
O O14 0.140340 0.000000 0.635744
O O15 0.891344 0.500000 0.564252
O O16 0.750000 0.250000 0.500000
#
# Coordination Sequence:
#
# PCOD9175067 Si02
#       6
#     8   8   8   8   8   8
#     4   9  20  39  62  86 119 159 196 233 289 358
#     4  10  18  32  55  81 114 157 200 243 291 348
#     4   9  16  32  55  78 108 155 201 238 286 349
#     4   9  17  28  46  79 116 150 194 250 297 337
#     4  11  22  38  62  91 119 154 196 242 291 345
#     4  11  23  44  67  91 120 154 192 235 290 353
#
# _framework density 21.824064
#
# number of rings (size 3 to 8) (size 9 to 14) (size 15 to 20)
#    0.000    2.167    1.667    2.000    0.000    3.333 
#    0.000    9.167    0.000    0.000    0.000    0.000 
#    0.000    0.000    0.000    0.000    0.000    0.000 
#
# Total GULP energy -134147.259955 kJ/mol
# GULP energy per Si atom -5589.469165 kJ/mol
# Density = 2.177439 g / cm^3
# Si number density = 21.824064 Si / 1000 Ang^3
#
#
#
# Elastic Constant Matrix: (Units=GPa)
#
#
# Indices 1 2 3 4 5 6 
#
# 1 73.4257 18.3524 17.1302 0.0000 24.3165 0.0000
# 2 18.3524 61.0747 13.6302 0.0000 19.1775 0.0000
# 3 17.1302 13.6302 80.0658 0.0000 42.9489 0.0000
# 4 0.0000 0.0000 0.0000 35.5932 0.0000 9.2241
# 5 24.3165 19.1775 42.9489 0.0000 43.3106 0.0000
# 6 0.0000 0.0000 0.0000 9.2241 0.0000 12.1708
#
#
#
# Elastic Compliance Matrix: (Units=1/GPa)
#
#
# Indices 1 2 3 4 5 6 
#
# 1 0.017350 -0.002204 0.002916 0.000000 -0.011657 0.000000
# 2 -0.002204 0.019582 0.002404 0.000000 -0.009817 0.000000
# 3 0.002916 0.002404 0.027573 0.000000 -0.030045 0.000000
# 4 0.000000 0.000000 0.000000 0.034962 0.000000 -0.026497
# 5 -0.011657 -0.009817 -0.030045 0.000000 0.063774 0.000000
# 6 0.000000 0.000000 0.000000 -0.026497 0.000000 0.102246
#
#
# Mechanical properties :
#
#
# Convention : Reuss Voigt Hill
#
# Bulk Modulus (GPa) = 14.13676 34.75467 24.44572
# Shear Modulus (GPa) = 17.67820 29.24514 23.46167
#
# Velocity S-wave (km/s) = 2.84919 3.66463 3.28233
# Velocity P-wave (km/s) = 4.16119 5.81941 5.05871
#
# Compressibility (1/GPa) = 0.07073758
#
# Stress axis : x y z
#
# Youngs Moduli (GPa) = 57.63606 51.06791 36.26736
#
# Poissons Ratio (x) = 0.11256 -0.10576
# Poissons Ratio (y) = 0.12703 -0.08719
# Poissons Ratio (z) = -0.16808 -0.12278
#
# Static dielectric constant tensor:
#      x y z
#    x 1.846100 0.000000 0.000110 
#    y 0.000000 1.728910 0.000000 
#    z 0.000110 0.000000 1.787310 
# 
# From -- ./inp_files/360255.got.cif
#   From: 2010.05.17/outbox.cif.g08.bks.cpg/sg12_181_cif.got.tgz:360255.got - 2010.06.03 13:09:07.
