data_PCOD9175045
_publ_section_title
;
Structure prediction by ZEFSAII (Michael W. Deem and Ramdas Pophale) SiO2 
 PCOD9175045
Probable space group: C 2/M
;
_chemical_formula_sum "Si O2"
_cell_formula_units_Z 48
_cell_length_a 18.750255
_cell_length_b 8.905642
_cell_length_c 17.435363
_cell_angle_alpha 90.000000
_cell_angle_beta 61.750052
_cell_angle_gamma 90.000000
_cell_volume 2564.635565
_symmetry_space_group_name_H-M "C 2/M"
_symmetry_group_IT_number 12
_symmetry_cell_setting 'monoclinic'
loop_
_space_group_symop_operation_xyz
x,y,z
-x,y,-z
-x,-y,-z
x,-y,z
1/2+x,1/2+y,z
1/2-x,1/2+y,-z
1/2-x,1/2-y,-z
1/2+x,1/2-y,z
loop_
_atom_site_type_symbol
_atom_site_label
_atom_site_fract_x
_atom_site_fract_y
_atom_site_fract_z
Si Si1 0.413430 0.180280 0.236947
Si Si2 0.751436 0.320844 0.415446
Si Si3 0.912844 0.676283 0.785500
Si Si4 0.749807 0.822922 0.868797
Si Si5 0.822042 0.677254 0.687454
Si Si6 0.089227 0.178797 0.928094
O O1 0.338498 0.210307 0.331533
O O2 0.499781 0.222883 0.230071
O O3 0.405613 0.269036 0.162244
O O4 0.413866 0.000000 0.221650
O O5 0.740133 0.500000 0.424340
O O6 0.750000 0.250000 0.500000
O O7 0.685301 0.245794 0.392564
O O8 0.902172 0.500000 0.807460
O O9 0.834235 0.760421 0.860039
O O10 0.903302 0.692702 0.697545
O O11 0.762253 0.770987 0.773526
O O12 0.664645 0.750830 0.935332
O O13 0.746204 0.000000 0.877251
O O14 0.801260 0.500000 0.697022
O O15 0.095665 0.000000 0.931041
O O16 0.000000 0.227119 0.000000
#
# Coordination Sequence:
#
# PCOD9175045 Si02
#       6
#     8   8   8   8   8   8
#     4  10  20  37  59  84 111 143 187 232 275 328
#     4  11  22  35  56  84 113 147 187 230 275 331
#     4   8  17  33  56  81 108 144 180 223 279 331
#     4  10  18  32  55  80 106 142 182 219 269 331
#     4   9  17  33  56  77 105 143 179 221 275 326
#     4  11  23  37  56  83 113 147 187 229 276 328
#
# _framework density 18.716111000000001
#
# number of rings (size 3 to 8) (size 9 to 14) (size 15 to 20)
#    1.000    1.167    1.667    2.500    0.000    2.667 
#    0.000    1.667    0.000    5.000    0.000    0.000 
#    0.000    0.000    0.000    0.000    0.000    0.000 
#
# Total GULP energy -133637.647803 kJ/mol
# GULP energy per Si atom -5568.235325 kJ/mol
# Density = 1.867351 g / cm^3
# Si number density = 18.716111 Si / 1000 Ang^3
#
#
#
# Elastic Constant Matrix: (Units=GPa)
#
#
# Indices 1 2 3 4 5 6 
#
# 1 86.7724 25.4066 2.4842 0.0000 -4.7375 0.0000
# 2 25.4066 56.2877 13.4902 0.0000 -8.7460 -0.0001
# 3 2.4842 13.4902 36.8542 0.0000 -9.3356 0.0000
# 4 0.0000 0.0000 0.0000 16.7851 0.0000 -0.4284
# 5 -4.7375 -8.7460 -9.3356 0.0000 11.2987 0.0000
# 6 0.0000 -0.0001 0.0000 -0.4284 0.0000 20.8911
#
#
#
# Elastic Compliance Matrix: (Units=1/GPa)
#
#
# Indices 1 2 3 4 5 6 
#
# 1 0.013400 -0.006133 0.001976 0.000000 0.002504 0.000000
# 2 -0.006133 0.023566 -0.005367 0.000000 0.011236 0.000000
# 3 0.001976 -0.005367 0.035567 0.000000 0.026062 0.000000
# 4 0.000000 0.000000 0.000000 0.059608 0.000000 0.001222
# 5 0.002504 0.011236 0.026062 0.000000 0.119787 0.000000
# 6 0.000000 0.000000 0.000000 0.001222 0.000000 0.047892
#
#
# Mechanical properties :
#
#
# Convention : Reuss Voigt Hill
#
# Bulk Modulus (GPa) = 18.69638 29.18625 23.94132
# Shear Modulus (GPa) = 14.85017 19.03054 16.94036
#
# Velocity S-wave (km/s) = 2.81987 3.19219 3.01179
# Velocity P-wave (km/s) = 4.54019 5.40507 4.99140
#
# Compressibility (1/GPa) = 0.05348629
#
# Stress axis : x y z
#
# Youngs Moduli (GPa) = 74.62551 42.43369 28.11602
#
# Poissons Ratio (x) = 0.26024 -0.05556
# Poissons Ratio (y) = 0.45768 0.15089
# Poissons Ratio (z) = -0.14746 0.22772
#
# Static dielectric constant tensor:
#      x y z
#    x 1.689740 0.000000 -0.001300 
#    y 0.000000 1.626130 0.000000 
#    z -0.001300 0.000000 1.646230 
# 
# From -- ./inp_files/274047.got.cif
#   From: 2010.05.17/outbox.cif.g08.bks.cpg/sg12_138_cif.got.tgz:274047.got - 2010.06.03 13:09:07.
