data_PCOD9175483
_publ_section_title
;
Structure prediction by ZEFSAII (Michael W. Deem and Ramdas Pophale) SiO2 
 PCOD9175483
Probable space group: C 2/M
;
_chemical_formula_sum "Si O2"
_cell_formula_units_Z 48
_cell_length_a 13.876065
_cell_length_b 21.995134
_cell_length_c 9.837414
_cell_angle_alpha 90.000000
_cell_angle_beta 77.203642
_cell_angle_gamma 90.000000
_cell_volume 2927.866664
_symmetry_space_group_name_H-M "C 2/M"
_symmetry_group_IT_number 12
_symmetry_cell_setting 'monoclinic'
loop_
_space_group_symop_operation_xyz
x,y,z
-x,y,-z
-x,-y,-z
x,-y,z
1/2+x,1/2+y,z
1/2-x,1/2+y,-z
1/2-x,1/2-y,-z
1/2+x,1/2-y,z
loop_
_atom_site_type_symbol
_atom_site_label
_atom_site_fract_x
_atom_site_fract_y
_atom_site_fract_z
Si Si1 0.069751 0.648507 0.109989
Si Si2 0.958820 0.571133 0.360621
Si Si3 0.596965 0.708911 0.563187
Si Si4 0.971364 0.789514 0.852101
Si Si5 0.297253 0.828999 0.379796
Si Si6 0.254266 0.686967 0.914298
O O1 0.051281 0.717721 0.169144
O O2 0.036705 0.601449 0.233291
O O3 0.182093 0.643760 0.022650
O O4 0.000000 0.641557 0.000000
O O5 0.945134 0.500000 0.336497
O O6 0.858094 0.609145 0.373240
O O7 0.000000 0.578089 0.500000
O O8 0.500000 0.707899 0.500000
O O9 0.558231 0.690965 0.724499
O O10 0.641482 0.776876 0.560731
O O11 0.687160 0.669783 0.475691
O O12 0.869983 0.826257 0.862800
O O13 0.000000 0.793303 0.000000
O O14 0.289506 0.808947 0.223976
O O15 0.250000 0.750000 0.000000
#
# Coordination Sequence:
#
# PCOD9175483 Si02
#       6
#     8   8   8   8   8   8
#     4  10  18  33  53  74 107 142 178 221 265 323
#     4  11  24  39  55  78 111 146 186 236 277 319
#     4  11  20  31  53  81 109 143 173 219 275 338
#     4  10  19  32  49  78 114 140 173 213 270 332
#     4  11  21  34  53  80 111 145 185 223 271 339
#     4  10  19  31  50  77 111 145 172 213 270 326
#
# _framework density 16.394189999999998
#
# number of rings (size 3 to 8) (size 9 to 14) (size 15 to 20)
#    0.000    1.500    5.000    2.500    0.000    3.000 
#    0.000    0.000    0.000    0.500    0.000    0.000 
#    0.000    4.667    0.000    0.000    0.000    0.000 
#
# Total GULP energy -133853.751084 kJ/mol
# GULP energy per Si atom -5577.239629 kJ/mol
# Density = 1.635688 g / cm^3
# Si number density = 16.394190 Si / 1000 Ang^3
#
#
#
# Elastic Constant Matrix: (Units=GPa)
#
#
# Indices 1 2 3 4 5 6 
#
# 1 108.1585 47.6899 49.4396 0.0000 -21.2440 0.0000
# 2 47.6899 70.0955 48.5478 0.0000 -3.5570 0.0000
# 3 49.4396 48.5478 120.9017 0.0000 -24.2427 0.0000
# 4 0.0000 0.0000 0.0000 17.7190 0.0000 0.2580
# 5 -21.2440 -3.5570 -24.2427 0.0000 36.3445 0.0000
# 6 0.0000 0.0000 0.0000 0.2580 0.0000 11.8932
#
#
#
# Elastic Compliance Matrix: (Units=1/GPa)
#
#
# Indices 1 2 3 4 5 6 
#
# 1 0.015252 -0.009283 -0.001043 0.000000 0.007310 0.000000
# 2 -0.009283 0.025897 -0.008292 0.000000 -0.008422 0.000000
# 3 -0.001043 -0.008292 0.013555 0.000000 0.007620 0.000000
# 4 0.000000 0.000000 0.000000 0.056454 0.000000 -0.001225
# 5 0.007310 -0.008422 0.007620 0.000000 0.036046 0.000000
# 6 0.000000 0.000000 0.000000 -0.001225 0.000000 0.084108
#
#
# Mechanical properties :
#
#
# Convention : Reuss Voigt Hill
#
# Bulk Modulus (GPa) = 57.24696 65.61223 61.42960
# Shear Modulus (GPa) = 18.22345 23.42326 20.82335
#
# Velocity S-wave (km/s) = 3.33765 3.78399 3.56781
# Velocity P-wave (km/s) = 7.06032 7.69415 7.38404
#
# Compressibility (1/GPa) = 0.01746818
#
# Stress axis : x y z
#
# Youngs Moduli (GPa) = 65.56718 38.61386 73.77122
#
# Poissons Ratio (x) = 0.35845 0.07697
# Poissons Ratio (y) = 0.60865 0.61170
# Poissons Ratio (z) = 0.06841 0.32018
#
# Static dielectric constant tensor:
#      x y z
#    x 1.585420 0.000000 -0.014900 
#    y 0.000000 1.515300 0.000000 
#    z -0.014900 0.000000 1.591560 
# 
# From -- ./inp_files/63379.got.cif
#   From: 2010.05.17/outbox.cif.g08.bks.cpg/sg12_32_cif.got.tgz:63379.got - 2010.06.03 13:09:07.
