data_PCOD9175370
_publ_section_title
;
Structure prediction by ZEFSAII (Michael W. Deem and Ramdas Pophale) SiO2 
 PCOD9175370
Probable space group: C 2/M
;
_chemical_formula_sum "Si O2"
_cell_formula_units_Z 44
_cell_length_a 23.094537
_cell_length_b 11.755252
_cell_length_c 11.618845
_cell_angle_alpha 90.000000
_cell_angle_beta 133.436423
_cell_angle_gamma 90.000000
_cell_volume 2290.462427
_symmetry_space_group_name_H-M "C 2/M"
_symmetry_group_IT_number 12
_symmetry_cell_setting 'monoclinic'
loop_
_space_group_symop_operation_xyz
x,y,z
-x,y,-z
-x,-y,-z
x,-y,z
1/2+x,1/2+y,z
1/2-x,1/2+y,-z
1/2-x,1/2-y,-z
1/2+x,1/2-y,z
loop_
_atom_site_type_symbol
_atom_site_label
_atom_site_fract_x
_atom_site_fract_y
_atom_site_fract_z
Si Si1 0.250945 0.285929 0.868336
Si Si2 0.624150 0.725365 0.359271
Si Si3 0.905122 0.000000 0.378831
Si Si4 0.083340 0.256266 0.545242
Si Si5 0.642720 0.500000 0.947267
Si Si6 0.213280 0.363605 0.299120
Si Si7 0.526763 0.500000 0.167228
O O1 0.159884 0.315623 0.707540
O O2 0.310734 0.391304 0.942300
O O3 0.282131 0.190520 0.821958
O O4 0.250000 0.250000 0.000000
O O5 0.579175 0.785480 0.404936
O O6 0.707988 0.680661 0.526132
O O7 0.642260 0.808429 0.277662
O O8 0.576398 0.613638 0.258035
O O9 0.891610 0.878349 0.418111
O O10 0.000000 0.000000 0.500000
O O11 0.860206 0.000000 0.195718
O O12 0.000000 0.269749 0.500000
O O13 0.551253 0.500000 0.859926
O O14 0.211224 0.500000 0.293158
O O15 0.500000 0.500000 0.000000
#
# Coordination Sequence:
#
# PCOD9175370 Si02
#       7
#     8   8   4   8   4   8   4
#     4  11  24  38  63  96 128 169 214 263 332 377
#     4  10  21  38  62  96 124 170 217 259 321 391
#     4  10  18  32  60  93 123 158 198 255 323 375
#     4  10  20  38  63  92 126 166 216 264 313 390
#     4  12  24  40  59  96 134 161 213 279 316 394
#     4  10  22  42  65  89 131 171 216 261 319 395
#     4  12  22  36  64  95 131 158 212 281 330 366
#
# _framework density 19.210093000000001
#
# number of rings (size 3 to 8) (size 9 to 14) (size 15 to 20)
#    0.000    1.455    2.727    3.818    5.091    0.000 
#    9.818    0.455    0.000    4.909    0.000    0.000 
#    0.000    0.000    0.000    0.000    0.000    0.000 
#
# Total GULP energy -122773.994902 kJ/mol
# GULP energy per Si atom -5580.636132 kJ/mol
# Density = 1.916637 g / cm^3
# Si number density = 19.210093 Si / 1000 Ang^3
#
#
#
# Elastic Constant Matrix: (Units=GPa)
#
#
# Indices 1 2 3 4 5 6 
#
# 1 158.1172 51.0908 38.0581 0.0000 -20.7212 0.0000
# 2 51.0908 94.4386 21.0207 0.0000 -7.2598 0.0000
# 3 38.0581 21.0207 72.8130 0.0000 -20.7129 0.0000
# 4 0.0000 0.0000 0.0000 30.7782 0.0000 1.0312
# 5 -20.7212 -7.2598 -20.7129 0.0000 35.7612 0.0000
# 6 0.0000 0.0000 0.0000 1.0312 0.0000 29.1546
#
#
#
# Elastic Compliance Matrix: (Units=1/GPa)
#
#
# Indices 1 2 3 4 5 6 
#
# 1 0.008538 -0.003836 -0.002597 0.000000 0.002664 0.000000
# 2 -0.003836 0.013047 -0.001964 0.000000 -0.000712 0.000000
# 3 -0.002597 -0.001964 0.018099 0.000000 0.008579 0.000000
# 4 0.000000 0.000000 0.000000 0.032529 0.000000 -0.001151
# 5 0.002664 -0.000712 0.008579 0.000000 0.034331 0.000000
# 6 0.000000 0.000000 0.000000 -0.001151 0.000000 0.034341
#
#
# Mechanical properties :
#
#
# Convention : Reuss Voigt Hill
#
# Bulk Modulus (GPa) = 43.68943 60.63423 52.16183
# Shear Modulus (GPa) = 30.24625 33.48542 31.86584
#
# Velocity S-wave (km/s) = 3.97230 4.17959 4.07726
# Velocity P-wave (km/s) = 6.62051 7.41109 7.02693
#
# Compressibility (1/GPa) = 0.02288883
#
# Stress axis : x y z
#
# Youngs Moduli (GPa) = 117.11918 76.64782 55.25193
#
# Poissons Ratio (x) = 0.29404 0.14352
# Poissons Ratio (y) = 0.44929 0.10851
# Poissons Ratio (z) = 0.30421 0.15052
#
# Static dielectric constant tensor:
#      x y z
#    x 1.695150 0.000000 0.034200 
#    y 0.000000 1.682850 0.000000 
#    z 0.034200 0.000000 1.645130 
# 
# From -- ./inp_files/175436.got.cif
#   From: 2010.05.17/outbox.cif.g08.bks.cpg/sg12_88_cif.got.tgz:175436.got - 2010.06.03 13:09:07.
