data_PCOD9175550
_publ_section_title
;
Structure prediction by ZEFSAII (Michael W. Deem and Ramdas Pophale) SiO2 
 PCOD9175550
Probable space group: C 2/M
;
_chemical_formula_sum "Si O2"
_cell_formula_units_Z 32
_cell_length_a 13.514360
_cell_length_b 13.890059
_cell_length_c 18.072173
_cell_angle_alpha 90.000000
_cell_angle_beta 158.752134
_cell_angle_gamma 90.000000
_cell_volume 1229.425235
_symmetry_space_group_name_H-M "C 2/M"
_symmetry_group_IT_number 12
_symmetry_cell_setting 'monoclinic'
loop_
_space_group_symop_operation_xyz
x,y,z
-x,y,-z
-x,-y,-z
x,-y,z
1/2+x,1/2+y,z
1/2-x,1/2+y,-z
1/2-x,1/2-y,-z
1/2+x,1/2-y,z
loop_
_atom_site_type_symbol
_atom_site_label
_atom_site_fract_x
_atom_site_fract_y
_atom_site_fract_z
Si Si1 0.271624 0.603587 0.137633
Si Si2 0.861792 0.142109 0.475738
Si Si3 0.278122 0.827153 0.107213
Si Si4 0.650815 0.148265 0.673929
O O1 0.263196 0.500000 0.091061
O O2 0.529747 0.599856 0.372606
O O3 0.291856 0.709987 0.117543
O O4 0.000000 0.608028 0.000000
O O5 0.538292 0.139038 0.242659
O O6 0.000000 0.099237 0.500000
O O7 0.984688 0.250586 0.564082
O O8 0.327869 0.873901 0.223742
O O9 0.967286 0.848003 0.870352
O O10 0.500000 0.098790 0.500000
#
# Coordination Sequence:
#
# PCOD9175550 Si02
#       4
#     8   8   8   8
#     4  10  18  33  54  77 111 145 177 226 284 332
#     4  10  20  33  51  81 110 147 180 224 273 326
#     4  10  18  35  52  77 117 139 185 227 272 325
#     4   9  17  30  50  79 105 140 179 224 280 316
#
# _framework density 26.028421999999999
#
# number of rings (size 3 to 8) (size 9 to 14) (size 15 to 20)
#    0.000    2.250    5.000    3.000    0.000    4.500 
#    4.500    0.000    0.000    1.500    0.000   14.000 
#    0.000    1.000    0.000    0.000    0.000    0.000 
#
# Total GULP energy -89295.450190 kJ/mol
# GULP energy per Si atom -5580.965637 kJ/mol
# Density = 2.596918 g / cm^3
# Si number density = 26.028422 Si / 1000 Ang^3
#
#
#
# Elastic Constant Matrix: (Units=GPa)
#
#
# Indices 1 2 3 4 5 6 
#
# 1 99.1372 18.4187 84.6026 -0.0020 16.0538 -0.0085
# 2 18.4187 117.1499 34.3008 0.0946 4.1582 0.0097
# 3 84.6026 34.3008 233.7495 0.1437 17.0781 -0.0142
# 4 -0.0020 0.0946 0.1437 -14.7370 0.0366 -15.2462
# 5 16.0538 4.1582 17.0781 0.0366 66.3652 -0.0087
# 6 -0.0085 0.0097 -0.0142 -15.2462 -0.0087 -66.6935
#
#
#
# Elastic Compliance Matrix: (Units=1/GPa)
#
#
# Indices 1 2 3 4 5 6 
#
# 1 0.014987 -0.000769 -0.005147 -0.000081 -0.002253 0.000018
# 2 -0.000769 0.008962 -0.001029 0.000060 -0.000111 -0.000012
# 3 -0.005147 -0.001029 0.006315 0.000073 -0.000316 -0.000017
# 4 -0.000081 0.000060 0.000073 -0.088874 0.000049 0.020317
# 5 -0.002253 -0.000111 -0.000316 0.000049 0.015701 -0.000013
# 6 0.000018 -0.000012 -0.000017 0.020317 -0.000013 -0.019638
#
#
# Mechanical properties :
#
#
# Convention : Reuss Voigt Hill
#
# Bulk Modulus (GPa) = 61.07087 80.52009 70.79548
# Shear Modulus (GPa) = -115.74256 17.83458 -48.95399
#
# Velocity S-wave (km/s) = -6.67565 2.62047 -4.34151
# Velocity P-wave (km/s) = 5.99208 6.33706 1.45832
#
# Compressibility (1/GPa) = 0.01637442
#
# Stress axis : x y z
#
# Youngs Moduli (GPa) = 66.72453 111.58121 158.35657
#
# Poissons Ratio (x) = 0.08584 0.81503
# Poissons Ratio (y) = 0.05133 0.16289
# Poissons Ratio (z) = 0.34342 0.11477
#
# Static dielectric constant tensor:
#      x y z
#    x 2.151730 0.000000 -0.078480 
#    y 0.000000 2.061750 -0.000040 
#    z -0.078480 -0.000040 1.979780 
# 
# From -- ./inp_files/145900.got.cif
#   From: 2010.05.17/outbox.cif.g08.bks.cpg/sg12_73_cif.got.tgz:145900.got - 2010.06.03 13:09:07.
