data_PCOD9175832
_publ_section_title
;
Structure prediction by ZEFSAII (Michael W. Deem and Ramdas Pophale) SiO2 
 PCOD9175832
Probable space group: C 2/M
;
_chemical_formula_sum "Si O2"
_cell_formula_units_Z 48
_cell_length_a 23.869737
_cell_length_b 7.496554
_cell_length_c 22.052645
_cell_angle_alpha 90.000000
_cell_angle_beta 30.976484
_cell_angle_gamma 90.000000
_cell_volume 2031.012224
_symmetry_space_group_name_H-M "C 2/M"
_symmetry_group_IT_number 12
_symmetry_cell_setting 'monoclinic'
loop_
_space_group_symop_operation_xyz
x,y,z
-x,y,-z
-x,-y,-z
x,-y,z
1/2+x,1/2+y,z
1/2-x,1/2+y,-z
1/2-x,1/2-y,-z
1/2+x,1/2-y,z
loop_
_atom_site_type_symbol
_atom_site_label
_atom_site_fract_x
_atom_site_fract_y
_atom_site_fract_z
Si Si1 0.232887 0.781428 0.661086
Si Si2 0.835426 0.706049 0.012805
Si Si3 0.626302 0.284477 0.886727
Si Si4 0.524207 0.785165 0.545444
Si Si5 0.452813 0.296268 0.253459
Si Si6 0.400110 0.712145 0.779006
O O1 0.187766 0.727359 0.768950
O O2 0.357624 0.724274 0.540912
O O3 0.150944 0.717161 0.684772
O O4 0.229342 0.000000 0.663410
O O5 0.845416 0.500000 0.985154
O O6 0.829072 0.714735 0.091379
O O7 0.720772 0.783539 0.096204
O O8 0.945200 0.797748 0.887870
O O9 0.632129 0.500000 0.883916
O O10 0.500000 0.232908 0.000000
O O11 0.500000 0.720059 0.500000
O O12 0.434132 0.737345 0.678191
O O13 0.527929 0.000000 0.538787
O O14 0.422440 0.500000 0.296599
O O15 0.505641 0.213816 0.264716
O O16 0.393615 0.500000 0.796771
#
# Coordination Sequence:
#
# PCOD9175832 Si02
#       6
#     8   8   8   8   8   8
#     4   9  18  34  57  84 109 139 186 233 270 322
#     4  11  22  35  53  83 118 146 181 232 282 325
#     4  10  18  33  58  83 107 145 187 221 270 331
#     4  10  21  38  60  83 109 142 183 232 278 328
#     4  10  20  38  59  79 109 149 189 228 274 332
#     4  10  23  39  56  80 112 150 187 227 277 330
#
# _framework density 23.633537
#
# number of rings (size 3 to 8) (size 9 to 14) (size 15 to 20)
#    0.000    2.000    1.667    2.000    0.000    4.667 
#    0.000    1.667    0.000    0.000    0.000    0.000 
#    0.000    0.000    0.000    0.000    0.000    0.000 
#
# Total GULP energy -134186.571831 kJ/mol
# GULP energy per Si atom -5591.107160 kJ/mol
# Density = 2.357975 g / cm^3
# Si number density = 23.633537 Si / 1000 Ang^3
#
#
#
# Elastic Constant Matrix: (Units=GPa)
#
#
# Indices 1 2 3 4 5 6 
#
# 1 143.5126 0.8941 28.4329 0.0047 -16.2730 0.0012
# 2 0.8941 67.9851 -6.8512 -0.0051 -8.0595 0.0016
# 3 28.4329 -6.8512 80.5069 -0.0005 -29.6848 0.0016
# 4 0.0047 -0.0051 -0.0005 29.7443 0.0007 9.6578
# 5 -16.2730 -8.0595 -29.6848 0.0007 32.5390 -0.0014
# 6 0.0012 0.0016 0.0016 9.6578 -0.0014 12.5846
#
#
#
# Elastic Compliance Matrix: (Units=1/GPa)
#
#
# Indices 1 2 3 4 5 6 
#
# 1 0.007581 -0.000058 -0.001943 -0.000002 0.002004 0.000001
# 2 -0.000058 0.016074 0.004288 0.000004 0.007865 -0.000005
# 3 -0.001943 0.004288 0.020352 0.000002 0.018657 -0.000002
# 4 -0.000002 0.000004 0.000002 0.044778 -0.000001 -0.034364
# 5 0.002004 0.007865 0.018657 -0.000001 0.050703 0.000003
# 6 0.000001 -0.000005 -0.000002 -0.034364 0.000003 0.105834
#
#
# Mechanical properties :
#
#
# Convention : Reuss Voigt Hill
#
# Bulk Modulus (GPa) = 20.58435 37.43959 29.01197
# Shear Modulus (GPa) = 19.45976 32.94217 26.20096
#
# Velocity S-wave (km/s) = 2.87260 3.73751 3.33323
# Velocity P-wave (km/s) = 4.44198 5.87379 5.20733
#
# Compressibility (1/GPa) = 0.04858060
#
# Stress axis : x y z
#
# Youngs Moduli (GPa) = 131.91519 62.21096 49.13574
#
# Poissons Ratio (x) = 0.00361 0.09549
# Poissons Ratio (y) = 0.00765 -0.21071
# Poissons Ratio (z) = 0.25635 -0.26678
#
# Static dielectric constant tensor:
#      x y z
#    x 1.909500 0.000000 -0.022010 
#    y 0.000000 1.919210 0.000010 
#    z -0.022010 0.000010 1.843370 
# 
# From -- ./inp_files/172910.got.cif
#   From: 2010.05.17/outbox.cif.g08.bks.cpg/sg12_87_cif.got.tgz:172910.got - 2010.06.03 13:09:07.
