data_PCOD9175423
_publ_section_title
;
Structure prediction by ZEFSAII (Michael W. Deem and Ramdas Pophale) SiO2 
 PCOD9175423
Probable space group: C 2/M
;
_chemical_formula_sum "Si O2"
_cell_formula_units_Z 40
_cell_length_a 21.116145
_cell_length_b 14.273041
_cell_length_c 22.502720
_cell_angle_alpha 90.000000
_cell_angle_beta 17.960166
_cell_angle_gamma 90.000000
_cell_volume 2091.308794
_symmetry_space_group_name_H-M "C 2/M"
_symmetry_group_IT_number 12
_symmetry_cell_setting 'monoclinic'
loop_
_space_group_symop_operation_xyz
x,y,z
-x,y,-z
-x,-y,-z
x,-y,z
1/2+x,1/2+y,z
1/2-x,1/2+y,-z
1/2-x,1/2-y,-z
1/2+x,1/2-y,z
loop_
_atom_site_type_symbol
_atom_site_label
_atom_site_fract_x
_atom_site_fract_y
_atom_site_fract_z
Si Si1 0.913719 0.500000 0.863942
Si Si2 0.425285 0.500000 0.312564
Si Si3 0.804679 0.500000 0.828652
Si Si4 0.461393 0.303093 0.306458
Si Si5 0.083442 0.702898 0.078704
Si Si6 0.320789 0.000000 0.590243
Si Si7 0.538699 0.350422 0.895526
O O1 0.943064 0.500000 0.765635
O O2 0.666920 0.500000 0.084765
O O3 0.966857 0.598406 0.850514
O O4 0.387802 0.407821 0.382170
O O5 0.311478 0.500000 0.352144
O O6 0.652608 0.410648 0.961160
O O7 0.950116 0.500000 0.640453
O O8 0.250000 0.250000 0.500000
O O9 0.672497 0.290260 0.153823
O O10 0.536702 0.277621 0.172814
O O11 0.962001 0.746785 0.131931
O O12 0.242546 0.909137 0.696097
O O13 0.500000 0.349411 0.000000
#
# Coordination Sequence:
#
# PCOD9175423 Si02
#       7
#     4   4   4   8   8   4   8
#     4  10  20  37  57  79 115 137 174 233 280 329
#     4  10  18  33  50  82 115 132 169 221 272 334
#     4  11  21  35  59  85 109 147 174 218 290 336
#     4  10  20  32  54  78 110 139 173 225 280 333
#     4  10  21  35  51  79 106 143 181 221 275 319
#     4  11  21  35  55  86 113 137 180 222 274 337
#     4  11  23  39  54  77 115 151 187 225 260 319
#
# _framework density 19.126778000000002
#
# number of rings (size 3 to 8) (size 9 to 14) (size 15 to 20)
#    0.000    1.600    4.000    3.600    5.600    1.600 
#    0.000    0.500    0.000    0.000    0.000    0.000 
#    0.000    9.600    0.000    0.000    0.000    0.000 
#
# Total GULP energy -111383.869609 kJ/mol
# GULP energy per Si atom -5569.193480 kJ/mol
# Density = 1.908324 g / cm^3
# Si number density = 19.126778 Si / 1000 Ang^3
#
#
#
# Elastic Constant Matrix: (Units=GPa)
#
#
# Indices 1 2 3 4 5 6 
#
# 1 54.9900 33.2200 8.8432 -0.0464 11.0442 -0.0413
# 2 33.2200 134.9561 28.9171 0.3822 -0.0349 0.3927
# 3 8.8432 28.9171 100.2351 0.0020 9.1441 -0.0200
# 4 -0.0464 0.3822 0.0020 22.7027 -0.1243 14.0185
# 5 11.0442 -0.0349 9.1441 -0.1243 15.6087 -0.1710
# 6 -0.0413 0.3927 -0.0200 14.0185 -0.1710 46.4296
#
#
#
# Elastic Compliance Matrix: (Units=1/GPa)
#
#
# Indices 1 2 3 4 5 6 
#
# 1 0.025819 -0.006657 0.001385 0.000067 -0.019094 -0.000011
# 2 -0.006657 0.009645 -0.002775 -0.000124 0.006356 -0.000028
# 3 0.001385 -0.002775 0.011352 0.000007 -0.007636 -0.000001
# 4 0.000067 -0.000124 0.000007 0.054144 0.000201 -0.016346
# 5 -0.019094 0.006356 -0.007636 0.000201 0.082068 0.000168
# 6 -0.000011 -0.000028 -0.000001 -0.016346 0.000168 0.026474
#
#
# Mechanical properties :
#
#
# Convention : Reuss Voigt Hill
#
# Bulk Modulus (GPa) = 32.55172 48.01579 40.28375
# Shear Modulus (GPa) = 21.20099 31.56161 26.38130
#
# Velocity S-wave (km/s) = 3.33294 4.06658 3.71790
# Velocity P-wave (km/s) = 5.64511 6.87080 6.28789
#
# Compressibility (1/GPa) = 0.03072034
#
# Stress axis : x y z
#
# Youngs Moduli (GPa) = 38.73102 103.67817 88.09332
#
# Poissons Ratio (x) = 0.69021 -0.12197
# Poissons Ratio (y) = 0.25784 0.24447
# Poissons Ratio (z) = -0.05363 0.28772
#
# Static dielectric constant tensor:
#      x y z
#    x 1.673000 0.000000 0.044970 
#    y 0.000000 1.723750 0.000000 
#    z 0.044970 0.000000 1.928590 
# 
# From -- ./inp_files/322081.got.cif
#   From: 2010.05.17/outbox.cif.g08.bks.cpg/sg12_162_cif.got.tgz:322081.got - 2010.06.03 13:09:07.
