data_PCOD9175844
_publ_section_title
;
Structure prediction by ZEFSAII (Michael W. Deem and Ramdas Pophale) SiO2 
 PCOD9175844
Probable space group: C 2/M
;
_chemical_formula_sum "Si O2"
_cell_formula_units_Z 64
_cell_length_a 24.079642
_cell_length_b 23.152771
_cell_length_c 5.232432
_cell_angle_alpha 90.000000
_cell_angle_beta 93.573421
_cell_angle_gamma 90.000000
_cell_volume 2911.463807
_symmetry_space_group_name_H-M "C 2/M"
_symmetry_group_IT_number 12
_symmetry_cell_setting 'monoclinic'
loop_
_space_group_symop_operation_xyz
x,y,z
-x,y,-z
-x,-y,-z
x,-y,z
1/2+x,1/2+y,z
1/2-x,1/2+y,-z
1/2-x,1/2-y,-z
1/2+x,1/2-y,z
loop_
_atom_site_type_symbol
_atom_site_label
_atom_site_fract_x
_atom_site_fract_y
_atom_site_fract_z
Si Si1 0.135425 0.679790 0.173328
Si Si2 0.554119 0.376358 0.136737
Si Si3 0.800916 0.287934 0.302265
Si Si4 0.643055 0.676102 0.766009
Si Si5 0.318765 0.934089 0.712572
Si Si6 0.147075 0.935524 0.447946
Si Si7 0.948228 0.761267 0.615172
Si Si8 0.750039 0.098854 0.807309
O O1 0.180033 0.704673 0.396994
O O2 0.132513 0.612849 0.245533
O O3 0.081707 0.718577 0.199287
O O4 0.155364 0.684977 0.888436
O O5 0.585521 0.419804 0.333501
O O6 0.527863 0.319733 0.258247
O O7 0.500000 0.405684 0.000000
O O8 0.604828 0.346847 0.988449
O O9 0.805126 0.221096 0.217505
O O10 0.749431 0.331520 0.241466
O O11 0.661844 0.617179 0.637925
O O12 0.599292 0.713286 0.584630
O O13 0.289380 0.925123 0.430743
O O14 0.335486 0.000000 0.747744
O O15 0.275636 0.917464 0.927369
O O16 0.190527 0.929252 0.228288
O O17 0.150647 0.000000 0.555891
O O18 0.000000 0.730582 0.500000
#
# Coordination Sequence:
#
# PCOD9175844 Si02
#       8
#     8   8   8   8   8   8   8   8
#     4   9  18  31  54  89 120 149 192 242 290 350
#     4  11  22  39  62  83 106 148 196 251 308 357
#     4   9  18  36  59  88 120 147 189 242 300 350
#     4  10  21  37  60  83 114 148 186 246 303 352
#     4  10  19  35  59  85 121 164 201 236 281 347
#     4  11  26  41  56  83 116 156 202 247 294 355
#     4  10  18  33  58  85 112 143 190 248 304 358
#     4  10  22  39  61  88 118 157 201 245 289 348
#
# _framework density 21.982068999999999
#
# number of rings (size 3 to 8) (size 9 to 14) (size 15 to 20)
#    0.000    2.000    2.500    1.125    1.750    1.250 
#    0.000    1.250    0.000    0.375    0.000    0.000 
#    0.000    9.000    0.000    0.000    0.000    1.625 
#
# Total GULP energy -178527.713275 kJ/mol
# GULP energy per Si atom -5578.991040 kJ/mol
# Density = 2.193204 g / cm^3
# Si number density = 21.982069 Si / 1000 Ang^3
#
#
#
# Elastic Constant Matrix: (Units=GPa)
#
#
# Indices 1 2 3 4 5 6 
#
# 1 40.2222 30.8386 -2.5772 0.0000 -11.8701 0.0000
# 2 30.8386 164.0670 9.3035 0.0000 5.6429 0.0000
# 3 -2.5772 9.3035 66.4241 0.0000 -12.6731 0.0000
# 4 0.0000 0.0000 0.0000 18.9716 0.0000 -1.4887
# 5 -11.8701 5.6429 -12.6731 0.0000 27.3429 0.0000
# 6 0.0000 0.0000 0.0000 -1.4887 0.0000 7.1060
#
#
#
# Elastic Compliance Matrix: (Units=1/GPa)
#
#
# Indices 1 2 3 4 5 6 
#
# 1 0.037858 -0.008224 0.006670 0.000000 0.021224 0.000000
# 2 -0.008224 0.008015 -0.002675 0.000000 -0.006464 0.000000
# 3 0.006670 -0.002675 0.017932 0.000000 0.011759 0.000000
# 4 0.000000 0.000000 0.000000 0.053591 0.000000 0.011227
# 5 0.021224 -0.006464 0.011759 0.000000 0.052570 0.000000
# 6 0.000000 0.000000 0.000000 0.011227 0.000000 0.143078
#
#
# Mechanical properties :
#
#
# Convention : Reuss Voigt Hill
#
# Bulk Modulus (GPa) = 18.06796 38.42699 28.24748
# Shear Modulus (GPa) = 14.70799 26.22733 20.46766
#
# Velocity S-wave (km/s) = 2.58948 3.45791 3.05471
# Velocity P-wave (km/s) = 4.14461 5.78462 5.03188
#
# Compressibility (1/GPa) = 0.05534659
#
# Stress axis : x y z
#
# Youngs Moduli (GPa) = 26.41441 124.76736 55.76717
#
# Poissons Ratio (x) = 1.02610 -0.37197
# Poissons Ratio (y) = 0.21724 0.14918
# Poissons Ratio (z) = -0.17618 0.33375
#
# Static dielectric constant tensor:
#      x y z
#    x 1.824010 0.000000 0.014920 
#    y 0.000000 1.810820 0.000000 
#    z 0.014920 0.000000 1.897660 
# 
# From -- ./inp_files/29198.got.cif
#   From: 2010.05.17/outbox.cif.g08.bks.cpg/sg12_15_cif.got.tgz:29198.got - 2010.06.03 13:09:07.
