data_PCOD9175092
_publ_section_title
;
Structure prediction by ZEFSAII (Michael W. Deem and Ramdas Pophale) SiO2 
 PCOD9175092
Probable space group: C 2/M
;
_chemical_formula_sum "Si O2"
_cell_formula_units_Z 64
_cell_length_a 30.814822
_cell_length_b 8.556876
_cell_length_c 15.512873
_cell_angle_alpha 90.000000
_cell_angle_beta 41.543324
_cell_angle_gamma 90.000000
_cell_volume 2712.705237
_symmetry_space_group_name_H-M "C 2/M"
_symmetry_group_IT_number 12
_symmetry_cell_setting 'monoclinic'
loop_
_space_group_symop_operation_xyz
x,y,z
-x,y,-z
-x,-y,-z
x,-y,z
1/2+x,1/2+y,z
1/2-x,1/2+y,-z
1/2-x,1/2-y,-z
1/2+x,1/2-y,z
loop_
_atom_site_type_symbol
_atom_site_label
_atom_site_fract_x
_atom_site_fract_y
_atom_site_fract_z
Si Si1 0.407065 0.185903 0.711859
Si Si2 0.975913 0.317112 0.353121
Si Si3 0.438394 0.684060 0.925926
Si Si4 0.371389 0.684317 0.392690
Si Si5 0.398840 0.310613 0.166527
Si Si6 0.250031 0.314978 0.349302
Si Si7 0.809373 0.818818 0.736940
Si Si8 0.186253 0.179360 0.001721
O O1 0.480653 0.233884 0.629336
O O2 0.374237 0.227014 0.669983
O O3 0.405296 0.000000 0.726289
O O4 0.359117 0.266898 0.852329
O O5 0.959482 0.500000 0.385381
O O6 0.913129 0.221948 0.415681
O O7 0.024583 0.287533 0.199325
O O8 0.460180 0.500000 0.886987
O O9 0.440258 0.740251 0.021928
O O10 0.362364 0.684863 0.008604
O O11 0.358609 0.500000 0.406218
O O12 0.411210 0.732382 0.247370
O O13 0.303135 0.773770 0.499309
O O14 0.403226 0.500000 0.156116
O O15 0.323333 0.264740 0.262472
O O16 0.251482 0.500000 0.332637
O O17 0.221400 0.233775 0.307192
O O18 0.749889 0.782419 0.891535
O O19 0.824906 0.000000 0.713840
O O20 0.292808 0.500000 0.018124
#
# Coordination Sequence:
#
# PCOD9175092 Si02
#       8
#     8   8   8   8   8   8   8   8
#     4  10  21  37  57  82 115 154 197 240 288 344
#     4  10  22  40  59  84 118 156 198 243 289 340
#     4   9  17  34  59  86 117 156 194 235 287 344
#     4  11  23  40  62  87 115 154 199 242 290 347
#     4   9  19  37  62  90 119 152 192 236 292 351
#     4  11  22  41  63  86 119 154 193 242 291 344
#     4  12  23  35  55  86 119 151 192 237 291 350
#     4  10  18  32  55  83 119 157 192 233 288 346
#
# _framework density 23.592683999999998
#
# number of rings (size 3 to 8) (size 9 to 14) (size 15 to 20)
#    0.000    1.750    1.250    3.750    0.000    2.500 
#    0.000    6.250    0.000    3.750    0.000    0.000 
#    0.000    0.000    0.000    0.000    0.000    0.000 
#
# Total GULP energy -178995.642419 kJ/mol
# GULP energy per Si atom -5593.613826 kJ/mol
# Density = 2.353899 g / cm^3
# Si number density = 23.592684 Si / 1000 Ang^3
#
#
#
# Elastic Constant Matrix: (Units=GPa)
#
#
# Indices 1 2 3 4 5 6 
#
# 1 102.7160 -3.4278 -0.6288 -0.0002 9.1837 0.0001
# 2 -3.4278 39.2615 -12.7806 -0.0023 -0.5181 0.0004
# 3 -0.6288 -12.7806 59.2065 -0.0006 1.7698 0.0002
# 4 -0.0002 -0.0023 -0.0006 26.4147 0.0001 0.7319
# 5 9.1837 -0.5181 1.7698 0.0001 39.7854 0.0000
# 6 0.0001 0.0004 0.0002 0.7319 0.0000 20.7219
#
#
#
# Elastic Compliance Matrix: (Units=1/GPa)
#
#
# Indices 1 2 3 4 5 6 
#
# 1 0.009976 0.000965 0.000383 0.000000 -0.002307 0.000000
# 2 0.000965 0.027489 0.005948 0.000003 -0.000129 -0.000001
# 3 0.000383 0.005948 0.018203 0.000001 -0.000821 0.000000
# 4 0.000000 0.000003 0.000001 0.037895 0.000000 -0.001338
# 5 -0.002307 -0.000129 -0.000821 0.000000 0.025702 0.000000
# 6 0.000000 -0.000001 0.000000 -0.001338 0.000000 0.048305
#
#
# Mechanical properties :
#
#
# Convention : Reuss Voigt Hill
#
# Bulk Modulus (GPa) = 14.23256 18.61219 16.42237
# Shear Modulus (GPa) = 28.34505 31.91915 30.13210
#
# Velocity S-wave (km/s) = 3.46993 3.68220 3.57764
# Velocity P-wave (km/s) = 4.70102 5.09748 4.90326
#
# Compressibility (1/GPa) = 0.07026145
#
# Stress axis : x y z
#
# Youngs Moduli (GPa) = 100.23619 36.37810 54.93715
#
# Poissons Ratio (x) = -0.03512 -0.02106
# Poissons Ratio (y) = -0.09676 -0.32677
# Poissons Ratio (z) = -0.03842 -0.21638
#
# Static dielectric constant tensor:
#      x y z
#    x 1.940090 0.000000 0.012280 
#    y 0.000000 1.780600 0.000000 
#    z 0.012280 0.000000 1.952270 
# 
# From -- ./inp_files/249790.got.cif
#   From: 2010.05.17/outbox.cif.g08.bks.cpg/sg12_125_cif.got.tgz:249790.got - 2010.06.03 13:09:07.
