data_PCOD9175356
_publ_section_title
;
Structure prediction by ZEFSAII (Michael W. Deem and Ramdas Pophale) SiO2 
 PCOD9175356
Probable space group: C 2/M
;
_chemical_formula_sum "Si O2"
_cell_formula_units_Z 42
_cell_length_a 15.796819
_cell_length_b 13.003423
_cell_length_c 9.551489
_cell_angle_alpha 90.000000
_cell_angle_beta 118.194098
_cell_angle_gamma 90.000000
_cell_volume 1729.210516
_symmetry_space_group_name_H-M "C 2/M"
_symmetry_group_IT_number 12
_symmetry_cell_setting 'monoclinic'
loop_
_space_group_symop_operation_xyz
x,y,z
-x,y,-z
-x,-y,-z
x,-y,z
1/2+x,1/2+y,z
1/2-x,1/2+y,-z
1/2-x,1/2-y,-z
1/2+x,1/2-y,z
loop_
_atom_site_type_symbol
_atom_site_label
_atom_site_fract_x
_atom_site_fract_y
_atom_site_fract_z
Si Si1 0.550531 0.301975 0.340863
Si Si2 0.596755 0.385063 0.956828
Si Si3 0.500000 0.500000 0.500000
Si Si4 0.592827 0.877930 0.708379
Si Si5 0.777440 0.197764 0.704099
Si Si6 0.279993 0.116470 0.910544
O O1 0.492514 0.314591 0.148809
O O2 0.531968 0.405751 0.415137
O O3 0.497684 0.198945 0.355286
O O4 0.663667 0.298888 0.394318
O O5 0.560786 0.500000 0.920857
O O6 0.673295 0.369965 0.890124
O O7 0.660219 0.374771 0.143683
O O8 0.669784 0.841540 0.650572
O O9 0.571388 0.000000 0.676840
O O10 0.649339 0.867154 0.902363
O O11 0.790457 0.306814 0.791662
O O12 0.290503 0.000000 0.870821
#
# Coordination Sequence:
#
# PCOD9175356 Si02
#       6
#     8   8   2   8   8   8
#     4  12  24  41  63  87 129 172 212 275 314 364
#     4  10  18  32  59  93 127 163 192 259 327 381
#     4  12  32  48  60  88 124 162 246 286 312 338
#     4  10  21  39  64  97 139 168 195 259 329 390
#     4  11  20  34  64 100 129 162 216 242 327 412
#     4   9  17  31  57 101 139 161 195 243 319 413
#
# _framework density 24.288539
#
# number of rings (size 3 to 8) (size 9 to 14) (size 15 to 20)
#    0.000    1.524    4.762    3.429    2.667    1.524 
#    0.000    3.333    0.000    0.000    0.000    0.000 
#    0.000    0.000    0.000    0.000    0.000    0.000 
#
# Total GULP energy -117088.162736 kJ/mol
# GULP energy per Si atom -5575.626797 kJ/mol
# Density = 2.423326 g / cm^3
# Si number density = 24.288539 Si / 1000 Ang^3
#
#
#
# Elastic Constant Matrix: (Units=GPa)
#
#
# Indices 1 2 3 4 5 6 
#
# 1 172.1672 86.1394 59.2424 0.0000 -2.9093 0.0000
# 2 86.1394 222.2538 32.0560 0.0000 -15.9448 0.0000
# 3 59.2424 32.0560 57.4981 0.0000 0.6350 0.0000
# 4 0.0000 0.0000 0.0000 10.0030 0.0000 -4.5882
# 5 -2.9093 -15.9448 0.6350 0.0000 47.2848 0.0000
# 6 0.0000 0.0000 0.0000 -4.5882 0.0000 -13.1342
#
#
#
# Elastic Compliance Matrix: (Units=1/GPa)
#
#
# Indices 1 2 3 4 5 6 
#
# 1 0.010276 -0.002682 -0.009090 0.000000 -0.000150 0.000000
# 2 -0.002682 0.005731 -0.000451 0.000000 0.001774 0.000000
# 3 -0.009090 -0.000451 0.027022 0.000000 -0.001074 0.000000
# 4 0.000000 0.000000 0.000000 0.086164 0.000000 -0.030100
# 5 -0.000150 0.001774 -0.001074 0.000000 0.021752 0.000000
# 6 0.000000 0.000000 0.000000 -0.030100 0.000000 -0.065622
#
#
# Mechanical properties :
#
#
# Convention : Reuss Voigt Hill
#
# Bulk Modulus (GPa) = 53.81930 89.64386 71.73158
# Shear Modulus (GPa) = 43.11704 27.12945 35.12325
#
# Velocity S-wave (km/s) = 4.21788 3.34573 3.80687
# Velocity P-wave (km/s) = 6.77696 7.20508 6.99430
#
# Compressibility (1/GPa) = 0.01858069
#
# Stress axis : x y z
#
# Youngs Moduli (GPa) = 97.31629 174.48196 37.00756
#
# Poissons Ratio (x) = 0.46800 0.33642
# Poissons Ratio (y) = 0.26103 0.01670
# Poissons Ratio (z) = 0.88465 0.07873
#
# Static dielectric constant tensor:
#      x y z
#    x 1.959950 0.000000 -0.014900 
#    y 0.000000 1.935860 0.000000 
#    z -0.014900 0.000000 2.011440 
# 
# From -- ./inp_files/142077.got.cif
#   From: 2010.05.17/outbox.cif.g08.bks.cpg/sg12_72_cif.got.tgz:142077.got - 2010.06.03 13:09:07.
