data_PCOD9175785
_publ_section_title
;
Structure prediction by ZEFSAII (Michael W. Deem and Ramdas Pophale) SiO2 
 PCOD9175785
Probable space group: C 2/M
;
_chemical_formula_sum "Si O2"
_cell_formula_units_Z 64
_cell_length_a 19.697759
_cell_length_b 16.744312
_cell_length_c 14.970861
_cell_angle_alpha 90.000000
_cell_angle_beta 141.767809
_cell_angle_gamma 90.000000
_cell_volume 3055.738431
_symmetry_space_group_name_H-M "C 2/M"
_symmetry_group_IT_number 12
_symmetry_cell_setting 'monoclinic'
loop_
_space_group_symop_operation_xyz
x,y,z
-x,y,-z
-x,-y,-z
x,-y,z
1/2+x,1/2+y,z
1/2-x,1/2+y,-z
1/2-x,1/2-y,-z
1/2+x,1/2-y,z
loop_
_atom_site_type_symbol
_atom_site_label
_atom_site_fract_x
_atom_site_fract_y
_atom_site_fract_z
Si Si1 0.525603 0.174168 0.811924
Si Si2 0.765540 0.911001 0.643960
Si Si3 0.107610 0.408435 0.175725
Si Si4 0.477674 0.364825 0.761569
Si Si5 0.527780 0.643902 0.621421
Si Si6 0.221899 0.311642 0.145403
Si Si7 0.456913 0.177154 0.551421
Si Si8 0.609238 0.646187 0.062172
O O1 0.431417 0.129725 0.771456
O O2 0.499032 0.268955 0.785934
O O3 0.529151 0.151640 0.711641
O O4 0.638393 0.159462 0.981599
O O5 0.854357 0.882668 0.663696
O O6 0.663621 0.853109 0.550634
O O7 0.831844 0.909196 0.805796
O O8 0.727103 0.000000 0.583696
O O9 0.142974 0.500000 0.223389
O O10 0.193713 0.356029 0.209111
O O11 0.000000 0.407900 0.000000
O O12 0.501282 0.396516 0.687608
O O13 0.561546 0.394646 0.924454
O O14 0.500000 0.601007 0.500000
O O15 0.654253 0.671144 0.752764
O O16 0.458594 0.726673 0.548167
O O17 0.191027 0.218762 0.125100
O O18 0.500000 0.147673 0.500000
O O19 0.500000 0.680801 0.000000
#
# Coordination Sequence:
#
# PCOD9175785 Si02
#       8
#     8   8   8   8   8   8   8   8
#     4   9  19  34  57  85 113 146 189 236 276 328
#     4  11  23  38  57  81 114 154 188 227 283 338
#     4   9  17  31  53  82 113 143 179 224 274 330
#     4   9  20  36  56  83 109 144 194 240 277 326
#     4  10  21  35  56  84 112 142 182 233 283 333
#     4  10  18  33  57  85 113 146 187 232 285 331
#     4  10  22  37  54  80 111 142 180 228 280 334
#     4   9  17  32  56  82 110 143 191 242 278 323
#
# _framework density 20.944202000000001
#
# number of rings (size 3 to 8) (size 9 to 14) (size 15 to 20)
#    0.000    2.375    0.000    4.125    0.000   11.500 
#    0.000    0.625    0.000    3.750    0.000    0.000 
#    0.000    0.000    0.000    0.000    0.000    0.000 
#
# Total GULP energy -178652.671676 kJ/mol
# GULP energy per Si atom -5582.895990 kJ/mol
# Density = 2.089653 g / cm^3
# Si number density = 20.944202 Si / 1000 Ang^3
#
#
#
# Elastic Constant Matrix: (Units=GPa)
#
#
# Indices 1 2 3 4 5 6 
#
# 1 130.1490 20.4505 58.6033 0.0000 -23.9609 0.0000
# 2 20.4505 44.8922 11.9286 0.0000 6.7723 0.0000
# 3 58.6033 11.9286 72.7077 0.0000 -12.4430 0.0000
# 4 0.0000 0.0000 0.0000 7.7221 0.0000 -2.6127
# 5 -23.9609 6.7723 -12.4430 0.0000 48.4554 0.0000
# 6 0.0000 0.0000 0.0000 -2.6127 0.0000 -12.5911
#
#
#
# Elastic Compliance Matrix: (Units=1/GPa)
#
#
# Indices 1 2 3 4 5 6 
#
# 1 0.013456 -0.004399 -0.009288 0.000000 0.004884 0.000000
# 2 -0.004399 0.025675 -0.001729 0.000000 -0.006208 0.000000
# 3 -0.009288 -0.001729 0.021734 0.000000 0.001230 0.000000
# 4 0.000000 0.000000 0.000000 0.121003 0.000000 -0.025108
# 5 0.004884 -0.006208 0.001230 0.000000 0.024236 0.000000
# 6 0.000000 0.000000 0.000000 -0.025108 0.000000 -0.074211
#
#
# Mechanical properties :
#
#
# Convention : Reuss Voigt Hill
#
# Bulk Modulus (GPa) = 33.29651 47.74598 40.52124
# Shear Modulus (GPa) = 28.94575 19.16839 24.05707
#
# Velocity S-wave (km/s) = 3.72161 3.02853 3.39282
# Velocity P-wave (km/s) = 5.86510 5.92246 5.89385
#
# Compressibility (1/GPa) = 0.03003318
#
# Stress axis : x y z
#
# Youngs Moduli (GPa) = 74.31590 38.94790 46.00982
#
# Poissons Ratio (x) = 0.17131 0.42736
# Poissons Ratio (y) = 0.32688 0.07957
# Poissons Ratio (z) = 0.69027 0.06736
#
# Static dielectric constant tensor:
#      x y z
#    x 1.762550 0.000000 -0.046510 
#    y 0.000000 1.728790 0.000000 
#    z -0.046510 0.000000 1.792650 
# 
# From -- ./inp_files/226861.got.cif
#   From: 2010.05.17/outbox.cif.g08.bks.cpg/sg12_114_cif.got.tgz:226861.got - 2010.06.03 13:09:07.
