data_PCOD9175690
_publ_section_title
;
Structure prediction by ZEFSAII (Michael W. Deem and Ramdas Pophale) SiO2 
 PCOD9175690
Probable space group: C 2/M
;
_chemical_formula_sum "Si O2"
_cell_formula_units_Z 48
_cell_length_a 8.041040
_cell_length_b 18.374373
_cell_length_c 17.730769
_cell_angle_alpha 90.000000
_cell_angle_beta 125.382199
_cell_angle_gamma 90.000000
_cell_volume 2135.865413
_symmetry_space_group_name_H-M "C 2/M"
_symmetry_group_IT_number 12
_symmetry_cell_setting 'monoclinic'
loop_
_space_group_symop_operation_xyz
x,y,z
-x,y,-z
-x,-y,-z
x,-y,z
1/2+x,1/2+y,z
1/2-x,1/2+y,-z
1/2-x,1/2-y,-z
1/2+x,1/2-y,z
loop_
_atom_site_type_symbol
_atom_site_label
_atom_site_fract_x
_atom_site_fract_y
_atom_site_fract_z
Si Si1 0.921687 0.580649 0.718229
Si Si2 0.367171 0.851442 0.848722
Si Si3 0.705937 0.844092 0.448807
Si Si4 0.218041 0.163266 0.977691
Si Si5 0.683636 0.680594 0.197560
Si Si6 0.744760 0.688048 0.381060
O O1 0.009236 0.500000 0.744041
O O2 0.101308 0.641126 0.758063
O O3 0.799909 0.598872 0.762165
O O4 0.788879 0.590729 0.608174
O O5 0.283626 0.859495 0.910577
O O6 0.319931 0.767509 0.815307
O O7 0.610477 0.868200 0.922620
O O8 0.752745 0.771972 0.411419
O O9 0.824891 0.849771 0.559197
O O10 0.473168 0.834081 0.416709
O O11 0.976636 0.151379 0.906915
O O12 0.250000 0.250000 0.000000
O O13 0.625579 0.673624 0.271636
#
# Coordination Sequence:
#
# PCOD9175690 Si02
#       6
#     8   8   8   8   8   8
#     4  11  23  37  55  85 122 154 185 236 296 343
#     4  10  19  35  57  82 110 149 193 237 288 343
#     4   9  18  33  50  82 112 143 186 233 278 334
#     4   9  19  33  56  85 110 141 192 250 286 325
#     4  10  18  33  56  82 112 149 195 236 282 340
#     4   9  17  29  54  81 108 141 190 237 274 323
#
# _framework density 22.473326
#
# number of rings (size 3 to 8) (size 9 to 14) (size 15 to 20)
#    0.000    2.333    1.667    2.000    2.333    2.000 
#    0.000   10.833    0.000    0.000    0.000   15.167 
#    0.000    0.000    0.000    0.000    0.000    0.000 
#
# Total GULP energy -133691.235515 kJ/mol
# GULP energy per Si atom -5570.468146 kJ/mol
# Density = 2.242218 g / cm^3
# Si number density = 22.473326 Si / 1000 Ang^3
#
#
#
# Elastic Constant Matrix: (Units=GPa)
#
#
# Indices 1 2 3 4 5 6 
#
# 1 54.8100 4.2266 18.5984 0.0000 -11.8235 0.0000
# 2 4.2266 43.7757 23.5941 0.0000 -8.9777 0.0000
# 3 18.5984 23.5941 122.0686 0.0000 -31.9889 0.0000
# 4 0.0000 0.0000 0.0000 -1.9300 0.0000 0.7842
# 5 -11.8235 -8.9777 -31.9889 0.0000 42.8076 0.0000
# 6 0.0000 0.0000 0.0000 0.7842 0.0000 9.3099
#
#
#
# Elastic Compliance Matrix: (Units=1/GPa)
#
#
# Indices 1 2 3 4 5 6 
#
# 1 0.019773 -0.000034 -0.001961 0.000000 0.003989 0.000000
# 2 -0.000034 0.025649 -0.004408 0.000000 0.002075 0.000000
# 3 -0.001961 -0.004408 0.011140 0.000000 0.006859 0.000000
# 4 0.000000 0.000000 0.000000 -0.501000 0.000000 0.042201
# 5 0.003989 0.002075 0.006859 0.000000 0.030023 0.000000
# 6 0.000000 0.000000 0.000000 0.042201 0.000000 0.103858
#
#
# Mechanical properties :
#
#
# Convention : Reuss Voigt Hill
#
# Bulk Modulus (GPa) = 22.85430 34.83251 28.84341
# Shear Modulus (GPa) = -17.65754 21.65319 1.99783
#
# Velocity S-wave (km/s) = -2.80609 3.10741 0.94388
# Velocity P-wave (km/s) = 0.55433 5.32989 3.74837
#
# Compressibility (1/GPa) = 0.04375543
#
# Stress axis : x y z
#
# Youngs Moduli (GPa) = 50.57323 38.98836 89.76399
#
# Poissons Ratio (x) = 0.00134 0.17600
# Poissons Ratio (y) = 0.00174 0.39572
# Poissons Ratio (z) = 0.09916 0.17188
#
# Static dielectric constant tensor:
#      x y z
#    x 1.877660 0.000000 0.033640 
#    y 0.000000 1.777560 0.000000 
#    z 0.033640 0.000000 1.932680 
# 
# From -- ./inp_files/256720.got.cif
#   From: 2010.05.17/outbox.cif.g08.bks.cpg/sg12_129_cif.got.tgz:256720.got - 2010.06.03 13:09:07.
