data_PCOD9175967
_publ_section_title
;
Structure prediction by ZEFSAII (Michael W. Deem and Ramdas Pophale) SiO2 
 PCOD9175967
Probable space group: C 2/M
;
_chemical_formula_sum "Si O2"
_cell_formula_units_Z 48
_cell_length_a 22.759988
_cell_length_b 14.758696
_cell_length_c 14.631591
_cell_angle_alpha 90.000000
_cell_angle_beta 31.808243
_cell_angle_gamma 90.000000
_cell_volume 2590.517372
_symmetry_space_group_name_H-M "C 2/M"
_symmetry_group_IT_number 12
_symmetry_cell_setting 'monoclinic'
loop_
_space_group_symop_operation_xyz
x,y,z
-x,y,-z
-x,-y,-z
x,-y,z
1/2+x,1/2+y,z
1/2-x,1/2+y,-z
1/2-x,1/2-y,-z
1/2+x,1/2-y,z
loop_
_atom_site_type_symbol
_atom_site_label
_atom_site_fract_x
_atom_site_fract_y
_atom_site_fract_z
Si Si1 0.975202 0.694272 0.271098
Si Si2 0.880946 0.500000 0.603610
Si Si3 0.815050 0.693501 0.634667
Si Si4 0.632425 0.000000 0.843973
Si Si5 0.198478 0.201035 0.980233
Si Si6 0.778704 0.000000 0.013161
Si Si7 0.124490 0.696600 0.790880
Si Si8 0.409241 0.000000 0.890766
O O1 0.919407 0.731600 0.438146
O O2 0.891450 0.702837 0.296722
O O3 0.086271 0.748906 0.100593
O O4 0.017535 0.590098 0.220384
O O5 0.849538 0.588202 0.587853
O O6 0.796688 0.500000 0.798004
O O7 0.000000 0.500000 0.500000
O O8 0.705641 0.727915 0.725920
O O9 0.786379 0.709163 0.779711
O O10 0.672377 0.903842 0.751705
O O11 0.500000 0.000000 0.000000
O O12 0.640599 0.000000 0.941888
O O13 0.250000 0.250000 0.000000
O O14 0.165864 0.098344 0.052007
O O15 0.694126 0.000000 0.040785
O O16 0.000000 0.702529 0.000000
#
# Coordination Sequence:
#
# PCOD9175967 Si02
#       8
#     8   4   8   4   8   4   8   4
#     4  12  22  37  64  89 122 160 203 254 306 358
#     4  10  22  41  60  90 122 152 200 262 294 355
#     4  11  24  39  61  93 122 156 205 252 305 362
#     4  10  18  33  61  87 117 152 202 255 290 353
#     4  11  23  39  60  87 120 160 198 253 309 364
#     4  10  22  36  57  85 120 151 201 241 306 360
#     4  11  20  40  60  91 125 160 203 249 305 364
#     4  12  18  34  61  92 112 157 204 257 300 342
#
# _framework density 18.529115999999998
#
# number of rings (size 3 to 8) (size 9 to 14) (size 15 to 20)
#    0.000    1.000    6.667    2.000    2.333    0.000 
#    0.000    2.083    0.000    1.000    0.000    0.000 
#    0.000    0.000    0.000    0.000    0.000    0.000 
#
# Total GULP energy -133660.938134 kJ/mol
# GULP energy per Si atom -5569.205756 kJ/mol
# Density = 1.848694 g / cm^3
# Si number density = 18.529116 Si / 1000 Ang^3
#
#
#
# Elastic Constant Matrix: (Units=GPa)
#
#
# Indices 1 2 3 4 5 6 
#
# 1 89.7213 50.7461 14.0584 0.0000 12.8162 0.0000
# 2 50.7461 121.0529 26.7247 0.0000 -10.5208 0.0000
# 3 14.0584 26.7247 59.7702 0.0000 20.2260 0.0000
# 4 0.0000 0.0000 0.0000 10.9255 0.0000 0.3967
# 5 12.8162 -10.5208 20.2260 0.0000 34.1160 0.0000
# 6 0.0000 0.0000 0.0000 0.3967 0.0000 30.2140
#
#
#
# Elastic Compliance Matrix: (Units=1/GPa)
#
#
# Indices 1 2 3 4 5 6 
#
# 1 0.017397 -0.009194 0.003990 0.000000 -0.011736 0.000000
# 2 -0.009194 0.015378 -0.009366 0.000000 0.013749 0.000000
# 3 0.003990 -0.009366 0.026851 0.000000 -0.020306 0.000000
# 4 0.000000 0.000000 0.000000 0.091572 0.000000 -0.001202
# 5 -0.011736 0.013749 -0.020306 0.000000 0.049999 0.000000
# 6 0.000000 0.000000 0.000000 -0.001202 0.000000 0.033113
#
#
# Mechanical properties :
#
#
# Convention : Reuss Voigt Hill
#
# Bulk Modulus (GPa) = 32.80010 50.40033 41.60022
# Shear Modulus (GPa) = 18.27412 26.98546 22.62979
#
# Velocity S-wave (km/s) = 3.14385 3.82040 3.49852
# Velocity P-wave (km/s) = 5.56046 6.83522 6.23053
#
# Compressibility (1/GPa) = 0.03048771
#
# Stress axis : x y z
#
# Youngs Moduli (GPa) = 57.48156 65.03000 37.24211
#
# Poissons Ratio (x) = 0.59788 -0.14861
# Poissons Ratio (y) = 0.52848 0.34880
# Poissons Ratio (z) = -0.22938 0.60905
#
# Static dielectric constant tensor:
#      x y z
#    x 1.617590 0.000000 0.008180 
#    y 0.000000 1.520760 0.000000 
#    z 0.008180 0.000000 1.644510 
# 
# From -- ./inp_files/167613.got.cif
#   From: 2010.05.17/outbox.cif.g08.bks.cpg/sg12_84_cif.got.tgz:167613.got - 2010.06.03 13:09:07.
