data_PCOD9175472
_publ_section_title
;
Structure prediction by ZEFSAII (Michael W. Deem and Ramdas Pophale) SiO2 
 PCOD9175472
Probable space group: C 2/M
;
_chemical_formula_sum "Si O2"
_cell_formula_units_Z 40
_cell_length_a 23.791654
_cell_length_b 13.048162
_cell_length_c 10.194415
_cell_angle_alpha 90.000000
_cell_angle_beta 131.752402
_cell_angle_gamma 90.000000
_cell_volume 2360.979746
_symmetry_space_group_name_H-M "C 2/M"
_symmetry_group_IT_number 12
_symmetry_cell_setting 'monoclinic'
loop_
_space_group_symop_operation_xyz
x,y,z
-x,y,-z
-x,-y,-z
x,-y,z
1/2+x,1/2+y,z
1/2-x,1/2+y,-z
1/2-x,1/2-y,-z
1/2+x,1/2-y,z
loop_
_atom_site_type_symbol
_atom_site_label
_atom_site_fract_x
_atom_site_fract_y
_atom_site_fract_z
Si Si1 0.651931 0.770535 0.478884
Si Si2 0.953380 0.827103 0.065025
Si Si3 0.945238 0.115042 0.536202
Si Si4 0.193885 0.881014 0.303212
Si Si5 0.502661 0.887270 0.161174
O O1 0.618535 0.700300 0.542487
O O2 0.727266 0.833963 0.622474
O O3 0.668704 0.690822 0.386069
O O4 0.585138 0.847274 0.331366
O O5 0.003260 0.881334 0.252638
O O6 0.948232 0.708659 0.104245
O O7 0.872188 0.871884 0.906695
O O8 0.000000 0.830411 0.000000
O O9 0.000000 0.137313 0.500000
O O10 0.914529 0.000000 0.473193
O O11 0.201909 0.000000 0.354620
O O12 0.485905 0.000000 0.190404
O O13 0.500000 0.896004 0.000000
#
# Coordination Sequence:
#
# PCOD9175472 Si02
#       5
#     8   8   8   8   8
#     4  10  20  32  47  77 106 135 170 209 260 308
#     4  10  18  33  52  80 102 134 177 214 254 300
#     4  10  20  35  56  78 104 137 171 212 259 305
#     4  11  20  31  50  76 106 136 169 215 260 303
#     4   9  15  28  46  68 101 132 164 205 250 301
#
# _framework density 16.942119000000002
#
# number of rings (size 3 to 8) (size 9 to 14) (size 15 to 20)
#    0.000    2.000    6.000    1.800    0.000    0.800 
#    0.000    2.000    0.000   15.000    0.000    0.000 
#    0.000    0.000    0.000    0.000    0.000    0.000 
#
# Total GULP energy -111382.798167 kJ/mol
# GULP energy per Si atom -5569.139908 kJ/mol
# Density = 1.690356 g / cm^3
# Si number density = 16.942119 Si / 1000 Ang^3
#
#
#
# Elastic Constant Matrix: (Units=GPa)
#
#
# Indices 1 2 3 4 5 6 
#
# 1 47.3384 19.1030 25.3193 0.0000 2.4183 0.0000
# 2 19.1030 103.2029 6.1782 0.0000 4.4536 0.0000
# 3 25.3193 6.1782 43.0364 0.0000 11.2943 0.0000
# 4 0.0000 0.0000 0.0000 10.0383 0.0000 5.5273
# 5 2.4183 4.4536 11.2943 0.0000 24.2804 0.0000
# 6 0.0000 0.0000 0.0000 5.5273 0.0000 18.3280
#
#
#
# Elastic Compliance Matrix: (Units=1/GPa)
#
#
# Indices 1 2 3 4 5 6 
#
# 1 0.034383 -0.005407 -0.021430 0.000000 0.007536 0.000000
# 2 -0.005407 0.010660 0.002304 0.000000 -0.002488 0.000000
# 3 -0.021430 0.002304 0.039940 0.000000 -0.016867 0.000000
# 4 0.000000 0.000000 0.000000 0.119454 0.000000 -0.036025
# 5 0.007536 -0.002488 -0.016867 0.000000 0.048737 0.000000
# 6 0.000000 0.000000 0.000000 -0.036025 0.000000 0.065426
#
#
# Mechanical properties :
#
#
# Convention : Reuss Voigt Hill
#
# Bulk Modulus (GPa) = 27.84217 32.75318 30.29767
# Shear Modulus (GPa) = 13.17044 20.06115 16.61579
#
# Velocity S-wave (km/s) = 2.79118 3.44481 3.13507
# Velocity P-wave (km/s) = 5.18237 5.93267 5.57017
#
# Compressibility (1/GPa) = 0.03591674
#
# Stress axis : x y z
#
# Youngs Moduli (GPa) = 29.08386 93.80943 25.03784
#
# Poissons Ratio (x) = 0.50720 0.53656
# Poissons Ratio (y) = 0.15725 -0.05768
# Poissons Ratio (z) = 0.62326 -0.21610
#
# Static dielectric constant tensor:
#      x y z
#    x 1.564130 0.000000 0.005270 
#    y 0.000000 1.623360 0.000000 
#    z 0.005270 0.000000 1.563010 
# 
# From -- ./inp_files/85295.got.cif
#   From: 2010.05.17/outbox.cif.g08.bks.cpg/sg12_43_cif.got.tgz:85295.got - 2010.06.03 13:09:07.
