data_PCOD9175468
_publ_section_title
;
Structure prediction by ZEFSAII (Michael W. Deem and Ramdas Pophale) SiO2 
 PCOD9175468
Probable space group: C 2/M
;
_chemical_formula_sum "Si O2"
_cell_formula_units_Z 40
_cell_length_a 14.307532
_cell_length_b 21.935086
_cell_length_c 12.879943
_cell_angle_alpha 90.000000
_cell_angle_beta 31.795323
_cell_angle_gamma 90.000000
_cell_volume 2129.781311
_symmetry_space_group_name_H-M "C 2/M"
_symmetry_group_IT_number 12
_symmetry_cell_setting 'monoclinic'
loop_
_space_group_symop_operation_xyz
x,y,z
-x,y,-z
-x,-y,-z
x,-y,z
1/2+x,1/2+y,z
1/2-x,1/2+y,-z
1/2-x,1/2-y,-z
1/2+x,1/2-y,z
loop_
_atom_site_type_symbol
_atom_site_label
_atom_site_fract_x
_atom_site_fract_y
_atom_site_fract_z
Si Si1 0.611201 0.158343 0.497669
Si Si2 0.329248 0.700775 0.588371
Si Si3 0.543456 0.194972 0.132225
Si Si4 0.583855 0.670172 0.172330
Si Si5 0.057496 0.070364 0.825970
O O1 0.500000 0.142325 0.500000
O O2 0.686106 0.225877 0.401753
O O3 0.504406 0.169921 0.706177
O O4 0.760428 0.106943 0.363808
O O5 0.500000 0.687617 0.500000
O O6 0.123644 0.680292 0.783609
O O7 0.406374 0.675893 0.407213
O O8 0.576314 0.268111 0.110780
O O9 0.740104 0.171244 0.923011
O O10 0.583016 0.609497 0.106344
O O11 0.069938 0.000000 0.782682
O O12 0.000000 0.072877 0.000000
#
# Coordination Sequence:
#
# PCOD9175468 Si02
#       5
#     8   8   8   8   8
#     4  10  18  33  52  78 114 143 176 226 269 325
#     4  10  19  33  55  84 111 136 174 227 281 328
#     4  10  18  33  56  81 107 141 179 223 287 330
#     4  10  19  35  54  78 111 141 178 228 275 324
#     4  11  22  35  52  77 113 154 190 220 261 324
#
# _framework density 18.781271
#
# number of rings (size 3 to 8) (size 9 to 14) (size 15 to 20)
#    0.000    1.800    4.000    2.400    0.000    2.800 
#    0.000    1.000    0.000    0.600    0.000    1.400 
#    0.000    0.000    0.000    0.000    0.000    0.000 
#
# Total GULP energy -111373.447520 kJ/mol
# GULP energy per Si atom -5568.672376 kJ/mol
# Density = 1.873852 g / cm^3
# Si number density = 18.781271 Si / 1000 Ang^3
#
#
#
# Elastic Constant Matrix: (Units=GPa)
#
#
# Indices 1 2 3 4 5 6 
#
# 1 97.8663 44.9652 30.4620 0.0046 -36.9013 -0.0025
# 2 44.9652 97.6033 29.8401 0.0049 0.3819 -0.0059
# 3 30.4620 29.8401 93.3861 0.0055 -29.4020 -0.0076
# 4 0.0046 0.0049 0.0055 12.9146 -0.0048 2.3970
# 5 -36.9013 0.3819 -29.4020 -0.0048 38.5654 0.0047
# 6 -0.0025 -0.0059 -0.0076 2.3970 0.0047 20.8591
#
#
#
# Elastic Compliance Matrix: (Units=1/GPa)
#
#
# Indices 1 2 3 4 5 6 
#
# 1 0.025448 -0.013306 0.004814 0.000006 0.028152 -0.000006
# 2 -0.013306 0.018748 -0.007523 -0.000007 -0.018653 0.000006
# 3 0.004814 -0.007523 0.017127 0.000000 0.017738 0.000001
# 4 0.000006 -0.000007 0.000000 0.079119 0.000017 -0.009092
# 5 0.028152 -0.018653 0.017738 0.000017 0.066575 -0.000012
# 6 -0.000006 0.000006 0.000001 -0.009092 -0.000012 0.048986
#
#
# Mechanical properties :
#
#
# Convention : Reuss Voigt Hill
#
# Bulk Modulus (GPa) = 34.13772 55.48782 44.81277
# Shear Modulus (GPa) = 16.79001 26.70705 21.74853
#
# Velocity S-wave (km/s) = 2.99319 3.77504 3.40662
# Velocity P-wave (km/s) = 5.49195 6.97206 6.27579
#
# Compressibility (1/GPa) = 0.02929311
#
# Stress axis : x y z
#
# Youngs Moduli (GPa) = 39.29628 53.33794 58.38888
#
# Poissons Ratio (x) = 0.70969 -0.28109
# Poissons Ratio (y) = 0.52286 0.43928
# Poissons Ratio (z) = -0.18917 0.40128
#
# Static dielectric constant tensor:
#      x y z
#    x 1.783870 0.000000 -0.004430 
#    y 0.000000 1.605040 0.000010 
#    z -0.004430 0.000010 1.686700 
# 
# From -- ./inp_files/62296.got.cif
#   From: 2010.05.17/outbox.cif.g08.bks.cpg/sg12_32_cif.got.tgz:62296.got - 2010.06.03 13:09:07.
