data_PCOD9175594
_publ_section_title
;
Structure prediction by ZEFSAII (Michael W. Deem and Ramdas Pophale) SiO2 
 PCOD9175594
Probable space group: C 2/M
;
_chemical_formula_sum "Si O2"
_cell_formula_units_Z 44
_cell_length_a 26.534655
_cell_length_b 7.807298
_cell_length_c 25.604260
_cell_angle_alpha 90.000000
_cell_angle_beta 21.370558
_cell_angle_gamma 90.000000
_cell_volume 1932.870587
_symmetry_space_group_name_H-M "C 2/M"
_symmetry_group_IT_number 12
_symmetry_cell_setting 'monoclinic'
loop_
_space_group_symop_operation_xyz
x,y,z
-x,y,-z
-x,-y,-z
x,-y,z
1/2+x,1/2+y,z
1/2-x,1/2+y,-z
1/2-x,1/2-y,-z
1/2+x,1/2-y,z
loop_
_atom_site_type_symbol
_atom_site_label
_atom_site_fract_x
_atom_site_fract_y
_atom_site_fract_z
Si Si1 0.408634 0.206621 0.860514
Si Si2 0.500000 0.753548 0.500000
Si Si3 0.322901 0.307119 0.770913
Si Si4 0.972069 0.291592 0.916837
Si Si5 0.723160 0.297765 0.360219
Si Si6 0.560692 0.804429 0.613915
O O1 0.447162 0.265249 0.881319
O O2 0.515581 0.270384 0.713189
O O3 0.418083 0.000000 0.850542
O O4 0.250000 0.250000 0.000000
O O5 0.601842 0.680912 0.357089
O O6 0.380889 0.813110 0.574609
O O7 0.318666 0.500000 0.797665
O O8 0.418278 0.200218 0.717725
O O9 0.166227 0.243733 0.918533
O O10 0.981067 0.500000 0.908350
O O11 0.120190 0.236427 0.794890
O O12 0.709364 0.500000 0.357778
O O13 0.671068 0.288390 0.470441
O O14 0.606758 0.000000 0.575887
#
# Coordination Sequence:
#
# PCOD9175594 Si02
#       6
#     8   4   8   8   8   8
#     4  10  19  33  53  79 107 138 174 210 255 311
#     4  10  19  32  55  82 103 134 179 218 261 312
#     4  10  18  33  55  78 105 136 175 218 261 312
#     4   9  19  33  53  79 107 137 172 217 263 306
#     4  10  20  36  54  76 106 139 177 219 260 309
#     4  10  20  33  52  78 108 139 175 214 255 309
#
# _framework density 22.764068999999999
#
# number of rings (size 3 to 8) (size 9 to 14) (size 15 to 20)
#    0.000    2.182    1.818    3.273    0.000    2.182 
#    0.000   11.818    0.000    0.000    0.000   10.182 
#    0.000    0.000    0.000    0.000    0.000    0.000 
#
# Total GULP energy -122579.073153 kJ/mol
# GULP energy per Si atom -5571.776052 kJ/mol
# Density = 2.271226 g / cm^3
# Si number density = 22.764069 Si / 1000 Ang^3
#
#
#
# Elastic Constant Matrix: (Units=GPa)
#
#
# Indices 1 2 3 4 5 6 
#
# 1 79.5042 6.1987 50.6137 0.0024 3.2489 -0.0006
# 2 6.1987 48.6308 3.0953 -0.0192 0.4291 0.0007
# 3 50.6137 3.0953 165.4354 -0.0048 -12.9740 -0.0002
# 4 0.0024 -0.0192 -0.0048 12.4290 0.0014 -0.0906
# 5 3.2489 0.4291 -12.9740 0.0014 35.8056 0.0014
# 6 -0.0006 0.0007 -0.0002 -0.0906 0.0014 2.4575
#
#
#
# Elastic Compliance Matrix: (Units=1/GPa)
#
#
# Indices 1 2 3 4 5 6 
#
# 1 0.016133 -0.001698 -0.005164 -0.000007 -0.003315 0.000006
# 2 -0.001698 0.020772 0.000127 0.000032 -0.000049 -0.000005
# 3 -0.005164 0.000127 0.007883 0.000004 0.003323 -0.000003
# 4 -0.000007 0.000032 0.000004 0.080479 -0.000002 0.002965
# 5 -0.003315 -0.000049 0.003323 -0.000002 0.029434 -0.000018
# 6 0.000006 -0.000005 -0.000003 0.002965 -0.000018 0.407033
#
#
# Mechanical properties :
#
#
# Convention : Reuss Voigt Hill
#
# Bulk Modulus (GPa) = 31.93116 45.93175 38.93146
# Shear Modulus (GPa) = 8.53762 25.71592 17.12677
#
# Velocity S-wave (km/s) = 1.93872 3.36470 2.74589
# Velocity P-wave (km/s) = 4.36680 5.94273 5.21464
#
# Compressibility (1/GPa) = 0.03131737
#
# Stress axis : x y z
#
# Youngs Moduli (GPa) = 61.98343 48.14185 126.85844
#
# Poissons Ratio (x) = 0.08177 0.65510
# Poissons Ratio (y) = 0.10528 -0.01613
# Poissons Ratio (z) = 0.32008 -0.00612
#
# Static dielectric constant tensor:
#      x y z
#    x 1.828790 0.000020 0.008990 
#    y 0.000020 1.963380 -0.000030 
#    z 0.008990 -0.000030 1.846440 
# 
# From -- ./inp_files/368982.got.cif
#   From: 2010.05.17/outbox.cif.g08.bks.cpg/sg12_185_cif.got.tgz:368982.got - 2010.06.03 13:09:07.
