data_PCOD9175245
_publ_section_title
;
Structure prediction by ZEFSAII (Michael W. Deem and Ramdas Pophale) SiO2 
 PCOD9175245
Probable space group: C 2/M
;
_chemical_formula_sum "Si O2"
_cell_formula_units_Z 56
_cell_length_a 20.540873
_cell_length_b 7.820671
_cell_length_c 21.802083
_cell_angle_alpha 90.000000
_cell_angle_beta 126.776485
_cell_angle_gamma 90.000000
_cell_volume 2805.311099
_symmetry_space_group_name_H-M "C 2/M"
_symmetry_group_IT_number 12
_symmetry_cell_setting 'monoclinic'
loop_
_space_group_symop_operation_xyz
x,y,z
-x,y,-z
-x,-y,-z
x,-y,z
1/2+x,1/2+y,z
1/2-x,1/2+y,-z
1/2-x,1/2-y,-z
1/2+x,1/2-y,z
loop_
_atom_site_type_symbol
_atom_site_label
_atom_site_fract_x
_atom_site_fract_y
_atom_site_fract_z
Si Si1 0.003726 0.699756 0.800664
Si Si2 0.146380 0.196579 0.210591
Si Si3 0.742317 0.200093 0.383133
Si Si4 0.076307 0.798250 0.504099
Si Si5 0.588287 0.207272 0.371924
Si Si6 0.342756 0.296425 0.043644
Si Si7 0.093858 0.209332 0.051812
O O1 0.982170 0.500000 0.794089
O O2 0.096589 0.724122 0.870998
O O3 0.946081 0.796386 0.816277
O O4 0.976665 0.753571 0.717445
O O5 0.200555 0.285040 0.292967
O O6 0.141824 0.268435 0.139380
O O7 0.173234 0.000000 0.223357
O O8 0.832935 0.275766 0.433146
O O9 0.676148 0.268884 0.395032
O O10 0.750661 0.000000 0.403223
O O11 0.065296 0.778029 0.425011
O O12 0.000000 0.727125 0.500000
O O13 0.080457 0.000000 0.522141
O O14 0.590930 0.000000 0.377772
O O15 0.352552 0.500000 0.050274
O O16 0.250000 0.250000 0.000000
O O17 0.369594 0.233600 0.991750
O O18 0.095206 0.000000 0.054878
O O19 0.000000 0.262204 0.000000
#
# Coordination Sequence:
#
# PCOD9175245 Si02
#       7
#     8   8   8   8   8   8   8
#     4  10  20  36  56  82 114 144 179 228 279 323
#     4  10  18  32  57  85 107 139 185 228 273 323
#     4   9  19  36  55  79 112 141 175 226 273 319
#     4  10  21  37  56  79 111 145 175 218 276 327
#     4   9  19  35  57  81 105 138 179 224 269 319
#     4  11  22  38  57  79 112 150 189 230 274 327
#     4   9  17  33  56  80 108 141 180 228 273 317
#
# _framework density 19.962135
#
# number of rings (size 3 to 8) (size 9 to 14) (size 15 to 20)
#    0.000    2.286    1.429    2.571    0.000    3.714 
#    2.571    3.571    0.000    0.000    0.000    0.000 
#    0.000    0.000    0.000    0.000    0.000    0.000 
#
# Total GULP energy -156221.885857 kJ/mol
# GULP energy per Si atom -5579.353066 kJ/mol
# Density = 1.991670 g / cm^3
# Si number density = 19.962135 Si / 1000 Ang^3
#
#
#
# Elastic Constant Matrix: (Units=GPa)
#
#
# Indices 1 2 3 4 5 6 
#
# 1 153.9117 -1.2597 82.0165 0.0000 2.0595 0.0000
# 2 -1.2597 24.6399 -7.8137 0.0000 -0.8308 0.0000
# 3 82.0165 -7.8137 119.6276 0.0000 2.8567 0.0000
# 4 0.0000 0.0000 0.0000 14.1250 0.0000 6.2355
# 5 2.0595 -0.8308 2.8567 0.0000 25.2163 0.0000
# 6 0.0000 0.0000 0.0000 6.2355 0.0000 6.4926
#
#
#
# Elastic Compliance Matrix: (Units=1/GPa)
#
#
# Indices 1 2 3 4 5 6 
#
# 1 0.010311 -0.001753 -0.007182 0.000000 -0.000086 0.000000
# 2 -0.001753 0.041769 0.003905 0.000000 0.001077 0.000000
# 3 -0.007182 0.003905 0.013558 0.000000 -0.000821 0.000000
# 4 0.000000 0.000000 0.000000 0.122905 0.000000 -0.118040
# 5 -0.000086 0.001077 -0.000821 0.000000 0.039792 0.000000
# 6 0.000000 0.000000 0.000000 -0.118040 0.000000 0.267389
#
#
# Mechanical properties :
#
#
# Convention : Reuss Voigt Hill
#
# Bulk Modulus (GPa) = 17.99292 49.34060 33.66676
# Shear Modulus (GPa) = 9.53633 24.18252 16.85942
#
# Velocity S-wave (km/s) = 2.18805 3.48432 2.90930
# Velocity P-wave (km/s) = 3.92639 6.39985 5.30917
#
# Compressibility (1/GPa) = 0.05557742
#
# Stress axis : x y z
#
# Youngs Moduli (GPa) = 96.98381 23.94095 73.75917
#
# Poissons Ratio (x) = 0.04197 0.52971
# Poissons Ratio (y) = 0.17003 -0.28799
# Poissons Ratio (z) = 0.69650 -0.09348
#
# Static dielectric constant tensor:
#      x y z
#    x 1.685230 0.000000 0.000040 
#    y 0.000000 1.761890 0.000000 
#    z 0.000040 0.000000 1.698720 
# 
# From -- ./inp_files/314430.got.cif
#   From: 2010.05.17/outbox.cif.g08.bks.cpg/sg12_158_cif.got.tgz:314430.got - 2010.06.03 13:09:07.
