data_PCOD9175737
_publ_section_title
;
Structure prediction by ZEFSAII (Michael W. Deem and Ramdas Pophale) SiO2 
 PCOD9175737
Probable space group: C 2/M
;
_chemical_formula_sum "Si O2"
_cell_formula_units_Z 64
_cell_length_a 23.711843
_cell_length_b 13.728648
_cell_length_c 10.994145
_cell_angle_alpha 90.000000
_cell_angle_beta 75.359041
_cell_angle_gamma 90.000000
_cell_volume 3462.728246
_symmetry_space_group_name_H-M "C 2/M"
_symmetry_group_IT_number 12
_symmetry_cell_setting 'monoclinic'
loop_
_space_group_symop_operation_xyz
x,y,z
-x,y,-z
-x,-y,-z
x,-y,z
1/2+x,1/2+y,z
1/2-x,1/2+y,-z
1/2-x,1/2-y,-z
1/2+x,1/2-y,z
loop_
_atom_site_type_symbol
_atom_site_label
_atom_site_fract_x
_atom_site_fract_y
_atom_site_fract_z
Si Si1 0.500220 0.318600 0.136629
Si Si2 0.807261 0.113422 0.189308
Si Si3 0.565486 0.787207 0.511798
Si Si4 0.710645 0.238074 0.139622
Si Si5 0.889777 0.390789 0.747608
Si Si6 0.627517 0.385601 0.106306
Si Si7 0.521201 0.109029 0.771730
Si Si8 0.898137 0.109525 0.355905
O O1 0.566147 0.329204 0.148493
O O2 0.475395 0.207300 0.149901
O O3 0.457647 0.378605 0.246167
O O4 0.500000 0.357174 0.000000
O O5 0.753939 0.189461 0.213355
O O6 0.846933 0.127155 0.286182
O O7 0.787386 0.000000 0.197214
O O8 0.846723 0.126231 0.045380
O O9 0.500000 0.763333 0.500000
O O10 0.600848 0.833324 0.382560
O O11 0.555216 0.862981 0.628768
O O12 0.596940 0.692125 0.545728
O O13 0.659105 0.160817 0.146373
O O14 0.675170 0.338719 0.171225
O O15 0.750000 0.250000 0.000000
O O16 0.871382 0.500000 0.730093
O O17 0.952839 0.394565 0.775664
O O18 0.618456 0.500000 0.131945
O O19 0.537849 0.000000 0.806875
O O20 0.893052 0.000000 0.406413
#
# Coordination Sequence:
#
# PCOD9175737 Si02
#       8
#     8   8   8   8   8   8   8   8
#     4  11  19  30  51  78 112 143 177 216 268 331
#     4   9  18  33  53  76 103 139 182 220 259 313
#     4   9  19  34  52  78 110 139 182 226 275 317
#     4  10  20  34  54  79 108 133 173 223 271 309
#     4  10  18  33  57  78  98 135 185 225 263 317
#     4  10  19  32  50  76 108 140 177 217 260 319
#     4   9  18  32  51  76 107 139 175 224 274 317
#     4  10  20  33  52  78 110 147 180 219 270 324
#
# _framework density 18.482537000000001
#
# number of rings (size 3 to 8) (size 9 to 14) (size 15 to 20)
#    0.000    2.250    2.500    1.125    0.000    3.000 
#    0.000    1.250    0.000    3.750    0.000    0.000 
#    0.000    0.000    0.000    0.000    0.000    0.000 
#
# Total GULP energy -178307.534027 kJ/mol
# GULP energy per Si atom -5572.110438 kJ/mol
# Density = 1.844047 g / cm^3
# Si number density = 18.482537 Si / 1000 Ang^3
#
#
#
# Elastic Constant Matrix: (Units=GPa)
#
#
# Indices 1 2 3 4 5 6 
#
# 1 59.1615 23.5217 -0.1731 0.0000 -7.9130 0.0000
# 2 23.5217 107.2105 5.3152 0.0000 3.1523 0.0000
# 3 -0.1731 5.3152 27.6001 0.0000 -5.8403 0.0000
# 4 0.0000 0.0000 0.0000 11.1598 0.0000 -0.7426
# 5 -7.9130 3.1523 -5.8403 0.0000 15.4988 0.0000
# 6 0.0000 0.0000 0.0000 -0.7426 0.0000 19.8149
#
#
#
# Elastic Compliance Matrix: (Units=1/GPa)
#
#
# Indices 1 2 3 4 5 6 
#
# 1 0.020697 -0.005118 0.003881 0.000000 0.013070 0.000000
# 2 -0.005118 0.010798 -0.003400 0.000000 -0.006090 0.000000
# 3 0.003881 -0.003400 0.040724 0.000000 0.018019 0.000000
# 4 0.000000 0.000000 0.000000 0.089831 0.000000 0.003366
# 5 0.013070 -0.006090 0.018019 0.000000 0.079223 0.000000
# 6 0.000000 0.000000 0.000000 0.003366 0.000000 0.050593
#
#
# Mechanical properties :
#
#
# Convention : Reuss Voigt Hill
#
# Bulk Modulus (GPa) = 15.88687 27.92221 21.90454
# Shear Modulus (GPa) = 15.52209 20.31524 17.91867
#
# Velocity S-wave (km/s) = 2.90112 3.31895 3.11704
# Velocity P-wave (km/s) = 4.45379 5.46145 4.98315
#
# Compressibility (1/GPa) = 0.06294505
#
# Stress axis : x y z
#
# Youngs Moduli (GPa) = 48.31594 92.61067 24.55570
#
# Poissons Ratio (x) = 0.47395 -0.09530
# Poissons Ratio (y) = 0.24726 0.08350
# Poissons Ratio (z) = -0.18752 0.31490
#
# Static dielectric constant tensor:
#      x y z
#    x 1.628060 0.000000 0.011000 
#    y 0.000000 1.673780 0.000000 
#    z 0.011000 0.000000 1.608480 
# 
# From -- ./inp_files/175255.got.cif
#   From: 2010.05.17/outbox.cif.g08.bks.cpg/sg12_88_cif.got.tgz:175255.got - 2010.06.03 13:09:07.
