data_PCOD9175479
_publ_section_title
;
Structure prediction by ZEFSAII (Michael W. Deem and Ramdas Pophale) SiO2 
 PCOD9175479
Probable space group: C 2/M
;
_chemical_formula_sum "Si O2"
_cell_formula_units_Z 60
_cell_length_a 26.889516
_cell_length_b 27.854540
_cell_length_c 12.448132
_cell_angle_alpha 90.000000
_cell_angle_beta 21.460667
_cell_angle_gamma 90.000000
_cell_volume 3411.151128
_symmetry_space_group_name_H-M "C 2/M"
_symmetry_group_IT_number 12
_symmetry_cell_setting 'monoclinic'
loop_
_space_group_symop_operation_xyz
x,y,z
-x,y,-z
-x,-y,-z
x,-y,z
1/2+x,1/2+y,z
1/2-x,1/2+y,-z
1/2-x,1/2-y,-z
1/2+x,1/2-y,z
loop_
_atom_site_type_symbol
_atom_site_label
_atom_site_fract_x
_atom_site_fract_y
_atom_site_fract_z
Si Si1 0.556959 0.347443 0.507243
Si Si2 0.223444 0.194021 0.535269
Si Si3 0.607416 0.053792 0.380056
Si Si4 0.500000 0.865538 0.000000
Si Si5 0.960765 0.633835 0.311643
Si Si6 0.724118 0.798781 0.804796
Si Si7 0.357503 0.553299 0.726301
Si Si8 0.671551 0.686691 0.872076
O O1 0.500000 0.343194 0.500000
O O2 0.676061 0.309898 0.297207
O O3 0.623660 0.400544 0.386813
O O4 0.433432 0.338746 0.837431
O O5 0.250000 0.250000 0.500000
O O6 0.189632 0.188836 0.477541
O O7 0.137632 0.179384 0.812960
O O8 0.367462 0.167476 0.256115
O O9 0.500000 0.052749 0.500000
O O10 0.562231 0.093059 0.555155
O O11 0.617291 0.000000 0.406861
O O12 0.748374 0.065256 0.037513
O O13 0.484377 0.890088 0.146710
O O14 0.823462 0.665622 0.582775
O O15 0.090244 0.667693 0.076383
O O16 0.678112 0.743508 0.886097
O O17 0.500000 0.548888 0.500000
O O18 0.322679 0.500000 0.750904
#
# Coordination Sequence:
#
# PCOD9175479 Si02
#       8
#     8   8   8   4   8   8   8   8
#     4  11  22  34  48  74 106 134 166 204 249 299
#     4   8  16  30  50  71  93 126 172 214 238 271
#     4  10  20  34  54  76  94 122 169 214 247 287
#     4   8  16  28  45  72 100 126 156 200 255 298
#     4  10  18  33  53  73 101 132 164 205 251 296
#     4  10  20  34  52  74 102 137 169 201 246 291
#     4   9  18  34  53  71  93 124 165 210 249 284
#     4  10  20  34  52  75 102 133 171 207 240 291
#
# _framework density 17.589371
#
# number of rings (size 3 to 8) (size 9 to 14) (size 15 to 20)
#    0.000    2.400    0.000    3.200    0.000    4.267 
#    0.000    3.000    0.000    0.000    0.000    3.733 
#    0.000    0.000    0.000    1.333    0.000    0.000 
#
# Total GULP energy -167043.836383 kJ/mol
# GULP energy per Si atom -5568.127879 kJ/mol
# Density = 1.754934 g / cm^3
# Si number density = 17.589371 Si / 1000 Ang^3
#
#
#
# Elastic Constant Matrix: (Units=GPa)
#
#
# Indices 1 2 3 4 5 6 
#
# 1 76.9207 38.5895 39.3172 0.5199 15.2807 -0.0040
# 2 38.5895 94.0601 52.5760 0.0553 23.5044 0.0017
# 3 39.3172 52.5760 120.2501 1.8371 25.4222 -0.0117
# 4 0.5199 0.0553 1.8371-1199.1162 -0.8444 8.5317
# 5 15.2807 23.5044 25.4222 -0.8444 25.5556 0.0062
# 6 -0.0040 0.0017 -0.0117 8.5317 0.0062 9.3281
#
#
#
# Elastic Compliance Matrix: (Units=1/GPa)
#
#
# Indices 1 2 3 4 5 6 
#
# 1 0.017531 -0.004729 -0.002998 0.000005 -0.003150 0.000002
# 2 -0.004729 0.017032 -0.004035 -0.000001 -0.008823 -0.000003
# 3 -0.002998 -0.004035 0.012532 0.000023 -0.006962 -0.000001
# 4 0.000005 -0.000001 0.000023 -0.000828 -0.000052 0.000758
# 5 -0.003150 -0.008823 -0.006962 -0.000052 0.056052 0.000002
# 6 0.000002 -0.000003 -0.000001 0.000758 0.000002 0.106510
#
#
# Mechanical properties :
#
#
# Convention : Reuss Voigt Hill
#
# Bulk Modulus (GPa) = 42.42749 61.35513 51.89131
# Shear Modulus (GPa) = 20.81498 -222.12994 -100.65748
#
# Velocity S-wave (km/s) = 3.44377 -11.24992 -7.57301
# Velocity P-wave (km/s) = 6.32346 11.56676 6.84849
#
# Compressibility (1/GPa) = 0.02356963
#
# Stress axis : x y z
#
# Youngs Moduli (GPa) = 57.04065 58.71280 79.79521
#
# Poissons Ratio (x) = 0.27767 0.23926
# Poissons Ratio (y) = 0.26976 0.32199
# Poissons Ratio (z) = 0.17103 0.23692
#
# Static dielectric constant tensor:
#      x y z
#    x 1.633460 0.000000 0.009800 
#    y 0.000000 1.600350 0.000000 
#    z 0.009800 0.000000 1.600120 
# 
# From -- ./inp_files/185232.got.cif
#   From: 2010.05.17/outbox.cif.g08.bks.cpg/sg12_93_cif.got.tgz:185232.got - 2010.06.03 13:09:07.
