data_PCOD9175328
_publ_section_title
;
Structure prediction by ZEFSAII (Michael W. Deem and Ramdas Pophale) SiO2 
 PCOD9175328
Probable space group: C 2/M
;
_chemical_formula_sum "Si O2"
_cell_formula_units_Z 56
_cell_length_a 21.009587
_cell_length_b 13.993767
_cell_length_c 24.135038
_cell_angle_alpha 90.000000
_cell_angle_beta 26.371087
_cell_angle_gamma 90.000000
_cell_volume 3151.825706
_symmetry_space_group_name_H-M "C 2/M"
_symmetry_group_IT_number 12
_symmetry_cell_setting 'monoclinic'
loop_
_space_group_symop_operation_xyz
x,y,z
-x,y,-z
-x,-y,-z
x,-y,z
1/2+x,1/2+y,z
1/2-x,1/2+y,-z
1/2-x,1/2-y,-z
1/2+x,1/2-y,z
loop_
_atom_site_type_symbol
_atom_site_label
_atom_site_fract_x
_atom_site_fract_y
_atom_site_fract_z
Si Si1 0.381130 0.614482 0.044493
Si Si2 0.121860 0.607709 0.732841
Si Si3 0.662171 0.314762 0.527241
Si Si4 0.098144 0.781255 0.091085
Si Si5 0.853941 0.107824 0.647387
Si Si6 0.360815 0.254178 0.742355
Si Si7 0.072740 0.105763 0.218473
O O1 0.375947 0.500000 0.040896
O O2 0.230214 0.658634 0.183054
O O3 0.500000 0.634815 0.000000
O O4 0.405203 0.667047 0.966287
O O5 0.066770 0.500000 0.765980
O O6 0.232306 0.638312 0.598618
O O7 0.221004 0.606609 0.709750
O O8 0.999580 0.686753 0.833258
O O9 0.750000 0.250000 0.500000
O O10 0.533571 0.248680 0.603377
O O11 0.927309 0.108027 0.367957
O O12 0.041395 0.855186 0.181978
O O13 0.250000 0.750000 0.000000
O O14 0.820715 0.180862 0.721753
O O15 0.000000 0.132040 0.500000
O O16 0.877461 0.000000 0.651544
O O17 0.334934 0.317251 0.818409
O O18 0.135488 0.000000 0.168261
#
# Coordination Sequence:
#
# PCOD9175328 Si02
#       7
#     8   8   8   8   8   8   8
#     4  11  25  46  67  86 119 169 218 260 304 358
#     4  11  22  36  60  91 125 158 196 247 308 374
#     4  10  19  36  55  88 126 154 191 243 308 369
#     4  12  23  43  60  87 120 160 215 260 305 355
#     4  10  18  32  58  93 126 156 188 229 301 377
#     4  10  20  37  62  89 122 158 197 248 303 368
#     4  10  20  35  59  85 118 155 192 243 305 362
#
# _framework density 17.767479999999999
#
# number of rings (size 3 to 8) (size 9 to 14) (size 15 to 20)
#    0.857    0.571    4.286    2.143    0.000    1.143 
#    0.000    0.714    0.000    3.429    0.000    0.000 
#    0.000    0.000    0.000    0.000    0.000    0.000 
#
# Total GULP energy -155915.095068 kJ/mol
# GULP energy per Si atom -5568.396252 kJ/mol
# Density = 1.772704 g / cm^3
# Si number density = 17.767480 Si / 1000 Ang^3
#
#
#
# Elastic Constant Matrix: (Units=GPa)
#
#
# Indices 1 2 3 4 5 6 
#
# 1 106.8823 58.0059 40.0266 -0.0007 9.4088 0.0000
# 2 58.0059 112.4015 55.5165 -0.0102 -3.9382 -0.0002
# 3 40.0266 55.5165 76.2606 -0.0042 4.5998 0.0002
# 4 -0.0007 -0.0102 -0.0042 23.6481 0.0003 -6.7683
# 5 9.4088 -3.9382 4.5998 0.0003 31.3721 0.0005
# 6 0.0000 -0.0002 0.0002 -6.7683 0.0005 20.0926
#
#
#
# Elastic Compliance Matrix: (Units=1/GPa)
#
#
# Indices 1 2 3 4 5 6 
#
# 1 0.014073 -0.006109 -0.002662 -0.000003 -0.004597 -0.000001
# 2 -0.006109 0.016881 -0.009404 0.000006 0.005330 0.000002
# 3 -0.002662 -0.009404 0.021570 0.000000 -0.003545 0.000000
# 4 -0.000003 0.000006 0.000000 0.046799 0.000001 0.015764
# 5 -0.004597 0.005330 -0.003545 0.000001 0.034443 0.000000
# 6 -0.000001 0.000002 0.000000 0.015764 0.000000 0.055080
#
#
# Mechanical properties :
#
#
# Convention : Reuss Voigt Hill
#
# Bulk Modulus (GPa) = 61.82819 66.96027 64.39423
# Shear Modulus (GPa) = 21.68386 24.48892 23.08639
#
# Velocity S-wave (km/s) = 3.49725 3.71657 3.60858
# Velocity P-wave (km/s) = 7.15414 7.49573 7.32693
#
# Compressibility (1/GPa) = 0.01617385
#
# Stress axis : x y z
#
# Youngs Moduli (GPa) = 71.05829 59.23928 46.36066
#
# Poissons Ratio (x) = 0.36188 0.12342
# Poissons Ratio (y) = 0.43408 0.43598
# Poissons Ratio (z) = 0.18916 0.55709
#
# Static dielectric constant tensor:
#      x y z
#    x -3.806680 -0.000420 -10.481090 
#    y -0.000420 1.590400 -0.000800 
#    z -10.481090 -0.000800 -18.596440 
# 
# From -- ./inp_files/346996.got.cif
#   From: 2010.05.17/outbox.cif.g08.bks.cpg/sg12_174_cif.got.tgz:346996.got - 2010.06.03 13:09:07.
