data_PCOD9175211
_publ_section_title
;
Structure prediction by ZEFSAII (Michael W. Deem and Ramdas Pophale) SiO2 
 PCOD9175211
Probable space group: C 2/M
;
_chemical_formula_sum "Si O2"
_cell_formula_units_Z 58
_cell_length_a 14.343802
_cell_length_b 17.534753
_cell_length_c 20.015841
_cell_angle_alpha 90.000000
_cell_angle_beta 36.098139
_cell_angle_gamma 90.000000
_cell_volume 2966.050117
_symmetry_space_group_name_H-M "C 2/M"
_symmetry_group_IT_number 12
_symmetry_cell_setting 'monoclinic'
loop_
_space_group_symop_operation_xyz
x,y,z
-x,y,-z
-x,-y,-z
x,-y,z
1/2+x,1/2+y,z
1/2-x,1/2+y,-z
1/2-x,1/2-y,-z
1/2+x,1/2-y,z
loop_
_atom_site_type_symbol
_atom_site_label
_atom_site_fract_x
_atom_site_fract_y
_atom_site_fract_z
Si Si1 0.117951 0.254540 0.991368
Si Si2 0.836589 0.614918 0.699548
Si Si3 0.068585 0.655156 0.214447
Si Si4 0.845251 0.583633 0.970033
Si Si5 0.476192 0.741571 0.439433
Si Si6 0.000000 0.500000 0.500000
Si Si7 0.497634 0.367348 0.157963
Si Si8 0.369731 0.701890 0.362978
O O1 0.047505 0.214389 0.097980
O O2 0.282379 0.212780 0.880620
O O3 0.134119 0.344466 0.993119
O O4 0.000000 0.238124 0.000000
O O5 0.896184 0.604857 0.740555
O O6 0.929377 0.565545 0.592055
O O7 0.650127 0.601619 0.798231
O O8 0.874576 0.704185 0.662254
O O9 0.922940 0.711775 0.312722
O O10 0.062407 0.605492 0.151297
O O11 0.890347 0.500000 0.968639
O O12 0.657748 0.584986 0.061974
O O13 0.500000 0.708891 0.500000
O O14 0.441073 0.688400 0.395679
O O15 0.319934 0.795901 0.528875
O O16 0.437810 0.354448 0.267974
#
# Coordination Sequence:
#
# PCOD9175211 Si02
#       8
#     8   8   8   8   8   2   8   8
#     4  11  20  37  61  86 109 147 200 254 284 357
#     4  11  22  35  55  80 119 154 185 231 287 352
#     4  10  20  38  57  83 111 151 196 236 293 344
#     4  11  24  37  54  88 117 150 189 242 302 370
#     4  10  19  32  51  83 111 138 195 235 273 340
#     4  12  24  36  48  86 124 156 184 224 288 366
#     4  11  19  37  58  84 114 150 194 235 295 341
#     4  10  18  32  57  78 109 149 183 245 286 323
#
# _framework density 19.554625999999999
#
# number of rings (size 3 to 8) (size 9 to 14) (size 15 to 20)
#    0.000    1.379    6.207    0.828    1.931    0.276 
#    0.000    0.690    0.000    0.000    0.000    0.000 
#    0.000    2.207    0.000    0.000    0.000    0.000 
#
# Total GULP energy -161579.799845 kJ/mol
# GULP energy per Si atom -5571.717236 kJ/mol
# Density = 1.951012 g / cm^3
# Si number density = 19.554626 Si / 1000 Ang^3
#
#
#
# Elastic Constant Matrix: (Units=GPa)
#
#
# Indices 1 2 3 4 5 6 
#
# 1 55.1576 -2.0370 0.5357 -0.0005 7.5486 0.0001
# 2 -2.0370 69.0128 -0.1605 -0.0008 5.0710 0.0003
# 3 0.5357 -0.1605 62.0589 -0.0021 7.4063 0.0007
# 4 -0.0005 -0.0008 -0.0021 -0.7294 0.0005 6.7301
# 5 7.5486 5.0710 7.4063 0.0005 28.1114 -0.0001
# 6 0.0001 0.0003 0.0007 6.7301 -0.0001 2.6214
#
#
#
# Elastic Compliance Matrix: (Units=1/GPa)
#
#
# Indices 1 2 3 4 5 6 
#
# 1 0.018896 0.000954 0.000481 -0.000001 -0.005373 0.000002
# 2 0.000954 0.014741 0.000390 -0.000002 -0.003018 0.000002
# 3 0.000481 0.000390 0.016658 -0.000004 -0.004588 0.000005
# 4 -0.000001 -0.000002 -0.000004 -0.055530 0.000003 0.142568
# 5 -0.005373 -0.003018 -0.004588 0.000003 0.038769 -0.000005
# 6 0.000002 0.000002 0.000005 0.142568 -0.000005 0.015452
#
#
# Mechanical properties :
#
#
# Convention : Reuss Voigt Hill
#
# Bulk Modulus (GPa) = 18.53803 20.32283 19.43043
# Shear Modulus (GPa) = 78.96648 18.52676 48.74662
#
# Velocity S-wave (km/s) = 6.36162 3.08138 4.99825
# Velocity P-wave (km/s) = 7.96624 4.80368 6.57785
#
# Compressibility (1/GPa) = 0.05394316
#
# Stress axis : x y z
#
# Youngs Moduli (GPa) = 52.92219 67.83860 60.03067
#
# Poissons Ratio (x) = -0.06469 -0.02885
# Poissons Ratio (y) = -0.05047 -0.02342
# Poissons Ratio (z) = -0.02543 -0.02646
#
# Static dielectric constant tensor:
#      x y z
#    x 1.706120 0.000000 0.021360 
#    y 0.000000 1.672810 0.000000 
#    z 0.021360 0.000000 1.721260 
# 
# From -- ./inp_files/311349.got.cif
#   From: 2010.05.17/outbox.cif.g08.bks.cpg/sg12_156_cif.got.tgz:311349.got - 2010.06.03 13:09:07.
