data_PCOD9175196
_publ_section_title
;
Structure prediction by ZEFSAII (Michael W. Deem and Ramdas Pophale) SiO2 
 PCOD9175196
Probable space group: C 2/M
;
_chemical_formula_sum "Si O2"
_cell_formula_units_Z 56
_cell_length_a 13.532605
_cell_length_b 16.660911
_cell_length_c 13.588509
_cell_angle_alpha 90.000000
_cell_angle_beta 55.546417
_cell_angle_gamma 90.000000
_cell_volume 2526.313664
_symmetry_space_group_name_H-M "C 2/M"
_symmetry_group_IT_number 12
_symmetry_cell_setting 'monoclinic'
loop_
_space_group_symop_operation_xyz
x,y,z
-x,y,-z
-x,-y,-z
x,-y,z
1/2+x,1/2+y,z
1/2-x,1/2+y,-z
1/2-x,1/2-y,-z
1/2+x,1/2-y,z
loop_
_atom_site_type_symbol
_atom_site_label
_atom_site_fract_x
_atom_site_fract_y
_atom_site_fract_z
Si Si1 0.924363 0.406224 0.281008
Si Si2 0.793627 0.402903 0.159277
Si Si3 0.833373 0.347308 0.913524
Si Si4 0.121933 0.095939 0.726274
Si Si5 0.071840 0.194052 0.049632
Si Si6 0.471077 0.597374 0.624468
Si Si7 0.374321 0.901451 0.524477
O O1 0.891917 0.500000 0.298344
O O2 0.874733 0.373581 0.205137
O O3 0.871173 0.373273 0.412504
O O4 0.067952 0.397826 0.199560
O O5 0.800798 0.500000 0.152096
O O6 0.658196 0.378102 0.261701
O O7 0.826171 0.375079 0.031633
O O8 0.887382 0.257959 0.891650
O O9 0.698616 0.346121 0.948388
O O10 0.258839 0.124589 0.651752
O O11 0.023923 0.132482 0.853484
O O12 0.073726 0.116110 0.644352
O O13 0.120439 0.000000 0.738750
O O14 0.000000 0.233138 0.000000
O O15 0.500000 0.628684 0.500000
O O16 0.465559 0.500000 0.621425
O O17 0.500000 0.876581 0.500000
O O18 0.372557 0.000000 0.523765
#
# Coordination Sequence:
#
# PCOD9175196 Si02
#       7
#     8   8   8   8   8   8   8
#     4  10  20  34  59  89 116 151 193 238 290 343
#     4  10  18  32  56  88 118 148 192 240 290 342
#     4  11  23  40  59  83 117 153 193 240 288 349
#     4  10  20  37  59  86 119 151 193 238 282 343
#     4  11  25  41  59  83 113 157 195 235 292 345
#     4   9  16  28  51  83 118 149 181 231 286 336
#     4   9  19  35  56  85 119 155 191 235 287 338
#
# _framework density 22.166685999999999
#
# number of rings (size 3 to 8) (size 9 to 14) (size 15 to 20)
#    0.000    2.000    1.429    2.571    2.000    5.429 
#    0.000    0.714    0.000    0.857    0.000    0.000 
#    0.000    0.000    0.000    0.000    0.000    0.000 
#
# Total GULP energy -156349.049556 kJ/mol
# GULP energy per Si atom -5583.894627 kJ/mol
# Density = 2.211623 g / cm^3
# Si number density = 22.166686 Si / 1000 Ang^3
#
#
#
# Elastic Constant Matrix: (Units=GPa)
#
#
# Indices 1 2 3 4 5 6 
#
# 1 115.5740 20.1014 35.0482 0.0000 -31.2851 0.0000
# 2 20.1014 14.4438 11.8480 0.0000 -1.9252 0.0000
# 3 35.0482 11.8480 77.6073 0.0000 -27.5870 0.0000
# 4 0.0000 0.0000 0.0000 -16.5157 0.0000 -0.9412
# 5 -31.2851 -1.9252 -27.5870 0.0000 36.0483 0.0000
# 6 0.0000 0.0000 0.0000 -0.9412 0.0000 17.9893
#
#
#
# Elastic Compliance Matrix: (Units=1/GPa)
#
#
# Indices 1 2 3 4 5 6 
#
# 1 0.015471 -0.020392 0.000703 0.000000 0.012876 0.000000
# 2 -0.020392 0.107290 -0.015694 0.000000 -0.023978 0.000000
# 3 0.000703 -0.015694 0.020444 0.000000 0.015418 0.000000
# 4 0.000000 0.000000 0.000000 -0.060368 0.000000 -0.003158
# 5 0.012876 -0.023978 0.015418 0.000000 0.049434 0.000000
# 6 0.000000 0.000000 0.000000 -0.003158 0.000000 0.055423
#
#
# Mechanical properties :
#
#
# Convention : Reuss Voigt Hill
#
# Bulk Modulus (GPa) = 13.80431 37.95782 25.88106
# Shear Modulus (GPa) = 17.69243 16.87953 17.28598
#
# Velocity S-wave (km/s) = 2.82823 2.76249 2.79555
# Velocity P-wave (km/s) = 4.11171 5.22840 4.70331
#
# Compressibility (1/GPa) = 0.07244115
#
# Stress axis : x y z
#
# Youngs Moduli (GPa) = 64.63515 9.32049 48.91368
#
# Poissons Ratio (x) = 0.19006 -0.03440
# Poissons Ratio (y) = 1.31805 0.76763
# Poissons Ratio (z) = -0.04545 0.14627
#
# Static dielectric constant tensor:
#      x y z
#    x 1.846080 0.000000 0.008110 
#    y 0.000000 1.839100 0.000000 
#    z 0.008110 0.000000 1.811060 
# 
# From -- ./inp_files/216304.got.cif
#   From: 2010.05.17/outbox.cif.g08.bks.cpg/sg12_109_cif.got.tgz:216304.got - 2010.06.03 13:09:07.
