data_PCOD9175914
_publ_section_title
;
Structure prediction by ZEFSAII (Michael W. Deem and Ramdas Pophale) SiO2 
 PCOD9175914
Probable space group: C 2/M
;
_chemical_formula_sum "Si O2"
_cell_formula_units_Z 56
_cell_length_a 27.264539
_cell_length_b 8.649210
_cell_length_c 12.163418
_cell_angle_alpha 90.000000
_cell_angle_beta 77.169505
_cell_angle_gamma 90.000000
_cell_volume 2796.718721
_symmetry_space_group_name_H-M "C 2/M"
_symmetry_group_IT_number 12
_symmetry_cell_setting 'monoclinic'
loop_
_space_group_symop_operation_xyz
x,y,z
-x,y,-z
-x,-y,-z
x,-y,z
1/2+x,1/2+y,z
1/2-x,1/2+y,-z
1/2-x,1/2-y,-z
1/2+x,1/2-y,z
loop_
_atom_site_type_symbol
_atom_site_label
_atom_site_fract_x
_atom_site_fract_y
_atom_site_fract_z
Si Si1 0.741132 0.685529 0.882793
Si Si2 0.069976 0.311676 0.217347
Si Si3 0.350556 0.814737 0.209824
Si Si4 0.137968 0.817588 0.560547
Si Si5 0.026946 0.682151 0.605137
Si Si6 0.335871 0.813506 0.683427
Si Si7 0.442472 0.811649 0.021653
O O1 0.738408 0.500000 0.888652
O O2 0.691057 0.752759 0.853128
O O3 0.787943 0.728196 0.780758
O O4 0.750000 0.750000 0.000000
O O5 0.069944 0.500000 0.221005
O O6 0.113696 0.260077 0.277844
O O7 0.078764 0.265866 0.087225
O O8 0.014796 0.264506 0.286547
O O9 0.341920 0.754085 0.336463
O O10 0.349568 0.000000 0.210634
O O11 0.405298 0.763014 0.137138
O O12 0.079113 0.771121 0.581452
O O13 0.164500 0.752866 0.438461
O O14 0.143365 0.000000 0.561841
O O15 0.038161 0.500000 0.619564
O O16 0.000000 0.692888 0.500000
O O17 0.338184 0.000000 0.674752
O O18 0.443698 0.000000 0.023757
O O19 0.500000 0.758351 0.000000
#
# Coordination Sequence:
#
# PCOD9175914 Si02
#       7
#     8   8   8   8   8   8   8
#     4  11  24  43  69  96 125 158 200 252 306 365
#     4   9  16  30  56  87 116 149 200 253 293 348
#     4  11  23  41  65  89 121 163 207 254 309 367
#     4  12  25  39  58  88 127 162 202 256 317 373
#     4  10  18  33  59  87 119 162 205 245 295 364
#     4  10  21  40  63  87 116 159 211 253 296 361
#     4   9  17  31  56  89 118 150 199 251 295 349
#
# _framework density 20.023465999999999
#
# number of rings (size 3 to 8) (size 9 to 14) (size 15 to 20)
#    0.000    1.714    1.429    3.857    0.000    6.571 
#    0.000    0.000    0.000    9.429    0.000    0.000 
#    0.000    0.000    0.000    0.000    0.000    0.000 
#
# Total GULP energy -156503.843335 kJ/mol
# GULP energy per Si atom -5589.422976 kJ/mol
# Density = 1.997789 g / cm^3
# Si number density = 20.023466 Si / 1000 Ang^3
#
#
#
# Elastic Constant Matrix: (Units=GPa)
#
#
# Indices 1 2 3 4 5 6 
#
# 1 100.1833 35.3478 63.1341 0.0000 3.1989 0.0000
# 2 35.3478 38.6392 44.9088 0.0000 -4.8807 0.0000
# 3 63.1341 44.9088 173.9819 0.0000 2.4433 0.0000
# 4 0.0000 0.0000 0.0000 19.0165 0.0000 3.0409
# 5 3.1989 -4.8807 2.4433 0.0000 34.6422 0.0000
# 6 0.0000 0.0000 0.0000 3.0409 0.0000 23.9596
#
#
#
# Elastic Compliance Matrix: (Units=1/GPa)
#
#
# Indices 1 2 3 4 5 6 
#
# 1 0.015947 -0.011834 -0.002691 0.000000 -0.002950 0.000000
# 2 -0.011834 0.046994 -0.007952 0.000000 0.008275 0.000000
# 3 -0.002691 -0.007952 0.008798 0.000000 -0.001492 0.000000
# 4 0.000000 0.000000 0.000000 0.053675 0.000000 -0.006812
# 5 -0.002950 0.008275 -0.001492 0.000000 0.030410 0.000000
# 6 0.000000 0.000000 0.000000 -0.006812 0.000000 0.042602
#
#
# Mechanical properties :
#
#
# Convention : Reuss Voigt Hill
#
# Bulk Modulus (GPa) = 37.33427 66.62064 51.97745
# Shear Modulus (GPa) = 19.81711 26.81790 23.31751
#
# Velocity S-wave (km/s) = 3.14935 3.66365 3.41619
# Velocity P-wave (km/s) = 5.64892 7.15821 6.44788
#
# Compressibility (1/GPa) = 0.02678504
#
# Stress axis : x y z
#
# Youngs Moduli (GPa) = 62.70809 21.27939 113.66542
#
# Poissons Ratio (x) = 0.25181 0.30585
# Poissons Ratio (y) = 0.74207 0.90389
# Poissons Ratio (z) = 0.16873 0.16922
#
# Static dielectric constant tensor:
#      x y z
#    x 1.699710 0.000000 -0.006710 
#    y 0.000000 1.681450 0.000000 
#    z -0.006710 0.000000 1.703390 
# 
# From -- ./inp_files/180744.got.cif
#   From: 2010.05.17/outbox.cif.g08.bks.cpg/sg12_91_cif.got.tgz:180744.got - 2010.06.03 13:09:07.
