data_PCOD9175466
_publ_section_title
;
Structure prediction by ZEFSAII (Michael W. Deem and Ramdas Pophale) SiO2 
 PCOD9175466
Probable space group: C 2/M
;
_chemical_formula_sum "Si O2"
_cell_formula_units_Z 42
_cell_length_a 21.469157
_cell_length_b 15.293762
_cell_length_c 6.688385
_cell_angle_alpha 90.000000
_cell_angle_beta 50.128846
_cell_angle_gamma 90.000000
_cell_volume 1685.474459
_symmetry_space_group_name_H-M "C 2/M"
_symmetry_group_IT_number 12
_symmetry_cell_setting 'monoclinic'
loop_
_space_group_symop_operation_xyz
x,y,z
-x,y,-z
-x,-y,-z
x,-y,z
1/2+x,1/2+y,z
1/2-x,1/2+y,-z
1/2-x,1/2-y,-z
1/2+x,1/2-y,z
loop_
_atom_site_type_symbol
_atom_site_label
_atom_site_fract_x
_atom_site_fract_y
_atom_site_fract_z
Si Si1 0.285726 0.099134 0.175926
Si Si2 0.605361 0.832268 0.734373
Si Si3 0.575926 0.597335 0.119139
Si Si4 0.107567 0.858354 0.592328
Si Si5 0.416416 0.781848 0.779089
Si Si6 0.500000 0.000000 0.000000
O O1 0.307431 0.140281 0.349290
O O2 0.191014 0.103819 0.338810
O O3 0.316727 0.000000 0.111444
O O4 0.340358 0.154235 0.908579
O O5 0.611693 0.748251 0.579773
O O6 0.559226 0.922032 0.782658
O O7 0.564529 0.795007 0.022982
O O8 0.598415 0.500000 0.137071
O O9 0.477866 0.607151 0.315391
O O10 0.605834 0.679995 0.185173
O O11 0.604617 0.612133 0.832142
O O12 0.500000 0.804273 0.500000
#
# Coordination Sequence:
#
# PCOD9175466 Si02
#       6
#     8   8   8   8   8   2
#     4  10  19  33  52  78 100 139 168 218 261 308
#     4   9  19  29  53  75 108 133 161 217 262 303
#     4  10  19  31  53  78 100 136 169 215 264 314
#     4  10  18  33  52  78 107 129 168 219 272 311
#     4   9  20  36  50  76 103 140 181 209 252 311
#     4  12  16  36  50  88 106 130 178 202 270 314
#
# _framework density 24.918800000000001
#
# number of rings (size 3 to 8) (size 9 to 14) (size 15 to 20)
#    1.143    1.143    0.952    5.143    0.000    0.762 
#    0.000    0.952    0.000    0.000    0.000    0.000 
#    0.000    0.000    0.000    0.000    0.000    0.000 
#
# Total GULP energy -117070.277456 kJ/mol
# GULP energy per Si atom -5574.775117 kJ/mol
# Density = 2.486208 g / cm^3
# Si number density = 24.918800 Si / 1000 Ang^3
#
#
#
# Elastic Constant Matrix: (Units=GPa)
#
#
# Indices 1 2 3 4 5 6 
#
# 1 67.8598 32.1339 20.0210 0.0000 -10.2011 0.0000
# 2 32.1339 228.0923 42.7938 0.0000 -16.4529 0.0000
# 3 20.0210 42.7938 106.9083 0.0000 -18.6091 0.0000
# 4 0.0000 0.0000 0.0000 29.8489 0.0000 -8.6445
# 5 -10.2011 -16.4529 -18.6091 0.0000 28.8801 0.0000
# 6 0.0000 0.0000 0.0000 -8.6445 0.0000 32.5176
#
#
#
# Elastic Compliance Matrix: (Units=1/GPa)
#
#
# Indices 1 2 3 4 5 6 
#
# 1 0.016647 -0.001743 -0.001767 0.000000 0.003748 0.000000
# 2 -0.001743 0.004995 -0.001447 0.000000 0.001297 0.000000
# 3 -0.001767 -0.001447 0.011277 0.000000 0.005818 0.000000
# 4 0.000000 0.000000 0.000000 0.036297 0.000000 0.009649
# 5 0.003748 0.001297 0.005818 0.000000 0.040438 0.000000
# 6 0.000000 0.000000 0.000000 0.009649 0.000000 0.033318
#
#
# Mechanical properties :
#
#
# Convention : Reuss Voigt Hill
#
# Bulk Modulus (GPa) = 43.47270 65.86198 54.66734
# Shear Modulus (GPa) = 31.14243 38.77676 34.95960
#
# Velocity S-wave (km/s) = 3.53902 3.94905 3.74965
# Velocity P-wave (km/s) = 5.84664 6.87615 6.38219
#
# Compressibility (1/GPa) = 0.02300294
#
# Stress axis : x y z
#
# Youngs Moduli (GPa) = 60.07236 200.20573 88.67889
#
# Poissons Ratio (x) = 0.34901 0.15672
# Poissons Ratio (y) = 0.10472 0.12832
# Poissons Ratio (z) = 0.10616 0.28971
#
# Static dielectric constant tensor:
#      x y z
#    x 2.104240 0.000000 0.108350 
#    y 0.000000 1.987750 0.000000 
#    z 0.108350 0.000000 2.002490 
# 
# From -- ./inp_files/111019.got.cif
#   From: 2010.05.17/outbox.cif.g08.bks.cpg/sg12_56_cif.got.tgz:111019.got - 2010.06.03 13:09:07.
