data_PCOD9175173
_publ_section_title
;
Structure prediction by ZEFSAII (Michael W. Deem and Ramdas Pophale) SiO2 
 PCOD9175173
Probable space group: C 2/M
;
_chemical_formula_sum "Si O2"
_cell_formula_units_Z 64
_cell_length_a 24.833842
_cell_length_b 14.226092
_cell_length_c 17.593348
_cell_angle_alpha 90.000000
_cell_angle_beta 34.147999
_cell_angle_gamma 90.000000
_cell_volume 3488.977796
_symmetry_space_group_name_H-M "C 2/M"
_symmetry_group_IT_number 12
_symmetry_cell_setting 'monoclinic'
loop_
_space_group_symop_operation_xyz
x,y,z
-x,y,-z
-x,-y,-z
x,-y,z
1/2+x,1/2+y,z
1/2-x,1/2+y,-z
1/2-x,1/2-y,-z
1/2+x,1/2-y,z
loop_
_atom_site_type_symbol
_atom_site_label
_atom_site_fract_x
_atom_site_fract_y
_atom_site_fract_z
Si Si1 0.925334 0.393007 0.278591
Si Si2 0.234920 0.391935 0.963237
Si Si3 0.606026 0.108224 0.967805
Si Si4 0.770006 0.287543 0.392839
Si Si5 0.290212 0.111116 0.733523
Si Si6 0.611511 0.294759 0.868842
Si Si7 0.906377 0.293530 0.463624
Si Si8 0.628056 0.780330 0.215779
O O1 0.946737 0.500000 0.271126
O O2 0.830214 0.380682 0.339008
O O3 0.915193 0.341506 0.370583
O O4 0.012636 0.359336 0.124318
O O5 0.257580 0.500000 0.956765
O O6 0.191028 0.390935 0.929941
O O7 0.322832 0.319285 0.861036
O O8 0.155900 0.350021 0.113750
O O9 0.620450 0.187124 0.888133
O O10 0.592994 0.000000 0.956471
O O11 0.750000 0.250000 0.500000
O O12 0.840571 0.212458 0.269883
O O13 0.672506 0.288631 0.458074
O O14 0.181961 0.141396 0.837185
O O15 0.358310 0.139205 0.582762
O O16 0.324976 0.172369 0.764646
O O17 0.296294 0.000000 0.741580
O O18 0.500000 0.322071 0.000000
O O19 0.014495 0.268651 0.359503
#
# Coordination Sequence:
#
# PCOD9175173 Si02
#       8
#     8   8   8   8   8   8   8   8
#     4  10  18  32  56  84 112 144 184 232 287 341
#     4  10  21  37  59  87 117 149 185 234 295 353
#     4  10  19  33  58  90 117 143 184 234 290 348
#     4   9  20  36  53  78 112 150 185 230 278 345
#     4  11  24  38  55  84 114 148 199 246 289 346
#     4  11  21  37  58  83 118 152 190 234 295 346
#     4  10  21  36  56  80 111 153 192 238 294 343
#     4  11  21  37  61  84 114 151 192 241 291 342
#
# _framework density 18.343481000000001
#
# number of rings (size 3 to 8) (size 9 to 14) (size 15 to 20)
#    0.000    1.750    3.750    1.125    0.000    3.000 
#    0.000    0.625    0.000    2.250    0.000    0.000 
#    0.000    0.000    0.000    0.000    0.000    0.000 
#
# Total GULP energy -178367.539004 kJ/mol
# GULP energy per Si atom -5573.985594 kJ/mol
# Density = 1.830173 g / cm^3
# Si number density = 18.343481 Si / 1000 Ang^3
#
#
#
# Elastic Constant Matrix: (Units=GPa)
#
#
# Indices 1 2 3 4 5 6 
#
# 1 66.8013 17.0379 32.8461 0.0000 -14.7046 0.0000
# 2 17.0379 70.3381 22.7824 0.0000 -3.3454 0.0000
# 3 32.8461 22.7824 101.4181 0.0000 -18.8710 0.0000
# 4 0.0000 0.0000 0.0000 16.1806 0.0000 0.0277
# 5 -14.7046 -3.3454 -18.8710 0.0000 36.3434 0.0000
# 6 0.0000 0.0000 0.0000 0.0277 0.0000 18.7396
#
#
#
# Elastic Compliance Matrix: (Units=1/GPa)
#
#
# Indices 1 2 3 4 5 6 
#
# 1 0.019079 -0.002895 -0.004585 0.000000 0.005072 0.000000
# 2 -0.002895 0.015778 -0.002828 0.000000 -0.001187 0.000000
# 3 -0.004585 -0.002828 0.012826 0.000000 0.004544 0.000000
# 4 0.000000 0.000000 0.000000 0.061803 0.000000 -0.000091
# 5 0.005072 -0.001187 0.004544 0.000000 0.031818 0.000000
# 6 0.000000 0.000000 0.000000 -0.000091 0.000000 0.053363
#
#
# Mechanical properties :
#
#
# Convention : Reuss Voigt Hill
#
# Bulk Modulus (GPa) = 36.94496 42.65449 39.79973
# Shear Modulus (GPa) = 22.29116 25.31211 23.80164
#
# Velocity S-wave (km/s) = 3.48977 3.71873 3.60606
# Velocity P-wave (km/s) = 6.03509 6.46083 6.25158
#
# Compressibility (1/GPa) = 0.02706729
#
# Stress axis : x y z
#
# Youngs Moduli (GPa) = 52.41328 63.38057 77.96762
#
# Poissons Ratio (x) = 0.18350 0.35748
# Poissons Ratio (y) = 0.15175 0.22046
# Poissons Ratio (z) = 0.24031 0.17921
#
# Static dielectric constant tensor:
#      x y z
#    x 1.661070 0.000000 -0.003630 
#    y 0.000000 1.613260 0.000000 
#    z -0.003630 0.000000 1.680180 
# 
# From -- ./inp_files/290083.got.cif
#   From: 2010.05.17/outbox.cif.g08.bks.cpg/sg12_146_cif.got.tgz:290083.got - 2010.06.03 13:09:07.
