data_PCOD9175168
_publ_section_title
;
Structure prediction by ZEFSAII (Michael W. Deem and Ramdas Pophale) SiO2 
 PCOD9175168
Probable space group: C 2/M
;
_chemical_formula_sum "Si O2"
_cell_formula_units_Z 56
_cell_length_a 25.051122
_cell_length_b 19.121557
_cell_length_c 8.440097
_cell_angle_alpha 90.000000
_cell_angle_beta 44.728201
_cell_angle_gamma 90.000000
_cell_volume 2845.200456
_symmetry_space_group_name_H-M "C 2/M"
_symmetry_group_IT_number 12
_symmetry_cell_setting 'monoclinic'
loop_
_space_group_symop_operation_xyz
x,y,z
-x,y,-z
-x,-y,-z
x,-y,z
1/2+x,1/2+y,z
1/2-x,1/2+y,-z
1/2-x,1/2-y,-z
1/2+x,1/2-y,z
loop_
_atom_site_type_symbol
_atom_site_label
_atom_site_fract_x
_atom_site_fract_y
_atom_site_fract_z
Si Si1 0.154948 0.421225 0.475810
Si Si2 0.316635 0.673586 0.556930
Si Si3 0.499212 0.873686 0.316590
Si Si4 0.246704 0.302228 0.156825
Si Si5 0.844015 0.360099 0.176394
Si Si6 0.970427 0.206232 0.385415
Si Si7 0.379729 0.694684 0.092750
O O1 0.182299 0.500000 0.402156
O O2 0.195000 0.370359 0.263202
O O3 0.168042 0.393765 0.626555
O O4 0.065413 0.415963 0.635794
O O5 0.290000 0.754212 0.628387
O O6 0.236276 0.634475 0.747774
O O7 0.388526 0.672863 0.522758
O O8 0.347818 0.658699 0.316452
O O9 0.500000 0.890196 0.500000
O O10 0.473511 0.791200 0.358406
O O11 0.582061 0.887807 0.070073
O O12 0.329450 0.322330 0.044538
O O13 0.250000 0.250000 0.000000
O O14 0.866531 0.277940 0.145066
O O15 0.000000 0.192798 0.500000
O O16 0.033195 0.180193 0.128615
#
# Coordination Sequence:
#
# PCOD9175168 Si02
#       7
#     8   8   8   8   8   8   8
#     4  12  24  40  60  84 120 170 216 248 299 374
#     4  11  18  33  57  85 117 150 199 250 325 362
#     4  10  22  37  55  80 124 168 212 248 300 360
#     4  11  21  35  59  87 116 157 200 259 317 362
#     4  10  20  36  56  84 115 165 206 257 298 361
#     4  10  19  31  51  90 122 155 194 255 317 374
#     4  10  18  32  56  83 116 153 196 252 320 366
#
# _framework density 19.682268000000001
#
# number of rings (size 3 to 8) (size 9 to 14) (size 15 to 20)
#    0.000    1.429    4.286    2.571    6.000    3.714 
#    0.000    0.000    0.000    0.000    0.000    2.000 
#    0.000    2.286    0.000    0.000    0.000    0.857 
#
# Total GULP energy -156133.475735 kJ/mol
# GULP energy per Si atom -5576.195562 kJ/mol
# Density = 1.963747 g / cm^3
# Si number density = 19.682268 Si / 1000 Ang^3
#
#
#
# Elastic Constant Matrix: (Units=GPa)
#
#
# Indices 1 2 3 4 5 6 
#
# 1 127.3313 23.9439 41.3445 0.0000 -21.1930 0.0000
# 2 23.9439 47.4685 37.5141 0.0000 -6.5489 0.0000
# 3 41.3445 37.5141 102.1475 0.0000 -5.7475 0.0000
# 4 0.0000 0.0000 0.0000 11.6249 0.0000 2.0828
# 5 -21.1930 -6.5489 -5.7475 0.0000 32.6274 0.0000
# 6 0.0000 0.0000 0.0000 2.0828 0.0000 -1.3563
#
#
#
# Elastic Compliance Matrix: (Units=1/GPa)
#
#
# Indices 1 2 3 4 5 6 
#
# 1 0.010160 -0.001894 -0.003097 0.000000 0.005673 0.000000
# 2 -0.001894 0.030581 -0.010290 0.000000 0.003095 0.000000
# 3 -0.003097 -0.010290 0.014739 0.000000 -0.001481 0.000000
# 4 0.000000 0.000000 0.000000 0.067461 0.000000 0.103595
# 5 0.005673 0.003095 -0.001481 0.000000 0.034695 0.000000
# 6 0.000000 0.000000 0.000000 0.103595 0.000000 -0.578191
#
#
# Mechanical properties :
#
#
# Convention : Reuss Voigt Hill
#
# Bulk Modulus (GPa) = 40.13369 53.61695 46.87532
# Shear Modulus (GPa) = -13.09980 20.18884 3.54452
#
# Velocity S-wave (km/s) = -2.58265 3.20619 1.34342
# Velocity P-wave (km/s) = 3.39729 6.40364 5.12583
#
# Compressibility (1/GPa) = 0.02491672
#
# Stress axis : x y z
#
# Youngs Moduli (GPa) = 98.42817 32.69953 67.84610
#
# Poissons Ratio (x) = 0.06194 0.21014
# Poissons Ratio (y) = 0.18645 0.69816
# Poissons Ratio (z) = 0.30486 0.33649
#
# Static dielectric constant tensor:
#      x y z
#    x 1.743440 0.000000 -0.010030 
#    y 0.000000 1.676750 0.000000 
#    z -0.010030 0.000000 1.743630 
# 
# From -- ./inp_files/98071.got.cif
#   From: 2010.05.17/outbox.cif.g08.bks.cpg/sg12_50_cif.got.tgz:98071.got - 2010.06.03 13:09:07.
