data_PCOD9175704
_publ_section_title
;
Structure prediction by ZEFSAII (Michael W. Deem and Ramdas Pophale) SiO2 
 PCOD9175704
Probable space group: C 2/M
;
_chemical_formula_sum "Si O2"
_cell_formula_units_Z 40
_cell_length_a 17.914642
_cell_length_b 12.034474
_cell_length_c 28.621103
_cell_angle_alpha 90.000000
_cell_angle_beta 19.557882
_cell_angle_gamma 90.000000
_cell_volume 2065.636232
_symmetry_space_group_name_H-M "C 2/M"
_symmetry_group_IT_number 12
_symmetry_cell_setting 'monoclinic'
loop_
_space_group_symop_operation_xyz
x,y,z
-x,y,-z
-x,-y,-z
x,-y,z
1/2+x,1/2+y,z
1/2-x,1/2+y,-z
1/2-x,1/2-y,-z
1/2+x,1/2-y,z
loop_
_atom_site_type_symbol
_atom_site_label
_atom_site_fract_x
_atom_site_fract_y
_atom_site_fract_z
Si Si1 0.556849 0.123436 0.066758
Si Si2 0.591656 0.125812 0.644004
Si Si3 0.700985 0.124967 0.344804
Si Si4 0.423689 0.286301 0.665002
Si Si5 0.571778 0.791795 0.161771
O O1 0.299296 0.140579 0.204701
O O2 0.584826 0.136438 0.106594
O O3 0.632047 0.000000 0.008210
O O4 0.698223 0.227160 0.963742
O O5 0.471184 0.221683 0.685034
O O6 0.521842 0.142449 0.738898
O O7 0.855269 0.146584 0.480222
O O8 0.536111 0.000000 0.661807
O O9 0.500000 0.121695 0.500000
O O10 0.617828 0.190867 0.348852
O O11 0.900155 0.193678 0.250128
O O12 0.770307 0.000000 0.292306
#
# Coordination Sequence:
#
# PCOD9175704 Si02
#       5
#     8   8   8   8   8
#     4  10  21  39  60  84 115 150 186 236 286 330
#     4  11  22  39  59  83 114 151 189 235 285 331
#     4  10  18  33  56  83 114 148 183 228 276 325
#     4  10  22  38  57  86 116 146 192 232 277 344
#     4  10  21  37  58  88 114 146 193 232 276 343
#
# _framework density 19.364495000000002
#
# number of rings (size 3 to 8) (size 9 to 14) (size 15 to 20)
#    0.000    1.800    2.000    2.400    0.000    0.800 
#    0.000   11.000    0.000    0.000    0.000    0.000 
#    0.000    0.000    0.000    0.000    0.000    0.000 
#
# Total GULP energy -111646.636999 kJ/mol
# GULP energy per Si atom -5582.331850 kJ/mol
# Density = 1.932042 g / cm^3
# Si number density = 19.364495 Si / 1000 Ang^3
#
#
#
# Elastic Constant Matrix: (Units=GPa)
#
#
# Indices 1 2 3 4 5 6 
#
# 1 37.0990 -2.1128 10.0687 0.0070 -2.6276 0.0005
# 2 -2.1128 82.9825 3.7010 -0.0029 -1.0366 -0.0033
# 3 10.0687 3.7010 55.2764 -0.0233 -9.8313 0.0059
# 4 0.0070 -0.0029 -0.0233 6.4934 0.0066 1.9863
# 5 -2.6276 -1.0366 -9.8313 0.0066 26.6748 0.0041
# 6 0.0005 -0.0033 0.0059 1.9863 0.0041 10.7867
#
#
#
# Elastic Compliance Matrix: (Units=1/GPa)
#
#
# Indices 1 2 3 4 5 6 
#
# 1 0.028456 0.000963 -0.005075 -0.000053 0.000970 0.000011
# 2 0.000963 0.012120 -0.000948 -0.000001 0.000216 0.000004
# 3 -0.005075 -0.000948 0.020315 0.000080 0.006951 -0.000028
# 4 -0.000053 -0.000001 0.000080 0.163195 -0.000012 -0.030051
# 5 0.000970 0.000216 0.006951 -0.000012 0.040154 -0.000017
# 6 0.000011 0.000004 -0.000028 -0.030051 -0.000017 0.098241
#
#
# Mechanical properties :
#
#
# Convention : Reuss Voigt Hill
#
# Bulk Modulus (GPa) = 19.69673 22.07460 20.88566
# Shear Modulus (GPa) = 12.83613 19.70439 16.27026
#
# Velocity S-wave (km/s) = 2.57742 3.19337 2.90178
# Velocity P-wave (km/s) = 4.36476 5.00211 4.69426
#
# Compressibility (1/GPa) = 0.05076986
#
# Stress axis : x y z
#
# Youngs Moduli (GPa) = 35.14206 82.50654 49.22441
#
# Poissons Ratio (x) = -0.07945 0.24983
# Poissons Ratio (y) = -0.03384 0.04669
# Poissons Ratio (z) = 0.17836 0.07825
#
# Static dielectric constant tensor:
#      x y z
#    x 1.660460 0.000000 -0.007770 
#    y 0.000000 1.636850 0.000010 
#    z -0.007770 0.000010 1.694260 
# 
# From -- ./inp_files/153303.got.cif
#   From: 2010.05.17/outbox.cif.g08.bks.cpg/sg12_77_cif.got.tgz:153303.got - 2010.06.03 13:09:07.
