data_PCOD9175579
_publ_section_title
;
Structure prediction by ZEFSAII (Michael W. Deem and Ramdas Pophale) SiO2 
 PCOD9175579
Probable space group: C 2/M
;
_chemical_formula_sum "Si O2"
_cell_formula_units_Z 52
_cell_length_a 26.921011
_cell_length_b 20.510031
_cell_length_c 8.855322
_cell_angle_alpha 90.000000
_cell_angle_beta 34.768763
_cell_angle_gamma 90.000000
_cell_volume 2788.299162
_symmetry_space_group_name_H-M "C 2/M"
_symmetry_group_IT_number 12
_symmetry_cell_setting 'monoclinic'
loop_
_space_group_symop_operation_xyz
x,y,z
-x,y,-z
-x,-y,-z
x,-y,z
1/2+x,1/2+y,z
1/2-x,1/2+y,-z
1/2-x,1/2-y,-z
1/2+x,1/2-y,z
loop_
_atom_site_type_symbol
_atom_site_label
_atom_site_fract_x
_atom_site_fract_y
_atom_site_fract_z
Si Si1 0.790803 0.852823 0.338214
Si Si2 0.749697 0.925961 0.137231
Si Si3 0.712611 0.184572 0.014054
Si Si4 0.130542 0.712077 0.919443
Si Si5 0.442857 0.425753 0.510974
Si Si6 0.000000 0.733969 0.000000
Si Si7 0.618763 0.350079 0.602975
O O1 0.765199 0.900018 0.267260
O O2 0.841097 0.788444 0.152918
O O3 0.705432 0.825870 0.637992
O O4 0.853023 0.883253 0.311136
O O5 0.715324 0.000000 0.219409
O O6 0.696059 0.871275 0.179333
O O7 0.844612 0.927347 0.819971
O O8 0.635831 0.193998 0.083325
O O9 0.793521 0.161710 0.709064
O O10 0.750000 0.250000 0.000000
O O11 0.043329 0.700706 0.038600
O O12 0.500000 0.393904 0.500000
O O13 0.473375 0.500000 0.413363
O O14 0.444187 0.389134 0.349700
O O15 0.076076 0.781048 0.748646
#
# Coordination Sequence:
#
# PCOD9175579 Si02
#       7
#     8   8   8   8   8   4   8
#     4   9  17  32  51  71 100 129 167 208 255 295
#     4  10  20  32  51  76 100 132 176 212 244 301
#     4  10  18  33  55  74 102 137 167 209 259 298
#     4   9  18  32  50  75 100 132 163 210 257 299
#     4   9  19  32  43  63 101 142 172 201 241 288
#     4  10  20  30  49  76 107 122 170 214 250 308
#     4   9  20  30  47  73  99 135 166 209 244 292
#
# _framework density 18.649360999999999
#
# number of rings (size 3 to 8) (size 9 to 14) (size 15 to 20)
#    0.000    2.615    1.538    0.923    4.308    0.615 
#    0.000    2.692    0.000    0.000    0.000    3.231 
#    0.000    0.000    0.000    0.000    0.000    0.000 
#
# Total GULP energy -144800.812810 kJ/mol
# GULP energy per Si atom -5569.262031 kJ/mol
# Density = 1.860691 g / cm^3
# Si number density = 18.649361 Si / 1000 Ang^3
#
#
#
# Elastic Constant Matrix: (Units=GPa)
#
#
# Indices 1 2 3 4 5 6 
#
# 1 209.5875 64.1207 12.2354 0.0000 28.4504 0.0000
# 2 64.1207 81.2030 1.5092 0.0000 23.4955 0.0000
# 3 12.2354 1.5092 9.5125 0.0000 12.9860 0.0000
# 4 0.0000 0.0000 0.0000 11.4571 0.0000 8.3187
# 5 28.4504 23.4955 12.9860 0.0000 27.9143 0.0000
# 6 0.0000 0.0000 0.0000 8.3187 0.0000 44.7538
#
#
#
# Elastic Compliance Matrix: (Units=1/GPa)
#
#
# Indices 1 2 3 4 5 6 
#
# 1 0.007084 -0.007400 -0.018044 0.000000 0.007403 0.000000
# 2 -0.007400 0.035619 0.094540 0.000000 -0.066419 0.000000
# 3 -0.018044 0.094540 0.539471 0.000000 -0.312152 0.000000
# 4 0.000000 0.000000 0.000000 0.100899 0.000000 -0.018755
# 5 0.007403 -0.066419 -0.312152 0.000000 0.229400 0.000000
# 6 0.000000 0.000000 0.000000 -0.018755 0.000000 0.025831
#
#
# Mechanical properties :
#
#
# Convention : Reuss Voigt Hill
#
# Bulk Modulus (GPa) = 1.38818 50.67040 26.02929
# Shear Modulus (GPa) = 4.80661 31.65423 18.23042
#
# Velocity S-wave (km/s) = 1.60716 4.12434 3.12995
# Velocity P-wave (km/s) = 2.04693 7.06465 5.20092
#
# Compressibility (1/GPa) = 0.72036607
#
# Stress axis : x y z
#
# Youngs Moduli (GPa) = 141.16874 28.07479 1.85367
#
# Poissons Ratio (x) = 0.20776 0.03345
# Poissons Ratio (y) = 1.04469 -0.17525
# Poissons Ratio (z) = 2.54725 -2.65420
#
# Static dielectric constant tensor:
#      x y z
#    x 1.730500 0.000000 -0.002810 
#    y 0.000000 1.653850 0.000000 
#    z -0.002810 0.000000 1.647500 
# 
# From -- ./inp_files/106357.got.cif
#   From: 2010.05.17/outbox.cif.g08.bks.cpg/sg12_54_cif.got.tgz:106357.got - 2010.06.03 13:09:07.
