data_PCOD9175123
_publ_section_title
;
Structure prediction by ZEFSAII (Michael W. Deem and Ramdas Pophale) SiO2 
 PCOD9175123
Probable space group: C 2/M
;
_chemical_formula_sum "Si O2"
_cell_formula_units_Z 40
_cell_length_a 18.764095
_cell_length_b 14.270110
_cell_length_c 16.635843
_cell_angle_alpha 90.000000
_cell_angle_beta 22.656523
_cell_angle_gamma 90.000000
_cell_volume 1715.902790
_symmetry_space_group_name_H-M "C 2/M"
_symmetry_group_IT_number 12
_symmetry_cell_setting 'monoclinic'
loop_
_space_group_symop_operation_xyz
x,y,z
-x,y,-z
-x,-y,-z
x,-y,z
1/2+x,1/2+y,z
1/2-x,1/2+y,-z
1/2-x,1/2-y,-z
1/2+x,1/2-y,z
loop_
_atom_site_type_symbol
_atom_site_label
_atom_site_fract_x
_atom_site_fract_y
_atom_site_fract_z
Si Si1 0.005725 0.317327 0.083346
Si Si2 0.039000 0.101229 0.851313
Si Si3 0.592076 0.097168 0.315802
Si Si4 0.794583 0.146601 0.488422
Si Si5 0.063243 0.199108 0.340946
O O1 0.921987 0.209341 0.161176
O O2 0.890782 0.374203 0.268790
O O3 0.217605 0.312729 0.889495
O O4 0.000000 0.358200 0.000000
O O5 0.122795 0.097956 0.675414
O O6 0.101736 0.000000 0.823537
O O7 0.814885 0.099932 0.087943
O O8 0.500000 0.096040 0.500000
O O9 0.525872 0.194393 0.349578
O O10 0.539449 0.000000 0.328822
O O11 0.750000 0.250000 0.500000
O O12 0.949817 0.139076 0.396258
O O13 0.000000 0.189445 0.500000
#
# Coordination Sequence:
#
# PCOD9175123 Si02
#       5
#     8   8   8   8   8
#     4  10  19  33  56  86 111 138 184 222 267 334
#     4   9  19  34  52  76 113 149 175 220 278 321
#     4   8  15  28  48  77 111 143 175 210 260 333
#     4  10  21  35  54  81 111 143 184 230 268 320
#     4  10  18  32  56  79 108 145 181 223 274 313
#
# _framework density 23.311343999999998
#
# number of rings (size 3 to 8) (size 9 to 14) (size 15 to 20)
#    0.000    2.600    2.000    0.000    0.000    7.600 
#    0.000    4.000    0.000    7.200    0.000    0.000 
#    0.000    0.000    0.000    0.000    0.000    0.000 
#
# Total GULP energy -111418.134941 kJ/mol
# GULP energy per Si atom -5570.906747 kJ/mol
# Density = 2.325829 g / cm^3
# Si number density = 23.311344 Si / 1000 Ang^3
#
#
#
# Elastic Constant Matrix: (Units=GPa)
#
#
# Indices 1 2 3 4 5 6 
#
# 1 91.0586 6.8535 55.8719 0.0036 16.4026 0.0003
# 2 6.8535 28.8413 25.6419 -0.0042 7.9086 -0.0016
# 3 55.8719 25.6419 198.6446 -0.0064 22.1016 -0.0019
# 4 0.0036 -0.0042 -0.0064 47.5497 0.0004 10.4590
# 5 16.4026 7.9086 22.1016 0.0004 53.9741 0.0011
# 6 0.0003 -0.0016 -0.0019 10.4590 0.0011 0.1111
#
#
#
# Elastic Compliance Matrix: (Units=1/GPa)
#
#
# Indices 1 2 3 4 5 6 
#
# 1 0.013651 0.000741 -0.003627 -0.000001 -0.002772 -0.000004
# 2 0.000741 0.039984 -0.004917 0.000006 -0.004070 -0.000013
# 3 -0.003627 -0.004917 0.006796 0.000001 -0.000960 0.000000
# 4 -0.000001 0.000006 0.000001 -0.001067 -0.000003 0.100463
# 5 -0.002772 -0.004070 -0.000960 -0.000003 0.020359 0.000011
# 6 -0.000004 -0.000013 0.000000 0.100463 0.000011 -0.456736
#
#
# Mechanical properties :
#
#
# Convention : Reuss Voigt Hill
#
# Bulk Modulus (GPa) = 22.30906 55.03100 38.67003
# Shear Modulus (GPa) = -14.43143 35.67213 10.62035
#
# Velocity S-wave (km/s) = -2.49082 3.91608 2.13676
# Velocity P-wave (km/s) = 1.14830 6.64122 4.76573
#
# Compressibility (1/GPa) = 0.04482484
#
# Stress axis : x y z
#
# Youngs Moduli (GPa) = 73.25597 25.01005 147.15222
#
# Poissons Ratio (x) = -0.01852 0.53368
# Poissons Ratio (y) = -0.05426 0.72351
# Poissons Ratio (z) = 0.26568 0.12297
#
# Static dielectric constant tensor:
#      x y z
#    x 1.838370 0.000000 0.001820 
#    y 0.000000 1.971060 0.000000 
#    z 0.001820 0.000000 1.879070 
# 
# From -- ./inp_files/96633.got.cif
#   From: 2010.05.17/outbox.cif.g08.bks.cpg/sg12_49_cif.got.tgz:96633.got - 2010.06.03 13:09:07.
