data_PCOD9175065
_publ_section_title
;
Structure prediction by ZEFSAII (Michael W. Deem and Ramdas Pophale) SiO2 
 PCOD9175065
Probable space group: C 2/M
;
_chemical_formula_sum "Si O2"
_cell_formula_units_Z 48
_cell_length_a 9.151418
_cell_length_b 20.186008
_cell_length_c 14.299838
_cell_angle_alpha 90.000000
_cell_angle_beta 124.540851
_cell_angle_gamma 90.000000
_cell_volume 2175.958912
_symmetry_space_group_name_H-M "C 2/M"
_symmetry_group_IT_number 12
_symmetry_cell_setting 'monoclinic'
loop_
_space_group_symop_operation_xyz
x,y,z
-x,y,-z
-x,-y,-z
x,-y,z
1/2+x,1/2+y,z
1/2-x,1/2+y,-z
1/2-x,1/2-y,-z
1/2+x,1/2-y,z
loop_
_atom_site_type_symbol
_atom_site_label
_atom_site_fract_x
_atom_site_fract_y
_atom_site_fract_z
Si Si1 0.668862 0.835686 0.426887
Si Si2 0.194403 0.574042 0.261003
Si Si3 0.715567 0.926230 0.930780
Si Si4 0.221043 0.704223 0.637082
Si Si5 0.334247 0.692942 0.872223
Si Si6 0.785031 0.665112 0.898781
O O1 0.679299 0.897155 0.360244
O O2 0.765962 0.775943 0.407104
O O3 0.467914 0.812018 0.381362
O O4 0.751169 0.844580 0.560218
O O5 0.274026 0.500000 0.287308
O O6 0.267670 0.629820 0.217341
O O7 0.996268 0.567558 0.146519
O O8 0.750780 0.878909 0.856259
O O9 0.790974 0.000000 0.955294
O O10 0.778576 0.883870 0.042751
O O11 0.359084 0.702677 0.771573
O O12 0.230222 0.757911 0.871915
O O13 0.500000 0.691730 0.000000
O O14 0.000000 0.668627 0.000000
#
# Coordination Sequence:
#
# PCOD9175065 Si02
#       6
#     8   8   8   8   8   8
#     4  10  20  38  59  88 113 152 190 243 289 347
#     4  10  18  32  55  81 113 147 191 241 287 338
#     4  10  20  33  50  77 116 152 186 231 291 348
#     4  10  21  37  60  84 119 146 196 238 294 333
#     4  11  21  34  55  82 112 154 190 243 275 348
#     4   9  18  31  50  78 107 142 189 237 278 327
#
# _framework density 22.059241
#
# number of rings (size 3 to 8) (size 9 to 14) (size 15 to 20)
#    0.000    2.000    3.333    1.000    0.000    3.667 
#    0.000    2.500    0.000    0.000    0.000   10.500 
#    0.000    0.000    0.000    0.000    0.000    0.000 
#
# Total GULP energy -133737.372338 kJ/mol
# GULP energy per Si atom -5572.390514 kJ/mol
# Density = 2.200903 g / cm^3
# Si number density = 22.059241 Si / 1000 Ang^3
#
#
#
# Elastic Constant Matrix: (Units=GPa)
#
#
# Indices 1 2 3 4 5 6 
#
# 1 39.6379 20.1715 14.3967 0.0000 -10.9696 0.0000
# 2 20.1715 140.1505 26.3282 0.0000 -22.4255 0.0000
# 3 14.3967 26.3282 145.9351 0.0000 -22.7404 0.0000
# 4 0.0000 0.0000 0.0000 -1.9617 0.0000 4.1344
# 5 -10.9696 -22.4255 -22.7404 0.0000 26.7378 0.0000
# 6 0.0000 0.0000 0.0000 4.1344 0.0000 9.0721
#
#
#
# Elastic Compliance Matrix: (Units=1/GPa)
#
#
# Indices 1 2 3 4 5 6 
#
# 1 0.029419 -0.002598 -0.001029 0.000000 0.009016 0.000000
# 2 -0.002598 0.008499 -0.000383 0.000000 0.005736 0.000000
# 3 -0.001029 -0.000383 0.007962 0.000000 0.006029 0.000000
# 4 0.000000 0.000000 0.000000 -0.260019 0.000000 0.118498
# 5 0.009016 0.005736 0.006029 0.000000 0.051038 0.000000
# 6 0.000000 0.000000 0.000000 0.118498 0.000000 0.056225
#
#
# Mechanical properties :
#
#
# Convention : Reuss Voigt Hill
#
# Bulk Modulus (GPa) = 26.41275 49.72403 38.06839
# Shear Modulus (GPa) = -57.98082 24.42478 -16.77802
#
# Velocity S-wave (km/s) = -5.13237 3.33113 -2.76087
# Velocity P-wave (km/s) = 4.80854 6.11435 2.67051
#
# Compressibility (1/GPa) = 0.03786051
#
# Stress axis : x y z
#
# Youngs Moduli (GPa) = 33.99121 117.66054 125.59076
#
# Poissons Ratio (x) = 0.30573 0.12918
# Poissons Ratio (y) = 0.08832 0.04811
# Poissons Ratio (z) = 0.03496 0.04507
#
# Static dielectric constant tensor:
#      x y z
#    x 1.986370 0.000000 0.034610 
#    y 0.000000 1.832760 0.000000 
#    z 0.034610 0.000000 1.850410 
# 
# From -- ./inp_files/131237.got.cif
#   From: 2010.05.17/outbox.cif.g08.bks.cpg/sg12_66_cif.got.tgz:131237.got - 2010.06.03 13:09:07.
