data_PCOD9175860
_publ_section_title
;
Structure prediction by ZEFSAII (Michael W. Deem and Ramdas Pophale) SiO2 
 PCOD9175860
Probable space group: C 2/M
;
_chemical_formula_sum "Si O2"
_cell_formula_units_Z 60
_cell_length_a 13.713325
_cell_length_b 15.266921
_cell_length_c 20.087106
_cell_angle_alpha 90.000000
_cell_angle_beta 136.093762
_cell_angle_gamma 90.000000
_cell_volume 2916.390736
_symmetry_space_group_name_H-M "C 2/M"
_symmetry_group_IT_number 12
_symmetry_cell_setting 'monoclinic'
loop_
_space_group_symop_operation_xyz
x,y,z
-x,y,-z
-x,-y,-z
x,-y,z
1/2+x,1/2+y,z
1/2-x,1/2+y,-z
1/2-x,1/2-y,-z
1/2+x,1/2-y,z
loop_
_atom_site_type_symbol
_atom_site_label
_atom_site_fract_x
_atom_site_fract_y
_atom_site_fract_z
Si Si1 0.304992 0.101016 0.146852
Si Si2 0.447572 0.143480 0.833651
Si Si3 0.194476 0.254681 0.358878
Si Si4 0.000000 0.289006 0.500000
Si Si5 0.889885 0.206510 0.036589
Si Si6 0.344961 0.404476 0.263046
Si Si7 0.523451 0.599083 0.221884
Si Si8 0.454982 0.790545 0.336802
O O1 0.420746 0.102672 0.142761
O O2 0.363257 0.157165 0.237608
O O3 0.280697 0.000000 0.152331
O O4 0.166746 0.150443 0.052411
O O5 0.367276 0.192981 0.734056
O O6 0.507080 0.211067 0.917412
O O7 0.321568 0.092753 0.806713
O O8 0.359525 0.264313 0.447930
O O9 0.145172 0.155892 0.316992
O O10 0.109219 0.285518 0.380978
O O11 0.959706 0.335235 0.411143
O O12 0.967009 0.144010 0.127562
O O13 0.750000 0.250000 0.000000
O O14 0.401470 0.500000 0.315976
O O15 0.393809 0.399668 0.210398
O O16 0.401607 0.310555 0.318201
O O17 0.567311 0.500000 0.231728
#
# Coordination Sequence:
#
# PCOD9175860 Si02
#       8
#     8   8   8   4   8   8   8   8
#     4  10  20  37  59  83 117 161 201 241 289 344
#     4   9  17  33  57  86 118 150 189 238 295 351
#     4   9  19  35  58  85 112 153 191 235 294 353
#     4  12  20  38  66  82 108 156 200 246 302 356
#     4   9  17  32  56  82 113 156 195 229 285 346
#     4  10  18  33  58  86 119 152 186 239 299 353
#     4   9  18  33  54  82 117 152 188 233 285 343
#     4  10  22  38  59  86 120 151 194 247 300 358
#
# _framework density 20.573374999999999
#
# number of rings (size 3 to 8) (size 9 to 14) (size 15 to 20)
#    0.000    2.400    1.333    3.600    0.000    0.000 
#    0.000    8.333    0.000   16.000    0.000    0.000 
#    0.000    0.000    0.000    0.000    0.000    0.000 
#
# Total GULP energy -167094.204728 kJ/mol
# GULP energy per Si atom -5569.806824 kJ/mol
# Density = 2.052655 g / cm^3
# Si number density = 20.573375 Si / 1000 Ang^3
#
#
#
# Elastic Constant Matrix: (Units=GPa)
#
#
# Indices 1 2 3 4 5 6 
#
# 1 82.2996 21.6535 43.8820 0.0000 3.5054 0.0000
# 2 21.6535 111.8459 31.3863 0.0000 -5.5539 0.0000
# 3 43.8820 31.3863 93.1775 0.0000 -10.7450 0.0000
# 4 0.0000 0.0000 0.0000 4.1952 0.0000 2.6137
# 5 3.5054 -5.5539 -10.7450 0.0000 30.7501 0.0000
# 6 0.0000 0.0000 0.0000 2.6137 0.0000 10.8846
#
#
#
# Elastic Compliance Matrix: (Units=1/GPa)
#
#
# Indices 1 2 3 4 5 6 
#
# 1 0.017065 -0.001254 -0.008195 0.000000 -0.005035 0.000000
# 2 -0.001254 0.009979 -0.002653 0.000000 0.001018 0.000000
# 3 -0.008195 -0.002653 0.016190 0.000000 0.006112 0.000000
# 4 0.000000 0.000000 0.000000 0.280299 0.000000 -0.067307
# 5 -0.005035 0.001018 0.006112 0.000000 0.035414 0.000000
# 6 0.000000 0.000000 0.000000 -0.067307 0.000000 0.108035
#
#
# Mechanical properties :
#
#
# Convention : Reuss Voigt Hill
#
# Bulk Modulus (GPa) = 52.55094 53.46299 53.00696
# Shear Modulus (GPa) = 10.04966 21.85941 15.95454
#
# Velocity S-wave (km/s) = 2.21255 3.26315 2.78779
# Velocity P-wave (km/s) = 5.66796 6.34354 6.01524
#
# Compressibility (1/GPa) = 0.01902916
#
# Stress axis : x y z
#
# Youngs Moduli (GPa) = 58.60079 100.21257 61.76602
#
# Poissons Ratio (x) = 0.12568 0.50616
# Poissons Ratio (y) = 0.07349 0.16388
# Poissons Ratio (z) = 0.48022 0.26589
#
# Static dielectric constant tensor:
#      x y z
#    x 1.797050 0.000000 -0.004930 
#    y 0.000000 1.768200 0.000000 
#    z -0.004930 0.000000 1.726120 
# 
# From -- ./inp_files/311046.got.cif
#   From: 2010.05.17/outbox.cif.g08.bks.cpg/sg12_156_cif.got.tgz:311046.got - 2010.06.03 13:09:07.
