data_PCOD9175311
_publ_section_title
;
Structure prediction by ZEFSAII (Michael W. Deem and Ramdas Pophale) SiO2 
 PCOD9175311
Probable space group: C 2/M
;
_chemical_formula_sum "Si O2"
_cell_formula_units_Z 56
_cell_length_a 14.336693
_cell_length_b 18.730927
_cell_length_c 19.471446
_cell_angle_alpha 90.000000
_cell_angle_beta 148.964226
_cell_angle_gamma 90.000000
_cell_volume 2695.856483
_symmetry_space_group_name_H-M "C 2/M"
_symmetry_group_IT_number 12
_symmetry_cell_setting 'monoclinic'
loop_
_space_group_symop_operation_xyz
x,y,z
-x,y,-z
-x,-y,-z
x,-y,z
1/2+x,1/2+y,z
1/2-x,1/2+y,-z
1/2-x,1/2-y,-z
1/2+x,1/2-y,z
loop_
_atom_site_type_symbol
_atom_site_label
_atom_site_fract_x
_atom_site_fract_y
_atom_site_fract_z
Si Si1 0.748078 0.138200 0.031962
Si Si2 0.408878 0.922249 0.745438
Si Si3 0.398075 0.221616 0.298258
Si Si4 0.582370 0.921696 0.412888
Si Si5 0.577990 0.662385 0.332939
Si Si6 0.374363 0.714570 0.986537
Si Si7 0.780889 0.228781 0.356824
O O1 0.634821 0.208493 0.983146
O O2 0.892863 0.129372 0.184761
O O3 0.592600 0.085812 0.906446
O O4 0.873398 0.156473 0.045361
O O5 0.445772 0.923180 0.686949
O O6 0.286283 0.852117 0.677996
O O7 0.325859 0.000000 0.710073
O O8 0.471686 0.146186 0.370011
O O9 0.536533 0.286660 0.372362
O O10 0.322131 0.210106 0.174133
O O11 0.249213 0.247138 0.258213
O O12 0.787288 0.899928 0.559686
O O13 0.535591 0.000000 0.410834
O O14 0.677295 0.716050 0.341458
O O15 0.500000 0.704454 0.000000
O O16 0.000000 0.234325 0.500000
#
# Coordination Sequence:
#
# PCOD9175311 Si02
#       7
#     8   8   8   8   8   8   8
#     4  10  20  36  59  87 122 158 206 254 308 358
#     4  11  23  41  63  92 130 166 206 256 316 377
#     4  11  20  37  63  88 123 159 207 259 301 364
#     4  11  22  39  61  86 123 164 198 250 319 369
#     4  11  22  40  61  92 124 161 216 260 303 372
#     4  10  18  32  58  89 118 150 202 255 303 357
#     4  12  22  36  65  95 124 165 212 261 308 362
#
# _framework density 20.77262
#
# number of rings (size 3 to 8) (size 9 to 14) (size 15 to 20)
#    0.000    1.143    4.286    4.714    0.000    0.857 
#    0.000    2.143    0.000   11.571    0.000    0.000 
#    0.000    0.000    0.000    0.000    0.000    0.000 
#
# Total GULP energy -156080.378896 kJ/mol
# GULP energy per Si atom -5574.299246 kJ/mol
# Density = 2.072534 g / cm^3
# Si number density = 20.772620 Si / 1000 Ang^3
#
#
#
# Elastic Constant Matrix: (Units=GPa)
#
#
# Indices 1 2 3 4 5 6 
#
# 1 85.1706 18.9226 -9.4111 0.0010 2.8765 0.0004
# 2 18.9226 104.6366 22.8473 -0.0021 -4.6020 -0.0007
# 3 -9.4111 22.8473 86.6605 -0.0007 -1.8802 -0.0005
# 4 0.0010 -0.0021 -0.0007 9.9463 -0.0012 -0.7143
# 5 2.8765 -4.6020 -1.8802 -0.0012 23.7001 -0.0003
# 6 0.0004 -0.0007 -0.0005 -0.7143 -0.0003 17.6582
#
#
#
# Elastic Compliance Matrix: (Units=1/GPa)
#
#
# Indices 1 2 3 4 5 6 
#
# 1 0.012664 -0.002829 0.002079 -0.000002 -0.001921 0.000000
# 2 -0.002829 0.010846 -0.003119 0.000003 0.002202 0.000001
# 3 0.002079 -0.003119 0.012590 0.000000 0.000141 0.000000
# 4 -0.000002 0.000003 0.000000 0.100833 0.000006 0.004079
# 5 -0.001921 0.002202 0.000141 0.000006 0.042866 0.000001
# 6 0.000000 0.000001 0.000000 0.004079 0.000001 0.056796
#
#
# Mechanical properties :
#
#
# Convention : Reuss Voigt Hill
#
# Bulk Modulus (GPa) = 35.25548 37.90948 36.58248
# Shear Modulus (GPa) = 19.70159 26.53486 23.11823
#
# Velocity S-wave (km/s) = 3.08302 3.57795 3.33966
# Velocity P-wave (km/s) = 5.44814 5.94628 5.70265
#
# Compressibility (1/GPa) = 0.02836438
#
# Stress axis : x y z
#
# Youngs Moduli (GPa) = 78.96225 92.19729 79.42536
#
# Poissons Ratio (x) = 0.26080 -0.16516
# Poissons Ratio (y) = 0.22337 0.24772
# Poissons Ratio (z) = -0.16419 0.28756
#
# Static dielectric constant tensor:
#      x y z
#    x 1.725050 0.000000 -0.010350 
#    y 0.000000 1.725680 0.000000 
#    z -0.010350 0.000000 1.909120 
# 
# From -- ./inp_files/311734.got.cif
#   From: 2010.05.17/outbox.cif.g08.bks.cpg/sg12_156_cif.got.tgz:311734.got - 2010.06.03 13:09:07.
