data_PCOD9175988
_publ_section_title
;
Structure prediction by ZEFSAII (Michael W. Deem and Ramdas Pophale) SiO2 
 PCOD9175988
Probable space group: C 2/M
;
_chemical_formula_sum "Si O2"
_cell_formula_units_Z 56
_cell_length_a 18.722674
_cell_length_b 14.279006
_cell_length_c 11.579707
_cell_angle_alpha 90.000000
_cell_angle_beta 119.961592
_cell_angle_gamma 90.000000
_cell_volume 2682.019965
_symmetry_space_group_name_H-M "C 2/M"
_symmetry_group_IT_number 12
_symmetry_cell_setting 'monoclinic'
loop_
_space_group_symop_operation_xyz
x,y,z
-x,y,-z
-x,-y,-z
x,-y,z
1/2+x,1/2+y,z
1/2-x,1/2+y,-z
1/2-x,1/2-y,-z
1/2+x,1/2-y,z
loop_
_atom_site_type_symbol
_atom_site_label
_atom_site_fract_x
_atom_site_fract_y
_atom_site_fract_z
Si Si1 0.682727 0.385462 0.372109
Si Si2 0.411526 0.385700 0.472346
Si Si3 0.662101 0.227737 0.984154
Si Si4 0.154801 0.394508 0.398384
Si Si5 0.402218 0.393333 0.935916
Si Si6 0.748542 0.104609 0.233933
Si Si7 0.492119 0.886232 0.132331
O O1 0.686290 0.500000 0.379691
O O2 0.623157 0.355547 0.430131
O O3 0.777919 0.350395 0.459601
O O4 0.641847 0.361017 0.217592
O O5 0.500000 0.352014 0.500000
O O6 0.414149 0.500000 0.478955
O O7 0.341910 0.361801 0.321902
O O8 0.621541 0.326202 0.980242
O O9 0.689385 0.172709 0.120360
O O10 0.750000 0.250000 0.000000
O O11 0.589565 0.160633 0.879648
O O12 0.134742 0.500000 0.424815
O O13 0.214000 0.403317 0.334881
O O14 0.070551 0.356460 0.274366
O O15 0.376579 0.500000 0.937591
O O16 0.500000 0.391257 0.000000
O O17 0.746093 0.000000 0.180039
O O18 0.488436 0.000000 0.130635
O O19 0.500000 0.860490 0.000000
#
# Coordination Sequence:
#
# PCOD9175988 Si02
#       7
#     8   8   8   8   8   8   8
#     4   8  15  31  55  82 110 141 188 240 284 339
#     4   8  14  26  50  82 115 148 181 227 284 344
#     4  12  25  37  54  80 119 154 191 239 293 341
#     4   8  14  28  57  91 110 129 172 235 300 345
#     4  10  23  42  61  80 110 159 208 239 274 340
#     4   9  17  32  55  83 111 139 180 234 295 344
#     4  10  18  33  62  91 113 139 180 239 299 350
#
# _framework density 20.879784000000001
#
# number of rings (size 3 to 8) (size 9 to 14) (size 15 to 20)
#    0.000    2.714    1.429    2.571    0.000    2.286 
#    0.000    5.714    3.143    0.000    0.000    4.000 
#    0.000    0.000    0.000    0.000    0.000    0.000 
#
# Total GULP energy -155969.820746 kJ/mol
# GULP energy per Si atom -5570.350741 kJ/mol
# Density = 2.083226 g / cm^3
# Si number density = 20.879784 Si / 1000 Ang^3
#
#
#
# Elastic Constant Matrix: (Units=GPa)
#
#
# Indices 1 2 3 4 5 6 
#
# 1 85.9946 20.0177 15.0010 0.0000 38.0260 0.0000
# 2 20.0177 51.7792 12.6802 0.0000 9.4614 0.0000
# 3 15.0010 12.6802 79.5865 0.0000 38.4675 0.0000
# 4 0.0000 0.0000 0.0000 2.9467 0.0000 2.3863
# 5 38.0260 9.4614 38.4675 0.0000 35.5666 0.0000
# 6 0.0000 0.0000 0.0000 2.3863 0.0000 12.3127
#
#
#
# Elastic Compliance Matrix: (Units=1/GPa)
#
#
# Indices 1 2 3 4 5 6 
#
# 1 0.040594 -0.009577 0.028540 0.000000 -0.071722 0.000000
# 2 -0.009577 0.022624 -0.008046 0.000000 0.012923 0.000000
# 3 0.028540 -0.008046 0.046479 0.000000 -0.078644 0.000000
# 4 0.000000 0.000000 0.000000 0.402539 0.000000 -0.078017
# 5 -0.071722 0.012923 -0.078644 0.000000 0.186417 0.000000
# 6 0.000000 0.000000 0.000000 -0.078017 0.000000 0.096338
#
#
# Mechanical properties :
#
#
# Convention : Reuss Voigt Hill
#
# Bulk Modulus (GPa) = 7.60271 34.75089 21.17680
# Shear Modulus (GPa) = 6.11995 21.47597 13.79796
#
# Velocity S-wave (km/s) = 1.71389 3.21059 2.57345
# Velocity P-wave (km/s) = 2.75057 5.51573 4.35826
#
# Compressibility (1/GPa) = 0.13153199
#
# Stress axis : x y z
#
# Youngs Moduli (GPa) = 24.63418 44.20024 21.51507
#
# Poissons Ratio (x) = 0.42333 -0.61405
# Poissons Ratio (y) = 0.23593 0.17310
# Poissons Ratio (z) = -0.70307 0.35562
#
# Static dielectric constant tensor:
#      x y z
#    x 1.760180 0.000000 0.035120 
#    y 0.000000 1.784980 0.000000 
#    z 0.035120 0.000000 1.794570 
# 
# From -- ./inp_files/156498.got.cif
#   From: 2010.05.17/outbox.cif.g08.bks.cpg/sg12_79_cif.got.tgz:156498.got - 2010.06.03 13:09:07.
