data_PCOD9175029
_publ_section_title
;
Structure prediction by ZEFSAII (Michael W. Deem and Ramdas Pophale) SiO2 
 PCOD9175029
Probable space group: C 2/M
;
_chemical_formula_sum "Si O2"
_cell_formula_units_Z 56
_cell_length_a 9.494334
_cell_length_b 15.200286
_cell_length_c 21.438565
_cell_angle_alpha 90.000000
_cell_angle_beta 47.532857
_cell_angle_gamma 90.000000
_cell_volume 2282.290614
_symmetry_space_group_name_H-M "C 2/M"
_symmetry_group_IT_number 12
_symmetry_cell_setting 'monoclinic'
loop_
_space_group_symop_operation_xyz
x,y,z
-x,y,-z
-x,-y,-z
x,-y,z
1/2+x,1/2+y,z
1/2-x,1/2+y,-z
1/2-x,1/2-y,-z
1/2+x,1/2-y,z
loop_
_atom_site_type_symbol
_atom_site_label
_atom_site_fract_x
_atom_site_fract_y
_atom_site_fract_z
Si Si1 0.280433 0.899754 0.040878
Si Si2 0.298603 0.000000 0.632630
Si Si3 0.720726 0.302415 0.648563
Si Si4 0.739978 0.000000 0.508432
Si Si5 0.713176 0.906269 0.760572
Si Si6 0.337993 0.268491 0.825005
Si Si7 0.474507 0.339409 0.421419
Si Si8 0.732460 0.094881 0.104487
O O1 0.163348 0.826468 0.112307
O O2 0.223154 0.000000 0.073233
O O3 0.500000 0.890270 0.000000
O O4 0.263344 0.891123 0.971323
O O5 0.224697 0.902947 0.672889
O O6 0.517580 0.000000 0.589944
O O7 0.267927 0.000000 0.565936
O O8 0.554408 0.253730 0.736702
O O9 0.656865 0.308353 0.596343
O O10 0.916948 0.248649 0.590027
O O11 0.846305 0.910036 0.497181
O O12 0.749793 0.828230 0.797369
O O13 0.491512 0.910797 0.812449
O O14 0.853211 0.895497 0.660661
O O15 0.764490 0.000000 0.776304
O O16 0.211585 0.182275 0.875899
O O17 0.821046 0.000000 0.093773
#
# Coordination Sequence:
#
# PCOD9175029 Si02
#       8
#     8   4   8   4   8   8   8   8
#     4  10  19  32  51  80 105 138 187 241 286 332
#     4   9  20  38  57  91 119 152 188 244 285 341
#     4  10  22  35  59  85 120 149 196 236 289 341
#     4   9  18  36  65  85 116 155 199 229 281 339
#     4  10  18  32  55  79 104 136 186 234 273 326
#     4  11  20  31  55  80 106 142 184 240 286 330
#     4  10  19  36  57  89 114 152 190 238 281 344
#     4  10  20  34  50  73 107 141 179 235 279 334
#
# _framework density 24.536753000000001
#
# number of rings (size 3 to 8) (size 9 to 14) (size 15 to 20)
#    0.000    2.000    3.571    0.857    4.000    0.571 
#    0.000    0.714    4.714    3.000    0.000    0.000 
#    0.000    0.000    0.000    0.000    0.000    0.000 
#
# Total GULP energy -156492.406611 kJ/mol
# GULP energy per Si atom -5589.014522 kJ/mol
# Density = 2.448091 g / cm^3
# Si number density = 24.536753 Si / 1000 Ang^3
#
#
#
# Elastic Constant Matrix: (Units=GPa)
#
#
# Indices 1 2 3 4 5 6 
#
# 1 62.5089 38.7306 18.5339 -0.0001 -17.5595 0.0000
# 2 38.7306 161.2659 27.8068 0.0000 5.8445 0.0001
# 3 18.5339 27.8068 45.6403 0.0001 -3.5816 0.0004
# 4 -0.0001 0.0000 0.0001 26.1233 0.0001 -14.9176
# 5 -17.5595 5.8445 -3.5816 0.0001 27.3567 -0.0001
# 6 0.0000 0.0001 0.0004 -14.9176 -0.0001 15.3122
#
#
#
# Elastic Compliance Matrix: (Units=1/GPa)
#
#
# Indices 1 2 3 4 5 6 
#
# 1 0.026252 -0.005958 -0.005667 0.000000 0.017381 0.000001
# 2 -0.005958 0.008397 -0.003170 0.000000 -0.006033 0.000000
# 3 -0.005667 -0.003170 0.026180 -0.000001 0.000467 -0.000002
# 4 0.000000 0.000000 -0.000001 0.086280 0.000000 0.084056
# 5 0.017381 -0.006033 0.000467 0.000000 0.049061 0.000000
# 6 0.000001 0.000000 -0.000002 0.084056 0.000000 0.147197
#
#
# Mechanical properties :
#
#
# Convention : Reuss Voigt Hill
#
# Bulk Modulus (GPa) = 32.01062 48.83973 40.42518
# Shear Modulus (GPa) = 13.04228 26.04803 19.54516
#
# Velocity S-wave (km/s) = 2.30802 3.26174 2.82541
# Velocity P-wave (km/s) = 4.49187 5.84237 5.21105
#
# Compressibility (1/GPa) = 0.03123963
#
# Stress axis : x y z
#
# Youngs Moduli (GPa) = 38.09264 119.08988 38.19747
#
# Poissons Ratio (x) = 0.70949 0.21646
# Poissons Ratio (y) = 0.22694 0.12109
# Poissons Ratio (z) = 0.21586 0.37753
#
# Static dielectric constant tensor:
#      x y z
#    x 1.959040 0.000000 -0.000210 
#    y 0.000000 2.043010 0.000000 
#    z -0.000210 0.000000 1.944680 
# 
# From -- ./inp_files/358200.got.cif
#   From: 2010.05.17/outbox.cif.g08.bks.cpg/sg12_180_cif.got.tgz:358200.got - 2010.06.03 13:09:07.
