data_PCOD9175420
_publ_section_title
;
Structure prediction by ZEFSAII (Michael W. Deem and Ramdas Pophale) SiO2 
 PCOD9175420
Probable space group: C 2/M
;
_chemical_formula_sum "Si O2"
_cell_formula_units_Z 48
_cell_length_a 24.602800
_cell_length_b 17.367551
_cell_length_c 10.435918
_cell_angle_alpha 90.000000
_cell_angle_beta 143.546982
_cell_angle_gamma 90.000000
_cell_volume 2649.474209
_symmetry_space_group_name_H-M "C 2/M"
_symmetry_group_IT_number 12
_symmetry_cell_setting 'monoclinic'
loop_
_space_group_symop_operation_xyz
x,y,z
-x,y,-z
-x,-y,-z
x,-y,z
1/2+x,1/2+y,z
1/2-x,1/2+y,-z
1/2-x,1/2-y,-z
1/2+x,1/2-y,z
loop_
_atom_site_type_symbol
_atom_site_label
_atom_site_fract_x
_atom_site_fract_y
_atom_site_fract_z
Si Si1 0.776240 0.310212 0.937468
Si Si2 0.097853 0.846460 0.151463
Si Si3 0.769669 0.584684 0.357967
Si Si4 0.859271 0.745043 0.520013
Si Si5 0.837453 0.086874 0.114959
Si Si6 0.553765 0.275226 0.791455
O O1 0.727749 0.281164 0.716724
O O2 0.771707 0.111902 0.106903
O O3 0.750000 0.250000 0.000000
O O4 0.884514 0.298398 0.128328
O O5 0.182780 0.901910 0.286061
O O6 0.122502 0.788819 0.312992
O O7 0.081190 0.800303 0.987939
O O8 0.000000 0.884364 0.000000
O O9 0.809380 0.500000 0.452678
O O10 0.838140 0.655622 0.502747
O O11 0.726359 0.588768 0.133030
O O12 0.946752 0.757819 0.593987
O O13 0.873214 0.000000 0.197038
O O14 0.914431 0.151922 0.234676
#
# Coordination Sequence:
#
# PCOD9175420 Si02
#       6
#     8   8   8   8   8   8
#     4  10  18  33  50  77 103 137 180 205 254 308
#     4   9  18  33  55  80 101 132 174 216 258 308
#     4  10  19  33  53  77 105 137 170 213 263 307
#     4  11  19  33  57  77 104 137 177 216 251 311
#     4   9  18  35  53  75 109 137 167 219 265 299
#     4   9  19  33  54  81 100 139 178 209 255 315
#
# _framework density 18.116802
#
# number of rings (size 3 to 8) (size 9 to 14) (size 15 to 20)
#    0.000    2.333    5.000    0.500    0.000    3.000 
#    0.000    5.833    0.000    6.500    0.000    0.000 
#    0.000    0.000    0.000    0.000    0.000    0.000 
#
# Total GULP energy -133729.298441 kJ/mol
# GULP energy per Si atom -5572.054102 kJ/mol
# Density = 1.807557 g / cm^3
# Si number density = 18.116802 Si / 1000 Ang^3
#
#
#
# Elastic Constant Matrix: (Units=GPa)
#
#
# Indices 1 2 3 4 5 6 
#
# 1 62.8368 30.2826 3.9631 0.0000 14.4341 0.0000
# 2 30.2826 107.6871 22.1180 0.0000 10.5123 0.0000
# 3 3.9631 22.1180 37.6771 0.0000 6.8973 0.0000
# 4 0.0000 0.0000 0.0000 2.6055 0.0000 -0.8663
# 5 14.4341 10.5123 6.8973 0.0000 31.3687 0.0000
# 6 0.0000 0.0000 0.0000 -0.8663 0.0000 15.4903
#
#
#
# Elastic Compliance Matrix: (Units=1/GPa)
#
#
# Indices 1 2 3 4 5 6 
#
# 1 0.020213 -0.005418 0.002526 0.000000 -0.008041 0.000000
# 2 -0.005418 0.012169 -0.006547 0.000000 -0.000145 0.000000
# 3 0.002526 -0.006547 0.031185 0.000000 -0.005826 0.000000
# 4 0.000000 0.000000 0.000000 0.391075 0.000000 0.021870
# 5 -0.008041 -0.000145 -0.005826 0.000000 0.036908 0.000000
# 6 0.000000 0.000000 0.000000 0.021870 0.000000 0.065780
#
#
# Mechanical properties :
#
#
# Convention : Reuss Voigt Hill
#
# Bulk Modulus (GPa) = 22.37645 35.65873 29.01759
# Shear Modulus (GPa) = 8.45875 20.01538 14.23706
#
# Velocity S-wave (km/s) = 2.16313 3.32745 2.80634
# Velocity P-wave (km/s) = 4.31473 5.87265 5.15291
#
# Compressibility (1/GPa) = 0.04468984
#
# Stress axis : x y z
#
# Youngs Moduli (GPa) = 49.47311 82.17824 32.06627
#
# Poissons Ratio (x) = 0.44525 -0.08101
# Poissons Ratio (y) = 0.26805 0.20994
# Poissons Ratio (z) = -0.12499 0.53802
#
# Static dielectric constant tensor:
#      x y z
#    x 1.661330 0.000000 0.014270 
#    y 0.000000 1.619700 0.000000 
#    z 0.014270 0.000000 1.629460 
# 
# From -- ./inp_files/184234.got.cif
#   From: 2010.05.17/outbox.cif.g08.bks.cpg/sg12_93_cif.got.tgz:184234.got - 2010.06.03 13:09:07.
