data_PCOD9175262
_publ_section_title
;
Structure prediction by ZEFSAII (Michael W. Deem and Ramdas Pophale) SiO2 
 PCOD9175262
Probable space group: C 2/M
;
_chemical_formula_sum "Si O2"
_cell_formula_units_Z 48
_cell_length_a 16.924830
_cell_length_b 19.961674
_cell_length_c 8.928173
_cell_angle_alpha 90.000000
_cell_angle_beta 121.616011
_cell_angle_gamma 90.000000
_cell_volume 2568.677411
_symmetry_space_group_name_H-M "C 2/M"
_symmetry_group_IT_number 12
_symmetry_cell_setting 'monoclinic'
loop_
_space_group_symop_operation_xyz
x,y,z
-x,y,-z
-x,-y,-z
x,-y,z
1/2+x,1/2+y,z
1/2-x,1/2+y,-z
1/2-x,1/2-y,-z
1/2+x,1/2-y,z
loop_
_atom_site_type_symbol
_atom_site_label
_atom_site_fract_x
_atom_site_fract_y
_atom_site_fract_z
Si Si1 0.339013 0.500000 0.982985
Si Si2 0.394696 0.362590 0.961092
Si Si3 0.969909 0.000000 0.643838
Si Si4 0.514129 0.000000 0.334090
Si Si5 0.673734 0.000000 0.053078
Si Si6 0.654646 0.254008 0.316508
Si Si7 0.019295 0.852959 0.345893
Si Si8 0.093763 0.603917 0.191076
O O1 0.338080 0.431323 0.888941
O O2 0.440054 0.500000 0.160767
O O3 0.263353 0.500000 0.038206
O O4 0.420849 0.352421 0.160721
O O5 0.500000 0.369241 0.000000
O O6 0.345444 0.300693 0.831976
O O7 0.929655 0.074500 0.629803
O O8 0.000000 0.000000 0.500000
O O9 0.500000 0.000000 0.500000
O O10 0.570047 0.936452 0.320217
O O11 0.414800 0.000000 0.148269
O O12 0.665382 0.062933 0.157707
O O13 0.750000 0.250000 0.500000
O O14 0.580448 0.292755 0.345540
O O15 0.623318 0.179315 0.248295
O O16 0.000000 0.846619 0.500000
O O17 0.000000 0.603071 0.000000
#
# Coordination Sequence:
#
# PCOD9175262 Si02
#       8
#     4   8   4   4   4   8   8   8
#     4  10  18  32  57  87 107 131 178 227 266 308
#     4   9  19  36  56  79 112 147 173 212 271 331
#     4   8  16  30  52  79 108 136 168 209 260 325
#     4   9  19  36  61  85 102 132 183 227 267 318
#     4   9  20  36  59  81 104 139 179 223 271 319
#     4  11  23  36  52  79 111 144 181 225 270 310
#     4   9  18  35  57  81 106 143 183 212 258 331
#     4   9  19  39  57  74 107 149 180 212 270 333
#
# _framework density 18.686658999999999
#
# number of rings (size 3 to 8) (size 9 to 14) (size 15 to 20)
#    0.000    2.667    0.000    2.750    0.000    8.000 
#    0.000    6.667    0.000    0.000    0.000    0.000 
#    0.000    0.000    0.000    0.000    0.000    0.000 
#
# Total GULP energy -133681.558744 kJ/mol
# GULP energy per Si atom -5570.064948 kJ/mol
# Density = 1.864413 g / cm^3
# Si number density = 18.686659 Si / 1000 Ang^3
#
#
#
# Elastic Constant Matrix: (Units=GPa)
#
#
# Indices 1 2 3 4 5 6 
#
# 1 53.7573 53.0472 17.2818 0.0000 -12.8830 0.0000
# 2 53.0472 205.5222 55.9916 0.0000 -14.3338 0.0000
# 3 17.2818 55.9916 99.3985 0.0000 -29.4458 0.0000
# 4 0.0000 0.0000 0.0000 23.2918 0.0000 -7.5239
# 5 -12.8830 -14.3338 -29.4458 0.0000 25.4741 0.0000
# 6 0.0000 0.0000 0.0000 -7.5239 0.0000 8.3736
#
#
#
# Elastic Compliance Matrix: (Units=1/GPa)
#
#
# Indices 1 2 3 4 5 6 
#
# 1 0.027913 -0.007129 0.003279 0.000000 0.013895 0.000000
# 2 -0.007129 0.007578 -0.004310 0.000000 -0.004323 0.000000
# 3 0.003279 -0.004310 0.017779 0.000000 0.019784 0.000000
# 4 0.000000 0.000000 0.000000 0.060491 0.000000 0.054352
# 5 0.013895 -0.004323 0.019784 0.000000 0.066719 0.000000
# 6 0.000000 0.000000 0.000000 0.054352 0.000000 0.168259
#
#
# Mechanical properties :
#
#
# Convention : Reuss Voigt Hill
#
# Bulk Modulus (GPa) = 27.06334 67.92436 47.49385
# Shear Modulus (GPa) = 13.24937 26.91840 20.08389
#
# Velocity S-wave (km/s) = 2.66565 3.79953 3.28193
# Velocity P-wave (km/s) = 4.89779 7.46167 6.31130
#
# Compressibility (1/GPa) = 0.03695035
#
# Stress axis : x y z
#
# Youngs Moduli (GPa) = 35.82615 131.95427 56.24522
#
# Poissons Ratio (x) = 0.94066 -0.18443
# Poissons Ratio (y) = 0.25539 0.24243
# Poissons Ratio (z) = -0.11747 0.56875
#
# Static dielectric constant tensor:
#      x y z
#    x 1.646550 0.000000 -0.020800 
#    y 0.000000 1.710040 0.000000 
#    z -0.020800 0.000000 1.679850 
# 
# From -- ./inp_files/77051.got.cif
#   From: 2010.05.17/outbox.cif.g08.bks.cpg/sg12_39_cif.got.tgz:77051.got - 2010.06.03 13:09:07.
