data_PCOD9175664
_publ_section_title
;
Structure prediction by ZEFSAII (Michael W. Deem and Ramdas Pophale) SiO2 
 PCOD9175664
Probable space group: C 2/M
;
_chemical_formula_sum "Si O2"
_cell_formula_units_Z 64
_cell_length_a 20.898504
_cell_length_b 7.917537
_cell_length_c 21.305161
_cell_angle_alpha 90.000000
_cell_angle_beta 73.353856
_cell_angle_gamma 90.000000
_cell_volume 3377.516010
_symmetry_space_group_name_H-M "C 2/M"
_symmetry_group_IT_number 12
_symmetry_cell_setting 'monoclinic'
loop_
_space_group_symop_operation_xyz
x,y,z
-x,y,-z
-x,-y,-z
x,-y,z
1/2+x,1/2+y,z
1/2-x,1/2+y,-z
1/2-x,1/2-y,-z
1/2+x,1/2-y,z
loop_
_atom_site_type_symbol
_atom_site_label
_atom_site_fract_x
_atom_site_fract_y
_atom_site_fract_z
Si Si1 0.548168 0.706870 0.678253
Si Si2 0.668903 0.702246 0.334487
Si Si3 0.528182 0.706969 0.425306
Si Si4 0.683036 0.704551 0.185794
Si Si5 0.456923 0.299012 0.819811
Si Si6 0.170309 0.800255 0.845813
Si Si7 0.971490 0.302245 0.072864
Si Si8 0.815287 0.796647 0.302287
O O1 0.547619 0.500000 0.678928
O O2 0.517790 0.759312 0.620417
O O3 0.501262 0.765200 0.749005
O O4 0.623718 0.761269 0.671654
O O5 0.663734 0.500000 0.333122
O O6 0.603773 0.763767 0.389374
O O7 0.669616 0.761150 0.261665
O O8 0.740859 0.746061 0.342501
O O9 0.500000 0.763655 0.500000
O O10 0.528408 0.500000 0.425999
O O11 0.686036 0.500000 0.184422
O O12 0.619404 0.762998 0.163462
O O13 0.756387 0.767533 0.146950
O O14 0.453009 0.500000 0.811464
O O15 0.493625 0.269757 0.874867
O O16 0.107910 0.721660 0.898982
O O17 0.172682 0.735749 0.772841
O O18 0.158203 0.000000 0.846744
O O19 0.986952 0.500000 0.069207
O O20 0.000000 0.228644 0.000000
O O21 0.817151 0.000000 0.299588
#
# Coordination Sequence:
#
# PCOD9175664 Si02
#       8
#     8   8   8   8   8   8   8   8
#     4   9  15  28  48  72 101 130 170 215 250 292
#     4   9  16  28  47  72 102 131 165 210 253 296
#     4   9  16  27  47  74 102 135 173 210 250 299
#     4   9  17  30  52  79 106 134 167 216 266 302
#     4  10  18  33  56  79 103 135 176 217 257 305
#     4  10  19  33  54  78 104 136 174 212 254 310
#     4  11  24  39  54  76 108 139 168 210 262 312
#     4   9  17  29  48  72  99 130 165 209 255 299
#
# _framework density 18.948836
#
# number of rings (size 3 to 8) (size 9 to 14) (size 15 to 20)
#    0.000    2.500    2.500    0.750    0.000    2.000 
#    0.000    1.250    0.000    1.125    0.000    0.000 
#    0.000    0.000    0.000    0.000    0.000    0.000 
#
# Total GULP energy -178459.659149 kJ/mol
# GULP energy per Si atom -5576.864348 kJ/mol
# Density = 1.890571 g / cm^3
# Si number density = 18.948836 Si / 1000 Ang^3
#
#
#
# Elastic Constant Matrix: (Units=GPa)
#
#
# Indices 1 2 3 4 5 6 
#
# 1 143.9776 -6.9265 56.4996 0.0000 -15.8914 0.0000
# 2 -6.9265 8.1116 -5.1599 0.0000 2.7103 0.0000
# 3 56.4996 -5.1599 97.1335 0.0000 -8.4061 0.0000
# 4 0.0000 0.0000 0.0000 5.1186 0.0000 -6.5839
# 5 -15.8914 2.7103 -8.4061 0.0000 25.4375 0.0000
# 6 0.0000 0.0000 0.0000 -6.5839 0.0000 20.3301
#
#
#
# Elastic Compliance Matrix: (Units=1/GPa)
#
#
# Indices 1 2 3 4 5 6 
#
# 1 0.009515 0.003638 -0.005003 0.000000 0.003903 0.000000
# 2 0.003638 0.132451 0.004010 0.000000 -0.010515 0.000000
# 3 -0.005003 0.004010 0.013497 0.000000 0.000907 0.000000
# 4 0.000000 0.000000 0.000000 0.334846 0.000000 0.108439
# 5 0.003903 -0.010515 0.000907 0.000000 0.043171 0.000000
# 6 0.000000 0.000000 0.000000 0.108439 0.000000 0.084306
#
#
# Mechanical properties :
#
#
# Convention : Reuss Voigt Hill
#
# Bulk Modulus (GPa) = 6.22078 37.56102 21.89090
# Shear Modulus (GPa) = 7.50660 23.83120 15.66890
#
# Velocity S-wave (km/s) = 1.99251 3.55020 2.87872
# Velocity P-wave (km/s) = 2.92977 6.05562 4.75679
#
# Compressibility (1/GPa) = 0.16075160
#
# Stress axis : x y z
#
# Youngs Moduli (GPa) = 105.09972 7.54996 74.09067
#
# Poissons Ratio (x) = -0.02747 0.37071
# Poissons Ratio (y) = -0.38234 -0.29710
# Poissons Ratio (z) = 0.52586 -0.03028
#
# Static dielectric constant tensor:
#      x y z
#    x 1.663700 0.000000 -0.008670 
#    y 0.000000 1.691320 0.000000 
#    z -0.008670 0.000000 1.642260 
# 
# From -- ./inp_files/319833.got.cif
#   From: 2010.05.17/outbox.cif.g08.bks.cpg/sg12_160_cif.got.tgz:319833.got - 2010.06.03 13:09:07.
