data_PCOD9175952
_publ_section_title
;
Structure prediction by ZEFSAII (Michael W. Deem and Ramdas Pophale) SiO2 
 PCOD9175952
Probable space group: C 2/M
;
_chemical_formula_sum "Si O2"
_cell_formula_units_Z 48
_cell_length_a 18.871989
_cell_length_b 20.413377
_cell_length_c 7.804886
_cell_angle_alpha 90.000000
_cell_angle_beta 133.376210
_cell_angle_gamma 90.000000
_cell_volume 2185.494929
_symmetry_space_group_name_H-M "C 2/M"
_symmetry_group_IT_number 12
_symmetry_cell_setting 'monoclinic'
loop_
_space_group_symop_operation_xyz
x,y,z
-x,y,-z
-x,-y,-z
x,-y,z
1/2+x,1/2+y,z
1/2-x,1/2+y,-z
1/2-x,1/2-y,-z
1/2+x,1/2-y,z
loop_
_atom_site_type_symbol
_atom_site_label
_atom_site_fract_x
_atom_site_fract_y
_atom_site_fract_z
Si Si1 0.659185 0.193437 0.206271
Si Si2 0.282975 0.572130 0.956496
Si Si3 0.985881 0.270498 0.726964
Si Si4 0.991769 0.879427 0.278883
Si Si5 0.795126 0.073583 0.392994
Si Si6 0.704615 0.787222 0.761928
O O1 0.588955 0.210122 0.245929
O O2 0.721398 0.128198 0.337018
O O3 0.734452 0.251144 0.286045
O O4 0.582647 0.186899 0.919452
O O5 0.245935 0.500000 0.847059
O O6 0.394071 0.581136 0.076447
O O7 0.287144 0.575590 0.171451
O O8 0.224939 0.635767 0.799554
O O9 0.018451 0.195219 0.798338
O O10 0.910474 0.273990 0.444018
O O11 0.093112 0.908247 0.379489
O O12 0.000000 0.878811 0.500000
O O13 0.773039 0.000000 0.413352
O O14 0.750000 0.750000 0.000000
#
# Coordination Sequence:
#
# PCOD9175952 Si02
#       6
#     8   8   8   8   8   8
#     4  11  23  40  59  89 120 161 200 251 294 351
#     4  10  20  35  57  91 126 150 189 252 310 357
#     4  11  24  37  61  89 123 153 205 252 295 349
#     4  10  18  33  60  91 119 151 194 248 301 358
#     4  10  20  36  59  87 120 160 203 243 299 359
#     4  12  21  38  63  90 119 158 202 248 295 358
#
# _framework density 21.962989
#
# number of rings (size 3 to 8) (size 9 to 14) (size 15 to 20)
#    0.000    1.333    5.000    2.000    0.000    2.000 
#    0.000    3.333    0.000    3.000    0.000    0.000 
#    0.000    0.000    0.000    0.000    0.000    0.000 
#
# Total GULP energy -134199.981569 kJ/mol
# GULP energy per Si atom -5591.665899 kJ/mol
# Density = 2.191300 g / cm^3
# Si number density = 21.962989 Si / 1000 Ang^3
#
#
#
# Elastic Constant Matrix: (Units=GPa)
#
#
# Indices 1 2 3 4 5 6 
#
# 1 66.7205 20.2797 11.2740 0.0000 16.1910 0.0000
# 2 20.2797 167.8072 7.0209 0.0000 18.8481 0.0000
# 3 11.2740 7.0209 78.1847 0.0000 22.6261 0.0000
# 4 0.0000 0.0000 0.0000 11.5498 0.0000 15.4620
# 5 16.1910 18.8481 22.6261 0.0000 38.1086 0.0000
# 6 0.0000 0.0000 0.0000 15.4620 0.0000 23.4168
#
#
#
# Elastic Compliance Matrix: (Units=1/GPa)
#
#
# Indices 1 2 3 4 5 6 
#
# 1 0.016998 -0.001330 -0.000522 0.000000 -0.006254 0.000000
# 2 -0.001330 0.006425 0.000448 0.000000 -0.002878 0.000000
# 3 -0.000522 0.000448 0.015486 0.000000 -0.009194 0.000000
# 4 0.000000 0.000000 0.000000 0.746080 0.000000 -0.492632
# 5 -0.006254 -0.002878 -0.009194 0.000000 0.035781 0.000000
# 6 0.000000 0.000000 0.000000 -0.492632 0.000000 0.367987
#
#
# Mechanical properties :
#
#
# Convention : Reuss Voigt Hill
#
# Bulk Modulus (GPa) = 27.70003 43.31793 35.50898
# Shear Modulus (GPa) = 4.15421 32.89090 18.52256
#
# Velocity S-wave (km/s) = 1.37680 3.87403 2.90720
# Velocity P-wave (km/s) = 3.89448 6.30688 5.24136
#
# Compressibility (1/GPa) = 0.03610105
#
# Stress axis : x y z
#
# Youngs Moduli (GPa) = 58.83040 155.65410 64.57440
#
# Poissons Ratio (x) = 0.20701 0.03369
# Poissons Ratio (y) = 0.07824 -0.02892
# Poissons Ratio (z) = 0.03069 -0.06971
#
# Static dielectric constant tensor:
#      x y z
#    x 1.970590 0.000000 -0.254840 
#    y 0.000000 1.739810 0.000000 
#    z -0.254840 0.000000 2.101690 
# 
# From -- ./inp_files/63587.got.cif
#   From: 2010.05.17/outbox.cif.g08.bks.cpg/sg12_32_cif.got.tgz:63587.got - 2010.06.03 13:09:07.
