data_PCOD9175276
_publ_section_title
;
Structure prediction by ZEFSAII (Michael W. Deem and Ramdas Pophale) SiO2 
 PCOD9175276
Probable space group: C 2/M
;
_chemical_formula_sum "Si O2"
_cell_formula_units_Z 56
_cell_length_a 10.748011
_cell_length_b 19.530279
_cell_length_c 14.350283
_cell_angle_alpha 90.000000
_cell_angle_beta 122.207126
_cell_angle_gamma 90.000000
_cell_volume 2548.780935
_symmetry_space_group_name_H-M "C 2/M"
_symmetry_group_IT_number 12
_symmetry_cell_setting 'monoclinic'
loop_
_space_group_symop_operation_xyz
x,y,z
-x,y,-z
-x,-y,-z
x,-y,z
1/2+x,1/2+y,z
1/2-x,1/2+y,-z
1/2-x,1/2-y,-z
1/2+x,1/2-y,z
loop_
_atom_site_type_symbol
_atom_site_label
_atom_site_fract_x
_atom_site_fract_y
_atom_site_fract_z
Si Si1 0.305732 0.418817 0.681220
Si Si2 0.638703 0.923769 0.235055
Si Si3 0.653319 0.577116 0.859061
Si Si4 0.855255 0.919912 0.492805
Si Si5 0.307614 0.793650 0.253529
Si Si6 0.965642 0.280047 0.790657
Si Si7 0.869063 0.820943 0.002075
O O1 0.266698 0.500000 0.673566
O O2 0.478163 0.411553 0.777789
O O3 0.303987 0.394516 0.572970
O O4 0.208608 0.368114 0.705666
O O5 0.762537 0.915928 0.204578
O O6 0.723587 0.919292 0.366878
O O7 0.529879 0.860494 0.186305
O O8 0.574071 0.000000 0.199305
O O9 0.675806 0.500000 0.901214
O O10 0.709248 0.631183 0.955468
O O11 0.000000 0.889707 0.500000
O O12 0.895179 0.000000 0.529116
O O13 0.467588 0.768705 0.285818
O O14 0.204160 0.743588 0.271240
O O15 0.233372 0.795912 0.121138
O O16 0.049167 0.237110 0.904463
O O17 0.000000 0.860354 0.000000
#
# Coordination Sequence:
#
# PCOD9175276 Si02
#       7
#     8   8   8   8   8   8   8
#     4  10  19  34  59  91 123 151 192 243 291 351
#     4  10  21  37  60  89 121 158 197 247 300 348
#     4  10  18  32  57  89 121 151 192 241 289 349
#     4   9  16  31  59  92 121 155 198 241 292 353
#     4  11  24  40  61  87 116 160 200 246 301 355
#     4  11  23  39  61  83 117 156 202 246 294 358
#     4  10  20  37  58  87 115 157 201 243 299 355
#
# _framework density 21.971287
#
# number of rings (size 3 to 8) (size 9 to 14) (size 15 to 20)
#    0.000    1.857    4.286    1.286    0.000    3.714 
#    0.000    1.429    0.000    8.143    0.000    0.000 
#    0.000    0.000    0.000    0.000    0.000    0.000 
#
# Total GULP energy -156288.673381 kJ/mol
# GULP energy per Si atom -5581.738335 kJ/mol
# Density = 2.192128 g / cm^3
# Si number density = 21.971287 Si / 1000 Ang^3
#
#
#
# Elastic Constant Matrix: (Units=GPa)
#
#
# Indices 1 2 3 4 5 6 
#
# 1 85.4505 48.4143 42.2298 0.0000 -35.5414 0.0000
# 2 48.4143 99.0235 35.1215 0.0000 -18.4979 0.0000
# 3 42.2298 35.1215 42.3204 0.0000 -22.5999 0.0000
# 4 0.0000 0.0000 0.0000 15.9052 0.0000 -10.5886
# 5 -35.5414 -18.4979 -22.5999 0.0000 25.3294 0.0000
# 6 0.0000 0.0000 0.0000 -10.5886 0.0000 34.0214
#
#
#
# Elastic Compliance Matrix: (Units=1/GPa)
#
#
# Indices 1 2 3 4 5 6 
#
# 1 0.035802 -0.006979 -0.011133 0.000000 0.035206 0.000000
# 2 -0.006979 0.015672 -0.009856 0.000000 -0.007141 0.000000
# 3 -0.011133 -0.009856 0.058701 0.000000 0.029557 0.000000
# 4 0.000000 0.000000 0.000000 0.079304 0.000000 0.024682
# 5 0.035206 -0.007141 0.029557 0.000000 0.110037 0.000000
# 6 0.000000 0.000000 0.000000 0.024682 0.000000 0.037075
#
#
# Mechanical properties :
#
#
# Convention : Reuss Voigt Hill
#
# Bulk Modulus (GPa) = 18.43631 53.14729 35.79180
# Shear Modulus (GPa) = 12.17709 21.78647 16.98178
#
# Velocity S-wave (km/s) = 2.35676 3.15237 2.78314
# Velocity P-wave (km/s) = 3.97681 6.12306 5.16270
#
# Compressibility (1/GPa) = 0.05424078
#
# Stress axis : x y z
#
# Youngs Moduli (GPa) = 27.93138 63.80615 17.03540
#
# Poissons Ratio (x) = 0.44531 0.18965
# Poissons Ratio (y) = 0.19493 0.16790
# Poissons Ratio (z) = 0.31095 0.62886
#
# Static dielectric constant tensor:
#      x y z
#    x 1.913770 0.000000 0.021010 
#    y 0.000000 1.842750 0.000000 
#    z 0.021010 0.000000 1.788350 
# 
# From -- ./inp_files/206269.got.cif
#   From: 2010.05.17/outbox.cif.g08.bks.cpg/sg12_104_cif.got.tgz:206269.got - 2010.06.03 13:09:07.
