data_PCOD9175247
_publ_section_title
;
Structure prediction by ZEFSAII (Michael W. Deem and Ramdas Pophale) SiO2 
 PCOD9175247
Probable space group: C 2/M
;
_chemical_formula_sum "Si O2"
_cell_formula_units_Z 56
_cell_length_a 21.656404
_cell_length_b 11.814443
_cell_length_c 27.330889
_cell_angle_alpha 90.000000
_cell_angle_beta 23.250052
_cell_angle_gamma 90.000000
_cell_volume 2760.384952
_symmetry_space_group_name_H-M "C 2/M"
_symmetry_group_IT_number 12
_symmetry_cell_setting 'monoclinic'
loop_
_space_group_symop_operation_xyz
x,y,z
-x,y,-z
-x,-y,-z
x,-y,z
1/2+x,1/2+y,z
1/2-x,1/2+y,-z
1/2-x,1/2-y,-z
1/2+x,1/2-y,z
loop_
_atom_site_type_symbol
_atom_site_label
_atom_site_fract_x
_atom_site_fract_y
_atom_site_fract_z
Si Si1 0.702157 0.127043 0.812529
Si Si2 0.934706 0.368476 0.930338
Si Si3 0.627915 0.129757 0.691022
Si Si4 0.181795 0.225627 0.175790
Si Si5 0.973377 0.803975 0.463926
Si Si6 0.037916 0.375419 0.615255
Si Si7 0.614817 0.627453 0.643867
O O1 0.573760 0.162975 0.866576
O O2 0.713878 0.201256 0.852658
O O3 0.871485 0.127909 0.663540
O O4 0.665303 0.000000 0.855017
O O5 0.890828 0.500000 0.971727
O O6 0.006069 0.362931 0.824603
O O7 0.785507 0.292679 0.052585
O O8 0.807394 0.133628 0.579805
O O9 0.608444 0.254322 0.679052
O O10 0.607878 0.000000 0.684130
O O11 0.091349 0.341776 0.251107
O O12 0.035508 0.138034 0.281426
O O13 0.969057 0.706262 0.426142
O O14 0.000000 0.763563 0.500000
O O15 0.008794 0.500000 0.618518
O O16 0.215905 0.369367 0.505400
O O17 0.608962 0.500000 0.671689
#
# Coordination Sequence:
#
# PCOD9175247 Si02
#       7
#     8   8   8   8   8   8   8
#     4  10  19  31  53  83 113 141 177 229 285 335
#     4  10  20  34  54  82 117 147 182 232 283 338
#     4  10  21  36  57  88 120 149 186 235 286 331
#     4  11  21  35  56  79 109 150 192 229 276 339
#     4  10  18  32  57  85 112 143 181 232 285 337
#     4   9  21  38  55  79 109 145 189 239 284 334
#     4  10  21  39  60  83 114 149 193 238 281 338
#
# _framework density 20.287026000000001
#
# number of rings (size 3 to 8) (size 9 to 14) (size 15 to 20)
#    0.000    2.000    1.429    2.571    0.000    3.143 
#    0.000    5.000    0.000    6.857    0.000    0.000 
#    0.000    0.000    0.000    0.000    0.000    0.000 
#
# Total GULP energy -155996.368552 kJ/mol
# GULP energy per Si atom -5571.298877 kJ/mol
# Density = 2.024085 g / cm^3
# Si number density = 20.287026 Si / 1000 Ang^3
#
#
#
# Elastic Constant Matrix: (Units=GPa)
#
#
# Indices 1 2 3 4 5 6 
#
# 1 46.3433 36.3590 19.0507 -0.0003 -1.5448 0.0000
# 2 36.3590 127.7508 40.8454 -0.0023 4.8580 -0.0013
# 3 19.0507 40.8454 107.6396 -0.0035 15.9120 -0.0016
# 4 -0.0003 -0.0023 -0.0035 22.4114 -0.0009 3.6448
# 5 -1.5448 4.8580 15.9120 -0.0009 27.4705 0.0002
# 6 0.0000 -0.0013 -0.0016 3.6448 0.0002 4.9216
#
#
#
# Elastic Compliance Matrix: (Units=1/GPa)
#
#
# Indices 1 2 3 4 5 6 
#
# 1 0.028771 -0.007417 -0.002964 0.000000 0.004647 -0.000003
# 2 -0.007417 0.010825 -0.002680 0.000000 -0.000779 0.000002
# 3 -0.002964 -0.002680 0.011796 0.000001 -0.006526 0.000003
# 4 0.000000 0.000000 0.000001 0.050730 0.000001 -0.037570
# 5 0.004647 -0.000779 -0.006526 0.000001 0.040582 -0.000005
# 6 -0.000003 0.000002 0.000003 -0.037570 -0.000005 0.231009
#
#
# Mechanical properties :
#
#
# Convention : Reuss Voigt Hill
#
# Bulk Modulus (GPa) = 39.57325 52.69375 46.13350
# Shear Modulus (GPa) = 12.24708 23.32593 17.78651
#
# Velocity S-wave (km/s) = 2.45968 3.39454 2.96420
# Velocity P-wave (km/s) = 5.25507 6.43385 5.87410
#
# Compressibility (1/GPa) = 0.02526959
#
# Stress axis : x y z
#
# Youngs Moduli (GPa) = 34.75732 92.37675 84.77095
#
# Poissons Ratio (x) = 0.68519 0.25129
# Poissons Ratio (y) = 0.25781 0.22717
# Poissons Ratio (z) = 0.10303 0.24755
#
# Static dielectric constant tensor:
#      x y z
#    x 1.767490 0.000000 -0.010920 
#    y 0.000000 1.734020 0.000000 
#    z -0.010920 0.000000 1.744120 
# 
# From -- ./inp_files/174792.got.cif
#   From: 2010.05.17/outbox.cif.g08.bks.cpg/sg12_88_cif.got.tgz:174792.got - 2010.06.03 13:09:07.
