data_PCOD9175614
_publ_section_title
;
Structure prediction by ZEFSAII (Michael W. Deem and Ramdas Pophale) SiO2 
 PCOD9175614
Probable space group: C 2/M
;
_chemical_formula_sum "Si O2"
_cell_formula_units_Z 40
_cell_length_a 19.375210
_cell_length_b 14.610147
_cell_length_c 8.655492
_cell_angle_alpha 90.000000
_cell_angle_beta 50.303025
_cell_angle_gamma 90.000000
_cell_volume 1885.227339
_symmetry_space_group_name_H-M "C 2/M"
_symmetry_group_IT_number 12
_symmetry_cell_setting 'monoclinic'
loop_
_space_group_symop_operation_xyz
x,y,z
-x,y,-z
-x,-y,-z
x,-y,z
1/2+x,1/2+y,z
1/2-x,1/2+y,-z
1/2-x,1/2-y,-z
1/2+x,1/2-y,z
loop_
_atom_site_type_symbol
_atom_site_label
_atom_site_fract_x
_atom_site_fract_y
_atom_site_fract_z
Si Si1 0.900095 0.096852 0.069398
Si Si2 0.962396 0.724059 0.882156
Si Si3 0.851558 0.732715 0.535000
Si Si4 0.099155 0.398725 0.279285
Si Si5 0.748760 0.394805 0.450988
O O1 0.830742 0.099353 0.308510
O O2 0.888796 0.000000 0.000928
O O3 0.894670 0.190706 0.985406
O O4 0.000000 0.097773 0.000000
O O5 0.917264 0.636542 0.869617
O O6 0.045454 0.754892 0.654812
O O7 0.000000 0.706404 0.000000
O O8 0.847579 0.675656 0.697653
O O9 0.823828 0.661841 0.437365
O O10 0.790766 0.823341 0.616965
O O11 0.138682 0.500000 0.232016
O O12 0.000000 0.402811 0.500000
O O13 0.771328 0.500000 0.375127
#
# Coordination Sequence:
#
# PCOD9175614 Si02
#       5
#     8   8   8   8   8
#     4   9  16  30  52  77 103 134 172 211 255 304
#     4  10  18  33  55  81 103 132 175 219 258 302
#     4  10  19  33  54  78 105 138 173 214 256 307
#     4   9  19  34  51  73 106 142 172 209 259 312
#     4  10  19  32  55  79 104 141 177 208 251 311
#
# _framework density 21.217600000000001
#
# number of rings (size 3 to 8) (size 9 to 14) (size 15 to 20)
#    0.000    2.400    4.000    0.600    0.000    1.200 
#    0.000    2.000    0.000    3.600    0.000    0.000 
#    0.000    0.000    0.000    0.000    0.000    0.000 
#
# Total GULP energy -111518.286298 kJ/mol
# GULP energy per Si atom -5575.914315 kJ/mol
# Density = 2.116931 g / cm^3
# Si number density = 21.217600 Si / 1000 Ang^3
#
#
#
# Elastic Constant Matrix: (Units=GPa)
#
#
# Indices 1 2 3 4 5 6 
#
# 1 44.6181 38.7556 7.1760 0.0000 15.6867 0.0000
# 2 38.7556 176.1177 23.4902 0.0000 25.0660 0.0000
# 3 7.1760 23.4902 28.5587 0.0000 2.7216 0.0000
# 4 0.0000 0.0000 0.0000 26.8394 0.0000 0.8846
# 5 15.6867 25.0660 2.7216 0.0000 33.0702 0.0000
# 6 0.0000 0.0000 0.0000 0.8846 0.0000 29.4889
#
#
#
# Elastic Compliance Matrix: (Units=1/GPa)
#
#
# Indices 1 2 3 4 5 6 
#
# 1 0.030874 -0.004911 -0.002699 0.000000 -0.010700 0.000000
# 2 -0.004911 0.007878 -0.004937 0.000000 -0.003235 0.000000
# 3 -0.002699 -0.004937 0.039587 0.000000 0.001764 0.000000
# 4 0.000000 0.000000 0.000000 0.037296 0.000000 -0.001119
# 5 -0.010700 -0.003235 0.001764 0.000000 0.037621 0.000000
# 6 0.000000 0.000000 0.000000 -0.001119 0.000000 0.033945
#
#
# Mechanical properties :
#
#
# Convention : Reuss Voigt Hill
#
# Bulk Modulus (GPa) = 18.78125 43.12646 30.95386
# Shear Modulus (GPa) = 21.73514 29.87122 25.80318
#
# Velocity S-wave (km/s) = 3.20409 3.75620 3.49108
# Velocity P-wave (km/s) = 4.74965 6.25955 5.55613
#
# Compressibility (1/GPa) = 0.05324459
#
# Stress axis : x y z
#
# Youngs Moduli (GPa) = 32.38934 126.94048 25.26113
#
# Poissons Ratio (x) = 0.62343 0.06817
# Poissons Ratio (y) = 0.15907 0.12472
# Poissons Ratio (z) = 0.08740 0.62674
#
# Static dielectric constant tensor:
#      x y z
#    x 1.782000 0.000000 -0.010660 
#    y 0.000000 1.826200 0.000000 
#    z -0.010660 0.000000 1.766910 
# 
# From -- ./inp_files/84944.got.cif
#   From: 2010.05.17/outbox.cif.g08.bks.cpg/sg12_43_cif.got.tgz:84944.got - 2010.06.03 13:09:07.
