data_PCOD9175371
_publ_section_title
;
Structure prediction by ZEFSAII (Michael W. Deem and Ramdas Pophale) SiO2 
 PCOD9175371
Probable space group: C 2/M
;
_chemical_formula_sum "Si O2"
_cell_formula_units_Z 56
_cell_length_a 22.412258
_cell_length_b 13.889324
_cell_length_c 13.499561
_cell_angle_alpha 90.000000
_cell_angle_beta 39.438429
_cell_angle_gamma 90.000000
_cell_volume 2669.501199
_symmetry_space_group_name_H-M "C 2/M"
_symmetry_group_IT_number 12
_symmetry_cell_setting 'monoclinic'
loop_
_space_group_symop_operation_xyz
x,y,z
-x,y,-z
-x,-y,-z
x,-y,z
1/2+x,1/2+y,z
1/2-x,1/2+y,-z
1/2-x,1/2-y,-z
1/2+x,1/2-y,z
loop_
_atom_site_type_symbol
_atom_site_label
_atom_site_fract_x
_atom_site_fract_y
_atom_site_fract_z
Si Si1 0.551626 0.110522 0.736027
Si Si2 0.440470 0.886331 0.675484
Si Si3 0.251459 0.888212 0.619100
Si Si4 0.725909 0.786629 0.203972
Si Si5 0.399047 0.609619 0.898560
Si Si6 0.605047 0.610652 0.333232
Si Si7 0.949431 0.192060 0.166365
O O1 0.495907 0.133219 0.705287
O O2 0.661588 0.115254 0.567167
O O3 0.532700 0.195149 0.836954
O O4 0.528922 0.000000 0.793750
O O5 0.500000 0.863974 0.500000
O O6 0.343554 0.830492 0.789536
O O7 0.421190 0.000000 0.697528
O O8 0.286028 0.843892 0.678431
O O9 0.160090 0.831291 0.701181
O O10 0.226161 0.000000 0.666714
O O11 0.688174 0.678751 0.265456
O O12 0.830303 0.811201 0.034742
O O13 0.371943 0.500000 0.963245
O O14 0.393516 0.614025 0.787688
O O15 0.502112 0.633321 0.806983
O O16 0.500000 0.642083 0.500000
O O17 0.616886 0.500000 0.350367
O O18 0.000000 0.161970 0.000000
#
# Coordination Sequence:
#
# PCOD9175371 Si02
#       7
#     8   8   8   8   8   8   8
#     4  10  23  42  63  92 125 162 211 263 313 380
#     4  10  18  32  60  95 126 153 192 253 322 372
#     4  11  23  41  66  94 124 158 214 274 316 366
#     4  12  21  36  65  97 126 165 202 258 319 374
#     4  11  24  42  66  94 128 165 214 264 312 371
#     4  10  24  44  64  93 132 172 209 251 306 386
#     4  12  25  42  63  88 125 174 214 261 320 368
#
# _framework density 20.977701
#
# number of rings (size 3 to 8) (size 9 to 14) (size 15 to 20)
#    0.000    1.143    2.857    3.857    2.000    0.857 
#    0.000    2.857    0.000    0.000    0.000    0.000 
#    0.000    0.000    0.000    0.000    0.000    0.000 
#
# Total GULP energy -156559.741607 kJ/mol
# GULP energy per Si atom -5591.419343 kJ/mol
# Density = 2.092995 g / cm^3
# Si number density = 20.977701 Si / 1000 Ang^3
#
#
#
# Elastic Constant Matrix: (Units=GPa)
#
#
# Indices 1 2 3 4 5 6 
#
# 1 55.3826 37.2420 -2.7409 0.0000 -26.1307 0.0000
# 2 37.2420 114.7714 9.9136 0.0000 -7.5256 0.0000
# 3 -2.7409 9.9136 34.4514 0.0000 -11.6273 0.0000
# 4 0.0000 0.0000 0.0000 31.2354 0.0000 10.3082
# 5 -26.1307 -7.5256 -11.6273 0.0000 32.5713 0.0000
# 6 0.0000 0.0000 0.0000 10.3082 0.0000 95.8549
#
#
#
# Elastic Compliance Matrix: (Units=1/GPa)
#
#
# Indices 1 2 3 4 5 6 
#
# 1 0.052150 -0.015969 0.024580 0.000000 0.046923 0.000000
# 2 -0.015969 0.013874 -0.009669 0.000000 -0.013057 0.000000
# 3 0.024580 -0.009669 0.045099 0.000000 0.033585 0.000000
# 4 0.000000 0.000000 0.000000 0.033193 0.000000 -0.003570
# 5 0.046923 -0.013057 0.033585 0.000000 0.077319 0.000000
# 6 0.000000 0.000000 0.000000 -0.003570 0.000000 0.010816
#
#
# Mechanical properties :
#
#
# Convention : Reuss Voigt Hill
#
# Bulk Modulus (GPa) = 9.17362 32.60387 20.88874
# Shear Modulus (GPa) = 18.45684 42.61172 30.53428
#
# Velocity S-wave (km/s) = 2.96941 4.51187 3.81932
# Velocity P-wave (km/s) = 4.01735 6.53594 5.42483
#
# Compressibility (1/GPa) = 0.10900820
#
# Stress axis : x y z
#
# Youngs Moduli (GPa) = 19.17541 72.07926 22.17327
#
# Poissons Ratio (x) = 1.15100 -0.54503
# Poissons Ratio (y) = 0.30620 0.21440
# Poissons Ratio (z) = -0.47134 0.69696
#
# Static dielectric constant tensor:
#      x y z
#    x 1.715440 0.000000 -0.010800 
#    y 0.000000 1.782460 0.000000 
#    z -0.010800 0.000000 1.766410 
# 
# From -- ./inp_files/233685.got.cif
#   From: 2010.05.17/outbox.cif.g08.bks.cpg/sg12_117_cif.got.tgz:233685.got - 2010.06.03 13:09:07.
