data_PCOD9175954
_publ_section_title
;
Structure prediction by ZEFSAII (Michael W. Deem and Ramdas Pophale) SiO2 
 PCOD9175954
Probable space group: C 2/M
;
_chemical_formula_sum "Si O2"
_cell_formula_units_Z 44
_cell_length_a 23.945376
_cell_length_b 14.638288
_cell_length_c 6.011904
_cell_angle_alpha 90.000000
_cell_angle_beta 77.931468
_cell_angle_gamma 90.000000
_cell_volume 2060.713609
_symmetry_space_group_name_H-M "C 2/M"
_symmetry_group_IT_number 12
_symmetry_cell_setting 'monoclinic'
loop_
_space_group_symop_operation_xyz
x,y,z
-x,y,-z
-x,-y,-z
x,-y,z
1/2+x,1/2+y,z
1/2-x,1/2+y,-z
1/2-x,1/2-y,-z
1/2+x,1/2-y,z
loop_
_atom_site_type_symbol
_atom_site_label
_atom_site_fract_x
_atom_site_fract_y
_atom_site_fract_z
Si Si1 0.575565 0.201247 0.682386
Si Si2 0.971006 0.500000 0.273779
Si Si3 0.308053 0.765688 0.171257
Si Si4 0.364569 0.310288 0.736452
Si Si5 0.515433 0.638042 0.230926
Si Si6 0.225452 0.104481 0.479987
O O1 0.625365 0.223726 0.815224
O O2 0.604294 0.231973 0.428958
O O3 0.519655 0.265393 0.749400
O O4 0.561936 0.095548 0.699848
O O5 0.000000 0.500000 0.500000
O O6 0.000000 0.500000 0.000000
O O7 0.275748 0.855382 0.282831
O O8 0.281602 0.677594 0.316970
O O9 0.313962 0.738696 0.911496
O O10 0.416100 0.356366 0.825307
O O11 0.333834 0.383420 0.604466
O O12 0.500000 0.604229 0.500000
O O13 0.500000 0.596708 0.000000
O O14 0.234789 0.000000 0.537531
#
# Coordination Sequence:
#
# PCOD9175954 Si02
#       6
#     8   4   8   8   8   8
#     4  10  22  37  58  92 128 173 217 267 325 402
#     4  12  26  38  58  96 148 184 224 274 326 401
#     4  10  21  40  66  88 126 172 216 275 338 402
#     4  10  20  38  64  88 122 168 218 264 336 392
#     4  10  18  33  60  91 122 164 211 254 315 387
#     4  10  23  41  61  93 125 164 223 282 334 397
#
# _framework density 21.351825999999999
#
# number of rings (size 3 to 8) (size 9 to 14) (size 15 to 20)
#    0.000    1.818    1.818    2.727    3.818    0.727 
#    1.636    0.000    0.000   14.182    0.000    0.000 
#    0.000    0.000    0.000    0.000    0.000    0.000 
#
# Total GULP energy -122513.986991 kJ/mol
# GULP energy per Si atom -5568.817590 kJ/mol
# Density = 2.130323 g / cm^3
# Si number density = 21.351826 Si / 1000 Ang^3
#
#
#
# Elastic Constant Matrix: (Units=GPa)
#
#
# Indices 1 2 3 4 5 6 
#
# 1 80.5258 12.0962 12.6223 0.0000 6.7658 0.0000
# 2 12.0962 137.0453 17.6250 0.0000 -3.1982 0.0000
# 3 12.6223 17.6250 111.9167 0.0000 2.4503 0.0000
# 4 0.0000 0.0000 0.0000 -22.0938 0.0000 -4.9358
# 5 6.7658 -3.1982 2.4503 0.0000 34.6438 0.0000
# 6 0.0000 0.0000 0.0000 -4.9358 0.0000 12.3023
#
#
#
# Elastic Compliance Matrix: (Units=1/GPa)
#
#
# Indices 1 2 3 4 5 6 
#
# 1 0.012984 -0.001045 -0.001244 0.000000 -0.002544 0.000000
# 2 -0.001045 0.007553 -0.001093 0.000000 0.000979 0.000000
# 3 -0.001244 -0.001093 0.009259 0.000000 -0.000513 0.000000
# 4 0.000000 0.000000 0.000000 -0.041538 0.000000 -0.016666
# 5 -0.002544 0.000979 -0.000513 0.000000 0.029489 0.000000
# 6 0.000000 0.000000 0.000000 -0.016666 0.000000 0.074599
#
#
# Mechanical properties :
#
#
# Convention : Reuss Voigt Hill
#
# Bulk Modulus (GPa) = 43.42010 46.01941 44.71975
# Shear Modulus (GPa) = 46.82212 24.11338 35.46775
#
# Velocity S-wave (km/s) = 4.68791 3.36421 4.08009
# Velocity P-wave (km/s) = 7.04852 6.05724 6.57160
#
# Compressibility (1/GPa) = 0.02303081
#
# Stress axis : x y z
#
# Youngs Moduli (GPa) = 77.01668 132.40600 108.00451
#
# Poissons Ratio (x) = 0.13842 0.13436
# Poissons Ratio (y) = 0.08051 0.11804
# Poissons Ratio (z) = 0.09581 0.14471
#
# Static dielectric constant tensor:
#      x y z
#    x 1.633690 0.000000 0.004860 
#    y 0.000000 1.805150 0.000000 
#    z 0.004860 0.000000 1.871200 
# 
# From -- ./inp_files/27899.got.cif
#   From: 2010.05.17/outbox.cif.g08.bks.cpg/sg12_14_cif.got.tgz:27899.got - 2010.06.03 13:09:07.
