data_PCOD9175955
_publ_section_title
;
Structure prediction by ZEFSAII (Michael W. Deem and Ramdas Pophale) SiO2 
 PCOD9175955
Probable space group: C 2/M
;
_chemical_formula_sum "Si O2"
_cell_formula_units_Z 50
_cell_length_a 25.964157
_cell_length_b 17.024624
_cell_length_c 8.738956
_cell_angle_alpha 90.000000
_cell_angle_beta 135.734992
_cell_angle_gamma 90.000000
_cell_volume 2696.206068
_symmetry_space_group_name_H-M "C 2/M"
_symmetry_group_IT_number 12
_symmetry_cell_setting 'monoclinic'
loop_
_space_group_symop_operation_xyz
x,y,z
-x,y,-z
-x,-y,-z
x,-y,z
1/2+x,1/2+y,z
1/2-x,1/2+y,-z
1/2-x,1/2-y,-z
1/2+x,1/2-y,z
loop_
_atom_site_type_symbol
_atom_site_label
_atom_site_fract_x
_atom_site_fract_y
_atom_site_fract_z
Si Si1 0.703736 0.698209 0.220829
Si Si2 0.703766 0.869864 0.338071
Si Si3 0.286311 0.085679 0.985914
Si Si4 0.141774 0.705218 0.639625
Si Si5 0.931718 0.411058 0.745176
Si Si6 0.000000 0.000000 0.500000
Si Si7 0.373191 0.633743 0.232675
O O1 0.681348 0.779817 0.251181
O O2 0.725228 0.637928 0.401200
O O3 0.781193 0.713637 0.292925
O O4 0.645001 0.665248 0.976706
O O5 0.715948 0.908792 0.201178
O O6 0.640163 0.910005 0.299895
O O7 0.204191 0.097695 0.874277
O O8 0.314171 0.000000 0.093917
O O9 0.335136 0.154501 0.162911
O O10 0.085454 0.653508 0.420230
O O11 0.113371 0.789709 0.632491
O O12 0.942669 0.500000 0.708043
O O13 0.000000 0.391243 0.000000
O O14 0.064129 0.069230 0.630149
#
# Coordination Sequence:
#
# PCOD9175955 Si02
#       7
#     8   8   8   8   8   2   8
#     4   9  18  34  62  88 114 147 209 250 291 348
#     4  10  18  33  60  92 112 151 191 252 307 341
#     4  11  19  34  62  92 116 143 203 270 293 334
#     4  10  19  37  62  85 112 158 207 246 298 349
#     4  10  22  38  54  83 125 157 187 236 307 377
#     4  12  28  40  60  86 126 172 198 234 306 376
#     4  11  21  41  58  83 119 162 205 244 299 359
#
# _framework density 18.544577
#
# number of rings (size 3 to 8) (size 9 to 14) (size 15 to 20)
#    0.000    1.760    4.000    1.920    0.000    1.280 
#    2.880    0.000    0.000    3.840    0.000    0.000 
#    0.000    0.000    0.000    0.000    0.000    0.000 
#
# Total GULP energy -139240.339262 kJ/mol
# GULP energy per Si atom -5569.613570 kJ/mol
# Density = 1.850237 g / cm^3
# Si number density = 18.544577 Si / 1000 Ang^3
#
#
#
# Elastic Constant Matrix: (Units=GPa)
#
#
# Indices 1 2 3 4 5 6 
#
# 1 20.2813 24.2060 29.4506 0.0000 -11.3617 0.0000
# 2 24.2060 141.7773 65.6910 0.0000 4.7782 0.0000
# 3 29.4506 65.6910 95.5868 0.0000 -3.0707 0.0000
# 4 0.0000 0.0000 0.0000 18.4679 0.0000 7.8675
# 5 -11.3617 4.7782 -3.0707 0.0000 28.6259 0.0000
# 6 0.0000 0.0000 0.0000 7.8675 0.0000 12.9217
#
#
#
# Elastic Compliance Matrix: (Units=1/GPa)
#
#
# Indices 1 2 3 4 5 6 
#
# 1 0.143631 -0.009803 -0.035756 0.000000 0.054809 0.000000
# 2 -0.009803 0.011199 -0.004878 0.000000 -0.006283 0.000000
# 3 -0.035756 -0.004878 0.024485 0.000000 -0.010751 0.000000
# 4 0.000000 0.000000 0.000000 0.073112 0.000000 -0.044515
# 5 0.054809 -0.006283 -0.010751 0.000000 0.056583 0.000000
# 6 0.000000 0.000000 0.000000 -0.044515 0.000000 0.104492
#
#
# Mechanical properties :
#
#
# Convention : Reuss Voigt Hill
#
# Bulk Modulus (GPa) = 12.74818 55.14894 33.94856
# Shear Modulus (GPa) = 9.25031 21.22295 15.23663
#
# Velocity S-wave (km/s) = 2.23584 3.38661 2.86950
# Velocity P-wave (km/s) = 3.68165 6.71530 5.41525
#
# Compressibility (1/GPa) = 0.07844260
#
# Stress axis : x y z
#
# Youngs Moduli (GPa) = 6.96227 89.29519 40.84117
#
# Poissons Ratio (x) = 0.87533 1.46031
# Poissons Ratio (y) = 0.06825 0.19922
# Poissons Ratio (z) = 0.24894 0.43557
#
# Static dielectric constant tensor:
#      x y z
#    x 1.626660 0.000000 -0.022930 
#    y 0.000000 1.658320 0.000000 
#    z -0.022930 0.000000 1.638770 
# 
# From -- ./inp_files/105840.got.cif
#   From: 2010.05.17/outbox.cif.g08.bks.cpg/sg12_53_cif.got.tgz:105840.got - 2010.06.03 13:09:07.
