data_PCOD9175200
_publ_section_title
;
Structure prediction by ZEFSAII (Michael W. Deem and Ramdas Pophale) SiO2 
 PCOD9175200
Probable space group: C 2/M
;
_chemical_formula_sum "Si O2"
_cell_formula_units_Z 42
_cell_length_a 8.243517
_cell_length_b 27.515008
_cell_length_c 9.564622
_cell_angle_alpha 90.000000
_cell_angle_beta 130.487395
_cell_angle_gamma 90.000000
_cell_volume 1649.973967
_symmetry_space_group_name_H-M "C 2/M"
_symmetry_group_IT_number 12
_symmetry_cell_setting 'monoclinic'
loop_
_space_group_symop_operation_xyz
x,y,z
-x,y,-z
-x,-y,-z
x,-y,z
1/2+x,1/2+y,z
1/2-x,1/2+y,-z
1/2-x,1/2-y,-z
1/2+x,1/2-y,z
loop_
_atom_site_type_symbol
_atom_site_label
_atom_site_fract_x
_atom_site_fract_y
_atom_site_fract_z
Si Si1 0.500000 0.500000 0.500000
Si Si2 0.639906 0.126559 0.712016
Si Si3 0.231948 0.274999 0.704446
Si Si4 0.408795 0.319944 0.295657
Si Si5 0.054694 0.551584 0.868896
Si Si6 0.470326 0.423777 0.220741
O O1 0.498831 0.457248 0.373139
O O2 0.500000 0.138109 0.500000
O O3 0.719859 0.179490 0.805358
O O4 0.500540 0.096873 0.743944
O O5 0.819255 0.091841 0.745575
O O6 0.406116 0.293392 0.691596
O O7 0.000000 0.268452 0.500000
O O8 0.270366 0.221515 0.786999
O O9 0.500000 0.332262 0.500000
O O10 0.363643 0.371721 0.201022
O O11 0.959550 0.500000 0.763666
O O12 0.309103 0.551402 0.022350
O O13 0.000000 0.555324 0.000000
#
# Coordination Sequence:
#
# PCOD9175200 Si02
#       6
#     2   8   8   8   8   8
#     4  12  24  40  66  96 128 166 218 256 310 368
#     4  10  24  42  65  93 126 167 210 254 312 377
#     4   9  18  32  55  87 122 157 201 254 301 367
#     4  10  18  32  56  89 120 161 204 250 307 369
#     4  11  26  43  63  90 127 164 211 265 317 365
#     4  11  24  40  65  92 129 166 209 259 314 370
#
# _framework density 25.454948000000002
#
# number of rings (size 3 to 8) (size 9 to 14) (size 15 to 20)
#    0.000    1.714    1.905    2.857    4.000    4.190 
#    0.000    0.952    0.000    0.000    0.000    0.000 
#    0.000    0.000    0.000    0.000    0.000    0.000 
#
# Total GULP energy -117099.324470 kJ/mol
# GULP energy per Si atom -5576.158308 kJ/mol
# Density = 2.539701 g / cm^3
# Si number density = 25.454948 Si / 1000 Ang^3
#
#
#
# Elastic Constant Matrix: (Units=GPa)
#
#
# Indices 1 2 3 4 5 6 
#
# 1 54.1073 24.4936 -3.7857 0.0000 -8.0912 0.0000
# 2 24.4936 219.7304 36.6125 0.0000 -40.5591 0.0000
# 3 -3.7857 36.6125 54.2637 0.0000 -16.0931 0.0000
# 4 0.0000 0.0000 0.0000 -26.3040 0.0000 15.5432
# 5 -8.0912 -40.5591 -16.0931 0.0000 32.4453 0.0000
# 6 0.0000 0.0000 0.0000 15.5432 0.0000 10.3252
#
#
#
# Elastic Compliance Matrix: (Units=1/GPa)
#
#
# Indices 1 2 3 4 5 6 
#
# 1 0.020420 -0.002148 0.004207 0.000000 0.004494 0.000000
# 2 -0.002148 0.006355 -0.002627 0.000000 0.006106 0.000000
# 3 0.004207 -0.002627 0.023252 0.000000 0.009298 0.000000
# 4 0.000000 0.000000 0.000000 -0.020120 0.000000 0.030288
# 5 0.004494 0.006106 0.009298 0.000000 0.044187 0.000000
# 6 0.000000 0.000000 0.000000 0.030288 0.000000 0.051256
#
#
# Mechanical properties :
#
#
# Convention : Reuss Voigt Hill
#
# Bulk Modulus (GPa) = 20.45344 49.19358 34.82351
# Shear Modulus (GPa) = 35.01788 21.34538 28.18163
#
# Velocity S-wave (km/s) = 3.71304 2.89892 3.33095
# Velocity P-wave (km/s) = 5.14148 5.52926 5.33889
#
# Compressibility (1/GPa) = 0.04889154
#
# Stress axis : x y z
#
# Youngs Moduli (GPa) = 48.97074 157.35116 43.00694
#
# Poissons Ratio (x) = 0.33793 -0.18091
# Poissons Ratio (y) = 0.10517 0.11298
# Poissons Ratio (z) = -0.20600 0.41335
#
# Static dielectric constant tensor:
#      x y z
#    x 2.185360 0.000000 0.035560 
#    y 0.000000 2.593700 0.000000 
#    z 0.035560 0.000000 2.045870 
# 
# From -- ./inp_files/41835.got.cif
#   From: 2010.05.17/outbox.cif.g08.bks.cpg/sg12_21_cif.got.tgz:41835.got - 2010.06.03 13:09:07.
