data_PCOD9175586
_publ_section_title
;
Structure prediction by ZEFSAII (Michael W. Deem and Ramdas Pophale) SiO2 
 PCOD9175586
Probable space group: C 2/M
;
_chemical_formula_sum "Si O2"
_cell_formula_units_Z 64
_cell_length_a 20.782884
_cell_length_b 7.612574
_cell_length_c 21.925098
_cell_angle_alpha 90.000000
_cell_angle_beta 116.742193
_cell_angle_gamma 90.000000
_cell_volume 3097.775385
_symmetry_space_group_name_H-M "C 2/M"
_symmetry_group_IT_number 12
_symmetry_cell_setting 'monoclinic'
loop_
_space_group_symop_operation_xyz
x,y,z
-x,y,-z
-x,-y,-z
x,-y,z
1/2+x,1/2+y,z
1/2-x,1/2+y,-z
1/2-x,1/2-y,-z
1/2+x,1/2-y,z
loop_
_atom_site_type_symbol
_atom_site_label
_atom_site_fract_x
_atom_site_fract_y
_atom_site_fract_z
Si Si1 0.139080 0.715674 0.291719
Si Si2 0.329608 0.789389 0.557468
Si Si3 0.766679 0.705639 0.908259
Si Si4 0.976578 0.711195 0.196466
Si Si5 0.090456 0.712358 0.705521
Si Si6 0.026363 0.285133 0.444941
Si Si7 0.755302 0.707572 0.768194
Si Si8 0.357646 0.292646 0.055225
O O1 0.139717 0.500000 0.293344
O O2 0.157301 0.774826 0.367981
O O3 0.058723 0.770472 0.238308
O O4 0.196940 0.778054 0.266756
O O5 0.250000 0.750000 0.500000
O O6 0.393895 0.726170 0.540805
O O7 0.336622 0.000000 0.562563
O O8 0.749523 0.500000 0.893022
O O9 0.772012 0.781784 0.842833
O O10 0.701224 0.781255 0.921247
O O11 0.837217 0.719572 0.980409
O O12 0.977486 0.500000 0.199792
O O13 0.931456 0.774842 0.236171
O O14 0.935226 0.760593 0.117330
O O15 0.090117 0.500000 0.706395
O O16 0.170290 0.770010 0.722028
O O17 0.030402 0.768269 0.631309
O O18 0.026655 0.500000 0.446083
O O19 0.000000 0.226197 0.500000
O O20 0.771708 0.500000 0.777017
O O21 0.346219 0.500000 0.045567
#
# Coordination Sequence:
#
# PCOD9175586 Si02
#       8
#     8   8   8   8   8   8   8   8
#     4   9  19  36  56  75 103 142 177 210 254 312
#     4  10  20  36  55  77 106 140 177 213 257 310
#     4   9  18  32  49  74 104 135 172 209 253 312
#     4  10  18  33  55  77 100 136 180 214 251 306
#     4  10  19  32  54  79 103 134 177 221 257 300
#     4   9  18  33  53  77 106 139 175 215 255 304
#     4  10  20  35  54  77 106 137 171 216 263 305
#     4  10  19  31  51  78 106 134 167 214 266 304
#
# _framework density 20.659986
#
# number of rings (size 3 to 8) (size 9 to 14) (size 15 to 20)
#    0.000    2.375    2.500    0.375    1.750    1.000 
#    0.000    2.500    0.000    4.500    0.000    0.000 
#    0.000    0.000    0.000    0.000    0.000    0.000 
#
# Total GULP energy -178636.936707 kJ/mol
# GULP energy per Si atom -5582.404272 kJ/mol
# Density = 2.061296 g / cm^3
# Si number density = 20.659986 Si / 1000 Ang^3
#
#
#
# Elastic Constant Matrix: (Units=GPa)
#
#
# Indices 1 2 3 4 5 6 
#
# 1 159.6943 -2.1570 79.9479 0.0000 1.6459 0.0000
# 2 -2.1570 39.8958 -5.6751 0.0000 -9.2131 0.0000
# 3 79.9479 -5.6751 143.9383 0.0000 14.6799 0.0000
# 4 0.0000 0.0000 0.0000 10.6633 0.0000 7.6706
# 5 1.6459 -9.2131 14.6799 0.0000 31.2694 0.0000
# 6 0.0000 0.0000 0.0000 7.6706 0.0000 11.3413
#
#
#
# Elastic Compliance Matrix: (Units=1/GPa)
#
#
# Indices 1 2 3 4 5 6 
#
# 1 0.008784 0.000211 -0.005073 0.000000 0.001981 0.000000
# 2 0.000211 0.026910 0.000143 0.000000 0.007850 0.000000
# 3 -0.005073 0.000143 0.010229 0.000000 -0.004493 0.000000
# 4 0.000000 0.000000 0.000000 0.182638 0.000000 -0.123525
# 5 0.001981 0.007850 -0.004493 0.000000 0.036298 0.000000
# 6 0.000000 0.000000 0.000000 -0.123525 0.000000 0.171718
#
#
# Mechanical properties :
#
#
# Convention : Reuss Voigt Hill
#
# Bulk Modulus (GPa) = 27.40808 54.19556 40.80182
# Shear Modulus (GPa) = 10.91286 28.74898 19.83092
#
# Velocity S-wave (km/s) = 2.30078 3.73437 3.10154
# Velocity P-wave (km/s) = 4.51145 6.69948 5.71123
#
# Compressibility (1/GPa) = 0.03648559
#
# Stress axis : x y z
#
# Youngs Moduli (GPa) = 113.84474 37.16098 97.76352
#
# Poissons Ratio (x) = -0.00784 0.49591
# Poissons Ratio (y) = -0.02400 -0.01400
# Poissons Ratio (z) = 0.57749 -0.00532
#
# Static dielectric constant tensor:
#      x y z
#    x 1.721240 0.000000 -0.014010 
#    y 0.000000 1.749590 0.000000 
#    z -0.014010 0.000000 1.727440 
# 
# From -- ./inp_files/320054.got.cif
#   From: 2010.05.17/outbox.cif.g08.bks.cpg/sg12_161_cif.got.tgz:320054.got - 2010.06.03 13:09:07.
