data_PCOD9175231
_publ_section_title
;
Structure prediction by ZEFSAII (Michael W. Deem and Ramdas Pophale) SiO2 
 PCOD9175231
Probable space group: C 2/M
;
_chemical_formula_sum "Si O2"
_cell_formula_units_Z 52
_cell_length_a 10.780104
_cell_length_b 29.744927
_cell_length_c 7.814540
_cell_angle_alpha 90.000000
_cell_angle_beta 91.152529
_cell_angle_gamma 90.000000
_cell_volume 2505.251936
_symmetry_space_group_name_H-M "C 2/M"
_symmetry_group_IT_number 12
_symmetry_cell_setting 'monoclinic'
loop_
_space_group_symop_operation_xyz
x,y,z
-x,y,-z
-x,-y,-z
x,-y,z
1/2+x,1/2+y,z
1/2-x,1/2+y,-z
1/2-x,1/2-y,-z
1/2+x,1/2-y,z
loop_
_atom_site_type_symbol
_atom_site_label
_atom_site_fract_x
_atom_site_fract_y
_atom_site_fract_z
Si Si1 0.280068 0.599372 0.876448
Si Si2 0.144239 0.000000 0.076007
Si Si3 0.647675 0.405687 0.518684
Si Si4 0.000000 0.835094 0.000000
Si Si5 0.921017 0.335541 0.245501
Si Si6 0.647079 0.500000 0.489480
Si Si7 0.686927 0.830219 0.370861
Si Si8 0.165097 0.762636 0.835469
O O1 0.295597 0.549622 0.962188
O O2 0.304863 0.594715 0.674196
O O3 0.152884 0.628415 0.871994
O O4 0.388954 0.632600 0.939878
O O5 0.160247 0.000000 0.284376
O O6 0.000000 0.000000 0.000000
O O7 0.500000 0.401723 0.500000
O O8 0.689676 0.454820 0.581399
O O9 0.705526 0.367190 0.634214
O O10 0.062698 0.800857 0.867711
O O11 0.861584 0.333553 0.435475
O O12 0.903855 0.283896 0.195485
O O13 0.067154 0.344009 0.258831
O O14 0.500000 0.500000 0.500000
O O15 0.744613 0.783149 0.308589
O O16 0.250000 0.750000 0.000000
#
# Coordination Sequence:
#
# PCOD9175231 Si02
#       8
#     8   4   8   4   8   4   8   8
#     4  10  20  35  55  82 116 147 189 243 278 345
#     4  10  18  32  57  83 112 151 191 232 298 335
#     4   9  17  34  56  83 111 143 188 238 289 335
#     4  12  22  35  54  86 118 147 190 234 290 332
#     4  10  22  41  56  82 115 151 194 235 280 346
#     4   8  16  30  53  81 113 138 179 240 283 334
#     4  10  22  39  60  80 113 156 188 232 289 342
#     4  12  23  38  58  82 114 151 190 237 284 336
#
# _framework density 20.756395000000001
#
# number of rings (size 3 to 8) (size 9 to 14) (size 15 to 20)
#    0.000    1.846    2.308    2.308    0.000    0.000 
#    5.538    0.769    0.000    4.615    0.000    1.077 
#    0.000    0.000    0.000    0.000    0.000    0.000 
#
# Total GULP energy -144823.044399 kJ/mol
# GULP energy per Si atom -5570.117092 kJ/mol
# Density = 2.070915 g / cm^3
# Si number density = 20.756395 Si / 1000 Ang^3
#
#
#
# Elastic Constant Matrix: (Units=GPa)
#
#
# Indices 1 2 3 4 5 6 
#
# 1 81.5707 58.1834 25.2946 0.0000 22.5224 0.0000
# 2 58.1834 185.8155 38.0637 0.0000 31.7863 0.0000
# 3 25.2946 38.0637 43.7195 0.0000 7.8795 0.0000
# 4 0.0000 0.0000 0.0000 17.1758 0.0000 11.0630
# 5 22.5224 31.7863 7.8795 0.0000 35.6522 0.0000
# 6 0.0000 0.0000 0.0000 11.0630 0.0000 26.0170
#
#
#
# Elastic Compliance Matrix: (Units=1/GPa)
#
#
# Indices 1 2 3 4 5 6 
#
# 1 0.018674 -0.003204 -0.006669 0.000000 -0.007467 0.000000
# 2 -0.003204 0.007983 -0.004352 0.000000 -0.004132 0.000000
# 3 -0.006669 -0.004352 0.030268 0.000000 0.001404 0.000000
# 4 0.000000 0.000000 0.000000 0.080182 0.000000 -0.034095
# 5 -0.007467 -0.004132 0.001404 0.000000 0.036139 0.000000
# 6 0.000000 0.000000 0.000000 -0.034095 0.000000 0.052934
#
#
# Mechanical properties :
#
#
# Convention : Reuss Voigt Hill
#
# Bulk Modulus (GPa) = 35.11880 61.57656 48.34768
# Shear Modulus (GPa) = 18.93058 28.40661 23.66860
#
# Velocity S-wave (km/s) = 3.02327 3.70343 3.38050
# Velocity P-wave (km/s) = 5.39844 6.92950 6.21132
#
# Compressibility (1/GPa) = 0.02847478
#
# Stress axis : x y z
#
# Youngs Moduli (GPa) = 53.54956 125.26265 33.03851
#
# Poissons Ratio (x) = 0.40134 0.22034
# Poissons Ratio (y) = 0.17157 0.14379
# Poissons Ratio (z) = 0.35713 0.54516
#
# Static dielectric constant tensor:
#      x y z
#    x 1.659330 0.000000 0.232010 
#    y 0.000000 0.323150 0.000000 
#    z 0.232010 0.000000 0.983590 
# 
# From -- ./inp_files/52674.got.cif
#   From: 2010.05.17/outbox.cif.g08.bks.cpg/sg12_27_cif.got.tgz:52674.got - 2010.06.03 13:09:07.
