data_PCOD9175725
_publ_section_title
;
Structure prediction by ZEFSAII (Michael W. Deem and Ramdas Pophale) SiO2 
 PCOD9175725
Probable space group: C 2/M
;
_chemical_formula_sum "Si O2"
_cell_formula_units_Z 40
_cell_length_a 10.494915
_cell_length_b 22.600147
_cell_length_c 9.057584
_cell_angle_alpha 90.000000
_cell_angle_beta 103.535341
_cell_angle_gamma 90.000000
_cell_volume 2088.669264
_symmetry_space_group_name_H-M "C 2/M"
_symmetry_group_IT_number 12
_symmetry_cell_setting 'monoclinic'
loop_
_space_group_symop_operation_xyz
x,y,z
-x,y,-z
-x,-y,-z
x,-y,z
1/2+x,1/2+y,z
1/2-x,1/2+y,-z
1/2-x,1/2-y,-z
1/2+x,1/2-y,z
loop_
_atom_site_type_symbol
_atom_site_label
_atom_site_fract_x
_atom_site_fract_y
_atom_site_fract_z
Si Si1 0.877631 0.308122 0.297073
Si Si2 0.047793 0.500000 0.268464
Si Si3 0.500000 0.696616 0.000000
Si Si4 0.754892 0.865481 0.032180
Si Si5 0.299704 0.000000 0.981063
Si Si6 0.343424 0.783742 0.750324
Si Si7 0.500000 0.096816 0.500000
O O1 0.789347 0.252490 0.325416
O O2 0.032468 0.292949 0.322973
O O3 0.879727 0.363144 0.409311
O O4 0.825101 0.333655 0.124569
O O5 0.042828 0.443955 0.375133
O O6 0.922909 0.500000 0.125999
O O7 0.163706 0.500000 0.182350
O O8 0.597300 0.658531 0.928010
O O9 0.406825 0.738549 0.883258
O O10 0.689493 0.843243 0.167013
O O11 0.761548 0.935542 0.010098
#
# Coordination Sequence:
#
# PCOD9175725 Si02
#       7
#     8   4   4   8   4   8   4
#     4  11  21  34  58  83 121 158 193 239 301 353
#     4  10  22  38  56  85 120 151 200 251 295 342
#     4  10  18  33  56  87 120 150 190 254 298 338
#     4  11  20  34  58  89 116 153 202 245 295 346
#     4  11  22  37  60  87 110 161 203 247 284 354
#     4  11  19  36  57  89 117 157 195 247 295 350
#     4  11  22  38  56  86 122 157 192 248 302 351
#
# _framework density 19.150950000000002
#
# number of rings (size 3 to 8) (size 9 to 14) (size 15 to 20)
#    0.000    1.200    6.000    2.400    2.800    1.200 
#    0.000    0.000    0.000    0.000    0.000    5.600 
#    0.000    0.000    0.000    0.000    0.000    0.000 
#
# Total GULP energy -111420.643690 kJ/mol
# GULP energy per Si atom -5571.032184 kJ/mol
# Density = 1.910736 g / cm^3
# Si number density = 19.150950 Si / 1000 Ang^3
#
#
#
# Elastic Constant Matrix: (Units=GPa)
#
#
# Indices 1 2 3 4 5 6 
#
# 1 81.9493 26.7545 9.6475 0.0000 -6.2937 0.0000
# 2 26.7545 104.8363 19.0989 0.0000 0.3486 0.0000
# 3 9.6475 19.0989 66.8583 0.0000 -1.6471 0.0000
# 4 0.0000 0.0000 0.0000 51.0362 0.0000 24.6672
# 5 -6.2937 0.3486 -1.6471 0.0000 17.2695 0.0000
# 6 0.0000 0.0000 0.0000 24.6672 0.0000 -1.4296
#
#
#
# Elastic Compliance Matrix: (Units=1/GPa)
#
#
# Indices 1 2 3 4 5 6 
#
# 1 0.013795 -0.003372 -0.000904 0.000000 0.005009 0.000000
# 2 -0.003372 0.010891 -0.002666 0.000000 -0.001703 0.000000
# 3 -0.000904 -0.002666 0.015880 0.000000 0.001239 0.000000
# 4 0.000000 0.000000 0.000000 0.002098 0.000000 0.036199
# 5 0.005009 -0.001703 0.001239 0.000000 0.059884 0.000000
# 6 0.000000 0.000000 0.000000 0.036199 0.000000 -0.074895
#
#
# Mechanical properties :
#
#
# Convention : Reuss Voigt Hill
#
# Bulk Modulus (GPa) = 37.48137 40.51620 38.99878
# Shear Modulus (GPa) = 99.14744 26.58475 62.86610
#
# Velocity S-wave (km/s) = 7.20305 3.72986 5.73567
# Velocity P-wave (km/s) = 9.42298 6.30486 8.01698
#
# Compressibility (1/GPa) = 0.02667992
#
# Stress axis : x y z
#
# Youngs Moduli (GPa) = 72.49106 91.82088 62.97378
#
# Poissons Ratio (x) = 0.30966 0.05691
# Poissons Ratio (y) = 0.24447 0.16791
# Poissons Ratio (z) = 0.06551 0.24483
#
# Static dielectric constant tensor:
#      x y z
#    x 1.702760 0.000000 -0.019450 
#    y 0.000000 1.722710 0.000000 
#    z -0.019450 0.000000 1.716740 
# 
# From -- ./inp_files/48867.got.cif
#   From: 2010.05.17/outbox.cif.g08.bks.cpg/sg12_25_cif.got.tgz:48867.got - 2010.06.03 13:09:07.
