data_PCOD9175893
_publ_section_title
;
Structure prediction by ZEFSAII (Michael W. Deem and Ramdas Pophale) SiO2 
 PCOD9175893
Probable space group: C 2/M
;
_chemical_formula_sum "Si O2"
_cell_formula_units_Z 44
_cell_length_a 15.156254
_cell_length_b 19.914922
_cell_length_c 11.919885
_cell_angle_alpha 90.000000
_cell_angle_beta 137.568453
_cell_angle_gamma 90.000000
_cell_volume 2427.498527
_symmetry_space_group_name_H-M "C 2/M"
_symmetry_group_IT_number 12
_symmetry_cell_setting 'monoclinic'
loop_
_space_group_symop_operation_xyz
x,y,z
-x,y,-z
-x,-y,-z
x,-y,z
1/2+x,1/2+y,z
1/2-x,1/2+y,-z
1/2-x,1/2-y,-z
1/2+x,1/2-y,z
loop_
_atom_site_type_symbol
_atom_site_label
_atom_site_fract_x
_atom_site_fract_y
_atom_site_fract_z
Si Si1 0.030573 0.141747 0.264043
Si Si2 0.935550 0.500000 0.813251
Si Si3 0.285035 0.356326 0.181250
Si Si4 0.534791 0.222698 0.904054
Si Si5 0.715797 0.000000 0.011501
Si Si6 0.042742 0.000000 0.910777
Si Si7 0.206403 0.640194 0.360840
O O1 0.982839 0.198752 0.133310
O O2 0.179600 0.148113 0.442236
O O3 0.931504 0.152552 0.275044
O O4 0.011194 0.067587 0.196729
O O5 0.849633 0.565402 0.709740
O O6 0.061016 0.500000 0.849686
O O7 0.000000 0.500000 0.000000
O O8 0.268153 0.342890 0.296993
O O9 0.249153 0.433081 0.114076
O O10 0.177725 0.308776 0.019239
O O11 0.419356 0.185520 0.728662
O O12 0.500000 0.206118 0.000000
O O13 0.803760 0.000000 0.981714
O O14 0.000000 0.000000 0.000000
#
# Coordination Sequence:
#
# PCOD9175893 Si02
#       7
#     8   4   8   8   4   4   8
#     4  11  22  35  53  80 108 142 184 227 271 311
#     4  12  17  33  58  85 115 140 173 214 277 349
#     4  10  19  34  54  83 109 142 174 218 274 336
#     4  10  20  35  55  76 105 148 184 216 264 328
#     4  10  18  33  59  85 102 137 182 217 259 330
#     4  10  23  40  56  75 105 147 192 223 255 313
#     4  11  20  32  55  84 115 135 168 229 283 319
#
# _framework density 18.125654000000001
#
# number of rings (size 3 to 8) (size 9 to 14) (size 15 to 20)
#    0.000    1.455    3.636    3.273    0.000    0.000 
#    0.000    3.636    0.000    2.182    0.000    0.000 
#    0.000    0.000    0.000    0.000    0.000    0.000 
#
# Total GULP energy -122670.306035 kJ/mol
# GULP energy per Si atom -5575.923002 kJ/mol
# Density = 1.808440 g / cm^3
# Si number density = 18.125654 Si / 1000 Ang^3
#
#
#
# Elastic Constant Matrix: (Units=GPa)
#
#
# Indices 1 2 3 4 5 6 
#
# 1 52.5300 -13.2826 11.5557 0.0000 3.1778 0.0000
# 2 -13.2826 92.2920 23.3371 0.0000 9.3390 0.0000
# 3 11.5557 23.3371 75.6255 0.0000 20.7348 0.0000
# 4 0.0000 0.0000 0.0000 16.5553 0.0000 1.3326
# 5 3.1778 9.3390 20.7348 0.0000 22.1003 0.0000
# 6 0.0000 0.0000 0.0000 1.3326 0.0000 19.5360
#
#
#
# Elastic Compliance Matrix: (Units=1/GPa)
#
#
# Indices 1 2 3 4 5 6 
#
# 1 0.021094 0.004203 -0.004311 0.000000 -0.000765 0.000000
# 2 0.004203 0.012663 -0.003927 0.000000 -0.002271 0.000000
# 3 -0.004311 -0.003927 0.019480 0.000000 -0.015997 0.000000
# 4 0.000000 0.000000 0.000000 0.060737 0.000000 -0.004143
# 5 -0.000765 -0.002271 -0.015997 0.000000 0.061326 0.000000
# 6 0.000000 0.000000 0.000000 -0.004143 0.000000 0.051470
#
#
# Mechanical properties :
#
#
# Convention : Reuss Voigt Hill
#
# Bulk Modulus (GPa) = 22.13984 29.29642 25.71813
# Shear Modulus (GPa) = 20.00841 24.89414 22.45127
#
# Velocity S-wave (km/s) = 3.32606 3.70999 3.52326
# Velocity P-wave (km/s) = 5.19533 5.87793 5.54714
#
# Compressibility (1/GPa) = 0.04516745
#
# Stress axis : x y z
#
# Youngs Moduli (GPa) = 47.40664 78.97053 51.33588
#
# Poissons Ratio (x) = -0.33193 0.22128
# Poissons Ratio (y) = -0.19926 0.20161
# Poissons Ratio (z) = 0.20435 0.31014
#
# Static dielectric constant tensor:
#      x y z
#    x 1.642630 0.000000 0.007640 
#    y 0.000000 1.635490 0.000000 
#    z 0.007640 0.000000 1.612660 
# 
# From -- ./inp_files/51609.got.cif
#   From: 2010.05.17/outbox.cif.g08.bks.cpg/sg12_26_cif.got.tgz:51609.got - 2010.06.03 13:09:07.
