data_PCOD9175487
_publ_section_title
;
Structure prediction by ZEFSAII (Michael W. Deem and Ramdas Pophale) SiO2 
 PCOD9175487
Probable space group: C 2/M
;
_chemical_formula_sum "Si O2"
_cell_formula_units_Z 48
_cell_length_a 25.849933
_cell_length_b 16.564273
_cell_length_c 10.272191
_cell_angle_alpha 90.000000
_cell_angle_beta 31.151116
_cell_angle_gamma 90.000000
_cell_volume 2275.280145
_symmetry_space_group_name_H-M "C 2/M"
_symmetry_group_IT_number 12
_symmetry_cell_setting 'monoclinic'
loop_
_space_group_symop_operation_xyz
x,y,z
-x,y,-z
-x,-y,-z
x,-y,z
1/2+x,1/2+y,z
1/2-x,1/2+y,-z
1/2-x,1/2-y,-z
1/2+x,1/2-y,z
loop_
_atom_site_type_symbol
_atom_site_label
_atom_site_fract_x
_atom_site_fract_y
_atom_site_fract_z
Si Si1 0.577306 0.913079 0.954324
Si Si2 0.114879 0.588310 0.468580
Si Si3 0.929808 0.763400 0.025140
Si Si4 0.926347 0.246478 0.536176
Si Si5 0.120528 0.912080 0.253153
Si Si6 0.696213 0.590266 0.792397
O O1 0.500814 0.912737 0.241631
O O2 0.624911 0.824215 0.855157
O O3 0.632128 0.000000 0.836537
O O4 0.500000 0.914007 0.000000
O O5 0.138339 0.500000 0.360092
O O6 0.131878 0.669394 0.352202
O O7 0.184306 0.595361 0.447806
O O8 0.005055 0.765956 0.739248
O O9 0.854208 0.837672 0.176039
O O10 0.000000 0.769297 0.000000
O O11 0.859415 0.167252 0.705175
O O12 0.000000 0.254870 0.500000
O O13 0.000000 0.914321 0.500000
O O14 0.151936 0.000000 0.238032
O O15 0.160762 0.903681 0.019812
O O16 0.669264 0.500000 0.804441
#
# Coordination Sequence:
#
# PCOD9175487 Si02
#       6
#     8   8   8   8   8   8
#     4   8  15  31  52  70  93 132 173 201 238 302
#     4   9  19  32  50  78 105 131 165 211 262 301
#     4  10  19  32  51  78 104 131 173 212 250 296
#     4  10  18  33  53  76 100 135 173 207 248 301
#     4   9  16  29  50  71  96 136 175 197 238 309
#     4  10  19  33  51  75 106 136 165 208 261 305
#
# _framework density 21.096304
#
# number of rings (size 3 to 8) (size 9 to 14) (size 15 to 20)
#    0.000    2.667    3.333    0.000    0.000    1.333 
#    0.000    7.500    0.000    1.000    0.000    0.000 
#    0.000    0.000    0.000    0.000    0.000    0.000 
#
# Total GULP energy -133697.314615 kJ/mol
# GULP energy per Si atom -5570.721442 kJ/mol
# Density = 2.104829 g / cm^3
# Si number density = 21.096304 Si / 1000 Ang^3
#
#
#
# Elastic Constant Matrix: (Units=GPa)
#
#
# Indices 1 2 3 4 5 6 
#
# 1 59.9847 52.7136 10.3672 0.0000 7.8947 0.0000
# 2 52.7136 291.0682 10.9196 0.0000 -13.7279 0.0000
# 3 10.3672 10.9196 59.7665 0.0000 8.4844 0.0000
# 4 0.0000 0.0000 0.0000 -9.0542 0.0000 -0.5267
# 5 7.8947 -13.7279 8.4844 0.0000 23.0788 0.0000
# 6 0.0000 0.0000 0.0000 -0.5267 0.0000 37.6566
#
#
#
# Elastic Compliance Matrix: (Units=1/GPa)
#
#
# Indices 1 2 3 4 5 6 
#
# 1 0.022068 -0.004384 -0.001672 0.000000 -0.009542 0.000000
# 2 -0.004384 0.004463 -0.000680 0.000000 0.004404 0.000000
# 3 -0.001672 -0.000680 0.018065 0.000000 -0.006474 0.000000
# 4 0.000000 0.000000 0.000000 -0.110356 0.000000 -0.001544
# 5 -0.009542 0.004404 -0.006474 0.000000 0.051594 0.000000
# 6 0.000000 0.000000 0.000000 -0.001544 0.000000 0.026534
#
#
# Mechanical properties :
#
#
# Convention : Reuss Voigt Hill
#
# Bulk Modulus (GPa) = 32.13043 62.09114 47.11079
# Shear Modulus (GPa) = 138.06120 32.79084 85.42602
#
# Velocity S-wave (km/s) = 8.09848 3.94679 6.37034
# Velocity P-wave (km/s) = 10.13462 7.08983 8.74575
#
# Compressibility (1/GPa) = 0.03112314
#
# Stress axis : x y z
#
# Youngs Moduli (GPa) = 45.31377 224.07399 55.35518
#
# Poissons Ratio (x) = 0.98233 0.09258
# Poissons Ratio (y) = 0.19865 0.03765
# Poissons Ratio (z) = 0.07579 0.15241
#
# Static dielectric constant tensor:
#      x y z
#    x 1.722150 0.000000 0.032190 
#    y 0.000000 1.857180 0.000000 
#    z 0.032190 0.000000 1.852280 
# 
# From -- ./inp_files/184149.got.cif
#   From: 2010.05.17/outbox.cif.g08.bks.cpg/sg12_93_cif.got.tgz:184149.got - 2010.06.03 13:09:07.
