data_PCOD9175798
_publ_section_title
;
Structure prediction by ZEFSAII (Michael W. Deem and Ramdas Pophale) SiO2 
 PCOD9175798
Probable space group: C 2/M
;
_chemical_formula_sum "Si O2"
_cell_formula_units_Z 64
_cell_length_a 11.303664
_cell_length_b 19.691770
_cell_length_c 20.533059
_cell_angle_alpha 90.000000
_cell_angle_beta 128.393071
_cell_angle_gamma 90.000000
_cell_volume 3582.164229
_symmetry_space_group_name_H-M "C 2/M"
_symmetry_group_IT_number 12
_symmetry_cell_setting 'monoclinic'
loop_
_space_group_symop_operation_xyz
x,y,z
-x,y,-z
-x,-y,-z
x,-y,z
1/2+x,1/2+y,z
1/2-x,1/2+y,-z
1/2-x,1/2-y,-z
1/2+x,1/2-y,z
loop_
_atom_site_type_symbol
_atom_site_label
_atom_site_fract_x
_atom_site_fract_y
_atom_site_fract_z
Si Si1 0.625442 0.666327 0.162064
Si Si2 0.131554 0.811705 0.453565
Si Si3 0.262915 0.188151 0.844677
Si Si4 0.182056 0.578600 0.870315
Si Si5 0.696872 0.332287 0.614855
Si Si6 0.167780 0.576475 0.238313
Si Si7 0.772527 0.170243 0.022704
Si Si8 0.096632 0.797771 0.296574
O O1 0.655564 0.741667 0.144386
O O2 0.726013 0.613774 0.156319
O O3 0.449470 0.652830 0.089254
O O4 0.656679 0.668922 0.250325
O O5 0.250000 0.750000 0.500000
O O6 0.179985 0.854039 0.533812
O O7 0.132996 0.833457 0.378452
O O8 0.956570 0.796011 0.411518
O O9 0.311003 0.130119 0.811723
O O10 0.294634 0.162836 0.928262
O O11 0.084012 0.203693 0.774743
O O12 0.227932 0.500000 0.895762
O O13 0.003928 0.579546 0.795748
O O14 0.206515 0.623600 0.943472
O O15 0.724621 0.397515 0.667973
O O16 0.830624 0.277471 0.671723
O O17 0.200944 0.500000 0.228601
O O18 0.750000 0.250000 0.000000
#
# Coordination Sequence:
#
# PCOD9175798 Si02
#       8
#     8   8   8   8   8   8   8   8
#     4  11  21  34  60  84 114 157 190 241 294 342
#     4   9  18  31  55  88 122 145 182 234 287 343
#     4  11  21  36  59  86 116 146 198 248 292 345
#     4  11  25  42  58  82 116 158 201 239 290 353
#     4  10  18  33  57  86 121 150 186 236 290 345
#     4  11  23  39  59  82 116 157 195 238 291 354
#     4  11  23  36  58  88 115 148 196 246 296 348
#     4  10  18  33  57  88 116 148 189 237 291 334
#
# _framework density 17.866292999999999
#
# number of rings (size 3 to 8) (size 9 to 14) (size 15 to 20)
#    0.000    1.500    3.750    1.875    0.000    4.000 
#    0.000    4.375    0.000    0.000    0.000    1.750 
#    0.000    0.000    0.000    0.000    0.000    0.000 
#
# Total GULP energy -178405.198163 kJ/mol
# GULP energy per Si atom -5575.162443 kJ/mol
# Density = 1.782563 g / cm^3
# Si number density = 17.866293 Si / 1000 Ang^3
#
#
#
# Elastic Constant Matrix: (Units=GPa)
#
#
# Indices 1 2 3 4 5 6 
#
# 1 74.1444 19.4959 21.8441 0.0000 -13.7362 0.0000
# 2 19.4959 73.4512 3.0119 0.0000 -2.3425 0.0000
# 3 21.8441 3.0119 71.6892 0.0000 -21.1665 0.0000
# 4 0.0000 0.0000 0.0000 16.7945 0.0000 -1.3002
# 5 -13.7362 -2.3425 -21.1665 0.0000 40.2626 0.0000
# 6 0.0000 0.0000 0.0000 -1.3002 0.0000 21.5629
#
#
#
# Elastic Compliance Matrix: (Units=1/GPa)
#
#
# Indices 1 2 3 4 5 6 
#
# 1 0.016294 -0.004063 -0.003815 0.000000 0.003317 0.000000
# 2 -0.004063 0.014662 0.000550 0.000000 -0.000244 0.000000
# 3 -0.003815 0.000550 0.017417 0.000000 0.007887 0.000000
# 4 0.000000 0.000000 0.000000 0.059823 0.000000 0.003607
# 5 0.003317 -0.000244 0.007887 0.000000 0.030101 0.000000
# 6 0.000000 0.000000 0.000000 0.003607 0.000000 0.046593
#
#
# Mechanical properties :
#
#
# Convention : Reuss Voigt Hill
#
# Bulk Modulus (GPa) = 29.65748 34.22095 31.93921
# Shear Modulus (GPa) = 23.72091 27.38619 25.55355
#
# Velocity S-wave (km/s) = 3.64770 3.91940 3.78599
# Velocity P-wave (km/s) = 5.86316 6.29903 6.08500
#
# Compressibility (1/GPa) = 0.03371830
#
# Stress axis : x y z
#
# Youngs Moduli (GPa) = 61.37279 68.20129 57.41523
#
# Poissons Ratio (x) = 0.27708 0.21903
# Poissons Ratio (y) = 0.24933 -0.03157
# Poissons Ratio (z) = 0.23412 -0.03750
#
# Static dielectric constant tensor:
#      x y z
#    x 1.636400 0.000000 -0.010170 
#    y 0.000000 1.579150 0.000000 
#    z -0.010170 0.000000 1.651590 
# 
# From -- ./inp_files/306176.got.cif
#   From: 2010.05.17/outbox.cif.g08.bks.cpg/sg12_154_cif.got.tgz:306176.got - 2010.06.03 13:09:07.
