data_PCOD9175561
_publ_section_title
;
Structure prediction by ZEFSAII (Michael W. Deem and Ramdas Pophale) SiO2 
 PCOD9175561
Probable space group: C 2/M
;
_chemical_formula_sum "Si O2"
_cell_formula_units_Z 58
_cell_length_a 21.166219
_cell_length_b 14.901341
_cell_length_c 11.848558
_cell_angle_alpha 90.000000
_cell_angle_beta 120.022168
_cell_angle_gamma 90.000000
_cell_volume 3235.696008
_symmetry_space_group_name_H-M "C 2/M"
_symmetry_group_IT_number 12
_symmetry_cell_setting 'monoclinic'
loop_
_space_group_symop_operation_xyz
x,y,z
-x,y,-z
-x,-y,-z
x,-y,z
1/2+x,1/2+y,z
1/2-x,1/2+y,-z
1/2-x,1/2-y,-z
1/2+x,1/2-y,z
loop_
_atom_site_type_symbol
_atom_site_label
_atom_site_fract_x
_atom_site_fract_y
_atom_site_fract_z
Si Si1 0.332591 0.288342 0.847382
Si Si2 0.798714 0.896972 0.034409
Si Si3 0.000000 0.000000 0.000000
Si Si4 0.952364 0.335271 0.057282
Si Si5 0.071253 0.103475 0.484858
Si Si6 0.130215 0.400859 0.808776
Si Si7 0.169222 0.771740 0.722381
Si Si8 0.954981 0.159391 0.793623
O O1 0.249444 0.259682 0.755674
O O2 0.375094 0.325030 0.777255
O O3 0.332662 0.362400 0.947377
O O4 0.379140 0.204919 0.935911
O O5 0.821341 0.831362 0.155473
O O6 0.819125 0.000000 0.075666
O O7 0.711339 0.892264 0.936482
O O8 0.009754 0.921450 0.105527
O O9 0.928012 0.391536 0.143106
O O10 0.998465 0.249036 0.140889
O O11 0.000000 0.379008 0.000000
O O12 0.130018 0.168452 0.594499
O O13 0.050505 0.136488 0.341994
O O14 0.000000 0.106174 0.500000
O O15 0.096878 0.000000 0.502846
O O16 0.126079 0.500000 0.752961
O O17 0.125219 0.317680 0.718922
#
# Coordination Sequence:
#
# PCOD9175561 Si02
#       8
#     8   8   2   8   8   8   8   8
#     4  10  19  34  57  84 115 154 199 245 289 348
#     4  10  19  29  55  88 114 150 190 242 307 344
#     4  12  20  36  62  92 126 156 186 246 292 352
#     4  10  18  33  54  81 111 152 191 243 299 341
#     4  11  25  40  58  87 124 163 194 232 297 381
#     4  10  19  34  54  82 112 143 198 254 290 339
#     4  11  20  38  58  80 122 159 195 245 298 356
#     4  11  23  37  59  90 123 157 195 240 300 351
#
# _framework density 17.925045999999998
#
# number of rings (size 3 to 8) (size 9 to 14) (size 15 to 20)
#    0.000    1.517    5.517    2.069    0.966    0.828 
#    0.000    0.000    0.000    3.724    0.000    0.000 
#    0.000    0.000    0.000    0.000    0.000    0.000 
#
# Total GULP energy -161673.881464 kJ/mol
# GULP energy per Si atom -5574.961430 kJ/mol
# Density = 1.788425 g / cm^3
# Si number density = 17.925046 Si / 1000 Ang^3
#
#
#
# Elastic Constant Matrix: (Units=GPa)
#
#
# Indices 1 2 3 4 5 6 
#
# 1 94.8581 10.3815 22.4925 0.0000 -10.9881 0.0000
# 2 10.3815 69.0772 28.0652 0.0000 1.9670 0.0000
# 3 22.4925 28.0652 91.5664 0.0000 -16.5414 0.0000
# 4 0.0000 0.0000 0.0000 11.5055 0.0000 -4.9766
# 5 -10.9881 1.9670 -16.5414 0.0000 22.4337 0.0000
# 6 0.0000 0.0000 0.0000 -4.9766 0.0000 4.1077
#
#
#
# Elastic Compliance Matrix: (Units=1/GPa)
#
#
# Indices 1 2 3 4 5 6 
#
# 1 0.011595 -0.001200 -0.001656 0.000000 0.004563 0.000000
# 2 -0.001200 0.017387 -0.006248 0.000000 -0.006719 0.000000
# 3 -0.001656 -0.006248 0.015223 0.000000 0.010961 0.000000
# 4 0.000000 0.000000 0.000000 0.182610 0.000000 0.221238
# 5 0.004563 -0.006719 0.010961 0.000000 0.055482 0.000000
# 6 0.000000 0.000000 0.000000 0.221238 0.000000 0.511481
#
#
# Mechanical properties :
#
#
# Convention : Reuss Voigt Hill
#
# Bulk Modulus (GPa) = 38.46652 41.93112 40.19882
# Shear Modulus (GPa) = 6.09273 20.58023 13.33648
#
# Velocity S-wave (km/s) = 1.84564 3.39208 2.73062
# Velocity P-wave (km/s) = 5.10373 6.22775 5.69355
#
# Compressibility (1/GPa) = 0.02599664
#
# Stress axis : x y z
#
# Youngs Moduli (GPa) = 86.24684 57.51519 65.68982
#
# Poissons Ratio (x) = 0.06900 0.10879
# Poissons Ratio (y) = 0.10346 0.41044
# Poissons Ratio (z) = 0.14283 0.35936
#
# Static dielectric constant tensor:
#      x y z
#    x 1.646630 0.000000 0.008280 
#    y 0.000000 1.617740 0.000000 
#    z 0.008280 0.000000 1.573420 
# 
# From -- ./inp_files/167354.got.cif
#   From: 2010.05.17/outbox.cif.g08.bks.cpg/sg12_84_cif.got.tgz:167354.got - 2010.06.03 13:09:07.
