data_PCOD9175650
_publ_section_title
;
Structure prediction by ZEFSAII (Michael W. Deem and Ramdas Pophale) SiO2 
 PCOD9175650
Probable space group: C 2/M
;
_chemical_formula_sum "Si O2"
_cell_formula_units_Z 56
_cell_length_a 11.333409
_cell_length_b 14.169451
_cell_length_c 27.541047
_cell_angle_alpha 90.000000
_cell_angle_beta 140.541147
_cell_angle_gamma 90.000000
_cell_volume 2810.774008
_symmetry_space_group_name_H-M "C 2/M"
_symmetry_group_IT_number 12
_symmetry_cell_setting 'monoclinic'
loop_
_space_group_symop_operation_xyz
x,y,z
-x,y,-z
-x,-y,-z
x,-y,z
1/2+x,1/2+y,z
1/2-x,1/2+y,-z
1/2-x,1/2-y,-z
1/2+x,1/2-y,z
loop_
_atom_site_type_symbol
_atom_site_label
_atom_site_fract_x
_atom_site_fract_y
_atom_site_fract_z
Si Si1 0.046064 0.891310 0.711036
Si Si2 0.961526 0.138532 0.043637
Si Si3 0.938631 0.203032 0.184209
Si Si4 0.900747 0.389840 0.419538
Si Si5 0.852333 0.650441 0.989644
Si Si6 0.369104 0.201066 0.310170
Si Si7 0.863597 0.606020 0.208441
O O1 0.123841 0.854255 0.787598
O O2 0.104890 0.811976 0.691342
O O3 0.821728 0.886098 0.643687
O O4 0.098070 0.000000 0.718323
O O5 0.763279 0.106438 0.002546
O O6 0.138866 0.107987 0.131418
O O7 0.949772 0.253320 0.039379
O O8 0.000000 0.110730 0.000000
O O9 0.813526 0.179583 0.099054
O O10 0.927296 0.314202 0.191263
O O11 0.151160 0.178277 0.243407
O O12 0.950578 0.500000 0.428202
O O13 0.951552 0.332839 0.387277
O O14 0.000000 0.355791 0.500000
O O15 0.000000 0.603005 0.000000
O O16 0.432603 0.143531 0.282736
O O17 0.927271 0.500000 0.219554
#
# Coordination Sequence:
#
# PCOD9175650 Si02
#       7
#     8   8   8   8   8   8   8
#     4   9  20  35  56  83 110 145 187 230 279 338
#     4  10  19  32  51  77 106 146 183 241 295 350
#     4  10  19  36  54  77 105 147 187 233 291 337
#     4   9  18  35  58  87 118 146 182 227 273 333
#     4  10  18  33  56  76 102 151 195 241 292 356
#     4  10  20  35  59  81 109 152 187 228 286 340
#     4  11  21  34  53  82 109 141 192 239 286 347
#
# _framework density 19.923337
#
# number of rings (size 3 to 8) (size 9 to 14) (size 15 to 20)
#    0.000    2.143    4.286    0.429    0.000    2.000 
#    0.000    0.000    0.000    2.143    0.000    0.000 
#    0.000    0.000    0.000    0.000    0.000    0.000 
#
# Total GULP energy -156141.920259 kJ/mol
# GULP energy per Si atom -5576.497152 kJ/mol
# Density = 1.987799 g / cm^3
# Si number density = 19.923337 Si / 1000 Ang^3
#
#
#
# Elastic Constant Matrix: (Units=GPa)
#
#
# Indices 1 2 3 4 5 6 
#
# 1 91.1815 9.2090 12.1297 0.0000 -22.4132 0.0000
# 2 9.2090 89.7402 39.3784 0.0000 -29.2092 0.0000
# 3 12.1297 39.3784 84.6190 0.0000 -30.1475 0.0000
# 4 0.0000 0.0000 0.0000 -9.6969 0.0000 10.1029
# 5 -22.4132 -29.2092 -30.1475 0.0000 27.2255 0.0000
# 6 0.0000 0.0000 0.0000 10.1029 0.0000 -1.7716
#
#
#
# Elastic Compliance Matrix: (Units=1/GPa)
#
#
# Indices 1 2 3 4 5 6 
#
# 1 0.015015 0.003423 0.003249 0.000000 0.019631 0.000000
# 2 0.003423 0.018191 -0.001650 0.000000 0.020508 0.000000
# 3 0.003249 -0.001650 0.020549 0.000000 0.023659 0.000000
# 4 0.000000 0.000000 0.000000 0.020869 0.000000 0.119012
# 5 0.019631 0.020508 0.023659 0.000000 0.101091 0.000000
# 6 0.000000 0.000000 0.000000 0.119012 0.000000 0.114229
#
#
# Mechanical properties :
#
#
# Convention : Reuss Voigt Hill
#
# Bulk Modulus (GPa) = 15.67440 42.99722 29.33581
# Shear Modulus (GPa) = 16.60224 16.80632 16.70428
#
# Velocity S-wave (km/s) = 2.88984 2.90754 2.89870
# Velocity P-wave (km/s) = 4.36111 5.73585 5.09506
#
# Compressibility (1/GPa) = 0.06379828
#
# Stress axis : x y z
#
# Youngs Moduli (GPa) = 66.60176 54.97271 48.66511
#
# Poissons Ratio (x) = -0.18818 -0.15809
# Poissons Ratio (y) = -0.22799 0.08028
# Poissons Ratio (z) = -0.21636 0.09069
#
# Static dielectric constant tensor:
#      x y z
#    x 1.766080 0.000000 -0.009110 
#    y 0.000000 1.706090 0.000000 
#    z -0.009110 0.000000 1.681690 
# 
# From -- ./inp_files/358240.got.cif
#   From: 2010.05.17/outbox.cif.g08.bks.cpg/sg12_180_cif.got.tgz:358240.got - 2010.06.03 13:09:07.
