data_PCOD9175508
_publ_section_title
;
Structure prediction by ZEFSAII (Michael W. Deem and Ramdas Pophale) SiO2 
 PCOD9175508
Probable space group: C 2/M
;
_chemical_formula_sum "Si O2"
_cell_formula_units_Z 48
_cell_length_a 15.851744
_cell_length_b 14.539980
_cell_length_c 11.808699
_cell_angle_alpha 90.000000
_cell_angle_beta 122.566666
_cell_angle_gamma 90.000000
_cell_volume 2293.769460
_symmetry_space_group_name_H-M "C 2/M"
_symmetry_group_IT_number 12
_symmetry_cell_setting 'monoclinic'
loop_
_space_group_symop_operation_xyz
x,y,z
-x,y,-z
-x,-y,-z
x,-y,z
1/2+x,1/2+y,z
1/2-x,1/2+y,-z
1/2-x,1/2-y,-z
1/2+x,1/2-y,z
loop_
_atom_site_type_symbol
_atom_site_label
_atom_site_fract_x
_atom_site_fract_y
_atom_site_fract_z
Si Si1 0.613273 0.356911 0.601702
Si Si2 0.113076 0.635371 0.581764
Si Si3 0.291932 0.152778 0.577738
Si Si4 0.794003 0.898705 0.851292
Si Si5 0.594252 0.605529 0.842640
Si Si6 0.439540 0.254284 0.841969
O O1 0.500000 0.390943 0.500000
O O2 0.610909 0.246640 0.584419
O O3 0.699490 0.390682 0.579302
O O4 0.636040 0.378541 0.748128
O O5 0.168264 0.605398 0.506611
O O6 0.178700 0.605660 0.735642
O O7 0.000000 0.603564 0.500000
O O8 0.250000 0.250000 0.500000
O O9 0.384252 0.176538 0.728575
O O10 0.852033 0.821596 0.823181
O O11 0.833849 0.000000 0.849061
O O12 0.819903 0.884968 0.000875
O O13 0.555275 0.500000 0.822193
O O14 0.511293 0.681948 0.815491
O O15 0.500000 0.225941 0.000000
#
# Coordination Sequence:
#
# PCOD9175508 Si02
#       6
#     8   8   8   8   8   8
#     4  10  20  34  55  80 110 143 177 222 273 327
#     4  10  20  35  56  80 105 140 185 232 269 313
#     4  10  18  35  55  77 111 140 176 225 270 318
#     4  10  20  34  53  77 107 145 183 226 271 316
#     4  10  21  35  53  80 114 144 178 223 274 332
#     4  10  18  33  53  81 108 143 181 222 274 326
#
# _framework density 20.926252000000002
#
# number of rings (size 3 to 8) (size 9 to 14) (size 15 to 20)
#    0.000    2.000    3.333    3.500    0.000    3.333 
#    3.000    0.833    0.000    0.000    0.000    2.333 
#    0.000    0.000    0.000    0.000    0.000    0.000 
#
# Total GULP energy -133975.508779 kJ/mol
# GULP energy per Si atom -5582.312866 kJ/mol
# Density = 2.087862 g / cm^3
# Si number density = 20.926252 Si / 1000 Ang^3
#
#
#
# Elastic Constant Matrix: (Units=GPa)
#
#
# Indices 1 2 3 4 5 6 
#
# 1 141.2875 9.9962 68.4888 0.0000 -3.0974 0.0000
# 2 9.9962 55.9372 13.6589 0.0000 1.8894 0.0000
# 3 68.4888 13.6589 122.7072 0.0000 9.7281 0.0000
# 4 0.0000 0.0000 0.0000 -4.1373 0.0000 -3.5213
# 5 -3.0974 1.8894 9.7281 0.0000 36.4490 0.0000
# 6 0.0000 0.0000 0.0000 -3.5213 0.0000 -11.7330
#
#
#
# Elastic Compliance Matrix: (Units=1/GPa)
#
#
# Indices 1 2 3 4 5 6 
#
# 1 0.009911 -0.000467 -0.005668 0.000000 0.002379 0.000000
# 2 -0.000467 0.018405 -0.001746 0.000000 -0.000528 0.000000
# 3 -0.005668 -0.001746 0.011788 0.000000 -0.003537 0.000000
# 4 0.000000 0.000000 0.000000 -0.324628 0.000000 0.097427
# 5 0.002379 -0.000528 -0.003537 0.000000 0.028609 0.000000
# 6 0.000000 0.000000 0.000000 0.097427 0.000000 -0.114469
#
#
# Mechanical properties :
#
#
# Convention : Reuss Voigt Hill
#
# Bulk Modulus (GPa) = 41.08407 56.02442 48.55425
# Shear Modulus (GPa) = -14.42970 19.30162 2.43596
#
# Velocity S-wave (km/s) = -2.62878 3.04034 1.08009
# Velocity P-wave (km/s) = 3.23442 6.25742 4.98080
#
# Compressibility (1/GPa) = 0.02434033
#
# Stress axis : x y z
#
# Youngs Moduli (GPa) = 100.90165 54.33345 84.83227
#
# Poissons Ratio (x) = 0.02539 0.48085
# Poissons Ratio (y) = 0.04716 0.14812
# Poissons Ratio (z) = 0.57193 0.09487
#
# Static dielectric constant tensor:
#      x y z
#    x 1.749050 0.000000 0.011390 
#    y 0.000000 1.781910 0.000000 
#    z 0.011390 0.000000 1.761160 
# 
# From -- ./inp_files/143879.got.cif
#   From: 2010.05.17/outbox.cif.g08.bks.cpg/sg12_72_cif.got.tgz:143879.got - 2010.06.03 13:09:07.
