data_PCOD9175821
_publ_section_title
;
Structure prediction by ZEFSAII (Michael W. Deem and Ramdas Pophale) SiO2 
 PCOD9175821
Probable space group: C 2/M
;
_chemical_formula_sum "Si O2"
_cell_formula_units_Z 56
_cell_length_a 9.184142
_cell_length_b 14.684785
_cell_length_c 19.848405
_cell_angle_alpha 90.000000
_cell_angle_beta 112.667396
_cell_angle_gamma 90.000000
_cell_volume 2470.127651
_symmetry_space_group_name_H-M "C 2/M"
_symmetry_group_IT_number 12
_symmetry_cell_setting 'monoclinic'
loop_
_space_group_symop_operation_xyz
x,y,z
-x,y,-z
-x,-y,-z
x,-y,z
1/2+x,1/2+y,z
1/2-x,1/2+y,-z
1/2-x,1/2-y,-z
1/2+x,1/2-y,z
loop_
_atom_site_type_symbol
_atom_site_label
_atom_site_fract_x
_atom_site_fract_y
_atom_site_fract_z
Si Si1 0.092190 0.263810 0.806055
Si Si2 0.865352 0.105303 0.533334
Si Si3 0.014607 0.401014 0.410040
Si Si4 0.924299 0.219770 0.353355
Si Si5 0.128873 0.607542 0.925238
Si Si6 0.765644 0.392292 0.908240
Si Si7 0.356846 0.899475 0.714734
O O1 0.109357 0.246815 0.729749
O O2 0.185498 0.334450 0.871018
O O3 0.133220 0.168245 0.848231
O O4 0.927789 0.320496 0.773986
O O5 0.687325 0.112696 0.473561
O O6 0.000000 0.123136 0.500000
O O7 0.906801 0.175869 0.599834
O O8 0.886487 0.000000 0.557830
O O9 0.950503 0.500000 0.420160
O O10 0.039161 0.407228 0.333906
O O11 0.915005 0.309141 0.398196
O O12 0.806559 0.136528 0.342904
O O13 0.140264 0.500000 0.912936
O O14 0.944508 0.625776 0.912773
O O15 0.226785 0.627500 0.010469
O O16 0.737305 0.500000 0.894417
O O17 0.346804 0.000000 0.744553
#
# Coordination Sequence:
#
# PCOD9175821 Si02
#       7
#     8   8   8   8   8   8   8
#     4  11  21  31  51  85 116 143 174 224 281 321
#     4  10  18  33  58  82 104 140 189 238 275 317
#     4   9  19  35  55  79 105 138 183 231 279 325
#     4  11  21  32  53  83 111 144 181 229 276 324
#     4   9  18  36  60  83 107 142 185 226 267 319
#     4   9  19  36  59  83 109 142 182 226 269 320
#     4  10  20  36  55  79 108 142 186 228 268 322
#
# _framework density 22.670893
#
# number of rings (size 3 to 8) (size 9 to 14) (size 15 to 20)
#    0.000    2.143    1.429    3.429    0.000    2.857 
#    0.000    0.714    0.000    7.286    0.000   13.000 
#    0.000    0.000    0.000    0.000    0.000    0.000 
#
# Total GULP energy -155971.224726 kJ/mol
# GULP energy per Si atom -5570.400883 kJ/mol
# Density = 2.261929 g / cm^3
# Si number density = 22.670893 Si / 1000 Ang^3
#
#
#
# Elastic Constant Matrix: (Units=GPa)
#
#
# Indices 1 2 3 4 5 6 
#
# 1 40.5790 40.6634 31.8547 0.0000 7.0622 0.0000
# 2 40.6634 143.6873 74.8489 0.0000 21.1089 0.0000
# 3 31.8547 74.8489 134.1497 0.0000 0.3337 0.0000
# 4 0.0000 0.0000 0.0000 61.7517 0.0000 5.2178
# 5 7.0622 21.1089 0.3337 0.0000 33.2933 0.0000
# 6 0.0000 0.0000 0.0000 5.2178 0.0000 19.9074
#
#
#
# Elastic Compliance Matrix: (Units=1/GPa)
#
#
# Indices 1 2 3 4 5 6 
#
# 1 0.036108 -0.007525 -0.004368 0.000000 -0.002844 0.000000
# 2 -0.007525 0.012833 -0.005357 0.000000 -0.006486 0.000000
# 3 -0.004368 -0.005357 0.011470 0.000000 0.004208 0.000000
# 4 0.000000 0.000000 0.000000 0.016561 0.000000 -0.004341
# 5 -0.002844 -0.006486 0.004208 0.000000 0.034710 0.000000
# 6 0.000000 0.000000 0.000000 -0.004341 0.000000 0.051370
#
#
# Mechanical properties :
#
#
# Convention : Reuss Voigt Hill
#
# Bulk Modulus (GPa) = 38.59512 68.12777 53.36145
# Shear Modulus (GPa) = 24.24956 34.39375 29.32166
#
# Velocity S-wave (km/s) = 3.27407 3.89921 3.60023
# Velocity P-wave (km/s) = 5.59945 7.09843 6.39303
#
# Compressibility (1/GPa) = 0.02591001
#
# Stress axis : x y z
#
# Youngs Moduli (GPa) = 27.69441 77.92681 87.18345
#
# Poissons Ratio (x) = 0.58642 0.38085
# Poissons Ratio (y) = 0.20841 0.46703
# Poissons Ratio (z) = 0.12098 0.41744
#
# Static dielectric constant tensor:
#      x y z
#    x 1.910040 0.000000 -0.027900 
#    y 0.000000 1.889400 0.000000 
#    z -0.027900 0.000000 1.897780 
# 
# From -- ./inp_files/335320.got.cif
#   From: 2010.05.17/outbox.cif.g08.bks.cpg/sg12_168_cif.got.tgz:335320.got - 2010.06.03 13:09:07.
