data_PCOD9175846
_publ_section_title
;
Structure prediction by ZEFSAII (Michael W. Deem and Ramdas Pophale) SiO2 
 PCOD9175846
Probable space group: C 2/M
;
_chemical_formula_sum "Si O2"
_cell_formula_units_Z 64
_cell_length_a 23.210248
_cell_length_b 10.548433
_cell_length_c 16.292285
_cell_angle_alpha 90.000000
_cell_angle_beta 118.933113
_cell_angle_gamma 90.000000
_cell_volume 3490.998257
_symmetry_space_group_name_H-M "C 2/M"
_symmetry_group_IT_number 12
_symmetry_cell_setting 'monoclinic'
loop_
_space_group_symop_operation_xyz
x,y,z
-x,y,-z
-x,-y,-z
x,-y,z
1/2+x,1/2+y,z
1/2-x,1/2+y,-z
1/2-x,1/2-y,-z
1/2+x,1/2-y,z
loop_
_atom_site_type_symbol
_atom_site_label
_atom_site_fract_x
_atom_site_fract_y
_atom_site_fract_z
Si Si1 0.897105 0.653096 0.605277
Si Si2 0.478036 0.351259 0.073573
Si Si3 0.114000 0.854384 0.263016
Si Si4 0.227331 0.146993 0.206812
Si Si5 0.737825 0.134545 0.081401
Si Si6 0.137122 0.746122 0.897121
Si Si7 0.948001 0.348210 0.314677
Si Si8 0.859771 0.347802 0.399651
O O1 0.888355 0.500000 0.613779
O O2 0.874041 0.744414 0.662546
O O3 0.863225 0.692807 0.496216
O O4 0.975219 0.677448 0.646069
O O5 0.462420 0.500000 0.051588
O O6 0.540180 0.341072 0.177089
O O7 0.415242 0.287106 0.070780
O O8 0.500000 0.299861 0.000000
O O9 0.163716 0.842422 0.220840
O O10 0.121522 0.000000 0.299984
O O11 0.225960 0.245911 0.132055
O O12 0.291338 0.176243 0.306465
O O13 0.232509 0.000000 0.182327
O O14 0.811129 0.147547 0.095765
O O15 0.730141 0.000000 0.119650
O O16 0.685615 0.144295 0.971685
O O17 0.096588 0.702033 0.790106
O O18 0.941288 0.500000 0.310442
O O19 0.918274 0.300429 0.380626
O O20 0.867479 0.500000 0.409992
#
# Coordination Sequence:
#
# PCOD9175846 Si02
#       8
#     8   8   8   8   8   8   8   8
#     4  10  20  35  59  87 115 147 193 241 285 332
#     4  10  20  36  57  80 108 149 196 231 267 329
#     4  10  21  37  57  82 114 152 194 235 281 339
#     4  10  21  39  61  82 112 156 198 233 280 342
#     4  11  24  37  56  89 120 145 186 240 290 337
#     4  11  21  36  58  81 115 155 183 225 285 347
#     4  10  18  33  58  85 112 147 188 232 280 338
#     4   9  18  34  58  86 111 146 195 240 279 335
#
# _framework density 18.332865999999999
#
# number of rings (size 3 to 8) (size 9 to 14) (size 15 to 20)
#    0.000    1.875    2.500    1.875    0.000    6.000 
#    0.000    0.625    0.000    2.625    0.000    0.000 
#    0.000    0.000    0.000    0.000    0.000    0.000 
#
# Total GULP energy -178487.626818 kJ/mol
# GULP energy per Si atom -5577.738338 kJ/mol
# Density = 1.829114 g / cm^3
# Si number density = 18.332866 Si / 1000 Ang^3
#
#
#
# Elastic Constant Matrix: (Units=GPa)
#
#
# Indices 1 2 3 4 5 6 
#
# 1 70.2647 26.8503 4.3132 0.0000 -13.0402 0.0000
# 2 26.8503 72.0578 36.5666 0.0000 -3.5712 0.0000
# 3 4.3132 36.5666 75.9138 0.0000 -8.0945 0.0000
# 4 0.0000 0.0000 0.0000 17.9718 0.0000 -17.9301
# 5 -13.0402 -3.5712 -8.0945 0.0000 22.0153 0.0000
# 6 0.0000 0.0000 0.0000 -17.9301 0.0000 -4.1531
#
#
#
# Elastic Compliance Matrix: (Units=1/GPa)
#
#
# Indices 1 2 3 4 5 6 
#
# 1 0.019575 -0.008978 0.004468 0.000000 0.011781 0.000000
# 2 -0.008978 0.022487 -0.010928 0.000000 -0.005688 0.000000
# 3 0.004468 -0.010928 0.019022 0.000000 0.007868 0.000000
# 4 0.000000 0.000000 0.000000 0.010484 0.000000 -0.045264
# 5 0.011781 -0.005688 0.007868 0.000000 0.054371 0.000000
# 6 0.000000 0.000000 0.000000 -0.045264 0.000000 -0.045369
#
#
# Mechanical properties :
#
#
# Convention : Reuss Voigt Hill
#
# Bulk Modulus (GPa) = 33.10296 39.29963 36.20129
# Shear Modulus (GPa) = 41.14766 17.20057 29.17412
#
# Velocity S-wave (km/s) = 4.74273 3.06639 3.99351
# Velocity P-wave (km/s) = 6.93449 5.83269 6.40731
#
# Compressibility (1/GPa) = 0.03020878
#
# Stress axis : x y z
#
# Youngs Moduli (GPa) = 51.08641 44.47090 52.57151
#
# Poissons Ratio (x) = 0.39924 -0.23491
# Poissons Ratio (y) = 0.45864 0.57450
# Poissons Ratio (z) = -0.22828 0.48597
#
# Static dielectric constant tensor:
#      x y z
#    x 1.636000 0.000000 -0.003030 
#    y 0.000000 1.625920 0.000000 
#    z -0.003030 0.000000 1.640690 
# 
# From -- ./inp_files/175314.got.cif
#   From: 2010.05.17/outbox.cif.g08.bks.cpg/sg12_88_cif.got.tgz:175314.got - 2010.06.03 13:09:07.
