data_PCOD9175339
_publ_section_title
;
Structure prediction by ZEFSAII (Michael W. Deem and Ramdas Pophale) SiO2 
 PCOD9175339
Probable space group: C 2/M
;
_chemical_formula_sum "Si O2"
_cell_formula_units_Z 48
_cell_length_a 20.685675
_cell_length_b 13.177771
_cell_length_c 15.976689
_cell_angle_alpha 90.000000
_cell_angle_beta 148.597305
_cell_angle_gamma 90.000000
_cell_volume 2269.225478
_symmetry_space_group_name_H-M "C 2/M"
_symmetry_group_IT_number 12
_symmetry_cell_setting 'monoclinic'
loop_
_space_group_symop_operation_xyz
x,y,z
-x,y,-z
-x,-y,-z
x,-y,z
1/2+x,1/2+y,z
1/2-x,1/2+y,-z
1/2-x,1/2-y,-z
1/2+x,1/2-y,z
loop_
_atom_site_type_symbol
_atom_site_label
_atom_site_fract_x
_atom_site_fract_y
_atom_site_fract_z
Si Si1 0.776614 0.615336 0.359468
Si Si2 0.855297 0.193949 0.938308
Si Si3 0.589300 0.618884 0.293142
Si Si4 0.292978 0.615174 0.194276
Si Si5 0.524405 0.726445 0.387144
Si Si6 0.671307 0.887007 0.877256
O O1 0.822213 0.500000 0.399243
O O2 0.666383 0.634761 0.171675
O O3 0.719961 0.627212 0.389663
O O4 0.879454 0.701280 0.458881
O O5 0.804846 0.308641 0.871098
O O6 0.761012 0.143718 0.900967
O O7 0.988832 0.181081 0.127554
O O8 0.552219 0.500000 0.250249
O O9 0.588378 0.657312 0.387300
O O10 0.292005 0.500000 0.225140
O O11 0.430751 0.661528 0.340499
O O12 0.248085 0.614166 0.047697
O O13 0.436850 0.805418 0.240452
O O14 0.622095 0.000000 0.809763
#
# Coordination Sequence:
#
# PCOD9175339 Si02
#       6
#     8   8   8   8   8   8
#     4  11  25  38  55  86 121 153 186 234 289 337
#     4  11  20  38  60  88 116 147 189 237 288 338
#     4  11  21  38  62  84 112 155 198 231 272 337
#     4  10  20  36  61  87 111 148 193 236 282 338
#     4  11  20  37  56  86 115 149 188 233 287 334
#     4  10  18  32  59  86 111 144 188 237 282 334
#
# _framework density 21.152591999999999
#
# number of rings (size 3 to 8) (size 9 to 14) (size 15 to 20)
#    0.000    1.333    3.333    4.500    0.000    4.000 
#    0.000    6.667    0.000    5.000    0.000    0.000 
#    0.000    0.000    0.000    0.000    0.000    0.000 
#
# Total GULP energy -134126.954996 kJ/mol
# GULP energy per Si atom -5588.623125 kJ/mol
# Density = 2.110445 g / cm^3
# Si number density = 21.152592 Si / 1000 Ang^3
#
#
#
# Elastic Constant Matrix: (Units=GPa)
#
#
# Indices 1 2 3 4 5 6 
#
# 1 25.8901 4.2368 -9.8685 0.0000 0.8580 0.0000
# 2 4.2368 143.2791 21.7093 0.0000 11.7334 0.0000
# 3 -9.8685 21.7093 48.4854 0.0000 -8.2827 0.0000
# 4 0.0000 0.0000 0.0000 26.6929 0.0000 2.4307
# 5 0.8580 11.7334 -8.2827 0.0000 16.8930 0.0000
# 6 0.0000 0.0000 0.0000 2.4307 0.0000 14.1692
#
#
#
# Elastic Compliance Matrix: (Units=1/GPa)
#
#
# Indices 1 2 3 4 5 6 
#
# 1 0.043334 -0.003477 0.011366 0.000000 0.005787 0.000000
# 2 -0.003477 0.008743 -0.006144 0.000000 -0.008908 0.000000
# 3 0.011366 -0.006144 0.028725 0.000000 0.017774 0.000000
# 4 0.000000 0.000000 0.000000 0.038058 0.000000 -0.006529
# 5 0.005787 -0.008908 0.017774 0.000000 0.073804 0.000000
# 6 0.000000 0.000000 0.000000 -0.006529 0.000000 0.071696
#
#
# Mechanical properties :
#
#
# Convention : Reuss Voigt Hill
#
# Bulk Modulus (GPa) = 11.86371 27.75665 19.81018
# Shear Modulus (GPa) = 17.30291 24.98948 21.14620
#
# Velocity S-wave (km/s) = 2.86318 3.44087 3.16523
# Velocity P-wave (km/s) = 4.06832 5.37928 4.76906
#
# Compressibility (1/GPa) = 0.08429063
#
# Stress axis : x y z
#
# Youngs Moduli (GPa) = 23.07644 114.38165 34.81228
#
# Poissons Ratio (x) = 0.39775 -0.39566
# Poissons Ratio (y) = 0.08025 0.21389
# Poissons Ratio (z) = -0.26228 0.70277
#
# Static dielectric constant tensor:
#      x y z
#    x 1.741160 0.000000 0.002010 
#    y 0.000000 1.780470 0.000000 
#    z 0.002010 0.000000 1.772940 
# 
# From -- ./inp_files/284101.got.cif
#   From: 2010.05.17/outbox.cif.g08.bks.cpg/sg12_143_cif.got.tgz:284101.got - 2010.06.03 13:09:07.
