data_PCOD9175406
_publ_section_title
;
Structure prediction by ZEFSAII (Michael W. Deem and Ramdas Pophale) SiO2 
 PCOD9175406
Probable space group: C 2/M
;
_chemical_formula_sum "Si O2"
_cell_formula_units_Z 56
_cell_length_a 9.441893
_cell_length_b 22.412555
_cell_length_c 22.017518
_cell_angle_alpha 90.000000
_cell_angle_beta 41.927067
_cell_angle_gamma 90.000000
_cell_volume 3113.256760
_symmetry_space_group_name_H-M "C 2/M"
_symmetry_group_IT_number 12
_symmetry_cell_setting 'monoclinic'
loop_
_space_group_symop_operation_xyz
x,y,z
-x,y,-z
-x,-y,-z
x,-y,z
1/2+x,1/2+y,z
1/2-x,1/2+y,-z
1/2-x,1/2-y,-z
1/2+x,1/2-y,z
loop_
_atom_site_type_symbol
_atom_site_label
_atom_site_fract_x
_atom_site_fract_y
_atom_site_fract_z
Si Si1 0.738431 0.261005 0.933528
Si Si2 0.007770 0.848078 0.176325
Si Si3 0.656901 0.812364 0.504986
Si Si4 0.556243 0.794632 0.307568
Si Si5 0.397619 0.570523 0.099177
Si Si6 0.471166 0.859757 0.218260
Si Si7 0.521196 0.650425 0.311514
O O1 0.795319 0.197784 0.884416
O O2 0.903786 0.310932 0.861252
O O3 0.500000 0.281240 0.000000
O O4 0.750000 0.250000 0.000000
O O5 0.977164 0.868995 0.255959
O O6 0.804284 0.808356 0.222670
O O7 0.010385 0.895467 0.120088
O O8 0.500000 0.798812 0.500000
O O9 0.750000 0.750000 0.500000
O O10 0.518747 0.828343 0.607634
O O11 0.832499 0.857153 0.421369
O O12 0.426111 0.824419 0.294910
O O13 0.534256 0.723325 0.309385
O O14 0.412494 0.500000 0.104749
O O15 0.150185 0.590709 0.174741
O O16 0.500000 0.582897 0.000000
O O17 0.246966 0.875776 0.260335
#
# Coordination Sequence:
#
# PCOD9175406 Si02
#       7
#     8   8   8   8   8   8   8
#     4  12  21  31  48  76 115 142 174 221 281 349
#     4  11  20  34  56  80 110 148 185 228 286 334
#     4  10  21  30  47  75 119 164 191 212 268 338
#     4  10  18  33  49  77 121 159 183 215 268 349
#     4  10  23  44  62  77 105 150 203 242 274 334
#     4  11  21  34  55  83 113 153 185 228 288 335
#     4  11  19  32  51  83 120 146 181 232 274 340
#
# _framework density 17.987594000000001
#
# number of rings (size 3 to 8) (size 9 to 14) (size 15 to 20)
#    0.000    1.286    4.286    3.857    6.000    0.000 
#    0.000    0.714    0.000    2.143    0.000   16.000 
#    0.000    0.000    0.000    0.000    0.000    0.000 
#
# Total GULP energy -155983.595111 kJ/mol
# GULP energy per Si atom -5570.842683 kJ/mol
# Density = 1.794665 g / cm^3
# Si number density = 17.987594 Si / 1000 Ang^3
#
#
#
# Elastic Constant Matrix: (Units=GPa)
#
#
# Indices 1 2 3 4 5 6 
#
# 1 76.9117 -2.4482 15.6626 0.0000 2.2497 -0.0001
# 2 -2.4482 47.0907 14.8342 0.0000 -1.9118 0.0000
# 3 15.6626 14.8342 90.7937 -0.0001 14.0863 0.0000
# 4 0.0000 0.0000 -0.0001 13.0681 0.0000 1.3723
# 5 2.2497 -1.9118 14.0863 0.0000 37.7868 0.0000
# 6 -0.0001 0.0000 0.0000 1.3723 0.0000 9.8184
#
#
#
# Elastic Compliance Matrix: (Units=1/GPa)
#
#
# Indices 1 2 3 4 5 6 
#
# 1 0.013580 0.001546 -0.002634 0.000000 0.000252 0.000000
# 2 0.001546 0.022817 -0.004415 0.000000 0.002708 0.000000
# 3 -0.002634 -0.004415 0.012949 0.000000 -0.004894 0.000000
# 4 0.000000 0.000000 0.000000 0.077662 0.000000 -0.010855
# 5 0.000252 0.002708 -0.004894 0.000000 0.028411 0.000000
# 6 0.000000 0.000000 0.000000 -0.010855 0.000000 0.103367
#
#
# Mechanical properties :
#
#
# Convention : Reuss Voigt Hill
#
# Bulk Modulus (GPa) = 26.08253 30.09928 28.09091
# Shear Modulus (GPa) = 17.69465 24.58448 21.13957
#
# Velocity S-wave (km/s) = 3.13982 3.70096 3.43188
# Velocity P-wave (km/s) = 5.26084 5.91883 5.59951
#
# Compressibility (1/GPa) = 0.03833984
#
# Stress axis : x y z
#
# Youngs Moduli (GPa) = 73.63642 43.82768 77.22635
#
# Poissons Ratio (x) = -0.06776 0.20344
# Poissons Ratio (y) = -0.11385 0.34093
# Poissons Ratio (z) = 0.19399 0.19349
#
# Static dielectric constant tensor:
#      x y z
#    x 1.627960 0.000000 0.017640 
#    y 0.000000 1.620570 0.000000 
#    z 0.017640 0.000000 1.754410 
# 
# From -- ./inp_files/301620.got.cif
#   From: 2010.05.17/outbox.cif.g08.bks.cpg/sg12_151_cif.got.tgz:301620.got - 2010.06.03 13:09:07.
