data_PCOD9175383
_publ_section_title
;
Structure prediction by ZEFSAII (Michael W. Deem and Ramdas Pophale) SiO2 
 PCOD9175383
Probable space group: C 2/M
;
_chemical_formula_sum "Si O2"
_cell_formula_units_Z 40
_cell_length_a 7.790091
_cell_length_b 18.813263
_cell_length_c 14.579251
_cell_angle_alpha 90.000000
_cell_angle_beta 119.569768
_cell_angle_gamma 90.000000
_cell_volume 1858.399253
_symmetry_space_group_name_H-M "C 2/M"
_symmetry_group_IT_number 12
_symmetry_cell_setting 'monoclinic'
loop_
_space_group_symop_operation_xyz
x,y,z
-x,y,-z
-x,-y,-z
x,-y,z
1/2+x,1/2+y,z
1/2-x,1/2+y,-z
1/2-x,1/2-y,-z
1/2+x,1/2-y,z
loop_
_atom_site_type_symbol
_atom_site_label
_atom_site_fract_x
_atom_site_fract_y
_atom_site_fract_z
Si Si1 0.983109 0.211547 0.100697
Si Si2 0.126837 0.366372 0.944094
Si Si3 0.817835 0.675509 0.332852
Si Si4 0.915634 0.580958 0.720348
Si Si5 0.021949 0.834906 0.610974
O O1 0.910820 0.288734 0.115681
O O2 0.159196 0.188532 0.210312
O O3 0.838879 0.145145 0.047089
O O4 0.000000 0.234556 0.000000
O O5 0.069559 0.417276 0.846269
O O6 0.000000 0.383612 0.000000
O O7 0.977254 0.619614 0.337079
O O8 0.926597 0.750860 0.375550
O O9 0.677679 0.655301 0.382224
O O10 0.864482 0.500000 0.685044
O O11 0.717693 0.623987 0.697999
O O12 0.000000 0.857950 0.500000
#
# Coordination Sequence:
#
# PCOD9175383 Si02
#       5
#     8   8   8   8   8
#     4  10  18  32  62  99 127 168 222 268 322 395
#     4  10  19  34  60  93 133 176 224 272 325 401
#     4  12  23  44  72 105 136 177 228 292 334 407
#     4  12  27  45  66 102 146 183 224 283 351 409
#     4  12  26  45  76 103 130 175 242 295 341 401
#
# _framework density 21.523899
#
# number of rings (size 3 to 8) (size 9 to 14) (size 15 to 20)
#    0.000    0.800    6.000    1.800    2.800    1.600 
#    0.000    3.000    0.000    0.000    0.000    0.000 
#    0.000    0.000    0.000    0.000    0.000    0.000 
#
# Total GULP energy -111440.534409 kJ/mol
# GULP energy per Si atom -5572.026720 kJ/mol
# Density = 2.147491 g / cm^3
# Si number density = 21.523899 Si / 1000 Ang^3
#
#
#
# Elastic Constant Matrix: (Units=GPa)
#
#
# Indices 1 2 3 4 5 6 
#
# 1 102.0634 32.1757 -3.3448 0.0000 -36.8009 0.0000
# 2 32.1757 96.1550 -4.6389 0.0000 -8.5048 0.0000
# 3 -3.3448 -4.6389 67.6555 0.0000 -12.1153 0.0000
# 4 0.0000 0.0000 0.0000 13.4431 0.0000 -6.0297
# 5 -36.8009 -8.5048 -12.1153 0.0000 35.1225 0.0000
# 6 0.0000 0.0000 0.0000 -6.0297 0.0000 15.4027
#
#
#
# Elastic Compliance Matrix: (Units=1/GPa)
#
#
# Indices 1 2 3 4 5 6 
#
# 1 0.018329 -0.004199 0.004130 0.000000 0.019612 0.000000
# 2 -0.004199 0.011693 0.000334 0.000000 -0.001453 0.000000
# 3 0.004130 0.000334 0.016837 0.000000 0.010216 0.000000
# 4 0.000000 0.000000 0.000000 0.090231 0.000000 0.035323
# 5 0.019612 -0.001453 0.010216 0.000000 0.052194 0.000000
# 6 0.000000 0.000000 0.000000 0.035323 0.000000 0.078751
#
#
# Mechanical properties :
#
#
# Convention : Reuss Voigt Hill
#
# Bulk Modulus (GPa) = 21.10219 34.91753 28.00986
# Shear Modulus (GPa) = 17.64906 28.90578 23.27742
#
# Velocity S-wave (km/s) = 2.86663 3.66862 3.29214
# Velocity P-wave (km/s) = 4.55874 5.84833 5.24333
#
# Compressibility (1/GPa) = 0.04738844
#
# Stress axis : x y z
#
# Youngs Moduli (GPa) = 54.55942 85.52431 59.39170
#
# Poissons Ratio (x) = 0.35914 -0.24531
# Poissons Ratio (y) = 0.22911 -0.01983
# Poissons Ratio (z) = -0.22535 -0.02855
#
# Static dielectric constant tensor:
#      x y z
#    x 1.963150 0.000000 0.013810 
#    y 0.000000 1.807470 0.000000 
#    z 0.013810 0.000000 1.784140 
# 
# From -- ./inp_files/195319.got.cif
#   From: 2010.05.17/outbox.cif.g08.bks.cpg/sg12_98_cif.got.tgz:195319.got - 2010.06.03 13:09:07.
