data_PCOD9175430
_publ_section_title
;
Structure prediction by ZEFSAII (Michael W. Deem and Ramdas Pophale) SiO2 
 PCOD9175430
Probable space group: C 2/M
;
_chemical_formula_sum "Si O2"
_cell_formula_units_Z 56
_cell_length_a 11.760629
_cell_length_b 26.632147
_cell_length_c 10.825083
_cell_angle_alpha 90.000000
_cell_angle_beta 117.416562
_cell_angle_gamma 90.000000
_cell_volume 3009.716127
_symmetry_space_group_name_H-M "C 2/M"
_symmetry_group_IT_number 12
_symmetry_cell_setting 'monoclinic'
loop_
_space_group_symop_operation_xyz
x,y,z
-x,y,-z
-x,-y,-z
x,-y,z
1/2+x,1/2+y,z
1/2-x,1/2+y,-z
1/2-x,1/2-y,-z
1/2+x,1/2-y,z
loop_
_atom_site_type_symbol
_atom_site_label
_atom_site_fract_x
_atom_site_fract_y
_atom_site_fract_z
Si Si1 0.517916 0.797610 0.150654
Si Si2 0.688567 0.288552 0.614923
Si Si3 0.883437 0.806838 0.016039
Si Si4 0.602344 0.370278 0.758324
Si Si5 0.344604 0.813253 0.281322
Si Si6 0.655691 0.557516 0.593276
Si Si7 0.308022 0.636810 0.594145
O O1 0.665916 0.791358 0.260978
O O2 0.445112 0.743298 0.106128
O O3 0.453779 0.825286 0.235923
O O4 0.500000 0.817388 0.000000
O O5 0.610389 0.330072 0.652192
O O6 0.629777 0.235029 0.620108
O O7 0.687658 0.309216 0.474788
O O8 0.832169 0.844025 0.093475
O O9 0.773563 0.796022 0.864396
O O10 0.000000 0.831204 0.000000
O O11 0.670540 0.418945 0.736982
O O12 0.451681 0.375555 0.712426
O O13 0.292459 0.856646 0.345555
O O14 0.500000 0.559915 0.500000
O O15 0.695462 0.500000 0.601648
O O16 0.717619 0.594123 0.521826
#
# Coordination Sequence:
#
# PCOD9175430 Si02
#       7
#     8   8   8   8   8   8   8
#     4  11  21  33  46  66  96 142 179 205 227 278
#     4  11  20  32  46  68 101 137 170 202 237 286
#     4  11  18  31  48  65  97 138 174 199 232 280
#     4  10  18  33  51  73  99 129 170 205 243 295
#     4  12  21  32  48  68 104 139 171 205 241 280
#     4   8  16  32  54  74  97 125 156 202 258 311
#     4  10  21  33  48  76 101 129 168 202 254 297
#
# _framework density 18.606404999999999
#
# number of rings (size 3 to 8) (size 9 to 14) (size 15 to 20)
#    0.000    1.571    5.714    3.000    0.000    0.571 
#    2.571    0.000    0.000    1.286    0.000    8.000 
#    0.000   14.286    0.000    0.000    0.000    0.000 
#
# Total GULP energy -156106.706539 kJ/mol
# GULP energy per Si atom -5575.239519 kJ/mol
# Density = 1.856406 g / cm^3
# Si number density = 18.606405 Si / 1000 Ang^3
#
#
#
# Elastic Constant Matrix: (Units=GPa)
#
#
# Indices 1 2 3 4 5 6 
#
# 1 111.4978 25.4893 31.6727 0.0000 -26.6807 0.0000
# 2 25.4893 77.4750 19.7713 0.0000 -19.5891 0.0000
# 3 31.6727 19.7713 66.9824 0.0000 -8.0130 0.0000
# 4 0.0000 0.0000 0.0000 13.4890 0.0000 -5.3559
# 5 -26.6807 -19.5891 -8.0130 0.0000 40.9312 0.0000
# 6 0.0000 0.0000 0.0000 -5.3559 0.0000 13.2461
#
#
#
# Elastic Compliance Matrix: (Units=1/GPa)
#
#
# Indices 1 2 3 4 5 6 
#
# 1 0.012078 -0.001180 -0.004596 0.000000 0.006408 0.000000
# 2 -0.001180 0.015687 -0.003345 0.000000 0.006084 0.000000
# 3 -0.004596 -0.003345 0.017960 0.000000 -0.001080 0.000000
# 4 0.000000 0.000000 0.000000 0.088313 0.000000 0.035708
# 5 0.006408 0.006084 -0.001080 0.000000 0.031308 0.000000
# 6 0.000000 0.000000 0.000000 0.035708 0.000000 0.089932
#
#
# Mechanical properties :
#
#
# Convention : Reuss Voigt Hill
#
# Bulk Modulus (GPa) = 36.38516 45.53573 40.96045
# Shear Modulus (GPa) = 17.68775 25.46806 21.57790
#
# Velocity S-wave (km/s) = 3.08657 3.70372 3.40914
# Velocity P-wave (km/s) = 5.68332 6.54342 6.12848
#
# Compressibility (1/GPa) = 0.02748373
#
# Stress axis : x y z
#
# Youngs Moduli (GPa) = 82.79806 63.74518 55.67798
#
# Poissons Ratio (x) = 0.07525 0.25589
# Poissons Ratio (y) = 0.09774 0.18622
# Poissons Ratio (z) = 0.38053 0.21320
#
# Static dielectric constant tensor:
#      x y z
#    x 1.714460 0.000000 -0.031500 
#    y 0.000000 1.629620 0.000000 
#    z -0.031500 0.000000 1.688480 
# 
# From -- ./inp_files/136731.got.cif
#   From: 2010.05.17/outbox.cif.g08.bks.cpg/sg12_69_cif.got.tgz:136731.got - 2010.06.03 13:09:07.
