data_PCOD9175925
_publ_section_title
;
Structure prediction by ZEFSAII (Michael W. Deem and Ramdas Pophale) SiO2 
 PCOD9175925
Probable space group: C 2/M
;
_chemical_formula_sum "Si O2"
_cell_formula_units_Z 48
_cell_length_a 24.697203
_cell_length_b 8.653555
_cell_length_c 11.906679
_cell_angle_alpha 90.000000
_cell_angle_beta 111.559946
_cell_angle_gamma 90.000000
_cell_volume 2366.636817
_symmetry_space_group_name_H-M "C 2/M"
_symmetry_group_IT_number 12
_symmetry_cell_setting 'monoclinic'
loop_
_space_group_symop_operation_xyz
x,y,z
-x,y,-z
-x,-y,-z
x,-y,z
1/2+x,1/2+y,z
1/2-x,1/2+y,-z
1/2-x,1/2-y,-z
1/2+x,1/2-y,z
loop_
_atom_site_type_symbol
_atom_site_label
_atom_site_fract_x
_atom_site_fract_y
_atom_site_fract_z
Si Si1 0.268347 0.183038 0.134435
Si Si2 0.937759 0.181448 0.014010
Si Si3 0.833339 0.317958 0.793391
Si Si4 0.982381 0.812364 0.289856
Si Si5 0.382985 0.687360 0.604376
Si Si6 0.375667 0.686447 0.346633
O O1 0.220698 0.233790 0.189755
O O2 0.329813 0.247521 0.224070
O O3 0.270740 0.000000 0.127720
O O4 0.250000 0.250000 0.000000
O O5 0.949244 0.231394 0.150214
O O6 0.919898 0.000000 0.999343
O O7 0.889740 0.277629 0.911915
O O8 0.000000 0.190657 0.000000
O O9 0.822569 0.500000 0.784464
O O10 0.847256 0.258442 0.679172
O O11 0.049191 0.761300 0.337664
O O12 0.941162 0.766151 0.361420
O O13 0.985368 0.000000 0.293311
O O14 0.381676 0.500000 0.613609
O O15 0.361632 0.730777 0.463756
O O16 0.373650 0.500000 0.339702
#
# Coordination Sequence:
#
# PCOD9175925 Si02
#       6
#     8   8   8   8   8   8
#     4  12  26  46  69  91 121 159 204 255 311 373
#     4  10  18  33  59  89 123 161 203 249 307 371
#     4  12  25  40  61  91 127 164 208 259 314 366
#     4   9  17  33  60  92 125 161 204 250 299 363
#     4  10  20  38  62  91 126 166 211 253 303 368
#     4  10  21  38  64  94 124 163 210 257 306 366
#
# _framework density 20.281945
#
# number of rings (size 3 to 8) (size 9 to 14) (size 15 to 20)
#    0.000    1.500    1.667    4.500    0.000    5.000 
#    0.000    0.833    0.000    2.000    0.000    0.000 
#    0.000    0.000    0.000    0.000    0.000    0.000 
#
# Total GULP energy -134177.442554 kJ/mol
# GULP energy per Si atom -5590.726773 kJ/mol
# Density = 2.023578 g / cm^3
# Si number density = 20.281945 Si / 1000 Ang^3
#
#
#
# Elastic Constant Matrix: (Units=GPa)
#
#
# Indices 1 2 3 4 5 6 
#
# 1 90.8809 11.1511 36.6074 0.0000 -16.2011 0.0000
# 2 11.1511 35.2409 26.0110 0.0000 -4.8184 0.0000
# 3 36.6074 26.0110 106.6546 0.0000 -15.7562 0.0000
# 4 0.0000 0.0000 0.0000 23.6654 0.0000 -0.7945
# 5 -16.2011 -4.8184 -15.7562 0.0000 29.2860 0.0000
# 6 0.0000 0.0000 0.0000 -0.7945 0.0000 21.9912
#
#
#
# Elastic Compliance Matrix: (Units=1/GPa)
#
#
# Indices 1 2 3 4 5 6 
#
# 1 0.013536 -0.000859 -0.003640 0.000000 0.005388 0.000000
# 2 -0.000859 0.034702 -0.008034 0.000000 0.000912 0.000000
# 3 -0.003640 -0.008034 0.013136 0.000000 0.003732 0.000000
# 4 0.000000 0.000000 0.000000 0.042307 0.000000 0.001528
# 5 0.005388 0.000912 0.003732 0.000000 0.039284 0.000000
# 6 0.000000 0.000000 0.000000 0.001528 0.000000 0.045528
#
#
# Mechanical properties :
#
#
# Convention : Reuss Voigt Hill
#
# Bulk Modulus (GPa) = 27.54249 42.25726 34.89988
# Shear Modulus (GPa) = 22.15698 25.58899 23.87298
#
# Velocity S-wave (km/s) = 3.30881 3.55584 3.43455
# Velocity P-wave (km/s) = 5.31102 6.14319 5.74220
#
# Compressibility (1/GPa) = 0.03630753
#
# Stress axis : x y z
#
# Youngs Moduli (GPa) = 73.87858 28.81655 76.12636
#
# Poissons Ratio (x) = 0.02477 0.27712
# Poissons Ratio (y) = 0.06349 0.61156
# Poissons Ratio (z) = 0.26894 0.23150
#
# Static dielectric constant tensor:
#      x y z
#    x 1.718630 0.000000 -0.004020 
#    y 0.000000 1.687190 0.000000 
#    z -0.004020 0.000000 1.716270 
# 
# From -- ./inp_files/173074.got.cif
#   From: 2010.05.17/outbox.cif.g08.bks.cpg/sg12_87_cif.got.tgz:173074.got - 2010.06.03 13:09:07.
