data_PCOD9175004
_publ_section_title
;
Structure prediction by ZEFSAII (Michael W. Deem and Ramdas Pophale) SiO2 
 PCOD9175004
Probable space group: C 2/M
;
_chemical_formula_sum "Si O2"
_cell_formula_units_Z 52
_cell_length_a 15.410728
_cell_length_b 25.008265
_cell_length_c 8.409813
_cell_angle_alpha 90.000000
_cell_angle_beta 99.578541
_cell_angle_gamma 90.000000
_cell_volume 3195.918577
_symmetry_space_group_name_H-M "C 2/M"
_symmetry_group_IT_number 12
_symmetry_cell_setting 'monoclinic'
loop_
_space_group_symop_operation_xyz
x,y,z
-x,y,-z
-x,-y,-z
x,-y,z
1/2+x,1/2+y,z
1/2-x,1/2+y,-z
1/2-x,1/2-y,-z
1/2+x,1/2-y,z
loop_
_atom_site_type_symbol
_atom_site_label
_atom_site_fract_x
_atom_site_fract_y
_atom_site_fract_z
Si Si1 0.708596 0.201550 0.588327
Si Si2 0.126675 0.500000 0.934587
Si Si3 0.303786 0.698506 0.945819
Si Si4 0.058200 0.500000 0.282465
Si Si5 0.000000 0.235110 0.000000
Si Si6 0.677284 0.884257 0.009708
Si Si7 0.952347 0.686083 0.251312
Si Si8 0.616088 0.885049 0.356324
O O1 0.750000 0.250000 0.500000
O O2 0.774415 0.192264 0.754435
O O3 0.613965 0.213509 0.643957
O O4 0.686872 0.147912 0.481284
O O5 0.177846 0.444107 0.941261
O O6 0.046712 0.500000 0.783137
O O7 0.091247 0.500000 0.107432
O O8 0.268608 0.646793 0.026404
O O9 0.250000 0.750000 0.000000
O O10 0.407639 0.705407 0.987720
O O11 0.094330 0.447127 0.379865
O O12 0.003471 0.271974 0.157608
O O13 0.609216 0.849412 0.883836
O O14 0.644415 0.883334 0.180257
O O15 0.024912 0.646821 0.342431
#
# Coordination Sequence:
#
# PCOD9175004 Si02
#       8
#     8   4   8   4   4   8   8   8
#     4  11  23  34  48  73 116 147 176 221 271 328
#     4   9  16  30  53  81 108 147 189 223 256 316
#     4  11  21  37  54  78 104 142 187 227 274 324
#     4   9  18  28  52  83 111 146 186 213 265 338
#     4  12  20  34  62  78 102 140 192 232 272 320
#     4  10  18  32  55  77 110 144 185 223 258 317
#     4  11  19  32  54  78 104 150 182 216 265 320
#     4  11  19  33  52  82 115 147 178 219 270 327
#
# _framework density 16.270752999999999
#
# number of rings (size 3 to 8) (size 9 to 14) (size 15 to 20)
#    0.000    1.385    6.154    2.308    0.000    0.000 
#    0.000    4.615    0.000    0.462    0.000    0.000 
#    0.000    3.692    0.000    0.000    0.000    0.000 
#
# Total GULP energy -144968.297699 kJ/mol
# GULP energy per Si atom -5575.703758 kJ/mol
# Density = 1.623372 g / cm^3
# Si number density = 16.270753 Si / 1000 Ang^3
#
#
#
# Elastic Constant Matrix: (Units=GPa)
#
#
# Indices 1 2 3 4 5 6 
#
# 1 108.2514 67.2953 21.8265 0.0000 -2.1100 0.0000
# 2 67.2953 125.9657 36.3084 0.0000 0.9866 0.0000
# 3 21.8265 36.3084 67.1852 0.0000 -0.3963 0.0000
# 4 0.0000 0.0000 0.0000 18.5447 0.0000 4.9036
# 5 -2.1100 0.9866 -0.3963 0.0000 29.0052 0.0000
# 6 0.0000 0.0000 0.0000 4.9036 0.0000 24.5668
#
#
#
# Elastic Compliance Matrix: (Units=1/GPa)
#
#
# Indices 1 2 3 4 5 6 
#
# 1 0.013896 -0.007266 -0.000580 0.000000 0.001250 0.000000
# 2 -0.007266 0.013208 -0.004783 0.000000 -0.001043 0.000000
# 3 -0.000580 -0.004783 0.017660 0.000000 0.000362 0.000000
# 4 0.000000 0.000000 0.000000 0.056928 0.000000 -0.011363
# 5 0.001250 -0.001043 0.000362 0.000000 0.034608 0.000000
# 6 0.000000 0.000000 0.000000 -0.011363 0.000000 0.042974
#
#
# Mechanical properties :
#
#
# Convention : Reuss Voigt Hill
#
# Bulk Modulus (GPa) = 51.27134 61.36251 56.31692
# Shear Modulus (GPa) = 23.69280 26.15481 24.92380
#
# Velocity S-wave (km/s) = 3.82010 4.01368 3.91809
# Velocity P-wave (km/s) = 7.14404 7.69901 7.42671
#
# Compressibility (1/GPa) = 0.01950408
#
# Stress axis : x y z
#
# Youngs Moduli (GPa) = 71.96122 75.71423 56.62592
#
# Poissons Ratio (x) = 0.55018 0.03285
# Poissons Ratio (y) = 0.52291 0.27085
# Poissons Ratio (z) = 0.04175 0.36215
#
# Static dielectric constant tensor:
#      x y z
#    x 1.554070 0.000000 -0.014840 
#    y 0.000000 1.565010 0.000000 
#    z -0.014840 0.000000 1.596760 
# 
# From -- ./inp_files/64768.got.cif
#   From: 2010.05.17/outbox.cif.g08.bks.cpg/sg12_33_cif.got.tgz:64768.got - 2010.06.03 13:09:07.
