data_PCOD9175497
_publ_section_title
;
Structure prediction by ZEFSAII (Michael W. Deem and Ramdas Pophale) SiO2 
 PCOD9175497
Probable space group: C 2/M
;
_chemical_formula_sum "Si O2"
_cell_formula_units_Z 56
_cell_length_a 16.657035
_cell_length_b 15.943704
_cell_length_c 11.727167
_cell_angle_alpha 90.000000
_cell_angle_beta 113.441599
_cell_angle_gamma 90.000000
_cell_volume 2857.393340
_symmetry_space_group_name_H-M "C 2/M"
_symmetry_group_IT_number 12
_symmetry_cell_setting 'monoclinic'
loop_
_space_group_symop_operation_xyz
x,y,z
-x,y,-z
-x,-y,-z
x,-y,z
1/2+x,1/2+y,z
1/2-x,1/2+y,-z
1/2-x,1/2-y,-z
1/2+x,1/2-y,z
loop_
_atom_site_type_symbol
_atom_site_label
_atom_site_fract_x
_atom_site_fract_y
_atom_site_fract_z
Si Si1 0.149368 0.902059 0.772464
Si Si2 0.154209 0.219260 0.297234
Si Si3 0.086344 0.347490 0.601961
Si Si4 0.745621 0.589576 0.200755
Si Si5 0.172417 0.183362 0.553851
Si Si6 0.299718 0.164139 0.997039
Si Si7 0.546610 0.245972 0.817053
O O1 0.140507 0.879625 0.633584
O O2 0.088590 0.837970 0.811850
O O3 0.133236 0.000000 0.785318
O O4 0.249135 0.876695 0.863255
O O5 0.186732 0.166489 0.207727
O O6 0.158454 0.161455 0.414134
O O7 0.226740 0.290564 0.364846
O O8 0.056115 0.248526 0.222467
O O9 0.169564 0.405169 0.669998
O O10 0.117687 0.269380 0.542184
O O11 0.064298 0.306090 0.711249
O O12 0.000000 0.386656 0.500000
O O13 0.700986 0.500000 0.185300
O O14 0.780116 0.603673 0.092787
O O15 0.399701 0.195148 0.055921
O O16 0.250000 0.250000 0.000000
#
# Coordination Sequence:
#
# PCOD9175497 Si02
#       7
#     8   8   8   8   8   8   8
#     4  10  20  35  55  78 106 138 174 221 269 308
#     4  10  18  33  53  77 108 138 172 213 262 318
#     4   9  15  30  52  72  97 135 184 220 238 289
#     4  10  21  32  48  78 111 137 159 207 279 322
#     4   9  19  32  53  77 103 143 180 213 255 308
#     4   9  18  37  57  73  94 135 188 220 244 300
#     4   9  18  31  56  81  97 133 185 223 251 302
#
# _framework density 19.598282999999999
#
# number of rings (size 3 to 8) (size 9 to 14) (size 15 to 20)
#    0.000    2.571    1.429    3.000    0.000    1.429 
#    0.000    7.143    0.000    6.857    0.000    0.000 
#    0.000    0.000    0.000    0.000    0.000    0.000 
#
# Total GULP energy -156029.562177 kJ/mol
# GULP energy per Si atom -5572.484363 kJ/mol
# Density = 1.955368 g / cm^3
# Si number density = 19.598283 Si / 1000 Ang^3
#
#
#
# Elastic Constant Matrix: (Units=GPa)
#
#
# Indices 1 2 3 4 5 6 
#
# 1 83.6259 -6.1074 1.3658 0.0000 19.2543 0.0000
# 2 -6.1074 48.9079 -6.0219 0.0000 -5.6461 0.0000
# 3 1.3658 -6.0219 46.6071 0.0000 -2.2545 0.0000
# 4 0.0000 0.0000 0.0000 9.6867 0.0000 -2.0565
# 5 19.2543 -5.6461 -2.2545 0.0000 28.6234 0.0000
# 6 0.0000 0.0000 0.0000 -2.0565 0.0000 6.2278
#
#
#
# Elastic Compliance Matrix: (Units=1/GPa)
#
#
# Indices 1 2 3 4 5 6 
#
# 1 0.014201 0.000578 -0.000801 0.000000 -0.009502 0.000000
# 2 0.000578 0.021348 0.002937 0.000000 0.004054 0.000000
# 3 -0.000801 0.002937 0.021997 0.000000 0.002851 0.000000
# 4 0.000000 0.000000 0.000000 0.111018 0.000000 0.036660
# 5 -0.009502 0.004054 0.002851 0.000000 0.042352 0.000000
# 6 0.000000 0.000000 0.000000 0.036660 0.000000 0.172676
#
#
# Mechanical properties :
#
#
# Convention : Reuss Voigt Hill
#
# Bulk Modulus (GPa) = 15.87943 17.51267 16.69605
# Shear Modulus (GPa) = 12.52643 21.56786 17.04714
#
# Velocity S-wave (km/s) = 2.53090 3.32097 2.95248
# Velocity P-wave (km/s) = 4.08175 4.86419 4.49005
#
# Compressibility (1/GPa) = 0.06297456
#
# Stress axis : x y z
#
# Youngs Moduli (GPa) = 70.41731 46.84192 45.46102
#
# Poissons Ratio (x) = -0.02706 0.03642
# Poissons Ratio (y) = -0.04069 -0.13354
# Poissons Ratio (z) = 0.05641 -0.13760
#
# Static dielectric constant tensor:
#      x y z
#    x 1.704760 0.000000 0.002190 
#    y 0.000000 1.682780 0.000000 
#    z 0.002190 0.000000 1.748050 
# 
# From -- ./inp_files/145679.got.cif
#   From: 2010.05.17/outbox.cif.g08.bks.cpg/sg12_73_cif.got.tgz:145679.got - 2010.06.03 13:09:07.
