data_PCOD9175894
_publ_section_title
;
Structure prediction by ZEFSAII (Michael W. Deem and Ramdas Pophale) SiO2 
 PCOD9175894
Probable space group: C 2/M
;
_chemical_formula_sum "Si O2"
_cell_formula_units_Z 64
_cell_length_a 23.371076
_cell_length_b 15.280755
_cell_length_c 19.349075
_cell_angle_alpha 90.000000
_cell_angle_beta 153.815731
_cell_angle_gamma 90.000000
_cell_volume 3049.142940
_symmetry_space_group_name_H-M "C 2/M"
_symmetry_group_IT_number 12
_symmetry_cell_setting 'monoclinic'
loop_
_space_group_symop_operation_xyz
x,y,z
-x,y,-z
-x,-y,-z
x,-y,z
1/2+x,1/2+y,z
1/2-x,1/2+y,-z
1/2-x,1/2-y,-z
1/2+x,1/2-y,z
loop_
_atom_site_type_symbol
_atom_site_label
_atom_site_fract_x
_atom_site_fract_y
_atom_site_fract_z
Si Si1 0.500875 0.894250 0.580837
Si Si2 0.229477 0.157229 0.062101
Si Si3 0.268330 0.892912 0.425577
Si Si4 0.859299 0.104288 0.327320
Si Si5 0.866592 0.607445 0.818882
Si Si6 0.716700 0.137869 0.029981
Si Si7 0.493125 0.394450 0.072429
Si Si8 0.913436 0.397646 0.717788
O O1 0.500000 0.870699 0.500000
O O2 0.623947 0.853997 0.752565
O O3 0.366268 0.869088 0.470386
O O4 0.514390 0.000000 0.600947
O O5 0.201571 0.258022 0.017122
O O6 0.225075 0.111675 0.981617
O O7 0.131793 0.127739 0.016498
O O8 0.122684 0.864153 0.252529
O O9 0.335910 0.859990 0.568853
O O10 0.266183 0.000000 0.425216
O O11 0.751530 0.140063 0.262948
O O12 0.808355 0.114644 0.193935
O O13 0.000000 0.140495 0.500000
O O14 0.864390 0.000000 0.344816
O O15 0.863598 0.500000 0.814900
O O16 0.870683 0.639738 0.744995
O O17 0.000000 0.632053 0.000000
O O18 0.569253 0.104497 0.878523
O O19 0.496646 0.500000 0.072507
O O20 0.500000 0.362939 0.000000
O O21 0.878383 0.500000 0.681840
#
# Coordination Sequence:
#
# PCOD9175894 Si02
#       8
#     8   8   8   8   8   8   8   8
#     4  10  19  34  61  89 109 144 196 246 296 351
#     4  11  24  39  58  83 120 159 197 235 290 354
#     4   9  18  32  56  87 112 139 185 241 292 341
#     4  10  21  37  59  88 118 148 192 245 293 340
#     4   9  16  29  53  81 107 140 181 232 284 329
#     4  11  23  39  57  81 121 160 198 241 287 342
#     4  10  21  40  62  87 120 150 187 248 305 351
#     4  10  18  33  59  85 112 148 195 243 283 333
#
# _framework density 20.989505000000001
#
# number of rings (size 3 to 8) (size 9 to 14) (size 15 to 20)
#    0.000    2.000    2.500    1.500    0.000    5.000 
#    2.250    3.125    0.000    0.000    0.000    0.000 
#    0.000    0.000    0.000    0.000    0.000    0.000 
#
# Total GULP energy -178657.043400 kJ/mol
# GULP energy per Si atom -5583.032606 kJ/mol
# Density = 2.094173 g / cm^3
# Si number density = 20.989505 Si / 1000 Ang^3
#
#
#
# Elastic Constant Matrix: (Units=GPa)
#
#
# Indices 1 2 3 4 5 6 
#
# 1 131.4505 2.5635 31.9673 0.0006 -0.4112 0.0003
# 2 2.5635 22.1577 -7.3195 0.0004 -1.2348 0.0002
# 3 31.9673 -7.3195 93.7485 0.0010 5.8670 0.0006
# 4 0.0006 0.0004 0.0010 -14.9632 0.0006 -9.2642
# 5 -0.4112 -1.2348 5.8670 0.0006 39.4491 0.0003
# 6 0.0003 0.0002 0.0006 -9.2642 0.0003 7.0182
#
#
#
# Elastic Compliance Matrix: (Units=1/GPa)
#
#
# Indices 1 2 3 4 5 6 
#
# 1 0.008387 -0.001948 -0.003042 0.000000 0.000479 0.000000
# 2 -0.001948 0.046812 0.004269 0.000001 0.000810 0.000000
# 3 -0.003042 0.004269 0.012144 0.000001 -0.001704 0.000000
# 4 0.000000 0.000001 0.000001 -0.036775 0.000001 -0.048544
# 5 0.000479 0.000810 -0.001704 0.000001 0.025633 0.000000
# 6 0.000000 0.000000 0.000000 -0.048544 0.000000 0.078407
#
#
# Mechanical properties :
#
#
# Convention : Reuss Voigt Hill
#
# Bulk Modulus (GPa) = 15.17479 33.53104 24.35292
# Shear Modulus (GPa) = 31.64222 20.97720 26.30971
#
# Velocity S-wave (km/s) = 3.88690 3.16478 3.54428
# Velocity P-wave (km/s) = 5.23349 5.41888 5.32699
#
# Compressibility (1/GPa) = 0.06589876
#
# Stress axis : x y z
#
# Youngs Moduli (GPa) = 119.23693 21.36223 82.34523
#
# Poissons Ratio (x) = 0.04162 0.25048
# Poissons Ratio (y) = 0.23232 -0.35149
# Poissons Ratio (z) = 0.36270 -0.09119
#
# Static dielectric constant tensor:
#      x y z
#    x 1.675760 0.000000 -0.050460 
#    y 0.000000 1.770060 0.000000 
#    z -0.050460 0.000000 1.729910 
# 
# From -- ./inp_files/285247.got.cif
#   From: 2010.05.17/outbox.cif.g08.bks.cpg/sg12_143_cif.got.tgz:285247.got - 2010.06.03 13:09:07.
