data_PCOD9175845
_publ_section_title
;
Structure prediction by ZEFSAII (Michael W. Deem and Ramdas Pophale) SiO2 
 PCOD9175845
Probable space group: C 2/M
;
_chemical_formula_sum "Si O2"
_cell_formula_units_Z 56
_cell_length_a 14.598753
_cell_length_b 8.972021
_cell_length_c 26.172618
_cell_angle_alpha 90.000000
_cell_angle_beta 51.714250
_cell_angle_gamma 90.000000
_cell_volume 2690.818522
_symmetry_space_group_name_H-M "C 2/M"
_symmetry_group_IT_number 12
_symmetry_cell_setting 'monoclinic'
loop_
_space_group_symop_operation_xyz
x,y,z
-x,y,-z
-x,-y,-z
x,-y,z
1/2+x,1/2+y,z
1/2-x,1/2+y,-z
1/2-x,1/2-y,-z
1/2+x,1/2-y,z
loop_
_atom_site_type_symbol
_atom_site_label
_atom_site_fract_x
_atom_site_fract_y
_atom_site_fract_z
Si Si1 0.933042 0.671361 0.945376
Si Si2 0.452824 0.173559 0.304692
Si Si3 0.909340 0.674282 0.646640
Si Si4 0.857158 0.823090 0.433627
Si Si5 0.152502 0.821065 0.748272
Si Si6 0.166223 0.822791 0.862010
Si Si7 0.202396 0.171982 0.095954
O O1 0.973082 0.500000 0.928043
O O2 0.886458 0.732270 0.907219
O O3 0.039180 0.774050 0.926423
O O4 0.822983 0.675102 0.021477
O O5 0.569940 0.182344 0.298647
O O6 0.364295 0.259641 0.373381
O O7 0.446797 0.248567 0.251963
O O8 0.423165 0.000000 0.310737
O O9 0.923837 0.500000 0.627955
O O10 0.017211 0.768377 0.587688
O O11 0.778544 0.722719 0.681077
O O12 0.750000 0.750000 0.500000
O O13 0.848960 0.000000 0.436646
O O14 0.158079 0.777639 0.805430
O O15 0.143332 0.000000 0.749358
O O16 0.263803 0.740458 0.861418
O O17 0.182924 0.000000 0.859641
O O18 0.163265 0.000000 0.112949
#
# Coordination Sequence:
#
# PCOD9175845 Si02
#       7
#     8   8   8   8   8   8   8
#     4  10  21  38  59  82 111 146 185 233 288 338
#     4   9  19  35  56  81 109 145 183 225 274 322
#     4   8  18  36  55  77 109 145 180 223 274 322
#     4  10  18  33  58  85 112 144 182 225 274 326
#     4  10  21  38  56  79 111 148 187 226 272 328
#     4  11  23  36  55  84 115 148 188 231 278 337
#     4  10  21  38  59  83 110 144 187 235 286 339
#
# _framework density 20.811512
#
# number of rings (size 3 to 8) (size 9 to 14) (size 15 to 20)
#    0.857    1.429    0.000    3.000    0.000    6.286 
#    0.000    2.143    0.000    4.286    0.000    0.000 
#    0.000    0.000    0.000    0.000    0.000    0.000 
#
# Total GULP energy -156219.653871 kJ/mol
# GULP energy per Si atom -5579.273353 kJ/mol
# Density = 2.076414 g / cm^3
# Si number density = 20.811512 Si / 1000 Ang^3
#
#
#
# Elastic Constant Matrix: (Units=GPa)
#
#
# Indices 1 2 3 4 5 6 
#
# 1 63.2831 5.6634 5.1903 0.0000 1.4115 0.0000
# 2 5.6634 61.2484 11.4009 0.0000 3.0945 0.0000
# 3 5.1903 11.4009 46.1334 0.0000 -2.9628 0.0000
# 4 0.0000 0.0000 0.0000 26.3409 0.0000 7.9415
# 5 1.4115 3.0945 -2.9628 0.0000 30.1902 0.0000
# 6 0.0000 0.0000 0.0000 7.9415 0.0000 22.6216
#
#
#
# Elastic Compliance Matrix: (Units=1/GPa)
#
#
# Indices 1 2 3 4 5 6 
#
# 1 0.016052 -0.001152 -0.001572 0.000000 -0.000787 0.000000
# 2 -0.001152 0.017341 -0.004294 0.000000 -0.002145 0.000000
# 3 -0.001572 -0.004294 0.023093 0.000000 0.002780 0.000000
# 4 0.000000 0.000000 0.000000 0.042457 0.000000 -0.014905
# 5 -0.000787 -0.002145 0.002780 0.000000 0.033653 0.000000
# 6 0.000000 0.000000 0.000000 -0.014905 0.000000 0.049438
#
#
# Mechanical properties :
#
#
# Convention : Reuss Voigt Hill
#
# Bulk Modulus (GPa) = 23.55672 23.90823 23.73248
# Shear Modulus (GPa) = 23.78477 25.72455 24.75466
#
# Velocity S-wave (km/s) = 3.38430 3.51960 3.45261
# Velocity P-wave (km/s) = 5.15897 5.29431 5.22707
#
# Compressibility (1/GPa) = 0.04245073
#
# Stress axis : x y z
#
# Youngs Moduli (GPa) = 62.29929 57.66656 43.30370
#
# Poissons Ratio (x) = 0.06643 0.06806
# Poissons Ratio (y) = 0.07176 0.18593
# Poissons Ratio (z) = 0.09792 0.24760
#
# Static dielectric constant tensor:
#      x y z
#    x 1.751610 0.000000 -0.013140 
#    y 0.000000 1.692950 0.000000 
#    z -0.013140 0.000000 1.789890 
# 
# From -- ./inp_files/338550.got.cif
#   From: 2010.05.17/outbox.cif.g08.bks.cpg/sg12_170_cif.got.tgz:338550.got - 2010.06.03 13:09:07.
