data_PCOD9175735
_publ_section_title
;
Structure prediction by ZEFSAII (Michael W. Deem and Ramdas Pophale) SiO2 
 PCOD9175735
Probable space group: C 2/M
;
_chemical_formula_sum "Si O2"
_cell_formula_units_Z 64
_cell_length_a 20.436265
_cell_length_b 7.745306
_cell_length_c 19.510292
_cell_angle_alpha 90.000000
_cell_angle_beta 88.978879
_cell_angle_gamma 90.000000
_cell_volume 3087.698602
_symmetry_space_group_name_H-M "C 2/M"
_symmetry_group_IT_number 12
_symmetry_cell_setting 'monoclinic'
loop_
_space_group_symop_operation_xyz
x,y,z
-x,y,-z
-x,-y,-z
x,-y,z
1/2+x,1/2+y,z
1/2-x,1/2+y,-z
1/2-x,1/2-y,-z
1/2+x,1/2-y,z
loop_
_atom_site_type_symbol
_atom_site_label
_atom_site_fract_x
_atom_site_fract_y
_atom_site_fract_z
Si Si1 0.700347 0.705501 0.061408
Si Si2 0.547682 0.791184 0.206303
Si Si3 0.976999 0.288688 0.344274
Si Si4 0.150111 0.288642 0.576727
Si Si5 0.302158 0.796453 0.786368
Si Si6 0.593047 0.199139 0.434856
Si Si7 0.448171 0.294746 0.946507
Si Si8 0.718359 0.700648 0.358901
O O1 0.695525 0.500000 0.065636
O O2 0.723009 0.766112 0.136302
O O3 0.626469 0.775350 0.049336
O O4 0.750000 0.750000 0.000000
O O5 0.502802 0.731999 0.269824
O O6 0.622599 0.730537 0.215246
O O7 0.527103 0.733230 0.131280
O O8 0.548838 0.000000 0.206640
O O9 0.979793 0.500000 0.344493
O O10 0.027998 0.226792 0.401616
O O11 0.904058 0.239495 0.366224
O O12 0.153463 0.500000 0.574998
O O13 0.123430 0.226613 0.503879
O O14 0.222015 0.229108 0.596770
O O15 0.266290 0.715339 0.722003
O O16 0.303201 0.000000 0.773990
O O17 0.650733 0.205750 0.377804
O O18 0.577250 0.000000 0.451570
O O19 0.443127 0.500000 0.959096
O O20 0.500000 0.222887 0.000000
O O21 0.708183 0.500000 0.375757
#
# Coordination Sequence:
#
# PCOD9175735 Si02
#       8
#     8   8   8   8   8   8   8   8
#     4  10  20  36  58  84 112 143 175 215 260 309
#     4   9  17  31  54  80 102 130 174 221 257 299
#     4   9  16  31  53  78 103 130 174 224 263 304
#     4   9  19  32  50  77 108 136 170 220 272 316
#     4  10  19  35  57  80 104 138 183 223 256 306
#     4  10  18  33  57  78  97 135 182 220 260 313
#     4   9  19  36  56  78 108 141 172 209 257 312
#     4  11  21  33  50  77 110 141 172 215 268 320
#
# _framework density 20.727412000000001
#
# number of rings (size 3 to 8) (size 9 to 14) (size 15 to 20)
#    0.000    2.375    1.250    1.875    0.000    2.750 
#    2.250    0.625    0.000    4.500    0.000    0.000 
#    0.000    0.000    0.000    0.000    0.000    0.000 
#
# Total GULP energy -178602.470505 kJ/mol
# GULP energy per Si atom -5581.327203 kJ/mol
# Density = 2.068024 g / cm^3
# Si number density = 20.727412 Si / 1000 Ang^3
#
#
#
# Elastic Constant Matrix: (Units=GPa)
#
#
# Indices 1 2 3 4 5 6 
#
# 1 33.3782 0.9561 2.4360 0.0000 4.6028 0.0000
# 2 0.9561 35.2674 -8.1310 0.0000 2.2398 0.0000
# 3 2.4360 -8.1310 95.8612 0.0000 1.7617 0.0000
# 4 0.0000 0.0000 0.0000 18.0890 0.0000 -2.0480
# 5 4.6028 2.2398 1.7617 0.0000 34.7539 0.0000
# 6 0.0000 0.0000 0.0000 -2.0480 0.0000 7.0668
#
#
#
# Elastic Compliance Matrix: (Units=1/GPa)
#
#
# Indices 1 2 3 4 5 6 
#
# 1 0.030584 -0.000755 -0.000768 0.000000 -0.003963 0.000000
# 2 -0.000755 0.029077 0.002520 0.000000 -0.001902 0.000000
# 3 -0.000768 0.002520 0.010676 0.000000 -0.000602 0.000000
# 4 0.000000 0.000000 0.000000 0.057158 0.000000 0.016565
# 5 -0.003963 -0.001902 -0.000602 0.000000 0.029452 0.000000
# 6 0.000000 0.000000 0.000000 0.016565 0.000000 0.146307
#
#
# Mechanical properties :
#
#
# Convention : Reuss Voigt Hill
#
# Bulk Modulus (GPa) = 13.82510 17.22543 15.52527
# Shear Modulus (GPa) = 15.36716 23.26499 19.31607
#
# Velocity S-wave (km/s) = 2.72581 3.35390 3.05603
# Velocity P-wave (km/s) = 4.07322 4.82977 4.46754
#
# Compressibility (1/GPa) = 0.07233220
#
# Stress axis : x y z
#
# Youngs Moduli (GPa) = 32.69697 34.39124 93.66697
#
# Poissons Ratio (x) = 0.02595 0.07197
# Poissons Ratio (y) = 0.02467 -0.23609
# Poissons Ratio (z) = 0.02512 -0.08668
#
# Static dielectric constant tensor:
#      x y z
#    x 1.735540 0.000000 -0.002580 
#    y 0.000000 1.766970 0.000000 
#    z -0.002580 0.000000 1.755270 
# 
# From -- ./inp_files/281250.got.cif
#   From: 2010.05.17/outbox.cif.g08.bks.cpg/sg12_141_cif.got.tgz:281250.got - 2010.06.03 13:09:07.
