data_PCOD9175568
_publ_section_title
;
Structure prediction by ZEFSAII (Michael W. Deem and Ramdas Pophale) SiO2 
 PCOD9175568
Probable space group: C 2/M
;
_chemical_formula_sum "Si O2"
_cell_formula_units_Z 40
_cell_length_a 19.695787
_cell_length_b 12.984687
_cell_length_c 18.576914
_cell_angle_alpha 90.000000
_cell_angle_beta 150.732854
_cell_angle_gamma 90.000000
_cell_volume 2322.644403
_symmetry_space_group_name_H-M "C 2/M"
_symmetry_group_IT_number 12
_symmetry_cell_setting 'monoclinic'
loop_
_space_group_symop_operation_xyz
x,y,z
-x,y,-z
-x,-y,-z
x,-y,z
1/2+x,1/2+y,z
1/2-x,1/2+y,-z
1/2-x,1/2-y,-z
1/2+x,1/2-y,z
loop_
_atom_site_type_symbol
_atom_site_label
_atom_site_fract_x
_atom_site_fract_y
_atom_site_fract_z
Si Si1 0.907435 0.882846 0.342315
Si Si2 0.848459 0.377741 0.661907
Si Si3 0.926215 0.749821 0.608356
Si Si4 0.148405 0.381031 0.596515
Si Si5 0.148199 0.702186 0.172746
O O1 0.749001 0.869961 0.219017
O O2 0.000000 0.860300 0.500000
O O3 0.948730 0.806062 0.316883
O O4 0.939678 0.000000 0.351781
O O5 0.862136 0.500000 0.664211
O O6 0.947985 0.308683 0.703325
O O7 0.694739 0.336169 0.497975
O O8 0.866056 0.347987 0.761529
O O9 0.872736 0.663200 0.503067
O O10 0.189545 0.500000 0.634204
O O11 0.263815 0.307690 0.738426
O O12 0.000000 0.373212 0.500000
O O13 0.000000 0.717032 0.000000
#
# Coordination Sequence:
#
# PCOD9175568 Si02
#       5
#     8   8   8   8   8
#     4  11  19  34  59  82 108 144 189 231 269 315
#     4  10  20  33  53  82 113 143 177 227 282 325
#     4  10  18  33  54  84 109 138 180 234 277 317
#     4  10  18  33  58  82 105 139 183 224 268 322
#     4  11  22  37  55  81 115 146 184 227 272 327
#
# _framework density 17.221748999999999
#
# number of rings (size 3 to 8) (size 9 to 14) (size 15 to 20)
#    0.000    1.600    6.000    1.800    0.000    2.000 
#    0.000    2.000    0.000    0.000    0.000    0.000 
#    0.000    0.000    0.000    0.000    0.000    0.000 
#
# Total GULP energy -111541.262770 kJ/mol
# GULP energy per Si atom -5577.063138 kJ/mol
# Density = 1.718255 g / cm^3
# Si number density = 17.221749 Si / 1000 Ang^3
#
#
#
# Elastic Constant Matrix: (Units=GPa)
#
#
# Indices 1 2 3 4 5 6 
#
# 1 120.1505 49.6086 25.9983 0.0000 3.1147 0.0000
# 2 49.6086 141.9020 25.9098 0.0000 -4.2226 0.0000
# 3 25.9983 25.9098 68.6216 -0.0001 11.2122 0.0000
# 4 0.0000 0.0000 -0.0001 4.3369 0.0000 6.1565
# 5 3.1147 -4.2226 11.2122 0.0000 11.9434 0.0000
# 6 0.0000 0.0000 0.0000 6.1565 0.0000 24.5143
#
#
#
# Elastic Compliance Matrix: (Units=1/GPa)
#
#
# Indices 1 2 3 4 5 6 
#
# 1 0.010193 -0.003166 -0.002420 0.000000 -0.001506 0.000000
# 2 -0.003166 0.008981 -0.003360 0.000000 0.007155 0.000000
# 3 -0.002420 -0.003360 0.019902 0.000000 -0.019241 0.000000
# 4 0.000000 0.000000 0.000000 0.358324 0.000001 -0.089989
# 5 -0.001506 0.007155 -0.019241 0.000001 0.104714 0.000000
# 6 0.000000 0.000000 0.000000 -0.089989 0.000000 0.063392
#
#
# Mechanical properties :
#
#
# Convention : Reuss Voigt Hill
#
# Bulk Modulus (GPa) = 47.21022 59.30083 53.25553
# Shear Modulus (GPa) = 8.46798 23.43608 15.95203
#
# Velocity S-wave (km/s) = 2.21984 3.69296 3.04677
# Velocity P-wave (km/s) = 5.83463 7.25895 6.58541
#
# Compressibility (1/GPa) = 0.02118185
#
# Stress axis : x y z
#
# Youngs Moduli (GPa) = 98.10695 111.35179 50.24580
#
# Poissons Ratio (x) = 0.35258 0.12161
# Poissons Ratio (y) = 0.31064 0.16884
# Poissons Ratio (z) = 0.23744 0.37418
#
# Static dielectric constant tensor:
#      x y z
#    x 1.625680 0.000000 0.018830 
#    y 0.000000 1.596320 0.000000 
#    z 0.018830 0.000000 1.548430 
# 
# From -- ./inp_files/83389.got.cif
#   From: 2010.05.17/outbox.cif.g08.bks.cpg/sg12_42_cif.got.tgz:83389.got - 2010.06.03 13:09:07.
