data_PCOD9175791
_publ_section_title
;
Structure prediction by ZEFSAII (Michael W. Deem and Ramdas Pophale) SiO2 
 PCOD9175791
Probable space group: C 2/M
;
_chemical_formula_sum "Si O2"
_cell_formula_units_Z 56
_cell_length_a 9.843851
_cell_length_b 15.643425
_cell_length_c 30.410260
_cell_angle_alpha 90.000000
_cell_angle_beta 145.482919
_cell_angle_gamma 90.000000
_cell_volume 2653.587168
_symmetry_space_group_name_H-M "C 2/M"
_symmetry_group_IT_number 12
_symmetry_cell_setting 'monoclinic'
loop_
_space_group_symop_operation_xyz
x,y,z
-x,y,-z
-x,-y,-z
x,-y,z
1/2+x,1/2+y,z
1/2-x,1/2+y,-z
1/2-x,1/2-y,-z
1/2+x,1/2-y,z
loop_
_atom_site_type_symbol
_atom_site_label
_atom_site_fract_x
_atom_site_fract_y
_atom_site_fract_z
Si Si1 0.097121 0.595212 0.856655
Si Si2 0.131413 0.403469 0.679712
Si Si3 0.674115 0.604200 0.507445
Si Si4 0.246898 0.234866 0.947248
Si Si5 0.062925 0.143870 0.738156
Si Si6 0.724790 0.170899 0.798519
Si Si7 0.787244 0.103065 0.579075
O O1 0.185077 0.500000 0.891186
O O2 0.218328 0.674108 0.914701
O O3 0.138354 0.613562 0.815952
O O4 0.815887 0.601398 0.793666
O O5 0.054769 0.500000 0.668761
O O6 0.388733 0.403310 0.725343
O O7 0.136879 0.357326 0.727429
O O8 0.939101 0.368928 0.593404
O O9 0.500000 0.631999 0.500000
O O10 0.668593 0.500000 0.503569
O O11 0.613874 0.631743 0.442065
O O12 0.013120 0.178821 0.874442
O O13 0.500000 0.196173 0.000000
O O14 0.250000 0.250000 0.000000
O O15 0.123702 0.233740 0.777184
O O16 0.915875 0.150037 0.653373
O O17 0.500000 0.114871 0.500000
O O18 0.825784 0.000000 0.595744
#
# Coordination Sequence:
#
# PCOD9175791 Si02
#       7
#     8   8   8   8   8   8   8
#     4  11  24  42  68 100 127 165 214 257 301 373
#     4  11  22  40  63  89 123 166 215 265 311 373
#     4   9  19  34  54  83 119 161 210 265 322 366
#     4  11  23  46  71  95 129 171 200 246 316 380
#     4  11  22  39  62  92 126 167 211 262 321 379
#     4  11  25  43  65  92 131 166 204 252 320 380
#     4  10  18  33  57  85 118 164 218 268 315 369
#
# _framework density 21.103508999999999
#
# number of rings (size 3 to 8) (size 9 to 14) (size 15 to 20)
#    0.000    1.429    2.857    3.429    4.000    0.286 
#    0.000    1.429    0.000    2.143    0.000    0.000 
#    0.000    0.000    0.000    0.000    0.000    0.000 
#
# Total GULP energy -156473.248770 kJ/mol
# GULP energy per Si atom -5588.330313 kJ/mol
# Density = 2.105548 g / cm^3
# Si number density = 21.103509 Si / 1000 Ang^3
#
#
#
# Elastic Constant Matrix: (Units=GPa)
#
#
# Indices 1 2 3 4 5 6 
#
# 1 94.1993 2.5028 -3.4731 0.0000 -4.8294 0.0000
# 2 2.5028 37.2159 -4.9040 0.0000 3.6077 -0.0001
# 3 -3.4731 -4.9040 46.4528 0.0002 2.5613 -0.0003
# 4 0.0000 0.0000 0.0002 24.6562 0.0001 2.9689
# 5 -4.8294 3.6077 2.5613 0.0001 41.4000 -0.0001
# 6 0.0000 -0.0001 -0.0003 2.9689 -0.0001 4.9389
#
#
#
# Elastic Compliance Matrix: (Units=1/GPa)
#
#
# Indices 1 2 3 4 5 6 
#
# 1 0.010725 -0.000759 0.000651 0.000000 0.001277 0.000000
# 2 -0.000759 0.027576 0.003002 0.000000 -0.002677 0.000000
# 3 0.000651 0.003002 0.021978 0.000000 -0.001545 0.000002
# 4 0.000000 0.000000 0.000000 0.043723 0.000000 -0.026283
# 5 0.001277 -0.002677 -0.001545 0.000000 0.024632 0.000001
# 6 0.000000 0.000000 0.000002 -0.026283 0.000001 0.218272
#
#
# Mechanical properties :
#
#
# Convention : Reuss Voigt Hill
#
# Bulk Modulus (GPa) = 15.13584 18.45769 16.79676
# Shear Modulus (GPa) = 13.76874 26.44851 20.10863
#
# Velocity S-wave (km/s) = 2.55706 3.54400 3.09019
# Velocity P-wave (km/s) = 3.98821 5.05093 4.55070
#
# Compressibility (1/GPa) = 0.06606836
#
# Stress axis : x y z
#
# Youngs Moduli (GPa) = 93.23619 36.26281 45.49990
#
# Poissons Ratio (x) = 0.02753 -0.02964
# Poissons Ratio (y) = 0.07079 -0.13660
# Poissons Ratio (z) = -0.06073 -0.10886
#
# Static dielectric constant tensor:
#      x y z
#    x 1.749270 0.000000 0.018850 
#    y 0.000000 1.752430 0.000000 
#    z 0.018850 0.000000 1.754880 
# 
# From -- ./inp_files/372795.got.cif
#   From: 2010.05.17/outbox.cif.g08.bks.cpg/sg12_187_cif.got.tgz:372795.got - 2010.06.03 13:09:07.
