data_PCOD9175882
_publ_section_title
;
Structure prediction by ZEFSAII (Michael W. Deem and Ramdas Pophale) SiO2 
 PCOD9175882
Probable space group: C 2/M
;
_chemical_formula_sum "Si O2"
_cell_formula_units_Z 56
_cell_length_a 14.452276
_cell_length_b 14.693481
_cell_length_c 12.862862
_cell_angle_alpha 90.000000
_cell_angle_beta 94.122773
_cell_angle_gamma 90.000000
_cell_volume 2724.415024
_symmetry_space_group_name_H-M "C 2/M"
_symmetry_group_IT_number 12
_symmetry_cell_setting 'monoclinic'
loop_
_space_group_symop_operation_xyz
x,y,z
-x,y,-z
-x,-y,-z
x,-y,z
1/2+x,1/2+y,z
1/2-x,1/2+y,-z
1/2-x,1/2-y,-z
1/2+x,1/2-y,z
loop_
_atom_site_type_symbol
_atom_site_label
_atom_site_fract_x
_atom_site_fract_y
_atom_site_fract_z
Si Si1 0.152544 0.217558 0.290950
Si Si2 0.398166 0.269958 0.938439
Si Si3 0.707010 0.902288 0.399523
Si Si4 0.414898 0.146603 0.425981
Si Si5 0.401348 0.646231 0.488741
Si Si6 0.820866 0.399385 0.231527
Si Si7 0.271768 0.107220 0.994366
O O1 0.165661 0.320948 0.329058
O O2 0.123070 0.165888 0.393015
O O3 0.251462 0.177754 0.264536
O O4 0.090652 0.206099 0.183039
O O5 0.335615 0.176862 0.933725
O O6 0.500000 0.263152 0.000000
O O7 0.328623 0.344358 0.988892
O O8 0.672750 0.887483 0.515331
O O9 0.817430 0.897320 0.419744
O O10 0.676877 0.000000 0.358117
O O11 0.500000 0.111662 0.500000
O O12 0.415127 0.255351 0.434571
O O13 0.411737 0.113891 0.308171
O O14 0.500000 0.599045 0.500000
O O15 0.782200 0.500000 0.251693
O O16 0.826181 0.393000 0.109142
O O17 0.262588 0.000000 0.961431
#
# Coordination Sequence:
#
# PCOD9175882 Si02
#       7
#     8   8   8   8   8   8   8
#     4  10  20  39  57  81 117 153 195 237 293 343
#     4  10  22  40  63  90 120 161 203 248 305 364
#     4  11  21  35  54  80 117 154 190 233 284 344
#     4  10  19  32  52  79 111 145 188 236 282 333
#     4  10  20  35  55  81 111 156 191 238 284 337
#     4  10  18  33  59  82 110 152 195 238 287 342
#     4   9  21  40  62  90 121 154 199 254 304 356
#
# _framework density 20.554872
#
# number of rings (size 3 to 8) (size 9 to 14) (size 15 to 20)
#    0.000    2.000    2.857    1.286    0.000    6.000 
#    2.571    1.429    0.000    0.000    0.000    0.000 
#    0.000    0.000    0.000    0.000    0.000    0.000 
#
# Total GULP energy -156050.403804 kJ/mol
# GULP energy per Si atom -5573.228707 kJ/mol
# Density = 2.050809 g / cm^3
# Si number density = 20.554872 Si / 1000 Ang^3
#
#
#
# Elastic Constant Matrix: (Units=GPa)
#
#
# Indices 1 2 3 4 5 6 
#
# 1 71.4245 -0.3724 5.7703 0.0000 20.5776 0.0000
# 2 -0.3724 98.8223 -1.2011 0.0000 -4.7343 0.0000
# 3 5.7703 -1.2011 60.4013 0.0000 17.3820 0.0000
# 4 0.0000 0.0000 0.0000 34.4740 0.0000 -17.0843
# 5 20.5776 -4.7343 17.3820 0.0000 25.7944 0.0000
# 6 0.0000 0.0000 0.0000 -17.0843 0.0000 17.4654
#
#
#
# Elastic Compliance Matrix: (Units=1/GPa)
#
#
# Indices 1 2 3 4 5 6 
#
# 1 0.018685 -0.000713 0.003136 0.000000 -0.017150 0.000000
# 2 -0.000713 0.010245 -0.000537 0.000000 0.002811 0.000000
# 3 0.003136 -0.000537 0.021082 0.000000 -0.016807 0.000000
# 4 0.000000 0.000000 0.000000 0.056298 0.000000 0.055070
# 5 -0.017150 0.002811 -0.016807 0.000000 0.064291 0.000000
# 6 0.000000 0.000000 0.000000 0.055070 0.000000 0.111124
#
#
# Mechanical properties :
#
#
# Convention : Reuss Voigt Hill
#
# Bulk Modulus (GPa) = 18.59304 26.56020 22.57662
# Shear Modulus (GPa) = 16.89864 30.64350 23.77107
#
# Velocity S-wave (km/s) = 2.87038 3.86530 3.40438
# Velocity P-wave (km/s) = 4.47779 5.73327 5.14398
#
# Compressibility (1/GPa) = 0.05378358
#
# Stress axis : x y z
#
# Youngs Moduli (GPa) = 53.51980 97.61213 47.43303
#
# Poissons Ratio (x) = 0.06961 -0.14876
# Poissons Ratio (y) = 0.03816 0.02548
# Poissons Ratio (z) = -0.16785 0.05243
#
# Static dielectric constant tensor:
#      x y z
#    x 1.799030 0.000000 0.014650 
#    y 0.000000 1.774250 0.000000 
#    z 0.014650 0.000000 1.751310 
# 
# From -- ./inp_files/143739.got.cif
#   From: 2010.05.17/outbox.cif.g08.bks.cpg/sg12_72_cif.got.tgz:143739.got - 2010.06.03 13:09:07.
