data_PCOD9175966
_publ_section_title
;
Structure prediction by ZEFSAII (Michael W. Deem and Ramdas Pophale) SiO2 
 PCOD9175966
Probable space group: C 2/M
;
_chemical_formula_sum "Si O2"
_cell_formula_units_Z 56
_cell_length_a 21.418294
_cell_length_b 19.252343
_cell_length_c 24.187218
_cell_angle_alpha 90.000000
_cell_angle_beta 162.521460
_cell_angle_gamma 90.000000
_cell_volume 2995.573278
_symmetry_space_group_name_H-M "C 2/M"
_symmetry_group_IT_number 12
_symmetry_cell_setting 'monoclinic'
loop_
_space_group_symop_operation_xyz
x,y,z
-x,y,-z
-x,-y,-z
x,-y,z
1/2+x,1/2+y,z
1/2-x,1/2+y,-z
1/2-x,1/2-y,-z
1/2+x,1/2-y,z
loop_
_atom_site_type_symbol
_atom_site_label
_atom_site_fract_x
_atom_site_fract_y
_atom_site_fract_z
Si Si1 0.170309 0.423400 0.900995
Si Si2 0.534227 0.311075 0.348180
Si Si3 0.477175 0.212284 0.763179
Si Si4 0.289429 0.079010 0.492184
Si Si5 0.782508 0.251007 0.844968
Si Si6 0.528841 0.325930 0.896211
Si Si7 0.061915 0.650811 0.495576
O O1 0.184768 0.500000 0.937444
O O2 0.094292 0.359486 0.873992
O O3 0.986740 0.423243 0.700181
O O4 0.384179 0.398334 0.053668
O O5 0.503580 0.243761 0.282696
O O6 0.728997 0.299209 0.554046
O O7 0.615170 0.371885 0.374804
O O8 0.331902 0.311715 0.216236
O O9 0.560699 0.268894 0.875639
O O10 0.380630 0.109203 0.511942
O O11 0.214034 0.000000 0.421570
O O12 0.607689 0.210430 0.661406
O O13 0.853403 0.193147 0.949059
O O14 0.000000 0.272605 0.000000
O O15 0.286476 0.320499 0.701312
O O16 0.000000 0.611153 0.500000
#
# Coordination Sequence:
#
# PCOD9175966 Si02
#       7
#     8   8   8   8   8   8   8
#     4  10  21  35  55  87 122 153 194 243 295 354
#     4  10  18  36  60  85 116 148 201 253 292 344
#     4  10  18  33  61  86 109 154 195 245 300 343
#     4  10  21  39  60  86 123 162 198 243 296 350
#     4  12  23  37  58  88 119 152 197 249 300 352
#     4  12  21  35  59  82 115 158 194 244 290 345
#     4  12  23  38  59  86 123 156 200 243 289 353
#
# _framework density 18.694251999999999
#
# number of rings (size 3 to 8) (size 9 to 14) (size 15 to 20)
#    0.000    1.143    7.143    1.286    0.000    0.857 
#    0.000    0.000    0.000    3.000    0.000    0.000 
#    0.000    5.714    0.000    0.000    0.000    0.000 
#
# Total GULP energy -155942.769900 kJ/mol
# GULP energy per Si atom -5569.384639 kJ/mol
# Density = 1.865170 g / cm^3
# Si number density = 18.694252 Si / 1000 Ang^3
#
#
#
# Elastic Constant Matrix: (Units=GPa)
#
#
# Indices 1 2 3 4 5 6 
#
# 1 67.9232 44.4444 21.1142 0.0008 38.9112 0.0000
# 2 44.4444 108.1357 21.5086 0.0177 18.9023 0.0109
# 3 21.1142 21.5086 102.6544 0.0447 26.1289 0.0252
# 4 0.0008 0.0177 0.0447 20.6269 0.0039 0.6490
# 5 38.9112 18.9023 26.1289 0.0039 32.3707 -0.0133
# 6 0.0000 0.0109 0.0252 0.6490 -0.0133 10.0350
#
#
#
# Elastic Compliance Matrix: (Units=1/GPa)
#
#
# Indices 1 2 3 4 5 6 
#
# 1 0.068466 -0.015952 0.009864 0.000008 -0.080947 -0.000115
# 2 -0.015952 0.014067 -0.003091 -0.000008 0.013457 0.000011
# 3 0.009864 -0.003091 0.013742 -0.000022 -0.021144 -0.000058
# 4 0.000008 -0.000008 -0.000022 0.048579 0.000005 -0.003142
# 5 -0.080947 0.013457 -0.021144 0.000005 0.137403 0.000220
# 6 -0.000115 0.000011 -0.000058 -0.003142 0.000220 0.099855
#
#
# Mechanical properties :
#
#
# Convention : Reuss Voigt Hill
#
# Bulk Modulus (GPa) = 12.83450 50.31641 31.57545
# Shear Modulus (GPa) = 11.72486 25.38293 18.55390
#
# Velocity S-wave (km/s) = 2.50709 3.68882 3.15380
# Velocity P-wave (km/s) = 3.90654 6.71693 5.49446
#
# Compressibility (1/GPa) = 0.07791499
#
# Stress axis : x y z
#
# Youngs Moduli (GPa) = 14.60570 71.08933 72.76863
#
# Poissons Ratio (x) = 1.13405 -0.71777
# Poissons Ratio (y) = 0.23300 0.22496
# Poissons Ratio (z) = -0.14407 0.21977
#
# Static dielectric constant tensor:
#      x y z
#    x 1.727640 -0.000020 0.043100 
#    y -0.000020 1.661700 -0.000070 
#    z 0.043100 -0.000070 1.734760 
# 
# From -- ./inp_files/347820.got.cif
#   From: 2010.05.17/outbox.cif.g08.bks.cpg/sg12_174_cif.got.tgz:347820.got - 2010.06.03 13:09:07.
