data_PCOD9175806
_publ_section_title
;
Structure prediction by ZEFSAII (Michael W. Deem and Ramdas Pophale) SiO2 
 PCOD9175806
Probable space group: C 2/M
;
_chemical_formula_sum "Si O2"
_cell_formula_units_Z 34
_cell_length_a 24.234143
_cell_length_b 7.459608
_cell_length_c 15.833927
_cell_angle_alpha 90.000000
_cell_angle_beta 152.836346
_cell_angle_gamma 90.000000
_cell_volume 1306.787835
_symmetry_space_group_name_H-M "C 2/M"
_symmetry_group_IT_number 12
_symmetry_cell_setting 'monoclinic'
loop_
_space_group_symop_operation_xyz
x,y,z
-x,y,-z
-x,-y,-z
x,-y,z
1/2+x,1/2+y,z
1/2-x,1/2+y,-z
1/2-x,1/2-y,-z
1/2+x,1/2-y,z
loop_
_atom_site_type_symbol
_atom_site_label
_atom_site_fract_x
_atom_site_fract_y
_atom_site_fract_z
Si Si1 0.195431 0.783665 0.091061
Si Si2 0.049147 0.796500 0.306536
Si Si3 0.500000 0.000000 0.000000
Si Si4 0.301493 0.296501 0.713351
Si Si5 0.073753 0.716325 0.685916
O O1 0.060280 0.711909 0.895826
O O2 0.190375 0.000000 0.075018
O O3 0.238262 0.748230 0.244210
O O4 0.290773 0.720212 0.151480
O O5 0.180356 0.711700 0.492997
O O6 0.988560 0.796874 0.317247
O O7 0.068577 0.000000 0.303911
O O8 0.405357 0.156419 0.836805
O O9 0.346558 0.500000 0.775922
O O10 0.072981 0.500000 0.696347
O O11 0.000000 0.753408 0.500000
#
# Coordination Sequence:
#
# PCOD9175806 Si02
#       5
#     8   8   2   8   8
#     4   9  20  38  63  91 133 174 211 258 318 382
#     4  11  21  37  61  96 134 168 217 263 309 382
#     4  12  26  48  72 100 120 154 226 280 332 388
#     4  11  23  46  71  92 126 171 207 269 336 382
#     4  10  18  33  57  90 130 180 217 249 305 381
#
# _framework density 26.017996
#
# number of rings (size 3 to 8) (size 9 to 14) (size 15 to 20)
#    0.000    1.647    3.529    1.765    0.000    0.471 
#    6.353    1.176    0.000    0.000    0.000    0.000 
#    0.000    0.000    0.000    0.000    0.000    0.000 
#
# Total GULP energy -94974.112642 kJ/mol
# GULP energy per Si atom -5586.712508 kJ/mol
# Density = 2.595878 g / cm^3
# Si number density = 26.017996 Si / 1000 Ang^3
#
#
#
# Elastic Constant Matrix: (Units=GPa)
#
#
# Indices 1 2 3 4 5 6 
#
# 1 113.9032 -7.3310 12.4910 0.0000 22.2730 0.0000
# 2 -7.3310 121.8586 35.5495 0.0000 18.7945 0.0000
# 3 12.4910 35.5495 190.7001 0.0000 19.5622 0.0000
# 4 0.0000 0.0000 0.0000 14.8140 0.0000 8.0617
# 5 22.2730 18.7945 19.5622 0.0000 33.6799 0.0000
# 6 0.0000 0.0000 0.0000 8.0617 0.0000 2.2262
#
#
#
# Elastic Compliance Matrix: (Units=1/GPa)
#
#
# Indices 1 2 3 4 5 6 
#
# 1 0.010463 0.001909 -0.000236 0.000000 -0.007847 0.000000
# 2 0.001909 0.009609 -0.001315 0.000000 -0.005860 0.000000
# 3 -0.000236 -0.001315 0.005756 0.000000 -0.002453 0.000000
# 4 0.000000 0.000000 0.000000 -0.069542 0.000000 0.251834
# 5 -0.007847 -0.005860 -0.002453 0.000000 0.039576 0.000000
# 6 0.000000 0.000000 0.000000 0.251834 0.000000 -0.462767
#
#
# Mechanical properties :
#
#
# Convention : Reuss Voigt Hill
#
# Bulk Modulus (GPa) = 37.67633 56.43123 47.05378
# Shear Modulus (GPa) = -10.89861 35.86085 12.48112
#
# Velocity S-wave (km/s) = -2.04889 3.71659 2.19261
# Velocity P-wave (km/s) = 2.98580 6.33670 4.95322
#
# Compressibility (1/GPa) = 0.02654186
#
# Stress axis : x y z
#
# Youngs Moduli (GPa) = 95.57926 104.07437 173.72846
#
# Poissons Ratio (x) = -0.19863 0.04103
# Poissons Ratio (y) = -0.18242 0.22846
# Poissons Ratio (z) = 0.02257 0.13686
#
# Static dielectric constant tensor:
#      x y z
#    x 2.067580 0.000000 -0.001200 
#    y 0.000000 1.957330 0.000000 
#    z -0.001200 0.000000 2.013770 
# 
# From -- ./inp_files/151256.got.cif
#   From: 2010.05.17/outbox.cif.g08.bks.cpg/sg12_76_cif.got.tgz:151256.got - 2010.06.03 13:09:07.
