data_PCOD9175856
_publ_section_title
;
Structure prediction by ZEFSAII (Michael W. Deem and Ramdas Pophale) SiO2 
 PCOD9175856
Probable space group: C 2/M
;
_chemical_formula_sum "Si O2"
_cell_formula_units_Z 64
_cell_length_a 18.406381
_cell_length_b 14.050456
_cell_length_c 15.992491
_cell_angle_alpha 90.000000
_cell_angle_beta 54.794511
_cell_angle_gamma 90.000000
_cell_volume 3379.439396
_symmetry_space_group_name_H-M "C 2/M"
_symmetry_group_IT_number 12
_symmetry_cell_setting 'monoclinic'
loop_
_space_group_symop_operation_xyz
x,y,z
-x,y,-z
-x,-y,-z
x,-y,z
1/2+x,1/2+y,z
1/2-x,1/2+y,-z
1/2-x,1/2-y,-z
1/2+x,1/2-y,z
loop_
_atom_site_type_symbol
_atom_site_label
_atom_site_fract_x
_atom_site_fract_y
_atom_site_fract_z
Si Si1 0.709908 0.606002 0.333704
Si Si2 0.883336 0.392194 0.105766
Si Si3 0.099726 0.748019 0.621331
Si Si4 0.776728 0.305871 0.589043
Si Si5 0.182007 0.886591 0.808453
Si Si6 0.473487 0.394655 0.615276
Si Si7 0.522459 0.746563 0.848289
Si Si8 0.175959 0.234591 0.978571
O O1 0.695089 0.500000 0.380836
O O2 0.804500 0.607579 0.226968
O O3 0.706637 0.695310 0.396978
O O4 0.632340 0.619661 0.316665
O O5 0.903503 0.500000 0.070811
O O6 0.960935 0.334254 0.100425
O O7 0.842494 0.333644 0.056544
O O8 0.141821 0.672651 0.527802
O O9 0.185353 0.807452 0.597445
O O10 0.052077 0.716287 0.737849
O O11 0.028891 0.814908 0.623712
O O12 0.757123 0.360394 0.688689
O O13 0.092203 0.834116 0.833941
O O14 0.199925 0.839121 0.887507
O O15 0.171902 0.000000 0.820725
O O16 0.500000 0.393425 0.500000
O O17 0.493158 0.500000 0.636206
O O18 0.421623 0.709731 0.919041
O O19 0.250000 0.250000 0.000000
#
# Coordination Sequence:
#
# PCOD9175856 Si02
#       8
#     8   8   8   8   8   8   8   8
#     4  10  18  33  58  86 116 148 187 238 294 347
#     4  10  20  39  63  85 114 152 194 241 291 349
#     4  10  20  33  54  82 122 156 192 237 289 349
#     4  10  19  36  57  85 118 157 203 238 290 355
#     4  10  21  41  63  84 118 161 203 250 301 353
#     4  10  20  31  50  84 118 153 190 234 299 354
#     4  10  22  39  60  89 120 154 202 245 294 360
#     4  11  24  39  61  91 122 151 196 249 303 360
#
# _framework density 18.938051000000002
#
# number of rings (size 3 to 8) (size 9 to 14) (size 15 to 20)
#    0.000    1.875    5.000    1.500    1.750    4.500 
#    0.000    3.750    0.000    0.000    0.000    2.625 
#    0.000    0.000    0.000    0.000    0.000    0.000 
#
# Total GULP energy -178328.334337 kJ/mol
# GULP energy per Si atom -5572.760448 kJ/mol
# Density = 1.889495 g / cm^3
# Si number density = 18.938051 Si / 1000 Ang^3
#
#
#
# Elastic Constant Matrix: (Units=GPa)
#
#
# Indices 1 2 3 4 5 6 
#
# 1 97.5218 36.9041 34.5139 0.0000 9.8085 0.0000
# 2 36.9041 106.8198 30.2128 0.0000 14.4987 0.0000
# 3 34.5139 30.2128 131.1156 0.0000 7.3849 0.0000
# 4 0.0000 0.0000 0.0000 7.9203 0.0000 -8.3242
# 5 9.8085 14.4987 7.3849 0.0000 22.7816 0.0000
# 6 0.0000 0.0000 0.0000 -8.3242 0.0000 5.3004
#
#
#
# Elastic Compliance Matrix: (Units=1/GPa)
#
#
# Indices 1 2 3 4 5 6 
#
# 1 0.012625 -0.003336 -0.002412 0.000000 -0.002531 0.000000
# 2 -0.003336 0.011688 -0.001505 0.000000 -0.005515 0.000000
# 3 -0.002412 -0.001505 0.008654 0.000000 -0.000809 0.000000
# 4 0.000000 0.000000 0.000000 -0.194070 0.000000 -0.304784
# 5 -0.002531 -0.005515 -0.000809 0.000000 0.048757 0.000000
# 6 0.000000 0.000000 0.000000 -0.304784 0.000000 -0.289994
#
#
# Mechanical properties :
#
#
# Convention : Reuss Voigt Hill
#
# Bulk Modulus (GPa) = 54.16564 59.85766 57.01165
# Shear Modulus (GPa) = -13.09990 22.78889 4.84449
#
# Velocity S-wave (km/s) = -2.63292 3.47268 1.60113
# Velocity P-wave (km/s) = 4.40688 6.91050 5.79550
#
# Compressibility (1/GPa) = 0.01846189
#
# Stress axis : x y z
#
# Youngs Moduli (GPa) = 79.21029 85.55727 115.55278
#
# Poissons Ratio (x) = 0.28541 0.27871
# Poissons Ratio (y) = 0.26424 0.17386
# Poissons Ratio (z) = 0.19106 0.12873
#
# Static dielectric constant tensor:
#      x y z
#    x 1.654000 0.000000 -0.035970 
#    y 0.000000 1.648250 0.000000 
#    z -0.035970 0.000000 1.760130 
# 
# From -- ./inp_files/225252.got.cif
#   From: 2010.05.17/outbox.cif.g08.bks.cpg/sg12_113_cif.got.tgz:225252.got - 2010.06.03 13:09:07.
