data_PCOD9175375
_publ_section_title
;
Structure prediction by ZEFSAII (Michael W. Deem and Ramdas Pophale) SiO2 
 PCOD9175375
Probable space group: C 2/M
;
_chemical_formula_sum "Si O2"
_cell_formula_units_Z 64
_cell_length_a 14.390051
_cell_length_b 16.293161
_cell_length_c 24.712914
_cell_angle_alpha 90.000000
_cell_angle_beta 30.470436
_cell_angle_gamma 90.000000
_cell_volume 2938.189880
_symmetry_space_group_name_H-M "C 2/M"
_symmetry_group_IT_number 12
_symmetry_cell_setting 'monoclinic'
loop_
_space_group_symop_operation_xyz
x,y,z
-x,y,-z
-x,-y,-z
x,-y,z
1/2+x,1/2+y,z
1/2-x,1/2+y,-z
1/2-x,1/2-y,-z
1/2+x,1/2-y,z
loop_
_atom_site_type_symbol
_atom_site_label
_atom_site_fract_x
_atom_site_fract_y
_atom_site_fract_z
Si Si1 0.535115 0.664091 0.206139
Si Si2 0.780801 0.908991 0.252881
Si Si3 0.575109 0.173925 0.020425
Si Si4 0.091967 0.871990 0.009346
Si Si5 0.914068 0.094612 0.371974
Si Si6 0.533026 0.814903 0.545703
Si Si7 0.507477 0.850016 0.816253
Si Si8 0.421209 0.623386 0.595438
O O1 0.371752 0.610159 0.264908
O O2 0.548027 0.641800 0.262471
O O3 0.499100 0.759173 0.208519
O O4 0.718565 0.641119 0.082280
O O5 0.611079 0.847755 0.337370
O O6 0.707770 0.000000 0.285294
O O7 0.947572 0.897825 0.127593
O O8 0.480514 0.155075 0.124414
O O9 0.500000 0.146509 0.000000
O O10 0.588403 0.272695 0.012010
O O11 0.309115 0.891825 0.904270
O O12 0.000000 0.900448 0.000000
O O13 0.731490 0.150947 0.462610
O O14 0.002830 0.089807 0.386468
O O15 0.877791 0.000000 0.373077
O O16 0.500000 0.844704 0.500000
O O17 0.491404 0.718317 0.563600
O O18 0.701644 0.885771 0.701523
O O19 0.500000 0.590318 0.500000
#
# Coordination Sequence:
#
# PCOD9175375 Si02
#       8
#     8   8   8   8   8   8   8   8
#     4  11  19  36  60  90 126 162 211 259 313 377
#     4  12  22  36  59  88 128 168 205 259 326 385
#     4  10  18  32  61  90 120 163 214 262 306 371
#     4  10  21  36  58  89 121 162 212 263 317 374
#     4  12  26  42  64  97 134 170 211 265 333 394
#     4  11  22  41  65  96 126 167 218 269 319 375
#     4  11  19  39  64  93 126 166 216 270 317 370
#     4  11  24  43  68  93 127 170 224 274 309 380
#
# _framework density 21.782118000000001
#
# number of rings (size 3 to 8) (size 9 to 14) (size 15 to 20)
#    0.000    1.000    5.000    3.375    0.000    4.000 
#    0.000    0.625    0.000    1.500    0.000    0.000 
#    0.000    0.000    0.000    0.000    0.000    0.000 
#
# Total GULP energy -178518.956190 kJ/mol
# GULP energy per Si atom -5578.717381 kJ/mol
# Density = 2.173254 g / cm^3
# Si number density = 21.782118 Si / 1000 Ang^3
#
#
#
# Elastic Constant Matrix: (Units=GPa)
#
#
# Indices 1 2 3 4 5 6 
#
# 1 84.1735 17.4233 33.9295 -0.0008 15.1464 0.0006
# 2 17.4233 65.6757 40.0706 0.0052 6.6104 -0.0014
# 3 33.9295 40.0706 139.4607 0.0158 6.2795 -0.0022
# 4 -0.0008 0.0052 0.0158 -30.7521 -0.0011 0.5414
# 5 15.1464 6.6104 6.2795 -0.0011 33.2805 -0.0001
# 6 0.0006 -0.0014 -0.0022 0.5414 -0.0001 -6.6154
#
#
#
# Elastic Compliance Matrix: (Units=1/GPa)
#
#
# Indices 1 2 3 4 5 6 
#
# 1 0.014349 -0.001527 -0.002795 -0.000002 -0.005700 0.000003
# 2 -0.001527 0.018867 -0.004954 0.000001 -0.002118 -0.000002
# 3 -0.002795 -0.004954 0.009251 0.000004 0.000511 -0.000002
# 4 -0.000002 0.000001 0.000004 -0.032565 -0.000001 -0.002665
# 5 -0.005700 -0.002118 0.000511 -0.000001 0.032966 -0.000001
# 6 0.000003 -0.000002 -0.000002 -0.002665 -0.000001 -0.151380
#
#
# Mechanical properties :
#
#
# Convention : Reuss Voigt Hill
#
# Bulk Modulus (GPa) = 41.81782 52.46185 47.13984
# Shear Modulus (GPa) = -60.98506 12.37503 -24.30502
#
# Velocity S-wave (km/s) = -5.29703 2.38613 -3.34402
# Velocity P-wave (km/s) = 4.26280 5.63281 2.60357
#
# Compressibility (1/GPa) = 0.02391325
#
# Stress axis : x y z
#
# Youngs Moduli (GPa) = 69.69233 53.00172 108.09612
#
# Poissons Ratio (x) = 0.08095 0.30218
# Poissons Ratio (y) = 0.10645 0.53552
# Poissons Ratio (z) = 0.19482 0.26258
#
# Static dielectric constant tensor:
#      x y z
#    x 1.849470 0.000000 -0.003000 
#    y 0.000000 1.779380 0.000000 
#    z -0.003000 0.000000 1.813810 
# 
# From -- ./inp_files/340802.got.cif
#   From: 2010.05.17/outbox.cif.g08.bks.cpg/sg12_171_cif.got.tgz:340802.got - 2010.06.03 13:09:07.
