data_PCOD9175712
_publ_section_title
;
Structure prediction by ZEFSAII (Michael W. Deem and Ramdas Pophale) SiO2 
 PCOD9175712
Probable space group: C 2/M
;
_chemical_formula_sum "Si O2"
_cell_formula_units_Z 44
_cell_length_a 8.140315
_cell_length_b 20.455715
_cell_length_c 14.626874
_cell_angle_alpha 90.000000
_cell_angle_beta 109.833123
_cell_angle_gamma 90.000000
_cell_volume 2291.139407
_symmetry_space_group_name_H-M "C 2/M"
_symmetry_group_IT_number 12
_symmetry_cell_setting 'monoclinic'
loop_
_space_group_symop_operation_xyz
x,y,z
-x,y,-z
-x,-y,-z
x,-y,z
1/2+x,1/2+y,z
1/2-x,1/2+y,-z
1/2-x,1/2-y,-z
1/2+x,1/2-y,z
loop_
_atom_site_type_symbol
_atom_site_label
_atom_site_fract_x
_atom_site_fract_y
_atom_site_fract_z
Si Si1 0.557511 0.773900 0.666646
Si Si2 0.356442 0.303820 0.139607
Si Si3 0.806506 0.152626 0.389418
Si Si4 0.525615 0.572614 0.732703
Si Si5 0.500000 0.219488 0.000000
Si Si6 0.692649 0.889995 0.564862
O O1 0.646666 0.747754 0.776306
O O2 0.374566 0.807345 0.658110
O O3 0.548142 0.707416 0.606337
O O4 0.651972 0.825446 0.618051
O O5 0.456660 0.368496 0.191466
O O6 0.161728 0.320940 0.070044
O O7 0.440905 0.266265 0.071163
O O8 0.842971 0.095662 0.323517
O O9 0.787137 0.124234 0.486569
O O10 0.567539 0.500000 0.774135
O O11 0.331653 0.572062 0.652554
O O12 0.500000 0.916627 0.500000
#
# Coordination Sequence:
#
# PCOD9175712 Si02
#       6
#     8   8   8   8   4   8
#     4  10  18  33  56  84 115 139 177 232 284 327
#     4  10  20  36  58  86 108 137 171 223 290 339
#     4  10  20  32  53  82 112 149 187 227 268 312
#     4  11  23  39  55  74 111 156 193 223 262 323
#     4  10  20  36  64  88 108 122 166 234 294 350
#     4  10  21  34  53  82 113 148 190 232 270 309
#
# _framework density 19.204419000000001
#
# number of rings (size 3 to 8) (size 9 to 14) (size 15 to 20)
#    0.000    1.818    0.000    6.545    0.000    7.636 
#    0.000    3.636    0.000    0.000    0.000    0.000 
#    0.000    0.000    0.000    0.000    0.000    0.000 
#
# Total GULP energy -122666.982277 kJ/mol
# GULP energy per Si atom -5575.771922 kJ/mol
# Density = 1.916071 g / cm^3
# Si number density = 19.204419 Si / 1000 Ang^3
#
#
#
# Elastic Constant Matrix: (Units=GPa)
#
#
# Indices 1 2 3 4 5 6 
#
# 1 50.6307 -1.0552 14.8496 0.0000 5.3404 0.0000
# 2 -1.0552 71.9080 17.2638 0.0000 7.7679 0.0000
# 3 14.8496 17.2638 102.6217 0.0000 7.2127 0.0000
# 4 0.0000 0.0000 0.0000 3.3308 0.0000 6.5399
# 5 5.3404 7.7679 7.2127 0.0000 48.1749 0.0000
# 6 0.0000 0.0000 0.0000 6.5399 0.0000 10.5602
#
#
#
# Elastic Compliance Matrix: (Units=1/GPa)
#
#
# Indices 1 2 3 4 5 6 
#
# 1 0.020902 0.001272 -0.003094 0.000000 -0.002059 0.000000
# 2 0.001272 0.014761 -0.002517 0.000000 -0.002144 0.000000
# 3 -0.003094 -0.002517 0.010675 0.000000 -0.000850 0.000000
# 4 0.000000 0.000000 0.000000 -1.390338 0.000000 0.861025
# 5 -0.002059 -0.002144 -0.000850 0.000000 0.021459 0.000000
# 6 0.000000 0.000000 0.000000 0.861025 0.000000 -0.438531
#
#
# Mechanical properties :
#
#
# Convention : Reuss Voigt Hill
#
# Bulk Modulus (GPa) = 26.55239 31.91964 29.23602
# Shear Modulus (GPa) = -2.87383 25.35334 11.23976
#
# Velocity S-wave (km/s) = -1.22462 3.63737 2.42186
# Velocity P-wave (km/s) = 3.44334 5.85643 4.80387
#
# Compressibility (1/GPa) = 0.03766139
#
# Stress axis : x y z
#
# Youngs Moduli (GPa) = 47.84250 67.74539 93.67442
#
# Poissons Ratio (x) = -0.08616 0.28981
# Poissons Ratio (y) = -0.06085 0.23574
# Poissons Ratio (z) = 0.14802 0.17049
#
# Static dielectric constant tensor:
#      x y z
#    x 1.739040 0.000000 0.043860 
#    y 0.000000 1.638600 0.000000 
#    z 0.043860 0.000000 1.705890 
# 
# From -- ./inp_files/197253.got.cif
#   From: 2010.05.17/outbox.cif.g08.bks.cpg/sg12_99_cif.got.tgz:197253.got - 2010.06.03 13:09:07.
