data_PCOD9175022
_publ_section_title
;
Structure prediction by ZEFSAII (Michael W. Deem and Ramdas Pophale) SiO2 
 PCOD9175022
Probable space group: C 2/M
;
_chemical_formula_sum "Si O2"
_cell_formula_units_Z 56
_cell_length_a 8.728772
_cell_length_b 22.878106
_cell_length_c 15.724277
_cell_angle_alpha 90.000000
_cell_angle_beta 71.975953
_cell_angle_gamma 90.000000
_cell_volume 2986.007969
_symmetry_space_group_name_H-M "C 2/M"
_symmetry_group_IT_number 12
_symmetry_cell_setting 'monoclinic'
loop_
_space_group_symop_operation_xyz
x,y,z
-x,y,-z
-x,-y,-z
x,-y,z
1/2+x,1/2+y,z
1/2-x,1/2+y,-z
1/2-x,1/2-y,-z
1/2+x,1/2-y,z
loop_
_atom_site_type_symbol
_atom_site_label
_atom_site_fract_x
_atom_site_fract_y
_atom_site_fract_z
Si Si1 0.323772 0.566390 0.575322
Si Si2 0.821126 0.816137 0.491553
Si Si3 0.107005 0.828797 0.712064
Si Si4 0.108699 0.065607 0.234941
Si Si5 0.965663 0.437275 0.106136
Si Si6 0.303669 0.251853 0.796529
Si Si7 0.016919 0.687076 0.098778
O O1 0.500000 0.565524 0.500000
O O2 0.254633 0.500000 0.571476
O O3 0.245954 0.627925 0.556049
O O4 0.347238 0.572012 0.672671
O O5 0.750000 0.750000 0.500000
O O6 0.828869 0.838017 0.393290
O O7 0.000000 0.809283 0.500000
O O8 0.240599 0.800643 0.749261
O O9 0.023680 0.886369 0.763652
O O10 0.958790 0.782880 0.730481
O O11 0.275239 0.071362 0.154838
O O12 0.047156 0.000000 0.232682
O O13 0.010492 0.500000 0.137221
O O14 0.053876 0.379061 0.120500
O O15 0.000000 0.440144 0.000000
O O16 0.354601 0.229680 0.880958
O O17 0.154993 0.295551 0.832045
O O18 0.000000 0.690886 0.000000
#
# Coordination Sequence:
#
# PCOD9175022 Si02
#       7
#     8   8   8   8   8   8   8
#     4   9  17  30  50  77 103 137 188 229 263 318
#     4  11  21  33  52  78 109 143 181 225 275 325
#     4  11  20  35  50  78 109 141 179 224 272 324
#     4  10  18  32  55  78 105 144 182 229 273 318
#     4   9  18  32  54  80 105 136 179 221 268 327
#     4  10  22  33  52  77 109 141 176 222 275 324
#     4  10  19  35  55  77 104 140 180 223 268 325
#
# _framework density 18.754137
#
# number of rings (size 3 to 8) (size 9 to 14) (size 15 to 20)
#    0.000    2.000    4.286    1.286    0.000    0.000 
#    0.000    0.714    0.000    0.429    0.000    6.000 
#    0.000    0.000    0.000    0.000    0.000    0.000 
#
# Total GULP energy -155897.372449 kJ/mol
# GULP energy per Si atom -5567.763302 kJ/mol
# Density = 1.871145 g / cm^3
# Si number density = 18.754137 Si / 1000 Ang^3
#
#
#
# Elastic Constant Matrix: (Units=GPa)
#
#
# Indices 1 2 3 4 5 6 
#
# 1 34.4869 20.1097 14.6836 0.0000 7.2683 0.0000
# 2 20.1097 140.5041 6.1017 0.0000 4.6960 0.0000
# 3 14.6836 6.1017 35.0761 0.0000 2.9908 0.0000
# 4 0.0000 0.0000 0.0000 24.5554 0.0000 3.8157
# 5 7.2683 4.6960 2.9908 0.0000 18.0755 0.0000
# 6 0.0000 0.0000 0.0000 3.8157 0.0000 23.7338
#
#
#
# Elastic Compliance Matrix: (Units=1/GPa)
#
#
# Indices 1 2 3 4 5 6 
#
# 1 0.040940 -0.004774 -0.015225 0.000000 -0.012703 0.000000
# 2 -0.004774 0.007779 0.000663 0.000000 -0.000211 0.000000
# 3 -0.015225 0.000663 0.034750 0.000000 0.000200 0.000000
# 4 0.000000 0.000000 0.000000 0.041768 0.000000 -0.006715
# 5 -0.012703 -0.000211 0.000200 0.000000 0.060453 0.000000
# 6 0.000000 0.000000 0.000000 -0.006715 0.000000 0.043214
#
#
# Mechanical properties :
#
#
# Convention : Reuss Voigt Hill
#
# Bulk Modulus (GPa) = 22.32223 32.42857 27.37540
# Shear Modulus (GPa) = 17.69873 24.55108 21.12490
#
# Velocity S-wave (km/s) = 3.07534 3.62208 3.35985
# Velocity P-wave (km/s) = 4.95366 5.90098 5.44795
#
# Compressibility (1/GPa) = 0.04479839
#
# Stress axis : x y z
#
# Youngs Moduli (GPa) = 24.42625 128.55579 28.77671
#
# Poissons Ratio (x) = 0.61369 0.43811
# Poissons Ratio (y) = 0.11660 -0.01909
# Poissons Ratio (z) = 0.37188 -0.08526
#
# Static dielectric constant tensor:
#      x y z
#    x 1.603630 0.000000 -0.020450 
#    y 0.000000 1.739440 0.000000 
#    z -0.020450 0.000000 1.673730 
# 
# From -- ./inp_files/198345.got.cif
#   From: 2010.05.17/outbox.cif.g08.bks.cpg/sg12_100_cif.got.tgz:198345.got - 2010.06.03 13:09:07.
