data_PCOD9175524
_publ_section_title
;
Structure prediction by ZEFSAII (Michael W. Deem and Ramdas Pophale) SiO2 
 PCOD9175524
Probable space group: C 2/M
;
_chemical_formula_sum "Si O2"
_cell_formula_units_Z 64
_cell_length_a 23.703802
_cell_length_b 7.939463
_cell_length_c 18.289301
_cell_angle_alpha 90.000000
_cell_angle_beta 82.571024
_cell_angle_gamma 90.000000
_cell_volume 3413.071211
_symmetry_space_group_name_H-M "C 2/M"
_symmetry_group_IT_number 12
_symmetry_cell_setting 'monoclinic'
loop_
_space_group_symop_operation_xyz
x,y,z
-x,y,-z
-x,-y,-z
x,-y,z
1/2+x,1/2+y,z
1/2-x,1/2+y,-z
1/2-x,1/2-y,-z
1/2+x,1/2-y,z
loop_
_atom_site_type_symbol
_atom_site_label
_atom_site_fract_x
_atom_site_fract_y
_atom_site_fract_z
Si Si1 0.319662 0.205171 0.051482
Si Si2 0.630774 0.194947 0.395969
Si Si3 0.310249 0.196556 0.896038
Si Si4 0.812954 0.808901 0.468233
Si Si5 0.900087 0.696750 0.337609
Si Si6 0.995367 0.705199 0.585116
Si Si7 0.711697 0.304300 0.256481
Si Si8 0.841485 0.294165 0.205471
O O1 0.256889 0.280183 0.075242
O O2 0.353645 0.252200 0.119154
O O3 0.313994 0.000000 0.051271
O O4 0.339453 0.255758 0.966882
O O5 0.650179 0.294296 0.464213
O O6 0.568370 0.248149 0.379303
O O7 0.676816 0.211698 0.324706
O O8 0.626634 0.000000 0.420251
O O9 0.318346 0.287218 0.817590
O O10 0.322937 0.000000 0.882939
O O11 0.750000 0.750000 0.500000
O O12 0.845081 0.708344 0.399413
O O13 0.809740 0.000000 0.443266
O O14 0.912925 0.500000 0.323517
O O15 0.953671 0.770556 0.372727
O O16 0.883322 0.768950 0.261475
O O17 0.000301 0.500000 0.583536
O O18 0.000000 0.760405 0.500000
O O19 0.714221 0.500000 0.276801
O O20 0.776614 0.242360 0.235848
O O21 0.841136 0.500000 0.207667
#
# Coordination Sequence:
#
# PCOD9175524 Si02
#       8
#     8   8   8   8   8   8   8   8
#     4   8  14  25  40  63  95 126 158 196 235 281
#     4  11  21  35  53  72  95 125 163 203 245 294
#     4   9  15  24  41  64  92 128 162 191 233 288
#     4  12  24  36  50  71  98 129 162 197 241 290
#     4  10  18  33  54  72  94 127 163 199 243 294
#     4   9  17  32  53  74  94 120 158 204 250 291
#     4  10  19  31  45  68 101 129 159 200 243 289
#     4   8  15  27  46  69  94 124 155 191 236 284
#
# _framework density 18.751442000000001
#
# number of rings (size 3 to 8) (size 9 to 14) (size 15 to 20)
#    0.000    2.375    1.250    3.750    0.000    1.500 
#    0.000    4.375    0.000    0.000    0.000    0.875 
#    0.000    7.000    0.000    0.000    0.000    0.000 
#
# Total GULP energy -178347.361203 kJ/mol
# GULP energy per Si atom -5573.355038 kJ/mol
# Density = 1.870876 g / cm^3
# Si number density = 18.751442 Si / 1000 Ang^3
#
#
#
# Elastic Constant Matrix: (Units=GPa)
#
#
# Indices 1 2 3 4 5 6 
#
# 1 60.2294 4.4700 18.9518 0.0000 29.9492 0.0000
# 2 4.4700 23.4841 -4.2741 0.0000 1.7036 0.0000
# 3 18.9518 -4.2741 94.2018 0.0000 40.2731 0.0000
# 4 0.0000 0.0000 0.0000 18.9378 0.0000 -1.1194
# 5 29.9492 1.7036 40.2731 0.0000 28.1827 0.0000
# 6 0.0000 0.0000 0.0000 -1.1194 0.0000 9.2443
#
#
#
# Elastic Compliance Matrix: (Units=1/GPa)
#
#
# Indices 1 2 3 4 5 6 
#
# 1 0.078383 0.006033 0.052100 0.000000 -0.158111 0.000000
# 2 0.006033 0.045604 0.012272 0.000000 -0.026704 0.000000
# 3 0.052100 0.012272 0.063426 0.000000 -0.146743 0.000000
# 4 0.000000 0.000000 0.000000 0.053185 0.000000 0.006441
# 5 -0.158111 -0.026704 -0.146743 0.000000 0.414814 0.000000
# 6 0.000000 0.000000 0.000000 0.006441 0.000000 0.108955
#
#
# Mechanical properties :
#
#
# Convention : Reuss Voigt Hill
#
# Bulk Modulus (GPa) = 3.04672 24.02341 13.53506
# Shear Modulus (GPa) = 6.82161 21.85748 14.33954
#
# Velocity S-wave (km/s) = 1.90940 3.41785 2.76835
# Velocity P-wave (km/s) = 2.54743 5.33057 4.17758
#
# Compressibility (1/GPa) = 0.32822219
#
# Stress axis : x y z
#
# Youngs Moduli (GPa) = 12.75794 21.92768 15.76637
#
# Poissons Ratio (x) = -0.13228 -0.82142
# Poissons Ratio (y) = -0.07696 -0.19349
# Poissons Ratio (z) = -0.66469 -0.26910
#
# Static dielectric constant tensor:
#      x y z
#    x 1.653000 0.000000 0.032480 
#    y 0.000000 1.696790 0.000000 
#    z 0.032480 0.000000 1.696450 
# 
# From -- ./inp_files/287622.got.cif
#   From: 2010.05.17/outbox.cif.g08.bks.cpg/sg12_144_cif.got.tgz:287622.got - 2010.06.03 13:09:07.
