data_PCOD9175575
_publ_section_title
;
Structure prediction by ZEFSAII (Michael W. Deem and Ramdas Pophale) SiO2 
 PCOD9175575
Probable space group: C 2/M
;
_chemical_formula_sum "Si O2"
_cell_formula_units_Z 56
_cell_length_a 9.055469
_cell_length_b 21.799143
_cell_length_c 15.107151
_cell_angle_alpha 90.000000
_cell_angle_beta 78.564059
_cell_angle_gamma 90.000000
_cell_volume 2922.968605
_symmetry_space_group_name_H-M "C 2/M"
_symmetry_group_IT_number 12
_symmetry_cell_setting 'monoclinic'
loop_
_space_group_symop_operation_xyz
x,y,z
-x,y,-z
-x,-y,-z
x,-y,z
1/2+x,1/2+y,z
1/2-x,1/2+y,-z
1/2-x,1/2-y,-z
1/2+x,1/2-y,z
loop_
_atom_site_type_symbol
_atom_site_label
_atom_site_fract_x
_atom_site_fract_y
_atom_site_fract_z
Si Si1 0.136266 0.760805 0.148664
Si Si2 0.645897 0.705839 0.434724
Si Si3 0.584046 0.122946 0.578605
Si Si4 0.792413 0.315353 0.691979
Si Si5 0.306854 0.931102 0.252039
Si Si6 0.583227 0.163971 0.908511
Si Si7 0.509592 0.365605 0.289879
O O1 0.209734 0.713364 0.210014
O O2 0.260457 0.802348 0.085657
O O3 0.026308 0.719603 0.104907
O O4 0.046858 0.810006 0.218636
O O5 0.500000 0.733844 0.500000
O O6 0.774233 0.665715 0.467204
O O7 0.735590 0.757009 0.368665
O O8 0.562852 0.659650 0.377948
O O9 0.500000 0.098411 0.500000
O O10 0.457320 0.161611 0.646010
O O11 0.648796 0.080091 0.649986
O O12 0.669932 0.368889 0.693436
O O13 0.384049 0.880363 0.178928
O O14 0.126877 0.920165 0.259433
O O15 0.348748 0.000000 0.222288
O O16 0.500000 0.131339 0.000000
#
# Coordination Sequence:
#
# PCOD9175575 Si02
#       7
#     8   8   8   8   8   8   8
#     4  10  18  33  54  88 123 148 175 225 288 352
#     4  10  19  30  47  82 121 152 183 221 282 348
#     4  11  22  34  55  83 113 152 198 241 281 325
#     4  11  18  31  53  80 120 151 185 228 284 343
#     4  10  23  43  59  77 110 154 202 242 280 335
#     4  11  21  36  61  91 119 151 184 230 290 347
#     4   9  19  32  55  76 110 154 184 227 282 342
#
# _framework density 19.158605000000001
#
# number of rings (size 3 to 8) (size 9 to 14) (size 15 to 20)
#    0.000    1.714    2.857    4.286    0.000    2.286 
#    0.000    0.714    0.000   14.571    0.000    1.000 
#    0.000    0.000    0.000    0.000    0.000    0.000 
#
# Total GULP energy -156003.425462 kJ/mol
# GULP energy per Si atom -5571.550909 kJ/mol
# Density = 1.911500 g / cm^3
# Si number density = 19.158605 Si / 1000 Ang^3
#
#
#
# Elastic Constant Matrix: (Units=GPa)
#
#
# Indices 1 2 3 4 5 6 
#
# 1 102.5785 16.6917 17.6595 0.0000 -9.4729 0.0000
# 2 16.6917 40.9410 -10.6657 0.0000 10.0141 0.0000
# 3 17.6595 -10.6657 24.5947 0.0000 -0.1611 0.0000
# 4 0.0000 0.0000 0.0000 7.1761 0.0000 1.8269
# 5 -9.4729 10.0141 -0.1611 0.0000 16.9563 0.0000
# 6 0.0000 0.0000 0.0000 1.8269 0.0000 11.2269
#
#
#
# Elastic Compliance Matrix: (Units=1/GPa)
#
#
# Indices 1 2 3 4 5 6 
#
# 1 0.018009 -0.017627 -0.020442 0.000000 0.020277 0.000000
# 2 -0.017627 0.050059 0.034109 0.000000 -0.039088 0.000000
# 3 -0.020442 0.034109 0.069927 0.000000 -0.030901 0.000000
# 4 0.000000 0.000000 0.000000 0.145374 0.000000 -0.023656
# 5 0.020277 -0.039088 -0.030901 0.000000 0.093095 0.000000
# 6 0.000000 0.000000 0.000000 -0.023656 0.000000 0.092921
#
#
# Mechanical properties :
#
#
# Convention : Reuss Voigt Hill
#
# Bulk Modulus (GPa) = 7.68794 23.94280 15.81537
# Shear Modulus (GPa) = 9.60316 16.70044 13.15180
#
# Velocity S-wave (km/s) = 2.24128 2.95565 2.62290
# Velocity P-wave (km/s) = 3.27403 4.91651 4.17680
#
# Compressibility (1/GPa) = 0.13007389
#
# Stress axis : x y z
#
# Youngs Moduli (GPa) = 55.52837 19.97644 14.30070
#
# Poissons Ratio (x) = 0.35213 0.29234
# Poissons Ratio (y) = 0.97883 -0.48779
# Poissons Ratio (z) = 1.13512 -0.68139
#
# Static dielectric constant tensor:
#      x y z
#    x 1.727890 0.000000 -0.019310 
#    y 0.000000 1.644010 0.000000 
#    z -0.019310 0.000000 1.745660 
# 
# From -- ./inp_files/197498.got.cif
#   From: 2010.05.17/outbox.cif.g08.bks.cpg/sg12_99_cif.got.tgz:197498.got - 2010.06.03 13:09:07.
