data_PCOD9175891
_publ_section_title
;
Structure prediction by ZEFSAII (Michael W. Deem and Ramdas Pophale) SiO2 
 PCOD9175891
Probable space group: C 2/M
;
_chemical_formula_sum "Si O2"
_cell_formula_units_Z 56
_cell_length_a 30.912207
_cell_length_b 8.148700
_cell_length_c 11.867346
_cell_angle_alpha 90.000000
_cell_angle_beta 65.638770
_cell_angle_gamma 90.000000
_cell_volume 2723.156981
_symmetry_space_group_name_H-M "C 2/M"
_symmetry_group_IT_number 12
_symmetry_cell_setting 'monoclinic'
loop_
_space_group_symop_operation_xyz
x,y,z
-x,y,-z
-x,-y,-z
x,-y,z
1/2+x,1/2+y,z
1/2-x,1/2+y,-z
1/2-x,1/2-y,-z
1/2+x,1/2-y,z
loop_
_atom_site_type_symbol
_atom_site_label
_atom_site_fract_x
_atom_site_fract_y
_atom_site_fract_z
Si Si1 0.015486 0.305377 0.363276
Si Si2 0.444170 0.197575 0.066719
Si Si3 0.898796 0.700956 0.876766
Si Si4 0.679083 0.301274 0.520839
Si Si5 0.728686 0.304598 0.698512
Si Si6 0.575130 0.692669 0.669166
Si Si7 0.794479 0.694667 0.025646
O O1 0.023129 0.500000 0.370182
O O2 0.063715 0.238763 0.256352
O O3 0.000000 0.233807 0.500000
O O4 0.971482 0.281901 0.326189
O O5 0.422077 0.280500 0.199969
O O6 0.440422 0.000000 0.083345
O O7 0.500000 0.238557 0.000000
O O8 0.418790 0.245689 0.978424
O O9 0.899155 0.500000 0.872531
O O10 0.844864 0.760045 0.925599
O O11 0.679439 0.500000 0.521185
O O12 0.698305 0.244232 0.623045
O O13 0.716977 0.241836 0.388690
O O14 0.624812 0.247294 0.563205
O O15 0.724637 0.500000 0.705957
O O16 0.712057 0.238533 0.836190
O O17 0.569838 0.500000 0.650848
O O18 0.796862 0.500000 0.015298
O O19 0.750000 0.750000 0.000000
#
# Coordination Sequence:
#
# PCOD9175891 Si02
#       7
#     8   8   8   8   8   8   8
#     4  10  21  39  60  80 108 149 196 237 275 329
#     4  10  18  33  59  84 114 148 187 234 278 333
#     4   9  19  37  59  85 113 147 189 237 284 334
#     4   9  20  37  57  84 120 153 182 228 289 350
#     4  10  20  37  60  85 113 147 193 240 286 341
#     4  11  22  35  54  85 121 150 183 228 284 345
#     4  11  23  39  59  82 115 154 197 243 290 341
#
# _framework density 20.564368999999999
#
# number of rings (size 3 to 8) (size 9 to 14) (size 15 to 20)
#    0.000    2.000    1.429    2.143    0.000    3.429 
#    0.000    3.571    0.000    0.000    0.000    0.000 
#    0.000    0.000    0.000    0.000    0.000    0.000 
#
# Total GULP energy -156403.078130 kJ/mol
# GULP energy per Si atom -5585.824219 kJ/mol
# Density = 2.051756 g / cm^3
# Si number density = 20.564369 Si / 1000 Ang^3
#
#
#
# Elastic Constant Matrix: (Units=GPa)
#
#
# Indices 1 2 3 4 5 6 
#
# 1 113.0535 5.6191 67.1247 0.0000 -32.4055 0.0000
# 2 5.6191 10.0204 5.2228 0.0000 -2.8830 0.0000
# 3 67.1247 5.2228 139.1676 0.0000 -20.2665 0.0000
# 4 0.0000 0.0000 0.0000 22.3819 0.0000 -2.1170
# 5 -32.4055 -2.8830 -20.2665 0.0000 34.9498 0.0000
# 6 0.0000 0.0000 0.0000 -2.1170 0.0000 9.3318
#
#
#
# Elastic Compliance Matrix: (Units=1/GPa)
#
#
# Indices 1 2 3 4 5 6 
#
# 1 0.015526 -0.002564 -0.005818 0.000000 0.010810 0.000000
# 2 -0.002564 0.103690 -0.001917 0.000000 0.005064 0.000000
# 3 -0.005818 -0.001917 0.010109 0.000000 0.000309 0.000000
# 4 0.000000 0.000000 0.000000 0.045659 0.000000 0.010358
# 5 0.010810 0.005064 0.000309 0.000000 0.039233 0.000000
# 6 0.000000 0.000000 0.000000 0.010358 0.000000 0.109510
#
#
# Mechanical properties :
#
#
# Convention : Reuss Voigt Hill
#
# Bulk Modulus (GPa) = 9.19735 46.46385 27.83060
# Shear Modulus (GPa) = 13.13827 25.61768 19.37797
#
# Velocity S-wave (km/s) = 2.53036 3.53332 3.07303
# Velocity P-wave (km/s) = 3.60820 6.26811 5.11412
#
# Compressibility (1/GPa) = 0.10872691
#
# Stress axis : x y z
#
# Youngs Moduli (GPa) = 64.40830 9.64409 98.92364
#
# Poissons Ratio (x) = 0.02472 0.57555
# Poissons Ratio (y) = 0.16512 0.18967
# Poissons Ratio (z) = 0.37474 0.01849
#
# Static dielectric constant tensor:
#      x y z
#    x 1.791220 0.000000 -0.021660 
#    y 0.000000 1.722360 0.000000 
#    z -0.021660 0.000000 1.731520 
# 
# From -- ./inp_files/187225.got.cif
#   From: 2010.05.17/outbox.cif.g08.bks.cpg/sg12_94_cif.got.tgz:187225.got - 2010.06.03 13:09:07.
