data_PCOD9175994
_publ_section_title
;
Structure prediction by ZEFSAII (Michael W. Deem and Ramdas Pophale) SiO2 
 PCOD9175994
Probable space group: C 2/M
;
_chemical_formula_sum "Si O2"
_cell_formula_units_Z 44
_cell_length_a 22.274518
_cell_length_b 7.768337
_cell_length_c 16.754971
_cell_angle_alpha 90.000000
_cell_angle_beta 127.130476
_cell_angle_gamma 90.000000
_cell_volume 2311.434781
_symmetry_space_group_name_H-M "C 2/M"
_symmetry_group_IT_number 12
_symmetry_cell_setting 'monoclinic'
loop_
_space_group_symop_operation_xyz
x,y,z
-x,y,-z
-x,-y,-z
x,-y,z
1/2+x,1/2+y,z
1/2-x,1/2+y,-z
1/2-x,1/2-y,-z
1/2+x,1/2-y,z
loop_
_atom_site_type_symbol
_atom_site_label
_atom_site_fract_x
_atom_site_fract_y
_atom_site_fract_z
Si Si1 0.353726 0.800624 0.152641
Si Si2 0.138655 0.000000 0.962674
Si Si3 0.541861 0.500000 0.191521
Si Si4 0.828584 0.000000 0.825734
Si Si5 0.718852 0.305652 0.737186
Si Si6 0.534997 0.800755 0.306786
Si Si7 0.922202 0.707674 0.479637
O O1 0.337466 0.668562 0.068126
O O2 0.312193 0.744808 0.200032
O O3 0.443896 0.788523 0.241478
O O4 0.336759 0.000000 0.120148
O O5 0.047664 0.000000 0.894206
O O6 0.166701 0.000000 0.074923
O O7 0.590744 0.500000 0.151259
O O8 0.559212 0.668116 0.258575
O O9 0.781613 0.831821 0.763813
O O10 0.747450 0.500000 0.761768
O O11 0.648598 0.289678 0.620794
O O12 0.570634 0.756000 0.420858
O O13 0.552370 0.000000 0.301930
O O14 0.916141 0.500000 0.464821
O O15 0.000000 0.761659 0.500000
#
# Coordination Sequence:
#
# PCOD9175994 Si02
#       7
#     8   4   4   4   8   8   8
#     4  10  18  37  61  95 128 146 189 250 311 367
#     4  10  23  42  69  91 109 154 211 262 309 357
#     4  10  23  44  66  87 112 160 217 255 296 355
#     4  12  27  46  59  81 128 167 203 256 302 359
#     4  12  24  38  59  91 131 168 195 239 304 375
#     4   9  19  34  63  95 120 154 197 255 298 345
#     4  10  18  33  62  95 129 161 194 242 306 360
#
# _framework density 19.035796000000001
#
# number of rings (size 3 to 8) (size 9 to 14) (size 15 to 20)
#    0.000    1.636    4.545    0.273    1.273    2.545 
#    0.000    0.909    0.000    5.455    0.000    0.000 
#    0.000    0.000    0.000    0.000    0.000    0.000 
#
# Total GULP energy -122987.307563 kJ/mol
# GULP energy per Si atom -5590.332162 kJ/mol
# Density = 1.899247 g / cm^3
# Si number density = 19.035796 Si / 1000 Ang^3
#
#
#
# Elastic Constant Matrix: (Units=GPa)
#
#
# Indices 1 2 3 4 5 6 
#
# 1 53.0388 28.9165 14.1274 0.0000 0.6312 0.0000
# 2 28.9165 123.5189 38.2099 0.0000 1.3021 0.0000
# 3 14.1274 38.2099 79.3021 0.0000 0.4450 0.0000
# 4 0.0000 0.0000 0.0000 21.7218 0.0000 -9.2693
# 5 0.6312 1.3021 0.4450 0.0000 15.2301 0.0000
# 6 0.0000 0.0000 0.0000 -9.2693 0.0000 0.5839
#
#
#
# Elastic Compliance Matrix: (Units=1/GPa)
#
#
# Indices 1 2 3 4 5 6 
#
# 1 0.021803 -0.004582 -0.001674 0.000000 -0.000463 0.000000
# 2 -0.004582 0.010484 -0.004232 0.000000 -0.000583 0.000000
# 3 -0.001674 -0.004232 0.014947 0.000000 -0.000006 0.000000
# 4 0.000000 0.000000 0.000000 -0.007972 0.000000 -0.126565
# 5 -0.000463 -0.000583 -0.000006 0.000000 0.065729 0.000000
# 6 0.000000 0.000000 0.000000 -0.126565 0.000000 -0.296595
#
#
# Mechanical properties :
#
#
# Convention : Reuss Voigt Hill
#
# Bulk Modulus (GPa) = 38.08161 46.48526 42.28344
# Shear Modulus (GPa) = -30.88788 19.14754 -5.87017
#
# Velocity S-wave (km/s) = -4.03255 3.17499 -1.75797
# Velocity P-wave (km/s) = 1.27797 6.15741 4.25913
#
# Compressibility (1/GPa) = 0.02625939
#
# Stress axis : x y z
#
# Youngs Moduli (GPa) = 45.86439 95.38565 66.90164
#
# Poissons Ratio (x) = 0.43702 0.11200
# Poissons Ratio (y) = 0.21013 0.28312
# Poissons Ratio (z) = 0.07678 0.40366
#
# Static dielectric constant tensor:
#      x y z
#    x 1.617760 0.000000 0.018160 
#    y 0.000000 1.669320 0.000000 
#    z 0.018160 0.000000 1.647760 
# 
# From -- ./inp_files/230582.got.cif
#   From: 2010.05.17/outbox.cif.g08.bks.cpg/sg12_116_cif.got.tgz:230582.got - 2010.06.03 13:09:07.
