data_PCOD9175203
_publ_section_title
;
Structure prediction by ZEFSAII (Michael W. Deem and Ramdas Pophale) SiO2 
 PCOD9175203
Probable space group: C 2/M
;
_chemical_formula_sum "Si O2"
_cell_formula_units_Z 48
_cell_length_a 16.135086
_cell_length_b 23.244505
_cell_length_c 6.922376
_cell_angle_alpha 90.000000
_cell_angle_beta 118.953546
_cell_angle_gamma 90.000000
_cell_volume 2271.752552
_symmetry_space_group_name_H-M "C 2/M"
_symmetry_group_IT_number 12
_symmetry_cell_setting 'monoclinic'
loop_
_space_group_symop_operation_xyz
x,y,z
-x,y,-z
-x,-y,-z
x,-y,z
1/2+x,1/2+y,z
1/2-x,1/2+y,-z
1/2-x,1/2-y,-z
1/2+x,1/2-y,z
loop_
_atom_site_type_symbol
_atom_site_label
_atom_site_fract_x
_atom_site_fract_y
_atom_site_fract_z
Si Si1 0.219949 0.153440 0.673525
Si Si2 0.745360 0.316179 0.128199
Si Si3 0.602457 0.175502 0.411513
Si Si4 0.514145 0.936538 0.785847
Si Si5 0.418372 0.706127 0.775951
Si Si6 0.240158 0.564718 0.986014
O O1 0.232098 0.191053 0.884418
O O2 0.309398 0.162673 0.634147
O O3 0.126021 0.170456 0.451290
O O4 0.223099 0.089443 0.767000
O O5 0.849377 0.307434 0.331713
O O6 0.669365 0.286169 0.177006
O O7 0.729247 0.385979 0.129416
O O8 0.541582 0.118154 0.355302
O O9 0.550597 0.231490 0.268599
O O10 0.478413 0.000000 0.683605
O O11 0.500000 0.933799 0.000000
O O12 0.625734 0.933183 0.868529
O O13 0.500000 0.679516 0.000000
O O14 0.269676 0.500000 0.978859
#
# Coordination Sequence:
#
# PCOD9175203 Si02
#       6
#     8   8   8   8   8   8
#     4   9  20  39  59  81 121 155 198 240 295 350
#     4   9  21  39  58  82 118 157 196 243 294 346
#     4  11  21  36  57  88 121 162 195 232 289 361
#     4  10  18  32  56  90 126 158 191 231 284 358
#     4  11  24  38  59  85 115 154 205 255 295 346
#     4   9  19  37  62  87 119 160 198 237 295 357
#
# _framework density 21.129061
#
# number of rings (size 3 to 8) (size 9 to 14) (size 15 to 20)
#    1.000    1.167    1.667    2.500    0.000    4.667 
#    0.000    5.833    0.000    3.000    0.000    0.000 
#    0.000    0.000    0.000    0.000    0.000    0.000 
#
# Total GULP energy -133901.367281 kJ/mol
# GULP energy per Si atom -5579.223637 kJ/mol
# Density = 2.108097 g / cm^3
# Si number density = 21.129061 Si / 1000 Ang^3
#
#
#
# Elastic Constant Matrix: (Units=GPa)
#
#
# Indices 1 2 3 4 5 6 
#
# 1 36.2065 26.6382 24.5466 0.0000 -9.2408 0.0000
# 2 26.6382 117.3743 40.4930 0.0000 9.3002 0.0000
# 3 24.5466 40.4930 156.3682 0.0000 -3.7208 0.0000
# 4 0.0000 0.0000 0.0000 25.2897 0.0000 12.3105
# 5 -9.2408 9.3002 -3.7208 0.0000 29.0705 0.0000
# 6 0.0000 0.0000 0.0000 12.3105 0.0000 -1.0175
#
#
#
# Elastic Compliance Matrix: (Units=1/GPa)
#
#
# Indices 1 2 3 4 5 6 
#
# 1 0.040836 -0.009234 -0.003651 0.000000 0.015467 0.000000
# 2 -0.009234 0.011773 -0.001764 0.000000 -0.006927 0.000000
# 3 -0.003651 -0.001764 0.007434 0.000000 0.000355 0.000000
# 4 0.000000 0.000000 0.000000 0.005739 0.000000 0.069441
# 5 0.015467 -0.006927 0.000355 0.000000 0.041577 0.000000
# 6 0.000000 0.000000 0.000000 0.069441 0.000000 -0.142654
#
#
# Mechanical properties :
#
#
# Convention : Reuss Voigt Hill
#
# Bulk Modulus (GPa) = 32.52617 54.81162 43.66889
# Shear Modulus (GPa) = 1176.24485 25.21996 600.73241
#
# Velocity S-wave (km/s) = 23.61999 3.45862 16.87996
# Velocity P-wave (km/s) = 27.55538 6.47666 20.01557
#
# Compressibility (1/GPa) = 0.03074448
#
# Stress axis : x y z
#
# Youngs Moduli (GPa) = 24.48827 84.94159 134.52457
#
# Poissons Ratio (x) = 0.78432 0.49118
# Poissons Ratio (y) = 0.22612 0.23730
# Poissons Ratio (z) = 0.08941 0.14984
#
# Static dielectric constant tensor:
#      x y z
#    x 1.737070 0.000000 -0.011710 
#    y 0.000000 1.819690 0.000000 
#    z -0.011710 0.000000 1.810210 
# 
# From -- ./inp_files/77013.got.cif
#   From: 2010.05.17/outbox.cif.g08.bks.cpg/sg12_39_cif.got.tgz:77013.got - 2010.06.03 13:09:07.
