data_PCOD9175649
_publ_section_title
;
Structure prediction by ZEFSAII (Michael W. Deem and Ramdas Pophale) SiO2 
 PCOD9175649
Probable space group: C 2/M
;
_chemical_formula_sum "Si O2"
_cell_formula_units_Z 56
_cell_length_a 18.814080
_cell_length_b 18.366585
_cell_length_c 9.442968
_cell_angle_alpha 90.000000
_cell_angle_beta 97.066084
_cell_angle_gamma 90.000000
_cell_volume 3238.238487
_symmetry_space_group_name_H-M "C 2/M"
_symmetry_group_IT_number 12
_symmetry_cell_setting 'monoclinic'
loop_
_space_group_symop_operation_xyz
x,y,z
-x,y,-z
-x,-y,-z
x,-y,z
1/2+x,1/2+y,z
1/2-x,1/2+y,-z
1/2-x,1/2-y,-z
1/2+x,1/2-y,z
loop_
_atom_site_type_symbol
_atom_site_label
_atom_site_fract_x
_atom_site_fract_y
_atom_site_fract_z
Si Si1 0.215457 0.719407 0.136047
Si Si2 0.828846 0.726481 0.381909
Si Si3 0.761423 0.085368 0.688281
Si Si4 0.013461 0.719514 0.667131
Si Si5 0.812831 0.580914 0.036302
Si Si6 0.621100 0.303204 0.315929
Si Si7 0.976227 0.580535 0.156662
O O1 0.272025 0.727690 0.276898
O O2 0.148703 0.764982 0.179102
O O3 0.250000 0.750000 0.000000
O O4 0.193346 0.638815 0.088627
O O5 0.795110 0.645050 0.387889
O O6 0.901417 0.729437 0.307324
O O7 0.846825 0.760750 0.538661
O O8 0.745178 0.090792 0.852995
O O9 0.840125 0.118236 0.674337
O O10 0.752612 0.000000 0.646987
O O11 0.992859 0.649001 0.752880
O O12 0.000000 0.701971 0.500000
O O13 0.963765 0.788520 0.693644
O O14 0.806596 0.500000 0.976582
O O15 0.889980 0.586282 0.131286
O O16 0.995349 0.500000 0.218184
O O17 0.000000 0.583389 0.000000
#
# Coordination Sequence:
#
# PCOD9175649 Si02
#       7
#     8   8   8   8   8   8   8
#     4  11  17  31  53  74 101 135 175 217 264 311
#     4  10  20  35  53  79 106 137 178 226 262 314
#     4  10  18  33  56  76 102 138 176 216 262 314
#     4  10  20  34  52  74 107 143 176 218 265 311
#     4  10  19  31  51  78 106 135 173 218 266 319
#     4  10  21  35  52  78 110 137 178 223 259 318
#     4  10  19  32  49  74 109 141 173 213 261 320
#
# _framework density 17.293351999999999
#
# number of rings (size 3 to 8) (size 9 to 14) (size 15 to 20)
#    0.000    1.857    4.286    2.571    0.000    0.286 
#    0.000    5.000    0.000    4.714    0.000    2.000 
#    0.000    0.000    0.000    0.000    0.000    0.000 
#
# Total GULP energy -155891.952405 kJ/mol
# GULP energy per Si atom -5567.569729 kJ/mol
# Density = 1.725399 g / cm^3
# Si number density = 17.293352 Si / 1000 Ang^3
#
#
#
# Elastic Constant Matrix: (Units=GPa)
#
#
# Indices 1 2 3 4 5 6 
#
# 1 70.7018 13.0830 -3.8262 0.0000 -11.9739 0.0000
# 2 13.0830 77.5520 8.0626 0.0000 -0.6163 0.0000
# 3 -3.8262 8.0626 33.2933 0.0000 -17.5486 0.0000
# 4 0.0000 0.0000 0.0000 18.2532 0.0000 5.0810
# 5 -11.9739 -0.6163 -17.5486 0.0000 20.3070 0.0000
# 6 0.0000 0.0000 0.0000 5.0810 0.0000 -0.6125
#
#
#
# Elastic Compliance Matrix: (Units=1/GPa)
#
#
# Indices 1 2 3 4 5 6 
#
# 1 0.020874 -0.005220 0.018488 0.000000 0.028127 0.000000
# 2 -0.005220 0.014745 -0.010206 0.000000 -0.011450 0.000000
# 3 0.018488 -0.010206 0.073856 0.000000 0.074416 0.000000
# 4 0.000000 0.000000 0.000000 0.016555 0.000000 0.137337
# 5 0.028127 -0.011450 0.074416 0.000000 0.129789 0.000000
# 6 0.000000 0.000000 0.000000 0.137337 0.000000 -0.493370
#
#
# Mechanical properties :
#
#
# Convention : Reuss Voigt Hill
#
# Bulk Modulus (GPa) = 8.65051 24.02064 16.33558
# Shear Modulus (GPa) = -24.37344 18.53806 -2.91769
#
# Velocity S-wave (km/s) = -3.75829 3.27766 -1.30032
# Velocity P-wave (km/s) = 3.71751 5.31454 2.68556
#
# Compressibility (1/GPa) = 0.11560015
#
# Stress axis : x y z
#
# Youngs Moduli (GPa) = 47.90684 67.81850 13.53980
#
# Poissons Ratio (x) = 0.35401 -0.25033
# Poissons Ratio (y) = 0.25007 0.13819
# Poissons Ratio (z) = -0.88572 0.69215
#
# Static dielectric constant tensor:
#      x y z
#    x 1.676500 0.000000 -0.019100 
#    y 0.000000 1.610910 0.000000 
#    z -0.019100 0.000000 1.579480 
# 
# From -- ./inp_files/87301.got.cif
#   From: 2010.05.17/outbox.cif.g08.bks.cpg/sg12_44_cif.got.tgz:87301.got - 2010.06.03 13:09:07.
