data_PCOD9175157
_publ_section_title
;
Structure prediction by ZEFSAII (Michael W. Deem and Ramdas Pophale) SiO2 
 PCOD9175157
Probable space group: C 2/M
;
_chemical_formula_sum "Si O2"
_cell_formula_units_Z 48
_cell_length_a 8.269340
_cell_length_b 22.202898
_cell_length_c 16.719636
_cell_angle_alpha 90.000000
_cell_angle_beta 53.052121
_cell_angle_gamma 90.000000
_cell_volume 2453.315329
_symmetry_space_group_name_H-M "C 2/M"
_symmetry_group_IT_number 12
_symmetry_cell_setting 'monoclinic'
loop_
_space_group_symop_operation_xyz
x,y,z
-x,y,-z
-x,-y,-z
x,-y,z
1/2+x,1/2+y,z
1/2-x,1/2+y,-z
1/2-x,1/2-y,-z
1/2+x,1/2-y,z
loop_
_atom_site_type_symbol
_atom_site_label
_atom_site_fract_x
_atom_site_fract_y
_atom_site_fract_z
Si Si1 0.867751 0.566972 0.472415
Si Si2 0.166968 0.681719 0.020070
Si Si3 0.206134 0.148753 0.387595
Si Si4 0.023165 0.839622 0.815921
Si Si5 0.467502 0.568185 0.695313
Si Si6 0.074344 0.287514 0.220878
O O1 0.953127 0.500000 0.431828
O O2 0.835647 0.602731 0.402314
O O3 0.653381 0.560938 0.578971
O O4 0.000000 0.599564 0.500000
O O5 0.081098 0.675386 0.134930
O O6 0.250000 0.750000 0.000000
O O7 0.366902 0.645470 0.934299
O O8 0.000000 0.675150 0.000000
O O9 0.167045 0.114309 0.316097
O O10 0.357639 0.203366 0.327145
O O11 0.000000 0.161778 0.500000
O O12 0.039253 0.896779 0.753140
O O13 0.916241 0.783773 0.800457
O O14 0.234234 0.812470 0.786042
O O15 0.388798 0.500000 0.733806
#
# Coordination Sequence:
#
# PCOD9175157 Si02
#       6
#     8   8   8   8   8   8
#     4   9  17  31  51  75 103 141 188 228 264 315
#     4  10  18  32  56  83 109 139 178 221 269 324
#     4  10  20  35  54  80 110 145 183 224 274 324
#     4  11  21  36  58  84 113 143 181 225 274 328
#     4  10  20  35  55  78 108 146 185 225 269 320
#     4  11  21  36  57  84 113 143 180 226 277 326
#
# _framework density 19.565360999999999
#
# number of rings (size 3 to 8) (size 9 to 14) (size 15 to 20)
#    0.000    1.833    0.000    8.000    0.000    2.000 
#    0.000    9.167    0.000    7.500    0.000    0.000 
#    0.000    0.000    0.000    0.000    0.000    0.000 
#
# Total GULP energy -133643.815016 kJ/mol
# GULP energy per Si atom -5568.492292 kJ/mol
# Density = 1.952083 g / cm^3
# Si number density = 19.565361 Si / 1000 Ang^3
#
#
#
# Elastic Constant Matrix: (Units=GPa)
#
#
# Indices 1 2 3 4 5 6 
#
# 1 99.1355 6.1994 14.9965 0.0000 4.5118 0.0000
# 2 6.1994 42.2914 29.6374 0.0000 3.2351 0.0000
# 3 14.9965 29.6374 63.1898 0.0000 1.8390 0.0000
# 4 0.0000 0.0000 0.0000 29.4868 0.0000 21.4506
# 5 4.5118 3.2351 1.8390 0.0000 31.6130 0.0000
# 6 0.0000 0.0000 0.0000 21.4506 0.0000 35.1350
#
#
#
# Elastic Compliance Matrix: (Units=1/GPa)
#
#
# Indices 1 2 3 4 5 6 
#
# 1 0.010526 0.000426 -0.002657 0.000000 -0.001391 0.000000
# 2 0.000426 0.035463 -0.016654 0.000000 -0.002721 0.000000
# 3 -0.002657 -0.016654 0.024248 0.000000 0.000673 0.000000
# 4 0.000000 0.000000 0.000000 0.061010 0.000000 -0.037248
# 5 -0.001391 -0.002721 0.000673 0.000000 0.032070 0.000000
# 6 0.000000 0.000000 0.000000 -0.037248 0.000000 0.051202
#
#
# Mechanical properties :
#
#
# Convention : Reuss Voigt Hill
#
# Bulk Modulus (GPa) = 30.80345 34.03147 32.41746
# Shear Modulus (GPa) = 19.00333 29.49918 24.25126
#
# Velocity S-wave (km/s) = 3.11991 3.88716 3.52447
# Velocity P-wave (km/s) = 5.36251 6.13010 5.75911
#
# Compressibility (1/GPa) = 0.03246390
#
# Stress axis : x y z
#
# Youngs Moduli (GPa) = 95.00404 28.19879 41.24108
#
# Poissons Ratio (x) = -0.01200 0.10958
# Poissons Ratio (y) = -0.04043 0.68685
# Poissons Ratio (z) = 0.25244 0.46964
#
# Static dielectric constant tensor:
#      x y z
#    x 1.777720 0.000000 -0.000730 
#    y 0.000000 1.808100 0.000000 
#    z -0.000730 0.000000 1.771310 
# 
# From -- ./inp_files/257931.got.cif
#   From: 2010.05.17/outbox.cif.g08.bks.cpg/sg12_129_cif.got.tgz:257931.got - 2010.06.03 13:09:07.
