data_PCOD9175074
_publ_section_title
;
Structure prediction by ZEFSAII (Michael W. Deem and Ramdas Pophale) SiO2 
 PCOD9175074
Probable space group: C 2/M
;
_chemical_formula_sum "Si O2"
_cell_formula_units_Z 48
_cell_length_a 22.795069
_cell_length_b 12.252093
_cell_length_c 9.778079
_cell_angle_alpha 90.000000
_cell_angle_beta 66.223784
_cell_angle_gamma 90.000000
_cell_volume 2499.114510
_symmetry_space_group_name_H-M "C 2/M"
_symmetry_group_IT_number 12
_symmetry_cell_setting 'monoclinic'
loop_
_space_group_symop_operation_xyz
x,y,z
-x,y,-z
-x,-y,-z
x,-y,z
1/2+x,1/2+y,z
1/2-x,1/2+y,-z
1/2-x,1/2-y,-z
1/2+x,1/2-y,z
loop_
_atom_site_type_symbol
_atom_site_label
_atom_site_fract_x
_atom_site_fract_y
_atom_site_fract_z
Si Si1 0.070885 0.211205 0.443184
Si Si2 0.231112 0.876939 0.675775
Si Si3 0.064823 0.376045 0.703082
Si Si4 0.335659 0.818806 0.152027
Si Si5 0.919609 0.624351 0.818318
Si Si6 0.298486 0.661323 0.610859
O O1 0.071186 0.286509 0.578806
O O2 0.079821 0.291231 0.306056
O O3 0.132628 0.134100 0.394809
O O4 0.000000 0.160269 0.500000
O O5 0.179210 0.810305 0.813809
O O6 0.291353 0.794476 0.620983
O O7 0.208268 0.874436 0.539533
O O8 0.243334 0.000000 0.707355
O O9 0.075055 0.500000 0.641379
O O10 0.114977 0.354395 0.776536
O O11 0.990514 0.370103 0.819653
O O12 0.265968 0.871720 0.248432
O O13 0.365710 0.848045 0.979611
O O14 0.911405 0.500000 0.776760
#
# Coordination Sequence:
#
# PCOD9175074 Si02
#       6
#     8   8   8   8   8   8
#     4  10  19  34  53  77 109 143 175 211 262 321
#     4   9  18  34  55  79 104 131 176 225 263 305
#     4  10  18  32  55  82 111 138 171 213 268 328
#     4  10  19  33  51  80 107 139 173 214 262 307
#     4  10  21  32  50  84 118 142 164 209 272 326
#     4   9  19  34  53  83  98 141 179 215 266 309
#
# _framework density 19.206803000000001
#
# number of rings (size 3 to 8) (size 9 to 14) (size 15 to 20)
#    1.000    1.333    1.667    1.500    0.000    8.000 
#    0.000    0.000    0.000    3.500    0.000    0.000 
#    0.000    0.000    0.000    0.000    0.000    0.000 
#
# Total GULP energy -133700.363996 kJ/mol
# GULP energy per Si atom -5570.848500 kJ/mol
# Density = 1.916309 g / cm^3
# Si number density = 19.206803 Si / 1000 Ang^3
#
#
#
# Elastic Constant Matrix: (Units=GPa)
#
#
# Indices 1 2 3 4 5 6 
#
# 1 118.2437 3.0562 30.1906 0.0000 -20.3224 0.0000
# 2 3.0562 71.9091 -9.5002 0.0000 -5.4391 0.0000
# 3 30.1906 -9.5002 64.2159 0.0000 -14.5183 0.0000
# 4 0.0000 0.0000 0.0000 355.0517 0.0000 -196.3922
# 5 -20.3224 -5.4391 -14.5183 0.0000 21.9208 0.0000
# 6 0.0000 0.0000 0.0000 -196.3922 0.0000 105.8458
#
#
#
# Elastic Compliance Matrix: (Units=1/GPa)
#
#
# Indices 1 2 3 4 5 6 
#
# 1 0.010614 -0.000319 -0.003329 0.000000 0.007556 0.000000
# 2 -0.000319 0.014843 0.003660 0.000000 0.005811 0.000000
# 3 -0.003329 0.003660 0.020213 0.000000 0.011209 0.000000
# 4 0.000000 0.000000 0.000000 -0.107005 0.000000 -0.198544
# 5 0.007556 0.005811 0.011209 0.000000 0.061490 0.000000
# 6 0.000000 0.000000 0.000000 -0.198544 0.000000 -0.358941
#
#
# Mechanical properties :
#
#
# Convention : Reuss Voigt Hill
#
# Bulk Modulus (GPa) = 21.88518 33.54022 27.71270
# Shear Modulus (GPa) = -14.55272 111.93848 48.69288
#
# Velocity S-wave (km/s) = -2.75560 7.64246 5.04053
# Velocity P-wave (km/s) = 1.13790 9.76610 6.95240
#
# Compressibility (1/GPa) = 0.04569302
#
# Stress axis : x y z
#
# Youngs Moduli (GPa) = 94.21534 67.37162 49.47250
#
# Poissons Ratio (x) = 0.02152 0.16470
# Poissons Ratio (y) = 0.03009 -0.18106
# Poissons Ratio (z) = 0.31365 -0.24657
#
# Static dielectric constant tensor:
#      x y z
#    x 1.710360 0.000000 -0.023260 
#    y 0.000000 -1.124310 0.000000 
#    z -0.023260 0.000000 1.638770 
# 
# From -- ./inp_files/95671.got.cif
#   From: 2010.05.17/outbox.cif.g08.bks.cpg/sg12_48_cif.got.tgz:95671.got - 2010.06.03 13:09:07.
