data_PCOD9175140
_publ_section_title
;
Structure prediction by ZEFSAII (Michael W. Deem and Ramdas Pophale) SiO2 
 PCOD9175140
Probable space group: C 2/M
;
_chemical_formula_sum "Si O2"
_cell_formula_units_Z 48
_cell_length_a 20.914250
_cell_length_b 7.454928
_cell_length_c 17.781297
_cell_angle_alpha 90.000000
_cell_angle_beta 124.806925
_cell_angle_gamma 90.000000
_cell_volume 2276.327666
_symmetry_space_group_name_H-M "C 2/M"
_symmetry_group_IT_number 12
_symmetry_cell_setting 'monoclinic'
loop_
_space_group_symop_operation_xyz
x,y,z
-x,y,-z
-x,-y,-z
x,-y,z
1/2+x,1/2+y,z
1/2-x,1/2+y,-z
1/2-x,1/2-y,-z
1/2+x,1/2-y,z
loop_
_atom_site_type_symbol
_atom_site_label
_atom_site_fract_x
_atom_site_fract_y
_atom_site_fract_z
Si Si1 0.466883 0.716970 0.560286
Si Si2 0.209353 0.785388 0.551971
Si Si3 0.883442 0.207309 0.258351
Si Si4 0.158401 0.287286 0.936471
Si Si5 0.731458 0.219596 0.247287
Si Si6 0.588943 0.780624 0.048243
O O1 0.500000 0.753941 0.500000
O O2 0.461173 0.500000 0.564805
O O3 0.379182 0.785231 0.509162
O O4 0.533635 0.785003 0.661207
O O5 0.250000 0.750000 0.500000
O O6 0.254603 0.722046 0.657293
O O7 0.205066 0.000000 0.557986
O O8 0.873872 0.212745 0.162932
O O9 0.806281 0.280271 0.247992
O O10 0.885325 0.000000 0.284708
O O11 0.146613 0.500000 0.925868
O O12 0.250000 0.250000 0.000000
O O13 0.119647 0.221309 0.987250
O O14 0.651385 0.276775 0.153386
O O15 0.730041 0.000000 0.244687
O O16 0.589501 0.000000 0.049045
O O17 0.500000 0.723715 0.000000
#
# Coordination Sequence:
#
# PCOD9175140 Si02
#       6
#     8   8   8   8   8   8
#     4   9  16  30  55  80  99 132 185 228 256 308
#     4  10  20  34  54  79 107 139 177 221 269 319
#     4  10  18  32  56  82 105 134 181 229 267 312
#     4  11  21  34  55  82 109 139 178 222 267 315
#     4   9  16  30  53  75  98 138 181 214 257 316
#     4   9  18  32  51  76 104 136 177 217 254 310
#
# _framework density 21.086597000000001
#
# number of rings (size 3 to 8) (size 9 to 14) (size 15 to 20)
#    0.000    2.333    3.333    0.500    0.000    1.333 
#    0.000    3.333    0.000    3.000    0.000    0.000 
#    0.000    0.000    0.000    0.000    0.000    0.000 
#
# Total GULP energy -133981.001649 kJ/mol
# GULP energy per Si atom -5582.541735 kJ/mol
# Density = 2.103860 g / cm^3
# Si number density = 21.086597 Si / 1000 Ang^3
#
#
#
# Elastic Constant Matrix: (Units=GPa)
#
#
# Indices 1 2 3 4 5 6 
#
# 1 189.2192 -2.6987 118.9083 0.0000 11.5228 0.0000
# 2 -2.6987 59.6965 -3.9056 0.0000 4.2781 0.0000
# 3 118.9083 -3.9056 234.1698 0.0000 11.0343 0.0000
# 4 0.0000 0.0000 0.0000 6.4023 0.0000 -14.1752
# 5 11.5228 4.2781 11.0343 0.0000 34.0335 0.0000
# 6 0.0000 0.0000 0.0000 -14.1752 0.0000 9.1042
#
#
#
# Elastic Compliance Matrix: (Units=1/GPa)
#
#
# Indices 1 2 3 4 5 6 
#
# 1 0.007827 0.000199 -0.003905 0.000000 -0.001409 0.000000
# 2 0.000199 0.016944 0.000289 0.000000 -0.002291 0.000000
# 3 -0.003905 0.000289 0.006294 0.000000 -0.000755 0.000000
# 4 0.000000 0.000000 0.000000 -0.063824 0.000000 -0.099372
# 5 -0.001409 -0.002291 -0.000755 0.000000 0.030393 0.000000
# 6 0.000000 0.000000 0.000000 -0.099372 0.000000 -0.044882
#
#
# Mechanical properties :
#
#
# Convention : Reuss Voigt Hill
#
# Bulk Modulus (GPa) = 41.26750 78.63260 59.95005
# Shear Modulus (GPa) = -154.61367 34.62677 -59.99345
#
# Velocity S-wave (km/s) = -8.57219 4.05671 -5.33973
# Velocity P-wave (km/s) = 8.85232 7.70154 3.08624
#
# Compressibility (1/GPa) = 0.02423214
#
# Stress axis : x y z
#
# Youngs Moduli (GPa) = 127.75524 59.01954 158.88946
#
# Poissons Ratio (x) = -0.01177 0.62046
# Poissons Ratio (y) = -0.02547 -0.04597
# Poissons Ratio (z) = 0.49888 -0.01708
#
# Static dielectric constant tensor:
#      x y z
#    x 1.713420 0.000000 0.016250 
#    y 0.000000 1.813480 0.000000 
#    z 0.016250 0.000000 1.762890 
# 
# From -- ./inp_files/280799.got.cif
#   From: 2010.05.17/outbox.cif.g08.bks.cpg/sg12_141_cif.got.tgz:280799.got - 2010.06.03 13:09:07.
