data_PCOD9175036
_publ_section_title
;
Structure prediction by ZEFSAII (Michael W. Deem and Ramdas Pophale) SiO2 
 PCOD9175036
Probable space group: C 2/M
;
_chemical_formula_sum "Si O2"
_cell_formula_units_Z 52
_cell_length_a 5.116364
_cell_length_b 35.441361
_cell_length_c 19.339382
_cell_angle_alpha 90.000000
_cell_angle_beta 128.834906
_cell_angle_gamma 90.000000
_cell_volume 2731.664682
_symmetry_space_group_name_H-M "C 2/M"
_symmetry_group_IT_number 12
_symmetry_cell_setting 'monoclinic'
loop_
_space_group_symop_operation_xyz
x,y,z
-x,y,-z
-x,-y,-z
x,-y,z
1/2+x,1/2+y,z
1/2-x,1/2+y,-z
1/2-x,1/2-y,-z
1/2+x,1/2-y,z
loop_
_atom_site_type_symbol
_atom_site_label
_atom_site_fract_x
_atom_site_fract_y
_atom_site_fract_z
Si Si1 0.304166 0.773033 0.712080
Si Si2 0.774487 0.310351 0.098417
Si Si3 0.271965 0.362783 0.097050
Si Si4 0.260709 0.146277 0.647931
Si Si5 0.083027 0.456129 0.595882
Si Si6 0.000000 0.903769 0.500000
Si Si7 0.457797 0.391283 0.723217
O O1 0.468656 0.739877 0.694722
O O2 0.570645 0.784305 0.816390
O O3 0.248601 0.809145 0.654115
O O4 0.568458 0.343663 0.102609
O O5 0.075850 0.328867 0.104319
O O6 0.500000 0.292703 0.000000
O O7 0.406310 0.391353 0.176661
O O8 0.000000 0.379857 0.000000
O O9 0.958893 0.125756 0.555974
O O10 0.609635 0.132848 0.670892
O O11 0.218984 0.130450 0.718162
O O12 0.099460 0.500000 0.615984
O O13 0.387274 0.431407 0.675361
O O14 0.000000 0.453069 0.500000
O O15 0.770133 0.433145 0.574254
#
# Coordination Sequence:
#
# PCOD9175036 Si02
#       7
#     8   8   8   8   8   4   8
#     4  12  23  36  53  76 107 145 178 236 287 323
#     4  10  20  34  52  77 105 138 180 233 280 330
#     4  10  18  32  55  79 106 141 190 232 261 313
#     4  11  22  37  58  80 105 144 193 224 267 343
#     4  10  20  34  56  91 121 141 173 219 280 334
#     4  10  21  38  60  82 112 152 178 224 272 322
#     4  11  19  36  57  81 112 150 182 222 270 323
#
# _framework density 19.036010999999998
#
# number of rings (size 3 to 8) (size 9 to 14) (size 15 to 20)
#    0.000    1.385    4.615    2.077    0.000    0.615 
#    0.000    0.769    0.000    0.462    0.000    0.000 
#    0.000    7.692    0.000    0.000    0.000    1.077 
#
# Total GULP energy -144925.373181 kJ/mol
# GULP energy per Si atom -5574.052815 kJ/mol
# Density = 1.899268 g / cm^3
# Si number density = 19.036011 Si / 1000 Ang^3
#
#
#
# Elastic Constant Matrix: (Units=GPa)
#
#
# Indices 1 2 3 4 5 6 
#
# 1 59.3170 0.3725 -0.8488 0.0000 -2.9335 0.0000
# 2 0.3725 85.2313 24.5379 0.0000 -3.8118 0.0000
# 3 -0.8488 24.5379 42.8006 0.0000 -10.5956 0.0000
# 4 0.0000 0.0000 0.0000 26.3520 0.0000 -0.2459
# 5 -2.9335 -3.8118 -10.5956 0.0000 24.3833 0.0000
# 6 0.0000 0.0000 0.0000 -0.2459 0.0000 15.3733
#
#
#
# Elastic Compliance Matrix: (Units=1/GPa)
#
#
# Indices 1 2 3 4 5 6 
#
# 1 0.016999 -0.000284 0.001115 0.000000 0.002485 0.000000
# 2 -0.000284 0.014104 -0.008465 0.000000 -0.001508 0.000000
# 3 0.001115 -0.008465 0.031313 0.000000 0.012418 0.000000
# 4 0.000000 0.000000 0.000000 0.037953 0.000000 0.000607
# 5 0.002485 -0.001508 0.012418 0.000000 0.046471 0.000000
# 6 0.000000 0.000000 0.000000 0.000607 0.000000 0.065057
#
#
# Mechanical properties :
#
#
# Convention : Reuss Voigt Hill
#
# Bulk Modulus (GPa) = 21.20926 26.16356 23.68641
# Shear Modulus (GPa) = 20.58619 24.10754 22.34687
#
# Velocity S-wave (km/s) = 3.29208 3.56254 3.42998
# Velocity P-wave (km/s) = 5.06125 5.54042 5.30625
#
# Compressibility (1/GPa) = 0.04714921
#
# Stress axis : x y z
#
# Youngs Moduli (GPa) = 58.82614 70.90433 31.93539
#
# Poissons Ratio (x) = 0.02015 -0.03562
# Poissons Ratio (y) = 0.01672 0.27032
# Poissons Ratio (z) = -0.06561 0.60017
#
# Static dielectric constant tensor:
#      x y z
#    x 1.720280 0.000000 0.018060 
#    y 0.000000 1.622770 0.000000 
#    z 0.018060 0.000000 1.736520 
# 
# From -- ./inp_files/253451.got.cif
#   From: 2010.05.17/outbox.cif.g08.bks.cpg/sg12_127_cif.got.tgz:253451.got - 2010.06.03 13:09:07.
