data_PCOD9175548
_publ_section_title
;
Structure prediction by ZEFSAII (Michael W. Deem and Ramdas Pophale) SiO2 
 PCOD9175548
Probable space group: C 2/M
;
_chemical_formula_sum "Si O2"
_cell_formula_units_Z 40
_cell_length_a 20.425876
_cell_length_b 9.043247
_cell_length_c 12.895332
_cell_angle_alpha 90.000000
_cell_angle_beta 76.260771
_cell_angle_gamma 90.000000
_cell_volume 2313.821118
_symmetry_space_group_name_H-M "C 2/M"
_symmetry_group_IT_number 12
_symmetry_cell_setting 'monoclinic'
loop_
_space_group_symop_operation_xyz
x,y,z
-x,y,-z
-x,-y,-z
x,-y,z
1/2+x,1/2+y,z
1/2-x,1/2+y,-z
1/2-x,1/2-y,-z
1/2+x,1/2-y,z
loop_
_atom_site_type_symbol
_atom_site_label
_atom_site_fract_x
_atom_site_fract_y
_atom_site_fract_z
Si Si1 0.422841 0.324973 0.065330
Si Si2 0.919049 0.330157 0.510884
Si Si3 0.604046 0.324291 0.270606
Si Si4 0.678968 0.176270 0.053636
Si Si5 0.054931 0.824462 0.706426
O O1 0.406892 0.500000 0.057454
O O2 0.419268 0.288605 0.188529
O O3 0.500000 0.305538 0.000000
O O4 0.374122 0.228380 0.013515
O O5 0.896909 0.500000 0.525025
O O6 0.888010 0.234355 0.615350
O O7 0.910292 0.262880 0.400073
O O8 0.000000 0.326945 0.500000
O O9 0.615173 0.500000 0.260205
O O10 0.651139 0.238976 0.172814
O O11 0.525771 0.296153 0.268060
O O12 0.684356 0.000000 0.055018
O O13 0.750000 0.250000 0.000000
O O14 0.063261 0.000000 0.685971
#
# Coordination Sequence:
#
# PCOD9175548 Si02
#       5
#     8   8   8   8   8
#     4  10  19  36  58  82 112 146 183 226 276 327
#     4   9  17  28  45  75 111 142 177 224 271 316
#     4  10  18  33  54  77 107 144 184 224 272 326
#     4  12  25  39  56  80 111 148 188 228 276 329
#     4   9  17  30  52  79 109 144 179 219 271 326
#
# _framework density 17.287420999999998
#
# number of rings (size 3 to 8) (size 9 to 14) (size 15 to 20)
#    0.000    2.000    2.000    3.000    0.000    4.400 
#    0.000    0.000    0.000    1.200    0.000    0.000 
#    0.000    0.000    0.000    0.000    0.000    0.000 
#
# Total GULP energy -111633.796212 kJ/mol
# GULP energy per Si atom -5581.689811 kJ/mol
# Density = 1.724807 g / cm^3
# Si number density = 17.287421 Si / 1000 Ang^3
#
#
#
# Elastic Constant Matrix: (Units=GPa)
#
#
# Indices 1 2 3 4 5 6 
#
# 1 45.7937 52.4673 44.1026 0.0000 -9.9984 0.0000
# 2 52.4673 123.5266 90.3743 0.0000 -11.7342 0.0000
# 3 44.1026 90.3743 156.4932 0.0000 -4.3157 0.0000
# 4 0.0000 0.0000 0.0000 36.0676 0.0000 -0.7628
# 5 -9.9984 -11.7342 -4.3157 0.0000 12.0210 0.0000
# 6 0.0000 0.0000 0.0000 -0.7628 0.0000 21.5570
#
#
#
# Elastic Compliance Matrix: (Units=1/GPa)
#
#
# Indices 1 2 3 4 5 6 
#
# 1 0.048689 -0.015313 -0.004215 0.000000 0.024036 0.000000
# 2 -0.015313 0.020402 -0.007341 0.000000 0.004543 0.000000
# 3 -0.004215 -0.007341 0.011639 0.000000 -0.006494 0.000000
# 4 0.000000 0.000000 0.000000 0.027746 0.000000 0.000982
# 5 0.024036 0.004543 -0.006494 0.000000 0.105282 0.000000
# 6 0.000000 0.000000 0.000000 0.000982 0.000000 0.046423
#
#
# Mechanical properties :
#
#
# Convention : Reuss Voigt Hill
#
# Bulk Modulus (GPa) = 37.05046 77.74466 57.39756
# Shear Modulus (GPa) = 15.48373 23.18708 19.33540
#
# Velocity S-wave (km/s) = 2.99601 3.66631 3.34798
# Velocity P-wave (km/s) = 5.78331 7.93674 6.94401
#
# Compressibility (1/GPa) = 0.02699022
#
# Stress axis : x y z
#
# Youngs Moduli (GPa) = 20.53831 49.01383 85.92116
#
# Poissons Ratio (x) = 0.75057 0.36218
# Poissons Ratio (y) = 0.31451 0.63079
# Poissons Ratio (z) = 0.08658 0.35983
#
# Static dielectric constant tensor:
#      x y z
#    x 1.564070 0.000000 0.004450 
#    y 0.000000 1.575150 0.000000 
#    z 0.004450 0.000000 1.583950 
# 
# From -- ./inp_files/151703.got.cif
#   From: 2010.05.17/outbox.cif.g08.bks.cpg/sg12_76_cif.got.tgz:151703.got - 2010.06.03 13:09:07.
