data_PCOD9175770
_publ_section_title
;
Structure prediction by ZEFSAII (Michael W. Deem and Ramdas Pophale) SiO2 
 PCOD9175770
Probable space group: C 2/M
;
_chemical_formula_sum "Si O2"
_cell_formula_units_Z 48
_cell_length_a 20.747711
_cell_length_b 8.128031
_cell_length_c 29.013717
_cell_angle_alpha 90.000000
_cell_angle_beta 150.392783
_cell_angle_gamma 90.000000
_cell_volume 2417.302675
_symmetry_space_group_name_H-M "C 2/M"
_symmetry_group_IT_number 12
_symmetry_cell_setting 'monoclinic'
loop_
_space_group_symop_operation_xyz
x,y,z
-x,y,-z
-x,-y,-z
x,-y,z
1/2+x,1/2+y,z
1/2-x,1/2+y,-z
1/2-x,1/2-y,-z
1/2+x,1/2-y,z
loop_
_atom_site_type_symbol
_atom_site_label
_atom_site_fract_x
_atom_site_fract_y
_atom_site_fract_z
Si Si1 0.966728 0.299133 0.592954
Si Si2 0.433937 0.691169 0.889380
Si Si3 0.711997 0.201171 0.683560
Si Si4 0.267539 0.301172 0.615107
Si Si5 0.531743 0.196154 0.736966
Si Si6 0.184589 0.688356 0.091658
O O1 0.965915 0.500000 0.592998
O O2 0.830422 0.244011 0.486049
O O3 0.084762 0.246984 0.632925
O O4 0.993245 0.244150 0.661478
O O5 0.462613 0.500000 0.898790
O O6 0.341757 0.754893 0.791417
O O7 0.350749 0.705414 0.885075
O O8 0.569768 0.780543 0.983732
O O9 0.715231 0.252476 0.632524
O O10 0.711591 0.000000 0.684167
O O11 0.266883 0.500000 0.614407
O O12 0.413488 0.242860 0.696558
O O13 0.671894 0.269840 0.836524
O O14 0.545372 0.000000 0.743875
O O15 0.178886 0.500000 0.103219
#
# Coordination Sequence:
#
# PCOD9175770 Si02
#       6
#     8   8   8   8   8   8
#     4   9  17  32  56  82 106 142 187 224 260 314
#     4  10  18  33  57  83 110 140 176 218 271 325
#     4   9  17  32  56  84 110 141 180 220 264 320
#     4  10  20  34  55  82 112 143 180 224 268 315
#     4  11  21  36  55  78 111 147 183 220 270 324
#     4  11  21  34  54  82 109 137 180 228 271 314
#
# _framework density 19.856842
#
# number of rings (size 3 to 8) (size 9 to 14) (size 15 to 20)
#    0.000    2.000    1.667    4.500    0.000    2.000 
#    0.000    3.333    0.000    1.000    0.000    0.000 
#    0.000    0.000    0.000    0.000    0.000    0.000 
#
# Total GULP energy -134034.391969 kJ/mol
# GULP energy per Si atom -5584.766332 kJ/mol
# Density = 1.981165 g / cm^3
# Si number density = 19.856842 Si / 1000 Ang^3
#
#
#
# Elastic Constant Matrix: (Units=GPa)
#
#
# Indices 1 2 3 4 5 6 
#
# 1 47.5305 -5.3836 -10.5702 0.0000 16.0049 0.0000
# 2 -5.3836 21.3681 2.0173 0.0001 -1.9188 0.0001
# 3 -10.5702 2.0173 65.4508 0.0000 20.7546 0.0000
# 4 0.0000 0.0001 0.0000 5.5703 0.0001 17.5558
# 5 16.0049 -1.9188 20.7546 0.0001 22.1982 0.0001
# 6 0.0000 0.0001 0.0000 17.5558 0.0001 7.0086
#
#
#
# Elastic Compliance Matrix: (Units=1/GPa)
#
#
# Indices 1 2 3 4 5 6 
#
# 1 0.046166 0.004170 0.025256 0.000000 -0.056538 0.000000
# 2 0.004170 0.048254 -0.001682 0.000000 0.002737 0.000000
# 3 0.025256 -0.001682 0.035862 0.000000 -0.051884 0.000000
# 4 0.000000 0.000000 0.000000 -0.026038 0.000000 0.065223
# 5 -0.056538 0.002737 -0.051884 0.000000 0.134560 0.000000
# 6 0.000000 0.000000 0.000000 0.065223 0.000000 -0.020695
#
#
# Mechanical properties :
#
#
# Convention : Reuss Voigt Hill
#
# Bulk Modulus (GPa) = 5.38301 11.83072 8.60687
# Shear Modulus (GPa) = 22.26740 16.84113 19.55427
#
# Velocity S-wave (km/s) = 3.35236 2.91542 3.14150
# Velocity P-wave (km/s) = 4.20728 4.15979 4.18360
#
# Compressibility (1/GPa) = 0.18576952
#
# Stress axis : x y z
#
# Youngs Moduli (GPa) = 21.66093 20.72376 27.88484
#
# Poissons Ratio (x) = -0.08642 -0.70425
# Poissons Ratio (y) = -0.09033 0.04689
# Poissons Ratio (z) = -0.54706 0.03485
#
# Static dielectric constant tensor:
#      x y z
#    x 1.665530 0.000000 -0.005180 
#    y 0.000000 1.693130 0.000000 
#    z -0.005180 0.000000 1.699890 
# 
# From -- ./inp_files/320310.got.cif
#   From: 2010.05.17/outbox.cif.g08.bks.cpg/sg12_161_cif.got.tgz:320310.got - 2010.06.03 13:09:07.
