data_PCOD9175600
_publ_section_title
;
Structure prediction by ZEFSAII (Michael W. Deem and Ramdas Pophale) SiO2 
 PCOD9175600
Probable space group: C 2/M
;
_chemical_formula_sum "Si O2"
_cell_formula_units_Z 40
_cell_length_a 9.172583
_cell_length_b 20.917412
_cell_length_c 10.198399
_cell_angle_alpha 90.000000
_cell_angle_beta 61.674241
_cell_angle_gamma 90.000000
_cell_volume 1722.441982
_symmetry_space_group_name_H-M "C 2/M"
_symmetry_group_IT_number 12
_symmetry_cell_setting 'monoclinic'
loop_
_space_group_symop_operation_xyz
x,y,z
-x,y,-z
-x,-y,-z
x,-y,z
1/2+x,1/2+y,z
1/2-x,1/2+y,-z
1/2-x,1/2-y,-z
1/2+x,1/2-y,z
loop_
_atom_site_type_symbol
_atom_site_label
_atom_site_fract_x
_atom_site_fract_y
_atom_site_fract_z
Si Si1 0.183722 0.164078 0.612998
Si Si2 0.655005 0.841210 0.005385
Si Si3 0.922024 0.073455 0.846900
Si Si4 0.698274 0.570178 0.389752
Si Si5 0.876309 0.745212 0.739860
O O1 0.259376 0.127945 0.454444
O O2 0.305517 0.205387 0.649225
O O3 0.091003 0.109399 0.738700
O O4 0.032387 0.210731 0.639167
O O5 0.805143 0.885890 0.991617
O O6 0.738791 0.790911 0.867907
O O7 0.500000 0.873397 0.000000
O O8 0.583970 0.803125 0.159401
O O9 0.806503 0.076213 0.764373
O O10 0.948234 0.000000 0.869429
O O11 0.500000 0.568690 0.500000
O O12 0.766164 0.500000 0.397557
#
# Coordination Sequence:
#
# PCOD9175600 Si02
#       5
#     8   8   8   8   8
#     4  10  18  33  55  79 107 140 172 217 266 311
#     4  10  19  34  54  74 109 144 173 213 263 312
#     4   9  19  34  55  79 102 138 184 219 256 309
#     4   8  15  32  55  78 101 133 177 224 259 302
#     4  10  20  32  53  78 110 143 172 209 264 318
#
# _framework density 23.222843000000001
#
# number of rings (size 3 to 8) (size 9 to 14) (size 15 to 20)
#    0.000    2.600    2.000    1.800    0.000    0.400 
#    0.000   19.000    0.000    0.000    0.000    2.800 
#    0.000    0.000    0.000    0.000    0.000    0.000 
#
# Total GULP energy -111717.548082 kJ/mol
# GULP energy per Si atom -5585.877404 kJ/mol
# Density = 2.316999 g / cm^3
# Si number density = 23.222843 Si / 1000 Ang^3
#
#
#
# Elastic Constant Matrix: (Units=GPa)
#
#
# Indices 1 2 3 4 5 6 
#
# 1 63.2388 24.7882 21.5906 0.0000 13.4143 0.0000
# 2 24.7882 135.0651 35.3531 0.0000 12.1228 0.0000
# 3 21.5906 35.3531 67.9749 0.0000 13.3943 0.0000
# 4 0.0000 0.0000 0.0000 -19.6245 0.0000 -11.6511
# 5 13.4143 12.1228 13.3943 0.0000 32.2017 0.0000
# 6 0.0000 0.0000 0.0000 -11.6511 0.0000 6.5580
#
#
#
# Elastic Compliance Matrix: (Units=1/GPa)
#
#
# Indices 1 2 3 4 5 6 
#
# 1 0.019118 -0.001975 -0.003946 0.000000 -0.005579 0.000000
# 2 -0.001975 0.008841 -0.003788 0.000000 -0.000930 0.000000
# 3 -0.003946 -0.003788 0.018877 0.000000 -0.004782 0.000000
# 4 0.000000 0.000000 0.000000 -0.024799 0.000000 -0.044059
# 5 -0.005579 -0.000930 -0.004782 0.000000 0.035718 0.000000
# 6 0.000000 0.000000 0.000000 -0.044059 0.000000 0.074210
#
#
# Mechanical properties :
#
#
# Convention : Reuss Voigt Hill
#
# Bulk Modulus (GPa) = 36.47106 47.74917 42.11011
# Shear Modulus (GPa) = 31.14858 16.13018 23.63938
#
# Velocity S-wave (km/s) = 3.66634 2.63835 3.19397
# Velocity P-wave (km/s) = 5.80186 5.46691 5.63688
#
# Compressibility (1/GPa) = 0.02741900
#
# Stress axis : x y z
#
# Youngs Moduli (GPa) = 52.30710 113.10668 52.97500
#
# Poissons Ratio (x) = 0.22340 0.20903
# Poissons Ratio (y) = 0.10331 0.20065
# Poissons Ratio (z) = 0.20639 0.42840
#
# Static dielectric constant tensor:
#      x y z
#    x 1.826420 0.000000 0.021790 
#    y 0.000000 1.927310 0.000000 
#    z 0.021790 0.000000 2.005700 
# 
# From -- ./inp_files/132073.got.cif
#   From: 2010.05.17/outbox.cif.g08.bks.cpg/sg12_67_cif.got.tgz:132073.got - 2010.06.03 13:09:07.
