data_PCOD9175814
_publ_section_title
;
Structure prediction by ZEFSAII (Michael W. Deem and Ramdas Pophale) SiO2 
 PCOD9175814
Probable space group: C 2/M
;
_chemical_formula_sum "Si O2"
_cell_formula_units_Z 44
_cell_length_a 15.081009
_cell_length_b 14.129742
_cell_length_c 9.226661
_cell_angle_alpha 90.000000
_cell_angle_beta 124.724736
_cell_angle_gamma 90.000000
_cell_volume 1615.947402
_symmetry_space_group_name_H-M "C 2/M"
_symmetry_group_IT_number 12
_symmetry_cell_setting 'monoclinic'
loop_
_space_group_symop_operation_xyz
x,y,z
-x,y,-z
-x,-y,-z
x,-y,z
1/2+x,1/2+y,z
1/2-x,1/2+y,-z
1/2-x,1/2-y,-z
1/2+x,1/2-y,z
loop_
_atom_site_type_symbol
_atom_site_label
_atom_site_fract_x
_atom_site_fract_y
_atom_site_fract_z
Si Si1 0.491846 0.132034 0.180616
Si Si2 0.153182 0.651143 0.562616
Si Si3 0.169237 0.133829 0.527074
Si Si4 0.522345 0.362334 0.853608
Si Si5 0.263204 0.862583 0.043185
Si Si6 0.667681 0.000000 0.179786
O O1 0.542854 0.115120 0.387747
O O2 0.487246 0.245818 0.156723
O O3 0.367476 0.095144 0.054351
O O4 0.579143 0.081802 0.162281
O O5 0.142777 0.763714 0.565561
O O6 0.245640 0.636528 0.527704
O O7 0.197042 0.617955 0.755970
O O8 0.061575 0.102632 0.344278
O O9 0.231798 0.079279 0.708752
O O10 0.500000 0.388801 0.000000
O O11 0.641294 0.394862 0.923127
O O12 0.250000 0.750000 0.000000
#
# Coordination Sequence:
#
# PCOD9175814 Si02
#       6
#     8   8   8   8   8   4
#     4   9  20  34  53  83 110 148 180 227 273 329
#     4   9  16  32  56  75 104 139 196 221 258 313
#     4   9  18  32  54  81 102 146 179 230 263 322
#     4  10  18  33  58  79 109 137 191 232 267 315
#     4  10  19  31  54  82 108 136 179 235 277 312
#     4  10  20  36  55  78 124 138 190 213 286 338
#
# _framework density 27.228607
#
# number of rings (size 3 to 8) (size 9 to 14) (size 15 to 20)
#    0.000    2.545    1.818    1.636    0.000    0.000 
#    0.000    9.091    0.000    0.000    0.000   16.545 
#    0.000    0.000    0.000    0.000    0.000    0.000 
#
# Total GULP energy -122575.707955 kJ/mol
# GULP energy per Si atom -5571.623089 kJ/mol
# Density = 2.716663 g / cm^3
# Si number density = 27.228607 Si / 1000 Ang^3
#
#
#
# Elastic Constant Matrix: (Units=GPa)
#
#
# Indices 1 2 3 4 5 6 
#
# 1 143.0054 22.0257 66.0939 0.0000 24.8451 0.0000
# 2 22.0257 113.6332 -25.4976 0.0000 24.4957 0.0000
# 3 66.0939 -25.4976 228.6696 0.0000 56.9422 0.0000
# 4 0.0000 0.0000 0.0000 816.3313 0.0000 -154.7879
# 5 24.8451 24.4957 56.9422 0.0000 73.3291 0.0000
# 6 0.0000 0.0000 0.0000 -154.7879 0.0000 1.0005
#
#
#
# Elastic Compliance Matrix: (Units=1/GPa)
#
#
# Indices 1 2 3 4 5 6 
#
# 1 0.008613 -0.002276 -0.002735 0.000000 -0.000035 0.000000
# 2 -0.002276 0.011160 0.003271 0.000000 -0.005497 0.000000
# 3 -0.002735 0.003271 0.006905 0.000000 -0.005528 0.000000
# 4 0.000000 0.000000 0.000000 -0.000043 0.000000 -0.006688
# 5 -0.000035 -0.005497 -0.005528 0.000000 0.019778 0.000000
# 6 0.000000 0.000000 0.000000 -0.006688 0.000000 -0.035274
#
#
# Mechanical properties :
#
#
# Convention : Reuss Voigt Hill
#
# Bulk Modulus (GPa) = 43.10400 67.83915 55.47157
# Shear Modulus (GPa) = 223.70735 206.31126 215.00930
#
# Velocity S-wave (km/s) = 9.07399 8.71404 8.89584
# Velocity P-wave (km/s) = 11.20927 11.23454 11.22191
#
# Compressibility (1/GPa) = 0.02319970
#
# Stress axis : x y z
#
# Youngs Moduli (GPa) = 116.10160 89.60313 144.82651
#
# Poissons Ratio (x) = 0.20391 0.39605
# Poissons Ratio (y) = 0.26421 -0.47373
# Poissons Ratio (z) = 0.31750 -0.29310
#
# Static dielectric constant tensor:
#      x y z
#    x 2.145840 0.000000 -0.125770 
#    y 0.000000 2.492230 0.000000 
#    z -0.125770 0.000000 2.231770 
# 
# From -- ./inp_files/145785.got.cif
#   From: 2010.05.17/outbox.cif.g08.bks.cpg/sg12_73_cif.got.tgz:145785.got - 2010.06.03 13:09:07.
