data_PCOD9175822
_publ_section_title
;
Structure prediction by ZEFSAII (Michael W. Deem and Ramdas Pophale) SiO2 
 PCOD9175822
Probable space group: C 2/M
;
_chemical_formula_sum "Si O2"
_cell_formula_units_Z 48
_cell_length_a 30.567890
_cell_length_b 8.446396
_cell_length_c 19.899215
_cell_angle_alpha 90.000000
_cell_angle_beta 148.571252
_cell_angle_gamma 90.000000
_cell_volume 2679.016469
_symmetry_space_group_name_H-M "C 2/M"
_symmetry_group_IT_number 12
_symmetry_cell_setting 'monoclinic'
loop_
_space_group_symop_operation_xyz
x,y,z
-x,y,-z
-x,-y,-z
x,-y,z
1/2+x,1/2+y,z
1/2-x,1/2+y,-z
1/2-x,1/2-y,-z
1/2+x,1/2-y,z
loop_
_atom_site_type_symbol
_atom_site_label
_atom_site_fract_x
_atom_site_fract_y
_atom_site_fract_z
Si Si1 0.260242 0.188717 0.088551
Si Si2 0.362218 0.189356 0.960470
Si Si3 0.028963 0.693001 0.111982
Si Si4 0.225206 0.689821 0.678035
Si Si5 0.595751 0.192915 0.621529
Si Si6 0.781055 0.309924 0.612253
O O1 0.182205 0.238647 0.032797
O O2 0.343947 0.245567 0.238076
O O3 0.264503 0.000000 0.092400
O O4 0.250000 0.250000 0.000000
O O5 0.304943 0.237544 0.821697
O O6 0.361146 0.000000 0.964853
O O7 0.457107 0.242295 0.070154
O O8 0.029603 0.500000 0.112393
O O9 0.122821 0.745180 0.250777
O O10 0.000000 0.744412 0.000000
O O11 0.231812 0.500000 0.689191
O O12 0.144103 0.736567 0.616131
O O13 0.227047 0.746615 0.604075
O O14 0.500000 0.249074 0.500000
O O15 0.593840 0.000000 0.621003
O O16 0.779737 0.500000 0.612079
O O17 0.750000 0.250000 0.500000
#
# Coordination Sequence:
#
# PCOD9175822 Si02
#       6
#     8   8   8   8   8   8
#     4  10  20  35  55  80 111 140 175 221 274 322
#     4  10  18  33  58  82 105 139 184 223 264 314
#     4   9  17  33  57  81 102 137 184 221 254 320
#     4  10  19  33  55  82 109 139 178 222 270 318
#     4   8  16  33  56  78 100 134 181 219 251 311
#     4  11  22  38  56  77 110 144 180 220 270 322
#
# _framework density 17.917024000000001
#
# number of rings (size 3 to 8) (size 9 to 14) (size 15 to 20)
#    0.000    2.333    1.667    3.000    0.000    0.000 
#    3.000    4.167    0.000   17.000    0.000    0.000 
#    0.000    0.000    0.000    0.000    0.000    0.000 
#
# Total GULP energy -133872.276045 kJ/mol
# GULP energy per Si atom -5578.011502 kJ/mol
# Density = 1.787624 g / cm^3
# Si number density = 17.917024 Si / 1000 Ang^3
#
#
#
# Elastic Constant Matrix: (Units=GPa)
#
#
# Indices 1 2 3 4 5 6 
#
# 1 161.4936 21.4474 95.8030 0.0000 -7.9369 0.0000
# 2 21.4474 31.0458 18.6542 0.0000 -0.7436 0.0000
# 3 95.8030 18.6542 127.9029 0.0000 7.2854 0.0000
# 4 0.0000 0.0000 0.0000 22.5975 0.0000 -4.5800
# 5 -7.9369 -0.7436 7.2854 0.0000 34.9705 0.0000
# 6 0.0000 0.0000 0.0000 -4.5800 0.0000 32.2773
#
#
#
# Elastic Compliance Matrix: (Units=1/GPa)
#
#
# Indices 1 2 3 4 5 6 
#
# 1 0.012060 -0.002894 -0.008869 0.000000 0.004523 0.000000
# 2 -0.002894 0.036117 -0.003143 0.000000 0.000766 0.000000
# 3 -0.008869 -0.003143 0.015219 0.000000 -0.005250 0.000000
# 4 0.000000 0.000000 0.000000 0.045563 0.000000 0.006465
# 5 0.004523 0.000766 -0.005250 0.000000 0.030732 0.000000
# 6 0.000000 0.000000 0.000000 0.006465 0.000000 0.031899
#
#
# Mechanical properties :
#
#
# Convention : Reuss Voigt Hill
#
# Bulk Modulus (GPa) = 29.77683 65.80571 47.79127
# Shear Modulus (GPa) = 23.51857 30.27157 26.89507
#
# Velocity S-wave (km/s) = 3.62697 4.11486 3.87859
# Velocity P-wave (km/s) = 5.84767 7.70610 6.84029
#
# Compressibility (1/GPa) = 0.03358316
#
# Stress axis : x y z
#
# Youngs Moduli (GPa) = 82.91710 27.68788 65.70699
#
# Poissons Ratio (x) = 0.08013 0.58276
# Poissons Ratio (y) = 0.23998 0.20654
# Poissons Ratio (z) = 0.73539 0.08703
#
# Static dielectric constant tensor:
#      x y z
#    x 1.626780 0.000000 0.031150 
#    y 0.000000 1.620750 0.000000 
#    z 0.031150 0.000000 1.615110 
# 
# From -- ./inp_files/329124.got.cif
#   From: 2010.05.17/outbox.cif.g08.bks.cpg/sg12_165_cif.got.tgz:329124.got - 2010.06.03 13:09:07.
