data_PCOD9175458
_publ_section_title
;
Structure prediction by ZEFSAII (Michael W. Deem and Ramdas Pophale) SiO2 
 PCOD9175458
Probable space group: C 2/M
;
_chemical_formula_sum "Si O2"
_cell_formula_units_Z 54
_cell_length_a 16.183374
_cell_length_b 7.448424
_cell_length_c 18.001589
_cell_angle_alpha 90.000000
_cell_angle_beta 112.668060
_cell_angle_gamma 90.000000
_cell_volume 2002.303026
_symmetry_space_group_name_H-M "C 2/M"
_symmetry_group_IT_number 12
_symmetry_cell_setting 'monoclinic'
loop_
_space_group_symop_operation_xyz
x,y,z
-x,y,-z
-x,-y,-z
x,-y,z
1/2+x,1/2+y,z
1/2-x,1/2+y,-z
1/2-x,1/2-y,-z
1/2+x,1/2-y,z
loop_
_atom_site_type_symbol
_atom_site_label
_atom_site_fract_x
_atom_site_fract_y
_atom_site_fract_z
Si Si1 0.772734 0.293998 0.407336
Si Si2 0.559743 0.217565 0.451549
Si Si3 0.791078 0.500000 0.066573
Si Si4 0.417711 0.716314 0.155812
Si Si5 0.799001 0.212628 0.257630
Si Si6 0.637791 0.692797 0.101650
Si Si7 0.000000 0.500000 0.000000
Si Si8 0.083844 0.791942 0.298881
O O1 0.756584 0.500000 0.422097
O O2 0.839724 0.219579 0.491813
O O3 0.822619 0.294597 0.344887
O O4 0.678719 0.204502 0.352658
O O5 0.500000 0.276778 0.500000
O O6 0.533909 0.284647 0.361470
O O7 0.558676 0.000000 0.449601
O O8 0.869242 0.344364 0.081382
O O9 0.716279 0.653355 0.067514
O O10 0.409413 0.500000 0.140747
O O11 0.364060 0.765341 0.213219
O O12 0.518586 0.771727 0.211536
O O13 0.699909 0.267030 0.195322
O O14 0.803231 0.000000 0.265878
O O15 0.591093 0.500000 0.096186
O O16 0.568807 0.843699 0.056937
O O17 0.100186 0.000000 0.287163
#
# Coordination Sequence:
#
# PCOD9175458 Si02
#       8
#     8   8   4   8   8   8   2   8
#     4  10  21  34  50  72 106 145 184 234 294 349
#     4  10  21  35  51  74 101 139 190 239 291 354
#     4   8  18  29  50  77 103 149 183 212 280 317
#     4   9  18  32  51  75 103 138 187 237 277 330
#     4  10  18  33  52  76 106 144 186 228 275 339
#     4   9  19  31  50  80 115 157 183 223 277 327
#     4  12  18  32  52  84 132 154 184 224 268 336
#     4  10  21  35  50  73 104 138 186 245 296 337
#
# _framework density 26.968944
#
# number of rings (size 3 to 8) (size 9 to 14) (size 15 to 20)
#    0.444    1.926    0.741    2.000    3.111    1.481 
#    0.000    0.000    0.000    0.000    0.000    0.000 
#    0.000   10.667    0.000    0.741    0.000    0.000 
#
# Total GULP energy -150325.580673 kJ/mol
# GULP energy per Si atom -5567.614099 kJ/mol
# Density = 2.690756 g / cm^3
# Si number density = 26.968944 Si / 1000 Ang^3
#
#
#
# Elastic Constant Matrix: (Units=GPa)
#
#
# Indices 1 2 3 4 5 6 
#
# 1 81.2467 8.8260 22.8161 0.0000 9.3067 0.0000
# 2 8.8260 130.1105 48.6386 0.0000 14.8273 0.0000
# 3 22.8161 48.6386 160.7328 0.0000 16.7458 0.0000
# 4 0.0000 0.0000 0.0000 37.6951 0.0000 -19.5525
# 5 9.3067 14.8273 16.7458 0.0000 50.6551 0.0000
# 6 0.0000 0.0000 0.0000 -19.5525 0.0000 23.6396
#
#
#
# Elastic Compliance Matrix: (Units=1/GPa)
#
#
# Indices 1 2 3 4 5 6 
#
# 1 0.012983 -0.000062 -0.001634 0.000000 -0.001827 0.000000
# 2 -0.000062 0.008815 -0.002476 0.000000 -0.001750 0.000000
# 3 -0.001634 -0.002476 0.007349 0.000000 -0.001404 0.000000
# 4 0.000000 0.000000 0.000000 0.046462 0.000000 0.038429
# 5 -0.001827 -0.001750 -0.001404 0.000000 0.021054 0.000000
# 6 0.000000 0.000000 0.000000 0.038429 0.000000 0.074087
#
#
# Mechanical properties :
#
#
# Convention : Reuss Voigt Hill
#
# Bulk Modulus (GPa) = 48.06929 59.18351 53.62640
# Shear Modulus (GPa) = 26.87763 41.85191 34.36477
#
# Velocity S-wave (km/s) = 3.16034 3.94363 3.57352
# Velocity P-wave (km/s) = 5.58388 6.53674 6.07901
#
# Compressibility (1/GPa) = 0.02080330
#
# Stress axis : x y z
#
# Youngs Moduli (GPa) = 77.02359 113.44090 136.07040
#
# Poissons Ratio (x) = 0.00700 0.22233
# Poissons Ratio (y) = 0.00475 0.33697
# Poissons Ratio (z) = 0.12585 0.28093
#
# Static dielectric constant tensor:
#      x y z
#    x 2.286140 0.000000 -0.016690 
#    y 0.000000 1.953720 0.000000 
#    z -0.016690 0.000000 2.103050 
# 
# From -- ./inp_files/362540.got.cif
#   From: 2010.05.17/outbox.cif.g08.bks.cpg/sg12_182_cif.got.tgz:362540.got - 2010.06.03 13:09:07.
