data_PCOD9175799
_publ_section_title
;
Structure prediction by ZEFSAII (Michael W. Deem and Ramdas Pophale) SiO2 
 PCOD9175799
Probable space group: C 2/M
;
_chemical_formula_sum "Si O2"
_cell_formula_units_Z 48
_cell_length_a 9.354149
_cell_length_b 20.321861
_cell_length_c 17.661356
_cell_angle_alpha 90.000000
_cell_angle_beta 47.964380
_cell_angle_gamma 90.000000
_cell_volume 2493.572537
_symmetry_space_group_name_H-M "C 2/M"
_symmetry_group_IT_number 12
_symmetry_cell_setting 'monoclinic'
loop_
_space_group_symop_operation_xyz
x,y,z
-x,y,-z
-x,-y,-z
x,-y,z
1/2+x,1/2+y,z
1/2-x,1/2+y,-z
1/2-x,1/2-y,-z
1/2+x,1/2-y,z
loop_
_atom_site_type_symbol
_atom_site_label
_atom_site_fract_x
_atom_site_fract_y
_atom_site_fract_z
Si Si1 0.211305 0.357864 0.459733
Si Si2 0.137201 0.000000 0.562858
Si Si3 0.303247 0.000000 0.341075
Si Si4 0.342141 0.182832 0.989315
Si Si5 0.230490 0.572217 0.894515
Si Si6 0.627694 0.125142 0.772554
Si Si7 0.229263 0.216364 0.406362
O O1 0.319847 0.428121 0.415782
O O2 0.300178 0.291981 0.388405
O O3 0.196644 0.330866 0.551831
O O4 0.000000 0.367973 0.500000
O O5 0.277425 0.000000 0.439736
O O6 0.916708 0.000000 0.612789
O O7 0.403564 0.935566 0.272509
O O8 0.440641 0.152888 0.880137
O O9 0.500000 0.195248 0.000000
O O10 0.250000 0.250000 0.000000
O O11 0.197925 0.129172 0.076031
O O12 0.314032 0.500000 0.873937
O O13 0.242505 0.595771 0.803962
O O14 0.000000 0.567135 0.000000
O O15 0.726553 0.182077 0.688765
O O16 0.000000 0.218864 0.500000
#
# Coordination Sequence:
#
# PCOD9175799 Si02
#       7
#     8   4   4   8   8   8   8
#     4  10  21  36  52  75 115 156 193 237 293 336
#     4  11  21  36  52  78 124 151 195 247 289 336
#     4  11  20  32  59  90 105 149 200 251 280 337
#     4   9  20  38  58  85 114 145 183 235 293 345
#     4   8  15  30  54  82 107 129 177 236 279 321
#     4  10  18  33  57  87 109 142 192 242 289 331
#     4  10  20  37  55  81 114 154 201 240 279 342
#
# _framework density 19.249489000000001
#
# number of rings (size 3 to 8) (size 9 to 14) (size 15 to 20)
#    0.000    2.667    2.500    1.250    1.167    0.000 
#   24.000    0.000    0.000    0.500    0.000    0.000 
#    0.000    0.000    0.000    0.000    0.000    0.000 
#
# Total GULP energy -133631.776386 kJ/mol
# GULP energy per Si atom -5567.990683 kJ/mol
# Density = 1.920568 g / cm^3
# Si number density = 19.249489 Si / 1000 Ang^3
#
#
#
# Elastic Constant Matrix: (Units=GPa)
#
#
# Indices 1 2 3 4 5 6 
#
# 1 44.7577 26.5956 -0.2702 0.0000 5.1253 0.0000
# 2 26.5956 199.6969 46.0273 0.0000 15.4039 0.0000
# 3 -0.2702 46.0273 93.1481 0.0000 23.7088 0.0000
# 4 0.0000 0.0000 0.0000 29.3490 0.0000 2.9641
# 5 5.1253 15.4039 23.7088 0.0000 11.9244 0.0000
# 6 0.0000 0.0000 0.0000 2.9641 0.0000 28.7784
#
#
#
# Elastic Compliance Matrix: (Units=1/GPa)
#
#
# Indices 1 2 3 4 5 6 
#
# 1 0.027012 -0.003631 0.007357 0.000000 -0.021547 0.000000
# 2 -0.003631 0.006214 -0.002906 0.000000 -0.000690 0.000000
# 3 0.007357 -0.002906 0.024380 0.000000 -0.047883 0.000000
# 4 0.000000 0.000000 0.000000 0.034431 0.000000 -0.003546
# 5 -0.021547 -0.000690 -0.047883 0.000000 0.189219 0.000000
# 6 0.000000 0.000000 0.000000 -0.003546 0.000000 0.035114
#
#
# Mechanical properties :
#
#
# Convention : Reuss Voigt Hill
#
# Bulk Modulus (GPa) = 16.87848 53.58980 35.23414
# Shear Modulus (GPa) = 14.94865 31.69369 23.32117
#
# Velocity S-wave (km/s) = 2.78973 4.06207 3.48447
# Velocity P-wave (km/s) = 4.37768 7.06404 5.87642
#
# Compressibility (1/GPa) = 0.05924703
#
# Stress axis : x y z
#
# Youngs Moduli (GPa) = 37.02063 160.92545 41.01663
#
# Poissons Ratio (x) = 0.58433 -0.30176
# Poissons Ratio (y) = 0.13442 0.11918
# Poissons Ratio (z) = -0.27236 0.46758
#
# Static dielectric constant tensor:
#      x y z
#    x 1.709500 0.000000 0.008420 
#    y 0.000000 1.743870 0.000000 
#    z 0.008420 0.000000 1.698000 
# 
# From -- ./inp_files/263794.got.cif
#   From: 2010.05.17/outbox.cif.g08.bks.cpg/sg12_132_cif.got.tgz:263794.got - 2010.06.03 13:09:07.
