data_PCOD9175184
_publ_section_title
;
Structure prediction by ZEFSAII (Michael W. Deem and Ramdas Pophale) SiO2 
 PCOD9175184
Probable space group: C 2/M
;
_chemical_formula_sum "Si O2"
_cell_formula_units_Z 56
_cell_length_a 17.051828
_cell_length_b 21.317310
_cell_length_c 25.450664
_cell_angle_alpha 90.000000
_cell_angle_beta 160.355698
_cell_angle_gamma 90.000000
_cell_volume 3110.098783
_symmetry_space_group_name_H-M "C 2/M"
_symmetry_group_IT_number 12
_symmetry_cell_setting 'monoclinic'
loop_
_space_group_symop_operation_xyz
x,y,z
-x,y,-z
-x,-y,-z
x,-y,z
1/2+x,1/2+y,z
1/2-x,1/2+y,-z
1/2-x,1/2-y,-z
1/2+x,1/2-y,z
loop_
_atom_site_type_symbol
_atom_site_label
_atom_site_fract_x
_atom_site_fract_y
_atom_site_fract_z
Si Si1 0.502095 0.797520 0.562463
Si Si2 0.649810 0.429681 0.971334
Si Si3 0.019566 0.764228 0.301564
Si Si4 0.668211 0.775378 0.157535
Si Si5 0.102718 0.569982 0.654610
Si Si6 0.768102 0.312141 0.975393
Si Si7 0.724816 0.127347 0.840712
O O1 0.500000 0.776368 0.500000
O O2 0.737142 0.780590 0.744232
O O3 0.473350 0.872463 0.545485
O O4 0.293105 0.767641 0.464539
O O5 0.715960 0.500000 0.996791
O O6 0.370911 0.429059 0.804399
O O7 0.716576 0.374648 0.974160
O O8 0.768590 0.411484 0.101549
O O9 0.901340 0.799701 0.276280
O O10 0.920427 0.798542 0.188006
O O11 0.912950 0.693326 0.238252
O O12 0.500000 0.764620 0.000000
O O13 0.515031 0.815275 0.100990
O O14 0.008929 0.500000 0.587018
O O15 0.113686 0.588266 0.723089
O O16 0.750000 0.250000 0.000000
O O17 0.000000 0.136978 0.000000
#
# Coordination Sequence:
#
# PCOD9175184 Si02
#       7
#     8   8   8   8   8   8   8
#     4  12  24  36  55  89 120 148 191 242 296 345
#     4  10  20  33  55  86 118 152 193 241 293 346
#     4  11  21  34  56  85 115 148 190 247 292 343
#     4  10  22  37  57  82 113 150 190 238 291 340
#     4  10  21  35  52  77 116 160 193 228 284 360
#     4  11  19  33  57  84 113 148 191 242 291 339
#     4  10  18  32  56  85 116 149 192 242 292 348
#
# _framework density 18.005859000000001
#
# number of rings (size 3 to 8) (size 9 to 14) (size 15 to 20)
#    0.000    1.429    2.857    4.714    2.000    2.000 
#    0.000    0.714    0.000    4.714    0.000    1.000 
#    0.000    0.000    0.000    0.000    0.000    0.000 
#
# Total GULP energy -155987.727931 kJ/mol
# GULP energy per Si atom -5570.990283 kJ/mol
# Density = 1.796488 g / cm^3
# Si number density = 18.005859 Si / 1000 Ang^3
#
#
#
# Elastic Constant Matrix: (Units=GPa)
#
#
# Indices 1 2 3 4 5 6 
#
# 1 117.5662 51.9754 33.5636 0.0242 -2.0080 -0.0014
# 2 51.9754 123.9840 22.5831 0.0340 6.1167 0.0007
# 3 33.5636 22.5831 63.9260 0.0433 3.9431 -0.0045
# 4 0.0242 0.0340 0.0433 19.5123 -0.0103 3.4914
# 5 -2.0080 6.1167 3.9431 -0.0103 26.2055 0.0021
# 6 -0.0014 0.0007 -0.0045 3.4914 0.0021 20.6298
#
#
#
# Elastic Compliance Matrix: (Units=1/GPa)
#
#
# Indices 1 2 3 4 5 6 
#
# 1 0.011792 -0.004184 -0.004874 0.000005 0.002614 -0.000001
# 2 -0.004184 0.010169 -0.001241 -0.000011 -0.002508 0.000001
# 3 -0.004874 -0.001241 0.018820 -0.000037 -0.002916 0.000010
# 4 0.000005 -0.000011 -0.000037 0.052850 0.000030 -0.008944
# 5 0.002614 -0.002508 -0.002916 0.000030 0.039384 -0.000009
# 6 -0.000001 0.000001 0.000010 -0.008944 -0.000009 0.049987
#
#
# Mechanical properties :
#
#
# Convention : Reuss Voigt Hill
#
# Bulk Modulus (GPa) = 49.54714 57.96893 53.75804
# Shear Modulus (GPa) = 23.77214 26.42646 25.09930
#
# Velocity S-wave (km/s) = 3.63746 3.83516 3.73762
# Velocity P-wave (km/s) = 6.72447 7.20247 6.96757
#
# Compressibility (1/GPa) = 0.02018280
#
# Stress axis : x y z
#
# Youngs Moduli (GPa) = 84.80384 98.33373 53.13367
#
# Poissons Ratio (x) = 0.41147 0.25898
# Poissons Ratio (y) = 0.35486 0.06593
# Poissons Ratio (z) = 0.41335 0.12202
#
# Static dielectric constant tensor:
#      x y z
#    x 1.652970 0.000000 -0.018580 
#    y 0.000000 1.616470 -0.000020 
#    z -0.018580 -0.000020 1.696490 
# 
# From -- ./inp_files/364493.got.cif
#   From: 2010.05.17/outbox.cif.g08.bks.cpg/sg12_183_cif.got.tgz:364493.got - 2010.06.03 13:09:07.
