data_PCOD9175454
_publ_section_title
;
Structure prediction by ZEFSAII (Michael W. Deem and Ramdas Pophale) SiO2 
 PCOD9175454
Probable space group: C 2/M
;
_chemical_formula_sum "Si O2"
_cell_formula_units_Z 56
_cell_length_a 13.071304
_cell_length_b 15.396927
_cell_length_c 20.448524
_cell_angle_alpha 90.000000
_cell_angle_beta 43.229497
_cell_angle_gamma 90.000000
_cell_volume 2818.747925
_symmetry_space_group_name_H-M "C 2/M"
_symmetry_group_IT_number 12
_symmetry_cell_setting 'monoclinic'
loop_
_space_group_symop_operation_xyz
x,y,z
-x,y,-z
-x,-y,-z
x,-y,z
1/2+x,1/2+y,z
1/2-x,1/2+y,-z
1/2-x,1/2-y,-z
1/2+x,1/2-y,z
loop_
_atom_site_type_symbol
_atom_site_label
_atom_site_fract_x
_atom_site_fract_y
_atom_site_fract_z
Si Si1 0.160532 0.400250 0.291678
Si Si2 0.629007 0.315752 0.636440
Si Si3 0.553971 0.163812 0.207939
Si Si4 0.040081 0.255432 0.549859
Si Si5 0.966073 0.097604 0.196972
Si Si6 0.768687 0.313829 0.091220
Si Si7 0.952488 0.604635 0.114691
O O1 0.157726 0.500000 0.316763
O O2 0.091395 0.397008 0.251700
O O3 0.332676 0.368378 0.213566
O O4 0.069817 0.333410 0.378812
O O5 0.562045 0.235135 0.709372
O O6 0.798583 0.298682 0.537546
O O7 0.542802 0.311854 0.608094
O O8 0.600171 0.394609 0.698460
O O9 0.711051 0.214763 0.121106
O O10 0.479159 0.121979 0.179074
O O11 0.000000 0.213284 0.500000
O O12 0.123840 0.143506 0.125607
O O13 0.994265 0.000000 0.164215
O O14 0.807946 0.354036 0.144874
O O15 0.910237 0.342907 0.982851
O O16 0.957663 0.500000 0.099838
#
# Coordination Sequence:
#
# PCOD9175454 Si02
#       7
#     8   8   8   8   8   8   8
#     4  10  21  35  55  84 116 147 184 234 288 343
#     4   9  20  32  51  79 104 142 185 227 274 333
#     4  10  22  37  59  83 115 149 191 236 288 340
#     4  10  18  33  52  74 107 140 183 228 275 327
#     4  10  19  34  55  80 113 145 182 230 284 341
#     4  10  22  37  60  83 113 148 195 234 278 341
#     4  11  22  40  62  85 114 152 196 242 287 337
#
# _framework density 19.866976999999999
#
# number of rings (size 3 to 8) (size 9 to 14) (size 15 to 20)
#    0.000    2.000    1.429    2.571    4.000    2.000 
#    0.000    0.000    0.000    3.000    0.000    0.000 
#    0.000    0.000    0.000    0.000    0.000    0.000 
#
# Total GULP energy -155959.798415 kJ/mol
# GULP energy per Si atom -5569.992801 kJ/mol
# Density = 1.982176 g / cm^3
# Si number density = 19.866977 Si / 1000 Ang^3
#
#
#
# Elastic Constant Matrix: (Units=GPa)
#
#
# Indices 1 2 3 4 5 6 
#
# 1 113.6532 11.9286 9.4205 0.0000 15.8764 0.0000
# 2 11.9286 41.5066 -5.0347 0.0000 -2.8477 0.0000
# 3 9.4205 -5.0347 34.0006 -0.0001 -4.0012 0.0000
# 4 0.0000 0.0000 -0.0001 5.8133 0.0000 -2.2720
# 5 15.8764 -2.8477 -4.0012 0.0000 45.4151 0.0000
# 6 0.0000 0.0000 0.0000 -2.2720 0.0000 24.2462
#
#
#
# Elastic Compliance Matrix: (Units=1/GPa)
#
#
# Indices 1 2 3 4 5 6 
#
# 1 0.010066 -0.003635 -0.003808 0.000000 -0.004082 0.000000
# 2 -0.003635 0.026005 0.005254 0.000000 0.003364 0.000000
# 3 -0.003808 0.005254 0.031769 0.000000 0.004459 0.000000
# 4 0.000000 0.000000 0.000000 0.178559 0.000000 0.016732
# 5 -0.004082 0.003364 0.004459 0.000000 0.024050 0.000000
# 6 0.000000 0.000000 0.000000 0.016732 0.000000 0.042811
#
#
# Mechanical properties :
#
#
# Convention : Reuss Voigt Hill
#
# Bulk Modulus (GPa) = 15.75727 24.64326 20.20027
# Shear Modulus (GPa) = 14.75830 26.61799 20.68814
#
# Velocity S-wave (km/s) = 2.72849 3.66431 3.23047
# Velocity P-wave (km/s) = 4.22787 5.50763 4.90963
#
# Compressibility (1/GPa) = 0.06346276
#
# Stress axis : x y z
#
# Youngs Moduli (GPa) = 99.34367 38.45380 31.47730
#
# Poissons Ratio (x) = 0.13977 0.11985
# Poissons Ratio (y) = 0.36110 -0.16537
# Poissons Ratio (z) = 0.37826 -0.20203
#
# Static dielectric constant tensor:
#      x y z
#    x 1.773950 0.000000 0.004080 
#    y 0.000000 1.722510 0.000000 
#    z 0.004080 0.000000 1.711080 
# 
# From -- ./inp_files/296900.got.cif
#   From: 2010.05.17/outbox.cif.g08.bks.cpg/sg12_149_cif.got.tgz:296900.got - 2010.06.03 13:09:07.
