data_PCOD9175836
_publ_section_title
;
Structure prediction by ZEFSAII (Michael W. Deem and Ramdas Pophale) SiO2 
 PCOD9175836
Probable space group: C 2/M
;
_chemical_formula_sum "Si O2"
_cell_formula_units_Z 56
_cell_length_a 25.550582
_cell_length_b 18.499822
_cell_length_c 8.455594
_cell_angle_alpha 90.000000
_cell_angle_beta 131.927493
_cell_angle_gamma 90.000000
_cell_volume 2973.583607
_symmetry_space_group_name_H-M "C 2/M"
_symmetry_group_IT_number 12
_symmetry_cell_setting 'monoclinic'
loop_
_space_group_symop_operation_xyz
x,y,z
-x,y,-z
-x,-y,-z
x,-y,z
1/2+x,1/2+y,z
1/2-x,1/2+y,-z
1/2-x,1/2-y,-z
1/2+x,1/2-y,z
loop_
_atom_site_type_symbol
_atom_site_label
_atom_site_fract_x
_atom_site_fract_y
_atom_site_fract_z
Si Si1 0.639768 0.213992 0.970474
Si Si2 0.540264 0.306344 0.919087
Si Si3 0.770721 0.682248 0.260346
Si Si4 0.151513 0.921726 0.556318
Si Si5 0.800388 0.419039 0.017587
Si Si6 0.657351 0.584551 0.191585
Si Si7 0.402975 0.729467 0.454823
O O1 0.598809 0.243517 0.039145
O O2 0.643575 0.128459 0.964061
O O3 0.603340 0.243478 0.737154
O O4 0.716976 0.250970 0.123787
O O5 0.480304 0.275827 0.682676
O O6 0.500000 0.321160 0.000000
O O7 0.589212 0.375840 0.976038
O O8 0.780515 0.630076 0.128481
O O9 0.727603 0.630787 0.293922
O O10 0.846730 0.720337 0.437843
O O11 0.145099 0.912013 0.355296
O O12 0.120892 0.853551 0.583684
O O13 0.119682 0.000000 0.534167
O O14 0.232526 0.924019 0.769671
O O15 0.821808 0.500000 0.105790
O O16 0.663966 0.500000 0.158962
#
# Coordination Sequence:
#
# PCOD9175836 Si02
#       7
#     8   8   8   8   8   8   8
#     4  10  20  36  55  79 110 139 180 233 271 318
#     4  11  23  35  54  79 108 150 184 220 266 327
#     4  10  19  34  58  80 108 141 185 229 269 320
#     4  10  19  31  52  80 111 140 176 219 266 318
#     4  10  18  33  58  84 107 137 178 227 278 323
#     4  10  22  37  53  79 116 152 182 222 270 323
#     4  11  19  36  53  80 109 142 181 226 273 316
#
# _framework density 18.832495000000002
#
# number of rings (size 3 to 8) (size 9 to 14) (size 15 to 20)
#    0.000    1.714    4.286    1.714    0.000    2.571 
#    0.000    0.000    0.000   10.714    0.000    0.000 
#    0.000    0.000    0.000    0.000    0.000    0.000 
#
# Total GULP energy -155927.538154 kJ/mol
# GULP energy per Si atom -5568.840648 kJ/mol
# Density = 1.878963 g / cm^3
# Si number density = 18.832495 Si / 1000 Ang^3
#
#
#
# Elastic Constant Matrix: (Units=GPa)
#
#
# Indices 1 2 3 4 5 6 
#
# 1 58.4823 38.7071 4.3053 0.0000 21.8832 0.0000
# 2 38.7071 126.8245 18.1295 0.0000 17.5558 0.0000
# 3 4.3053 18.1295 50.8797 0.0000 15.5177 0.0000
# 4 0.0000 0.0000 0.0000 21.0888 0.0000 -1.5811
# 5 21.8832 17.5558 15.5177 0.0000 17.2844 0.0000
# 6 0.0000 0.0000 0.0000 -1.5811 0.0000 16.7386
#
#
#
# Elastic Compliance Matrix: (Units=1/GPa)
#
#
# Indices 1 2 3 4 5 6 
#
# 1 0.046286 -0.007427 0.019694 0.000000 -0.068739 0.000000
# 2 -0.007427 0.010379 -0.003749 0.000000 0.002226 0.000000
# 3 0.019694 -0.003749 0.035483 0.000000 -0.052983 0.000000
# 4 0.000000 0.000000 0.000000 0.047757 0.000000 0.004511
# 5 -0.068739 0.002226 -0.052983 0.000000 0.190191 0.000000
# 6 0.000000 0.000000 0.000000 0.004511 0.000000 0.060168
#
#
# Mechanical properties :
#
#
# Convention : Reuss Voigt Hill
#
# Bulk Modulus (GPa) = 9.15869 39.83003 24.49436
# Shear Modulus (GPa) = 12.20641 22.69200 17.44921
#
# Velocity S-wave (km/s) = 2.54865 3.47499 3.04723
# Velocity P-wave (km/s) = 3.67895 6.10707 5.04137
#
# Compressibility (1/GPa) = 0.10918598
#
# Stress axis : x y z
#
# Youngs Moduli (GPa) = 21.60484 96.34570 28.18278
#
# Poissons Ratio (x) = 0.71552 -0.55504
# Poissons Ratio (y) = 0.16045 0.10565
# Poissons Ratio (z) = -0.42549 0.36118
#
# Static dielectric constant tensor:
#      x y z
#    x 1.713640 0.000000 0.016330 
#    y 0.000000 1.680480 0.000000 
#    z 0.016330 0.000000 1.702070 
# 
# From -- ./inp_files/98075.got.cif
#   From: 2010.05.17/outbox.cif.g08.bks.cpg/sg12_50_cif.got.tgz:98075.got - 2010.06.03 13:09:07.
