data_PCOD9175031
_publ_section_title
;
Structure prediction by ZEFSAII (Michael W. Deem and Ramdas Pophale) SiO2 
 PCOD9175031
Probable space group: C 2/M
;
_chemical_formula_sum "Si O2"
_cell_formula_units_Z 64
_cell_length_a 14.801417
_cell_length_b 8.493267
_cell_length_c 26.154946
_cell_angle_alpha 90.000000
_cell_angle_beta 85.181631
_cell_angle_gamma 90.000000
_cell_volume 3276.380825
_symmetry_space_group_name_H-M "C 2/M"
_symmetry_group_IT_number 12
_symmetry_cell_setting 'monoclinic'
loop_
_space_group_symop_operation_xyz
x,y,z
-x,y,-z
-x,-y,-z
x,-y,z
1/2+x,1/2+y,z
1/2-x,1/2+y,-z
1/2-x,1/2-y,-z
1/2+x,1/2-y,z
loop_
_atom_site_type_symbol
_atom_site_label
_atom_site_fract_x
_atom_site_fract_y
_atom_site_fract_z
Si Si1 0.385319 0.188219 0.134361
Si Si2 0.909972 0.812082 0.862415
Si Si3 0.612023 0.691128 0.403238
Si Si4 0.734014 0.187744 0.678448
Si Si5 0.225464 0.686905 0.213055
Si Si6 0.749355 0.188222 0.057623
Si Si7 0.925462 0.190142 0.373398
Si Si8 0.148423 0.809651 0.512403
O O1 0.487753 0.249354 0.136354
O O2 0.316930 0.249150 0.181606
O O3 0.336044 0.247500 0.084977
O O4 0.385814 0.000000 0.134827
O O5 0.860818 0.760380 0.812085
O O6 0.841342 0.746249 0.908900
O O7 0.911110 0.000000 0.865333
O O8 0.612124 0.500000 0.405205
O O9 0.705339 0.741488 0.372896
O O10 0.530202 0.736582 0.370331
O O11 0.599084 0.742999 0.462412
O O12 0.769050 0.266654 0.728181
O O13 0.632447 0.234968 0.668706
O O14 0.741927 0.000000 0.683117
O O15 0.222323 0.500000 0.206557
O O16 0.751384 0.000000 0.058624
O O17 0.750000 0.250000 0.000000
O O18 0.888784 0.241779 0.431071
O O19 0.918205 0.000000 0.370423
O O20 0.250000 0.750000 0.500000
O O21 0.145681 0.000000 0.513357
#
# Coordination Sequence:
#
# PCOD9175031 Si02
#       8
#     8   8   8   8   8   8   8   8
#     4  11  22  40  64  92 122 159 204 250 301 356
#     4  11  22  40  64  92 123 161 204 248 299 356
#     4   9  19  35  55  78 107 143 181 221 277 341
#     4  11  22  38  57  80 112 145 182 234 293 349
#     4  11  23  41  62  86 116 153 198 249 300 354
#     4  11  22  39  61  92 130 169 209 254 302 351
#     4  10  20  35  56  80 106 141 185 228 275 342
#     4  10  18  32  55  79 105 140 179 223 275 338
#
# _framework density 19.533749
#
# number of rings (size 3 to 8) (size 9 to 14) (size 15 to 20)
#    0.000    1.500    1.250    6.750    0.000    3.000 
#    0.000    8.125    0.000    1.500    0.000    0.000 
#    0.000    0.000    0.000    0.000    0.000    0.000 
#
# Total GULP energy -178742.525987 kJ/mol
# GULP energy per Si atom -5585.703937 kJ/mol
# Density = 1.948929 g / cm^3
# Si number density = 19.533749 Si / 1000 Ang^3
#
#
#
# Elastic Constant Matrix: (Units=GPa)
#
#
# Indices 1 2 3 4 5 6 
#
# 1 123.5003 30.1495 27.4171 0.0000 22.0618 0.0000
# 2 30.1495 111.1605 24.4420 0.0000 6.2367 0.0000
# 3 27.4171 24.4420 93.9050 0.0000 19.5373 0.0000
# 4 0.0000 0.0000 0.0000 26.8348 0.0000 3.0660
# 5 22.0618 6.2367 19.5373 0.0000 16.2750 0.0000
# 6 0.0000 0.0000 0.0000 3.0660 0.0000 32.1814
#
#
#
# Elastic Compliance Matrix: (Units=1/GPa)
#
#
# Indices 1 2 3 4 5 6 
#
# 1 0.011213 -0.002300 0.000405 0.000000 -0.014805 0.000000
# 2 -0.002300 0.010024 -0.002382 0.000000 0.002136 0.000000
# 3 0.000405 -0.002382 0.014762 0.000000 -0.017357 0.000000
# 4 0.000000 0.000000 0.000000 0.037675 0.000000 -0.003589
# 5 -0.014805 0.002136 -0.017357 0.000000 0.101532 0.000000
# 6 0.000000 0.000000 0.000000 -0.003589 0.000000 0.031416
#
#
# Mechanical properties :
#
#
# Convention : Reuss Voigt Hill
#
# Bulk Modulus (GPa) = 36.43544 54.73147 45.58345
# Shear Modulus (GPa) = 22.28920 31.49539 26.89229
#
# Velocity S-wave (km/s) = 3.38162 4.01977 3.71443
# Velocity P-wave (km/s) = 5.82582 7.04447 6.46393
#
# Compressibility (1/GPa) = 0.02744581
#
# Stress axis : x y z
#
# Youngs Moduli (GPa) = 89.17834 99.76399 67.74138
#
# Poissons Ratio (x) = 0.22943 -0.02743
# Poissons Ratio (y) = 0.20509 0.16135
# Poissons Ratio (z) = -0.03611 0.23763
#
# Static dielectric constant tensor:
#      x y z
#    x 1.661680 0.000000 -0.007930 
#    y 0.000000 1.669880 0.000000 
#    z -0.007930 0.000000 1.673100 
# 
# From -- ./inp_files/338813.got.cif
#   From: 2010.05.17/outbox.cif.g08.bks.cpg/sg12_170_cif.got.tgz:338813.got - 2010.06.03 13:09:07.
