data_PCOD9175158
_publ_section_title
;
Structure prediction by ZEFSAII (Michael W. Deem and Ramdas Pophale) SiO2 
 PCOD9175158
Probable space group: C 2/M
;
_chemical_formula_sum "Si O2"
_cell_formula_units_Z 48
_cell_length_a 11.281975
_cell_length_b 18.379806
_cell_length_c 13.604003
_cell_angle_alpha 90.000000
_cell_angle_beta 118.735390
_cell_angle_gamma 90.000000
_cell_volume 2473.533362
_symmetry_space_group_name_H-M "C 2/M"
_symmetry_group_IT_number 12
_symmetry_cell_setting 'monoclinic'
loop_
_space_group_symop_operation_xyz
x,y,z
-x,y,-z
-x,-y,-z
x,-y,z
1/2+x,1/2+y,z
1/2-x,1/2+y,-z
1/2-x,1/2-y,-z
1/2+x,1/2-y,z
loop_
_atom_site_type_symbol
_atom_site_label
_atom_site_fract_x
_atom_site_fract_y
_atom_site_fract_z
Si Si1 0.618806 0.186463 0.982395
Si Si2 0.720280 0.205602 0.828597
Si Si3 0.855597 0.840191 0.330851
Si Si4 0.856679 0.083160 0.134678
Si Si5 0.321126 0.671228 0.531771
Si Si6 0.174972 0.913070 0.266455
O O1 0.660294 0.259485 0.057660
O O2 0.748422 0.133703 0.038460
O O3 0.500000 0.153192 0.000000
O O4 0.597455 0.202667 0.858738
O O5 0.703143 0.265527 0.736801
O O6 0.747976 0.129237 0.789009
O O7 0.833038 0.902036 0.240955
O O8 0.796926 0.860799 0.413209
O O9 0.015925 0.824316 0.399247
O O10 0.014869 0.101250 0.183248
O O11 0.836330 0.000000 0.099243
O O12 0.250000 0.750000 0.500000
O O13 0.284696 0.623086 0.612481
O O14 0.194493 0.000000 0.276052
#
# Coordination Sequence:
#
# PCOD9175158 Si02
#       6
#     8   8   8   8   8   8
#     4  10  23  35  57  83 107 149 191 240 275 329
#     4  10  21  36  55  81 115 144 189 231 279 331
#     4   9  19  32  54  84 106 146 179 228 275 322
#     4   9  20  37  54  81 114 148 185 225 281 333
#     4  10  18  32  56  83 109 140 184 226 272 331
#     4  10  21  36  58  84 116 149 183 230 281 336
#
# _framework density 19.405438
#
# number of rings (size 3 to 8) (size 9 to 14) (size 15 to 20)
#    0.000    2.333    1.667    0.000    9.333    1.667 
#    0.000    5.000    0.000    2.000    0.000    0.000 
#    0.000    0.000    0.000    0.000    0.000    0.000 
#
# Total GULP energy -133693.652064 kJ/mol
# GULP energy per Si atom -5570.568836 kJ/mol
# Density = 1.936127 g / cm^3
# Si number density = 19.405438 Si / 1000 Ang^3
#
#
#
# Elastic Constant Matrix: (Units=GPa)
#
#
# Indices 1 2 3 4 5 6 
#
# 1 35.9955 24.4277 25.8929 0.0000 -21.6478 0.0000
# 2 24.4277 77.6365 32.1520 0.0000 -8.8923 0.0000
# 3 25.8929 32.1520 78.8421 0.0000 -23.6940 0.0000
# 4 0.0000 0.0000 0.0000 24.6542 0.0000 -2.1587
# 5 -21.6478 -8.8923 -23.6940 0.0000 26.7754 0.0000
# 6 0.0000 0.0000 0.0000 -2.1587 0.0000 20.7543
#
#
#
# Elastic Compliance Matrix: (Units=1/GPa)
#
#
# Indices 1 2 3 4 5 6 
#
# 1 0.069019 -0.015423 -0.001562 0.000000 0.049297 0.000000
# 2 -0.015423 0.018952 -0.006156 0.000000 -0.011623 0.000000
# 3 -0.001562 -0.006156 0.020044 0.000000 0.014429 0.000000
# 4 0.000000 0.000000 0.000000 0.040934 0.000000 0.004258
# 5 0.049297 -0.011623 0.014429 0.000000 0.086113 0.000000
# 6 0.000000 0.000000 0.000000 0.004258 0.000000 0.048626
#
#
# Mechanical properties :
#
#
# Convention : Reuss Voigt Hill
#
# Bulk Modulus (GPa) = 16.19943 39.71326 27.95634
# Shear Modulus (GPa) = 14.26343 21.77020 18.01682
#
# Velocity S-wave (km/s) = 2.71407 3.35305 3.05034
# Velocity P-wave (km/s) = 4.26469 5.95819 5.18110
#
# Compressibility (1/GPa) = 0.06173058
#
# Stress axis : x y z
#
# Youngs Moduli (GPa) = 14.48877 52.76615 49.89117
#
# Poissons Ratio (x) = 0.81381 0.07795
# Poissons Ratio (y) = 0.22346 0.30715
# Poissons Ratio (z) = 0.02264 0.32485
#
# Static dielectric constant tensor:
#      x y z
#    x 1.732650 0.000000 -0.023620 
#    y 0.000000 1.664040 0.000000 
#    z -0.023620 0.000000 1.741110 
# 
# From -- ./inp_files/131647.got.cif
#   From: 2010.05.17/outbox.cif.g08.bks.cpg/sg12_66_cif.got.tgz:131647.got - 2010.06.03 13:09:07.
