data_PCOD9175654
_publ_section_title
;
Structure prediction by ZEFSAII (Michael W. Deem and Ramdas Pophale) SiO2 
 PCOD9175654
Probable space group: C 2/M
;
_chemical_formula_sum "Si O2"
_cell_formula_units_Z 56
_cell_length_a 33.959871
_cell_length_b 8.446610
_cell_length_c 25.106428
_cell_angle_alpha 90.000000
_cell_angle_beta 24.425794
_cell_angle_gamma 90.000000
_cell_volume 2977.995295
_symmetry_space_group_name_H-M "C 2/M"
_symmetry_group_IT_number 12
_symmetry_cell_setting 'monoclinic'
loop_
_space_group_symop_operation_xyz
x,y,z
-x,y,-z
-x,-y,-z
x,-y,z
1/2+x,1/2+y,z
1/2-x,1/2+y,-z
1/2-x,1/2-y,-z
1/2+x,1/2-y,z
loop_
_atom_site_type_symbol
_atom_site_label
_atom_site_fract_x
_atom_site_fract_y
_atom_site_fract_z
Si Si1 0.237696 0.821202 0.599174
Si Si2 0.588095 0.312263 0.930883
Si Si3 0.567496 0.317768 0.676805
Si Si4 0.029435 0.316344 0.832762
Si Si5 0.446771 0.000000 0.649659
Si Si6 0.216761 0.249789 0.336203
Si Si7 0.648423 0.000000 0.340300
Si Si8 0.506770 0.323385 0.630034
O O1 0.321386 0.725858 0.467204
O O2 0.134826 0.743802 0.719278
O O3 0.266633 0.826864 0.625936
O O4 0.235225 0.000000 0.581632
O O5 0.613927 0.500000 0.892165
O O6 0.548082 0.281523 0.038826
O O7 0.500000 0.282728 0.000000
O O8 0.675396 0.196231 0.808574
O O9 0.558795 0.500000 0.703822
O O10 0.523071 0.211570 0.777475
O O11 0.521298 0.300354 0.675413
O O12 0.020177 0.500000 0.857439
O O13 0.453719 0.166638 0.673091
O O14 0.544564 0.000000 0.495490
O O15 0.363608 0.000000 0.708005
O O16 0.198938 0.351546 0.305052
O O17 0.114058 0.170285 0.472699
O O18 0.464426 0.500000 0.672703
#
# Coordination Sequence:
#
# PCOD9175654 Si02
#       8
#     8   8   8   8   4   8   4   8
#     4  11  19  33  54  74 101 143 183 226 269 319
#     4  11  21  36  55  73 100 146 194 231 264 316
#     4  10  21  36  53  75 103 137 187 228 276 331
#     4  12  25  35  47  72 108 144 186 236 275 308
#     4   9  18  32  58  86 120 140 175 226 281 349
#     4  10  18  33  56  77 109 147 186 224 265 328
#     4   9  16  32  53  88 110 142 181 216 277 352
#     4   9  20  35  58  85 114 147 181 224 287 342
#
# _framework density 18.804596
#
# number of rings (size 3 to 8) (size 9 to 14) (size 15 to 20)
#    0.000    1.714    2.857    2.571    4.000    1.429 
#    0.000    5.714    0.000    0.000    0.000    1.000 
#    0.000    0.000    0.000    0.000    0.000    0.000 
#
# Total GULP energy -155903.426085 kJ/mol
# GULP energy per Si atom -5567.979503 kJ/mol
# Density = 1.876180 g / cm^3
# Si number density = 18.804596 Si / 1000 Ang^3
#
#
#
# Elastic Constant Matrix: (Units=GPa)
#
#
# Indices 1 2 3 4 5 6 
#
# 1 86.3480 36.9373 4.9726 -0.0034 2.6763 0.0010
# 2 36.9373 91.1141 -8.3749 -0.0073 1.1279 0.0017
# 3 4.9726 -8.3749 46.6440 -0.0156 13.6230 0.0046
# 4 -0.0034 -0.0073 -0.0156 9.1972 0.0072 7.6112
# 5 2.6763 1.1279 13.6230 0.0072 17.0288 -0.0023
# 6 0.0010 0.0017 0.0046 7.6112 -0.0023 14.5844
#
#
#
# Elastic Compliance Matrix: (Units=1/GPa)
#
#
# Indices 1 2 3 4 5 6 
#
# 1 0.014318 -0.006057 -0.002706 -0.000009 0.000316 0.000005
# 2 -0.006057 0.013845 0.004073 0.000037 -0.003224 -0.000022
# 3 -0.002706 0.004073 0.029247 0.000143 -0.023242 -0.000088
# 4 -0.000009 0.000037 0.000143 0.191385 -0.000210 -0.099878
# 5 0.000316 -0.003224 -0.023242 -0.000210 0.077482 0.000130
# 6 0.000005 -0.000022 -0.000088 -0.099878 0.000130 0.120690
#
#
# Mechanical properties :
#
#
# Convention : Reuss Voigt Hill
#
# Bulk Modulus (GPa) = 20.82049 32.35290 26.58670
# Shear Modulus (GPa) = 10.58521 20.86681 15.72601
#
# Velocity S-wave (km/s) = 2.37514 3.33478 2.89500
# Velocity P-wave (km/s) = 4.31483 5.66302 5.03426
#
# Compressibility (1/GPa) = 0.04802960
#
# Stress axis : x y z
#
# Youngs Moduli (GPa) = 69.84123 72.22775 34.19152
#
# Poissons Ratio (x) = 0.43750 0.09253
# Poissons Ratio (y) = 0.42304 -0.13927
# Poissons Ratio (z) = 0.18901 -0.29419
#
# Static dielectric constant tensor:
#      x y z
#    x 1.672710 0.000000 0.006630 
#    y 0.000000 1.671040 0.000000 
#    z 0.006630 0.000000 1.654310 
# 
# From -- ./inp_files/329587.got.cif
#   From: 2010.05.17/outbox.cif.g08.bks.cpg/sg12_165_cif.got.tgz:329587.got - 2010.06.03 13:09:07.
