data_PCOD9175792
_publ_section_title
;
Structure prediction by ZEFSAII (Michael W. Deem and Ramdas Pophale) SiO2 
 PCOD9175792
Probable space group: C 2/M
;
_chemical_formula_sum "Si O2"
_cell_formula_units_Z 52
_cell_length_a 16.823657
_cell_length_b 21.052326
_cell_length_c 13.535878
_cell_angle_alpha 90.000000
_cell_angle_beta 143.744686
_cell_angle_gamma 90.000000
_cell_volume 2835.155069
_symmetry_space_group_name_H-M "C 2/M"
_symmetry_group_IT_number 12
_symmetry_cell_setting 'monoclinic'
loop_
_space_group_symop_operation_xyz
x,y,z
-x,y,-z
-x,-y,-z
x,-y,z
1/2+x,1/2+y,z
1/2-x,1/2+y,-z
1/2-x,1/2-y,-z
1/2+x,1/2-y,z
loop_
_atom_site_type_symbol
_atom_site_label
_atom_site_fract_x
_atom_site_fract_y
_atom_site_fract_z
Si Si1 0.700662 0.500000 0.466045
Si Si2 0.146887 0.500000 0.190398
Si Si3 0.128547 0.780301 0.316527
Si Si4 0.049677 0.122620 0.395118
Si Si5 0.161583 0.858364 0.158688
Si Si6 0.339505 0.500000 0.810668
Si Si7 0.838002 0.744366 0.987506
Si Si8 0.788932 0.873014 0.254494
O O1 0.833215 0.500000 0.669825
O O2 0.620066 0.561054 0.422272
O O3 0.695637 0.500000 0.342103
O O4 0.213615 0.436176 0.213784
O O5 0.000000 0.500000 0.000000
O O6 0.250000 0.750000 0.500000
O O7 0.046773 0.827724 0.305236
O O8 0.192262 0.821121 0.291183
O O9 0.001776 0.737010 0.157118
O O10 0.138547 0.151110 0.573147
O O11 0.906329 0.106972 0.296906
O O12 0.212857 0.931090 0.203529
O O13 0.193163 0.809671 0.102824
O O14 0.000000 0.863817 0.000000
O O15 0.500000 0.500000 0.000000
O O16 0.750000 0.750000 0.000000
O O17 0.790292 0.683684 0.876374
#
# Coordination Sequence:
#
# PCOD9175792 Si02
#       8
#     4   4   8   8   8   4   8   8
#     4  10  19  34  61  89 117 155 192 251 315 361
#     4  10  23  39  60  88 123 166 210 251 312 374
#     4  11  21  35  57  88 116 156 204 247 301 364
#     4  10  19  35  59  87 118 148 201 253 308 368
#     4   9  20  35  55  86 118 150 196 249 299 356
#     4  10  18  33  57  85 120 149 191 252 304 353
#     4  11  22  39  58  84 123 161 197 248 310 369
#     4  10  21  37  58  85 120 159 198 253 309 368
#
# _framework density 18.341149000000001
#
# number of rings (size 3 to 8) (size 9 to 14) (size 15 to 20)
#    0.000    1.846    3.077    1.385    0.000    6.154 
#    0.000    0.769    0.000    0.000    0.000    1.077 
#    0.000    0.154    0.000    0.000    0.000    0.000 
#
# Total GULP energy -144776.134298 kJ/mol
# GULP energy per Si atom -5568.312858 kJ/mol
# Density = 1.829940 g / cm^3
# Si number density = 18.341149 Si / 1000 Ang^3
#
#
#
# Elastic Constant Matrix: (Units=GPa)
#
#
# Indices 1 2 3 4 5 6 
#
# 1 74.9975 29.9534 19.0150 0.0000 -19.5503 0.0000
# 2 29.9534 104.4440 43.0610 0.0000 -17.1003 0.0000
# 3 19.0150 43.0610 101.4471 0.0000 -9.5447 0.0000
# 4 0.0000 0.0000 0.0000 30.6577 0.0000 -0.9354
# 5 -19.5503 -17.1003 -9.5447 0.0000 22.3439 0.0000
# 6 0.0000 0.0000 0.0000 -0.9354 0.0000 28.6022
#
#
#
# Elastic Compliance Matrix: (Units=1/GPa)
#
#
# Indices 1 2 3 4 5 6 
#
# 1 0.018131 -0.002567 -0.001043 0.000000 0.013454 0.000000
# 2 -0.002567 0.013147 -0.004547 0.000000 0.005873 0.000000
# 3 -0.001043 -0.004547 0.012054 0.000000 0.000757 0.000000
# 4 0.000000 0.000000 0.000000 0.032651 0.000000 0.001068
# 5 0.013454 0.005873 0.000757 0.000000 0.061345 0.000000
# 6 0.000000 0.000000 0.000000 0.001068 0.000000 0.034997
#
#
# Mechanical properties :
#
#
# Convention : Reuss Voigt Hill
#
# Bulk Modulus (GPa) = 37.01205 51.66081 44.33643
# Shear Modulus (GPa) = 25.29809 28.91139 27.10474
#
# Velocity S-wave (km/s) = 3.71793 3.97459 3.84840
# Velocity P-wave (km/s) = 6.21726 7.02075 6.63118
#
# Compressibility (1/GPa) = 0.02701823
#
# Stress axis : x y z
#
# Youngs Moduli (GPa) = 55.15559 76.06392 82.96027
#
# Poissons Ratio (x) = 0.19525 0.08653
# Poissons Ratio (y) = 0.14158 0.37719
# Poissons Ratio (z) = 0.05753 0.34584
#
# Static dielectric constant tensor:
#      x y z
#    x 1.657780 0.000000 -0.085530 
#    y 0.000000 1.627060 0.000000 
#    z -0.085530 0.000000 1.795820 
# 
# From -- ./inp_files/227469.got.cif
#   From: 2010.05.17/outbox.cif.g08.bks.cpg/sg12_114_cif.got.tgz:227469.got - 2010.06.03 13:09:07.
