data_PCOD9175518
_publ_section_title
;
Structure prediction by ZEFSAII (Michael W. Deem and Ramdas Pophale) SiO2 
 PCOD9175518
Probable space group: C 2/M
;
_chemical_formula_sum "Si O2"
_cell_formula_units_Z 56
_cell_length_a 11.492424
_cell_length_b 22.993512
_cell_length_c 14.184330
_cell_angle_alpha 90.000000
_cell_angle_beta 41.967246
_cell_angle_gamma 90.000000
_cell_volume 2506.460014
_symmetry_space_group_name_H-M "C 2/M"
_symmetry_group_IT_number 12
_symmetry_cell_setting 'monoclinic'
loop_
_space_group_symop_operation_xyz
x,y,z
-x,y,-z
-x,-y,-z
x,-y,z
1/2+x,1/2+y,z
1/2-x,1/2+y,-z
1/2-x,1/2-y,-z
1/2+x,1/2-y,z
loop_
_atom_site_type_symbol
_atom_site_label
_atom_site_fract_x
_atom_site_fract_y
_atom_site_fract_z
Si Si1 0.681373 0.067718 0.048073
Si Si2 0.595839 0.164234 0.850187
Si Si3 0.126541 0.432199 0.300651
Si Si4 0.740358 0.905090 0.526931
Si Si5 0.680003 0.437627 0.332447
Si Si6 0.315172 0.718888 0.558384
Si Si7 0.438487 0.434236 0.231406
O O1 0.548091 0.117368 0.096802
O O2 0.690799 0.067383 0.155143
O O3 0.645879 0.000000 0.038692
O O4 0.869821 0.087852 0.897825
O O5 0.760539 0.119015 0.760970
O O6 0.666424 0.210593 0.730162
O O7 0.500000 0.190158 0.000000
O O8 0.090828 0.500000 0.349546
O O9 0.280125 0.405520 0.270522
O O10 0.943529 0.398937 0.414730
O O11 0.695773 0.939001 0.649383
O O12 0.825720 0.846245 0.511491
O O13 0.876004 0.934873 0.376335
O O14 0.500000 0.435322 0.500000
O O15 0.694152 0.500000 0.273989
O O16 0.500000 0.735014 0.500000
O O17 0.250000 0.750000 0.500000
O O18 0.445562 0.500000 0.189367
#
# Coordination Sequence:
#
# PCOD9175518 Si02
#       7
#     8   8   8   8   8   8   8
#     4  10  20  34  54  89 143 189 225 261 320 395
#     4  11  23  40  68  98 135 175 225 278 347 415
#     4  10  18  33  53  84 136 190 235 275 316 381
#     4  11  20  36  61  90 123 168 226 285 336 393
#     4  10  20  33  53  87 133 179 219 255 308 389
#     4  11  27  52  79 101 130 169 223 296 373 435
#     4  10  21  31  52  91 137 191 237 272 314 383
#
# _framework density 22.342268000000001
#
# number of rings (size 3 to 8) (size 9 to 14) (size 15 to 20)
#    0.000    1.571    2.857    4.286    4.000    5.143 
#    0.000    0.714    0.000    0.000    0.000    0.000 
#    0.000    0.000    0.000    0.000    0.000    0.000 
#
# Total GULP energy -155948.820026 kJ/mol
# GULP energy per Si atom -5569.600715 kJ/mol
# Density = 2.229142 g / cm^3
# Si number density = 22.342268 Si / 1000 Ang^3
#
#
#
# Elastic Constant Matrix: (Units=GPa)
#
#
# Indices 1 2 3 4 5 6 
#
# 1 115.8061 23.5602 58.8879 -0.0001 -6.9795 0.0001
# 2 23.5602 39.9956 13.2021 0.0000 9.1807 0.0000
# 3 58.8879 13.2021 184.1687 -0.0001 -0.8116 0.0001
# 4 -0.0001 0.0000 -0.0001 7.9807 0.0000 5.0598
# 5 -6.9795 9.1807 -0.8116 0.0000 36.2292 0.0000
# 6 0.0001 0.0000 0.0001 5.0598 0.0000 20.2832
#
#
#
# Elastic Compliance Matrix: (Units=1/GPa)
#
#
# Indices 1 2 3 4 5 6 
#
# 1 0.011954 -0.006859 -0.003313 0.000000 0.003967 0.000000
# 2 -0.006859 0.031189 -0.000083 0.000000 -0.009227 0.000000
# 3 -0.003313 -0.000083 0.006493 0.000000 -0.000472 0.000000
# 4 0.000000 0.000000 0.000000 0.148844 0.000000 -0.037131
# 5 0.003967 -0.009227 -0.000472 0.000000 0.030694 0.000000
# 6 0.000000 0.000000 0.000000 -0.037131 0.000000 0.058564
#
#
# Mechanical properties :
#
#
# Convention : Reuss Voigt Hill
#
# Bulk Modulus (GPa) = 34.33454 59.03011 46.68232
# Shear Modulus (GPa) = 15.72536 29.18662 22.45599
#
# Velocity S-wave (km/s) = 2.65587 3.61826 3.17375
# Velocity P-wave (km/s) = 4.98054 6.62826 5.86258
#
# Compressibility (1/GPa) = 0.02912519
#
# Stress axis : x y z
#
# Youngs Moduli (GPa) = 83.65110 32.06306 154.00944
#
# Poissons Ratio (x) = 0.21992 0.51027
# Poissons Ratio (y) = 0.57375 0.01283
# Poissons Ratio (z) = 0.27716 0.00267
#
# Static dielectric constant tensor:
#      x y z
#    x 2.018990 0.000000 -0.055770 
#    y 0.000000 1.861270 0.000000 
#    z -0.055770 0.000000 1.886330 
# 
# From -- ./inp_files/209120.got.cif
#   From: 2010.05.17/outbox.cif.g08.bks.cpg/sg12_105_cif.got.tgz:209120.got - 2010.06.03 13:09:07.
