data_PCOD9175135
_publ_section_title
;
Structure prediction by ZEFSAII (Michael W. Deem and Ramdas Pophale) SiO2 
 PCOD9175135
Probable space group: C 2/M
;
_chemical_formula_sum "Si O2"
_cell_formula_units_Z 56
_cell_length_a 18.516763
_cell_length_b 12.130471
_cell_length_c 10.337730
_cell_angle_alpha 90.000000
_cell_angle_beta 108.376230
_cell_angle_gamma 90.000000
_cell_volume 2203.622909
_symmetry_space_group_name_H-M "C 2/M"
_symmetry_group_IT_number 12
_symmetry_cell_setting 'monoclinic'
loop_
_space_group_symop_operation_xyz
x,y,z
-x,y,-z
-x,-y,-z
x,-y,z
1/2+x,1/2+y,z
1/2-x,1/2+y,-z
1/2-x,1/2-y,-z
1/2+x,1/2-y,z
loop_
_atom_site_type_symbol
_atom_site_label
_atom_site_fract_x
_atom_site_fract_y
_atom_site_fract_z
Si Si1 0.164374 0.624023 0.385243
Si Si2 0.484956 0.348211 0.133681
Si Si3 0.337902 0.380850 0.216218
Si Si4 0.991850 0.382887 0.211523
Si Si5 0.124406 0.332045 0.652737
Si Si6 0.343910 0.368330 0.717310
Si Si7 0.257955 0.629774 0.927640
O O1 0.199156 0.500000 0.377129
O O2 0.148366 0.622450 0.529692
O O3 0.189612 0.752487 0.364051
O O4 0.082312 0.618846 0.269928
O O5 0.413144 0.389980 0.170994
O O6 0.465839 0.218902 0.113451
O O7 0.565064 0.363923 0.252531
O O8 0.500000 0.390393 0.000000
O O9 0.316398 0.500000 0.252455
O O10 0.361896 0.298923 0.342769
O O11 0.274186 0.326903 0.084381
O O12 0.964445 0.500000 0.147494
O O13 0.957674 0.362538 0.336347
O O14 0.180326 0.367569 0.801140
O O15 0.321333 0.500000 0.676875
O O16 0.323168 0.349283 0.856764
O O17 0.267848 0.500000 0.965465
#
# Coordination Sequence:
#
# PCOD9175135 Si02
#       7
#     8   8   8   8   8   8   8
#     4  10  21  38  59  81 111 146 186 231 275 325
#     4  10  18  32  56  81 109 141 178 223 277 328
#     4  10  21  35  54  81 111 142 180 229 277 326
#     4   9  19  34  53  79 107 140 183 227 272 323
#     4  11  21  35  56  78 107 147 188 222 269 331
#     4  10  21  36  58  86 112 143 185 229 274 326
#     4  10  20  35  56  80 110 144 182 226 273 329
#
# _framework density 25.412693999999998
#
# number of rings (size 3 to 8) (size 9 to 14) (size 15 to 20)
#    0.000    2.000    1.429    2.571    0.000    3.143 
#    0.000    0.714    0.000    5.143    0.000    0.000 
#    0.000    0.000    0.000    0.000    0.000    0.000 
#
# Total GULP energy -156012.057792 kJ/mol
# GULP energy per Si atom -5571.859207 kJ/mol
# Density = 2.535485 g / cm^3
# Si number density = 25.412694 Si / 1000 Ang^3
#
#
#
# Elastic Constant Matrix: (Units=GPa)
#
#
# Indices 1 2 3 4 5 6 
#
# 1 82.9718 -8.6867 6.6771 0.0000 -10.2849 0.0000
# 2 -8.6867 205.8560 28.9813 0.0000 -16.1240 0.0000
# 3 6.6771 28.9813 36.6616 0.0000 -11.5294 0.0000
# 4 0.0000 0.0000 0.0000 -3.1613 0.0000 5.5107
# 5 -10.2849 -16.1240 -11.5294 0.0000 36.5019 0.0000
# 6 0.0000 0.0000 0.0000 5.5107 0.0000 15.2151
#
#
#
# Elastic Compliance Matrix: (Units=1/GPa)
#
#
# Indices 1 2 3 4 5 6 
#
# 1 0.012762 0.001105 -0.002124 0.000000 0.003413 0.000000
# 2 0.001105 0.005607 -0.004171 0.000000 0.001471 0.000000
# 3 -0.002124 -0.004171 0.033523 0.000000 0.008147 0.000000
# 4 0.000000 0.000000 0.000000 -0.193906 0.000000 0.070229
# 5 0.003413 0.001471 0.008147 0.000000 0.031581 0.000000
# 6 0.000000 0.000000 0.000000 0.070229 0.000000 0.040288
#
#
# Mechanical properties :
#
#
# Convention : Reuss Voigt Hill
#
# Bulk Modulus (GPa) = 24.09025 42.15920 33.12473
# Shear Modulus (GPa) = -108.86664 29.61232 -39.62716
#
# Velocity S-wave (km/s) = -6.55229 3.41729 -3.95314
# Velocity P-wave (km/s) = 6.90964 5.67418 2.78808
#
# Compressibility (1/GPa) = 0.04151057
#
# Stress axis : x y z
#
# Youngs Moduli (GPa) = 78.35765 178.35520 29.83041
#
# Poissons Ratio (x) = -0.19707 0.06337
# Poissons Ratio (y) = -0.08658 0.12442
# Poissons Ratio (z) = 0.16647 0.74392
#
# Static dielectric constant tensor:
#      x y z
#    x 1.991970 0.000000 0.043140 
#    y 0.000000 2.198160 0.000000 
#    z 0.043140 0.000000 1.966250 
# 
# From -- ./inp_files/165712.got.cif
#   From: 2010.05.17/outbox.cif.g08.bks.cpg/sg12_83_cif.got.tgz:165712.got - 2010.06.03 13:09:07.
