data_PCOD9175044
_publ_section_title
;
Structure prediction by ZEFSAII (Michael W. Deem and Ramdas Pophale) SiO2 
 PCOD9175044
Probable space group: C 2/M
;
_chemical_formula_sum "Si O2"
_cell_formula_units_Z 56
_cell_length_a 20.592273
_cell_length_b 7.525605
_cell_length_c 19.393088
_cell_angle_alpha 90.000000
_cell_angle_beta 60.389713
_cell_angle_gamma 90.000000
_cell_volume 2612.855690
_symmetry_space_group_name_H-M "C 2/M"
_symmetry_group_IT_number 12
_symmetry_cell_setting 'monoclinic'
loop_
_space_group_symop_operation_xyz
x,y,z
-x,y,-z
-x,-y,-z
x,-y,z
1/2+x,1/2+y,z
1/2-x,1/2+y,-z
1/2-x,1/2-y,-z
1/2+x,1/2-y,z
loop_
_atom_site_type_symbol
_atom_site_label
_atom_site_fract_x
_atom_site_fract_y
_atom_site_fract_z
Si Si1 0.866903 0.786577 0.743870
Si Si2 0.078777 0.208004 0.433012
Si Si3 0.646195 0.282677 0.731971
Si Si4 0.978627 0.217314 0.803840
Si Si5 0.064837 0.783082 0.019909
Si Si6 0.305573 0.287765 0.142876
Si Si7 0.776744 0.710914 0.562870
O O1 0.887738 0.718116 0.656388
O O2 0.924864 0.721592 0.770982
O O3 0.782163 0.747796 0.810043
O O4 0.872386 0.000000 0.739072
O O5 0.142346 0.219389 0.457831
O O6 0.000000 0.285471 0.500000
O O7 0.064629 0.000000 0.426563
O O8 0.647265 0.500000 0.731250
O O9 0.564597 0.228538 0.749298
O O10 0.660080 0.222852 0.802865
O O11 0.713811 0.220706 0.648675
O O12 0.951627 0.275420 0.893782
O O13 0.977392 0.000000 0.804362
O O14 0.063549 0.000000 0.022516
O O15 0.144113 0.723422 0.947024
O O16 0.000000 0.730720 0.000000
O O17 0.314519 0.500000 0.138762
O O18 0.780806 0.500000 0.569084
O O19 0.750000 0.750000 0.500000
#
# Coordination Sequence:
#
# PCOD9175044 Si02
#       7
#     8   8   8   8   8   8   8
#     4  10  21  35  53  77 109 145 177 217 270 330
#     4  10  22  39  58  80 109 147 189 232 278 329
#     4   9  17  31  54  79 105 137 178 225 268 310
#     4   9  17  30  50  79 108 138 181 225 267 315
#     4   9  15  26  49  81 108 132 176 231 268 303
#     4  10  18  32  55  80 106 139 177 223 268 313
#     4  11  23  38  59  86 114 144 180 228 278 331
#
# _framework density 21.432489
#
# number of rings (size 3 to 8) (size 9 to 14) (size 15 to 20)
#    0.000    2.286    2.857    0.429    2.000    0.857 
#    0.000    0.000    0.000    1.286    0.000    0.000 
#    0.000    0.000    0.000    0.000    0.000    0.000 
#
# Total GULP energy -156389.362583 kJ/mol
# GULP energy per Si atom -5585.334378 kJ/mol
# Density = 2.138371 g / cm^3
# Si number density = 21.432489 Si / 1000 Ang^3
#
#
#
# Elastic Constant Matrix: (Units=GPa)
#
#
# Indices 1 2 3 4 5 6 
#
# 1 158.3054 -14.2760 57.6037 0.0001 -19.7555 0.0000
# 2 -14.2760 51.0670 -0.4544 0.0001 -2.9099 0.0008
# 3 57.6037 -0.4544 111.6480 0.0000 -23.2323 -0.0002
# 4 0.0001 0.0001 0.0000 6.4707 -0.0001 -6.1680
# 5 -19.7555 -2.9099 -23.2323 -0.0001 42.5827 0.0001
# 6 0.0000 0.0008 -0.0002 -6.1680 0.0001 12.3518
#
#
#
# Elastic Compliance Matrix: (Units=1/GPa)
#
#
# Indices 1 2 3 4 5 6 
#
# 1 0.008146 0.002350 -0.003806 -0.000001 0.001864 -0.000001
# 2 0.002350 0.020353 -0.000692 -0.000003 0.002103 -0.000003
# 3 -0.003806 -0.000692 0.011890 0.000001 0.004674 0.000001
# 4 -0.000001 -0.000003 0.000001 0.294934 0.000001 0.147279
# 5 0.001864 0.002103 0.004674 0.000001 0.027042 0.000000
# 6 -0.000001 -0.000003 0.000001 0.147279 0.000000 0.154505
#
#
# Mechanical properties :
#
#
# Convention : Reuss Voigt Hill
#
# Bulk Modulus (GPa) = 27.70590 45.19632 36.45111
# Shear Modulus (GPa) = 9.37741 30.82418 20.10079
#
# Velocity S-wave (km/s) = 2.09400 3.79647 3.06578
# Velocity P-wave (km/s) = 4.33608 6.35226 5.43841
#
# Compressibility (1/GPa) = 0.03609339
#
# Stress axis : x y z
#
# Youngs Moduli (GPa) = 122.75801 49.13364 84.10445
#
# Poissons Ratio (x) = -0.11544 0.32006
# Poissons Ratio (y) = -0.28843 0.05818
# Poissons Ratio (z) = 0.46716 0.03399
#
# Static dielectric constant tensor:
#      x y z
#    x 1.728450 0.000000 -0.024560 
#    y 0.000000 1.827810 0.000000 
#    z -0.024560 0.000000 1.757190 
# 
# From -- ./inp_files/281031.got.cif
#   From: 2010.05.17/outbox.cif.g08.bks.cpg/sg12_141_cif.got.tgz:281031.got - 2010.06.03 13:09:07.
