data_PCOD9175229
_publ_section_title
;
Structure prediction by ZEFSAII (Michael W. Deem and Ramdas Pophale) SiO2 
 PCOD9175229
Probable space group: C 2/M
;
_chemical_formula_sum "Si O2"
_cell_formula_units_Z 48
_cell_length_a 12.729932
_cell_length_b 13.824028
_cell_length_c 22.875193
_cell_angle_alpha 90.000000
_cell_angle_beta 31.127717
_cell_angle_gamma 90.000000
_cell_volume 2080.999072
_symmetry_space_group_name_H-M "C 2/M"
_symmetry_group_IT_number 12
_symmetry_cell_setting 'monoclinic'
loop_
_space_group_symop_operation_xyz
x,y,z
-x,y,-z
-x,-y,-z
x,-y,z
1/2+x,1/2+y,z
1/2-x,1/2+y,-z
1/2-x,1/2-y,-z
1/2+x,1/2-y,z
loop_
_atom_site_type_symbol
_atom_site_label
_atom_site_fract_x
_atom_site_fract_y
_atom_site_fract_z
Si Si1 0.614839 0.397465 0.296666
Si Si2 0.714870 0.198186 0.109843
Si Si3 0.752696 0.677602 0.778727
Si Si4 0.829715 0.112925 0.932137
Si Si5 0.292970 0.139980 0.465340
Si Si6 0.319707 0.104643 0.322621
O O1 0.696461 0.500000 0.232888
O O2 0.702157 0.293360 0.236532
O O3 0.369708 0.403229 0.412047
O O4 0.675581 0.396038 0.336075
O O5 0.807718 0.155069 0.125162
O O6 0.766031 0.308128 0.066657
O O7 0.477161 0.190935 0.239813
O O8 0.737566 0.135652 0.040163
O O9 0.565588 0.644464 0.828345
O O10 0.961903 0.629246 0.655065
O O11 0.809408 0.000000 0.927035
O O12 0.250000 0.250000 0.500000
O O13 0.228170 0.114080 0.430255
O O14 0.429019 0.000000 0.269904
#
# Coordination Sequence:
#
# PCOD9175229 Si02
#       6
#     8   8   8   8   8   8
#     4  10  19  33  55  83 114 148 190 236 284 339
#     4  10  22  39  59  84 118 148 190 241 291 343
#     4  10  21  38  57  85 116 154 191 239 287 345
#     4  11  23  40  62  86 116 153 194 239 293 352
#     4   9  19  32  50  81 117 149 186 234 283 333
#     4  10  18  32  57  83 109 146 192 236 282 339
#
# _framework density 23.065844999999999
#
# number of rings (size 3 to 8) (size 9 to 14) (size 15 to 20)
#    0.000    2.000    1.667    2.000    0.000    6.667 
#    0.000    0.000    0.000    3.000    0.000    7.000 
#    0.000    0.000    0.000    0.000    0.000    0.000 
#
# Total GULP energy -133611.502177 kJ/mol
# GULP energy per Si atom -5567.145924 kJ/mol
# Density = 2.301335 g / cm^3
# Si number density = 23.065845 Si / 1000 Ang^3
#
#
#
# Elastic Constant Matrix: (Units=GPa)
#
#
# Indices 1 2 3 4 5 6 
#
# 1 38.1137 -12.4856 -9.5212 0.0004 2.4972 0.0002
# 2 -12.4856 124.8109 -5.3774 -0.0016 8.4114 0.0002
# 3 -9.5212 -5.3774 59.4929 -0.0050 0.9296 0.0005
# 4 0.0004 -0.0016 -0.0050 8.5608 0.0003 -4.6076
# 5 2.4972 8.4114 0.9296 0.0003 18.5940 -0.0001
# 6 0.0002 0.0002 0.0005 -4.6076 -0.0001 14.6557
#
#
#
# Elastic Compliance Matrix: (Units=1/GPa)
#
#
# Indices 1 2 3 4 5 6 
#
# 1 0.029024 0.003508 0.005052 0.000003 -0.005737 0.000000
# 2 0.003508 0.008727 0.001420 0.000003 -0.004490 0.000001
# 3 0.005052 0.001420 0.017780 0.000012 -0.002210 0.000003
# 4 0.000003 0.000003 0.000012 0.140604 -0.000004 0.044205
# 5 -0.005737 -0.004490 -0.002210 -0.000004 0.056693 -0.000001
# 6 0.000000 0.000001 0.000003 0.044205 -0.000001 0.082130
#
#
# Mechanical properties :
#
#
# Convention : Reuss Voigt Hill
#
# Bulk Modulus (GPa) = 13.24663 18.62767 15.93715
# Shear Modulus (GPa) = 14.69886 25.01554 19.85720
#
# Velocity S-wave (km/s) = 2.52713 3.29679 2.93728
# Velocity P-wave (km/s) = 3.77765 4.75238 4.29277
#
# Compressibility (1/GPa) = 0.07549091
#
# Stress axis : x y z
#
# Youngs Moduli (GPa) = 34.45394 114.58941 56.24260
#
# Poissons Ratio (x) = -0.40196 -0.28412
# Poissons Ratio (y) = -0.12086 -0.07988
# Poissons Ratio (z) = -0.17405 -0.16276
#
# Static dielectric constant tensor:
#      x y z
#    x 1.915090 0.000000 -0.050170 
#    y 0.000000 1.924900 0.000000 
#    z -0.050170 0.000000 1.914080 
# 
# From -- ./inp_files/246279.got.cif
#   From: 2010.05.17/outbox.cif.g08.bks.cpg/sg12_124_cif.got.tgz:246279.got - 2010.06.03 13:09:07.
