data_PCOD9175424
_publ_section_title
;
Structure prediction by ZEFSAII (Michael W. Deem and Ramdas Pophale) SiO2 
 PCOD9175424
Probable space group: C 2/M
;
_chemical_formula_sum "Si O2"
_cell_formula_units_Z 64
_cell_length_a 24.539589
_cell_length_b 13.923219
_cell_length_c 22.091888
_cell_angle_alpha 90.000000
_cell_angle_beta 152.074815
_cell_angle_gamma 90.000000
_cell_volume 3534.930202
_symmetry_space_group_name_H-M "C 2/M"
_symmetry_group_IT_number 12
_symmetry_cell_setting 'monoclinic'
loop_
_space_group_symop_operation_xyz
x,y,z
-x,y,-z
-x,-y,-z
x,-y,z
1/2+x,1/2+y,z
1/2-x,1/2+y,-z
1/2-x,1/2-y,-z
1/2+x,1/2-y,z
loop_
_atom_site_type_symbol
_atom_site_label
_atom_site_fract_x
_atom_site_fract_y
_atom_site_fract_z
Si Si1 0.323508 0.609115 0.088940
Si Si2 0.425970 0.195027 0.160427
Si Si3 0.277316 0.114368 0.751669
Si Si4 0.127532 0.614967 0.445011
Si Si5 0.412521 0.717247 0.516510
Si Si6 0.786434 0.109991 0.495025
Si Si7 0.555421 0.110038 0.182306
Si Si8 0.354418 0.609533 0.262224
O O1 0.348698 0.500000 0.094704
O O2 0.411343 0.691236 0.153531
O O3 0.322361 0.612023 0.160708
O O4 0.195873 0.643994 0.943790
O O5 0.520436 0.148802 0.297904
O O6 0.463596 0.171525 0.128944
O O7 0.175391 0.172141 0.617994
O O8 0.398202 0.141203 0.837869
O O9 0.254133 0.126975 0.799817
O O10 0.264055 0.000000 0.725375
O O11 0.127099 0.500000 0.450266
O O12 0.113341 0.672052 0.493661
O O13 0.242814 0.642103 0.518547
O O14 0.381078 0.668090 0.550492
O O15 0.542132 0.685563 0.626536
O O16 0.671605 0.111044 0.339074
O O17 0.825868 0.000000 0.538434
O O18 0.513323 0.000000 0.137973
O O19 0.397514 0.500000 0.318018
#
# Coordination Sequence:
#
# PCOD9175424 Si02
#       8
#     8   8   8   8   8   8   8   8
#     4  10  20  32  49  75 100 119 151 194 234 282
#     4  10  18  33  51  68  96 129 152 186 241 280
#     4   9  18  31  49  70  96 126 157 190 232 282
#     4  10  19  30  44  66  92 126 163 192 225 275
#     4  11  17  27  45  68  90 128 156 189 227 276
#     4   8  15  26  42  65  94 120 153 190 228 278
#     4   8  14  27  48  70  90 123 162 189 220 276
#     4  10  19  31  46  71 100 122 151 193 236 282
#
# _framework density 18.105025999999999
#
# number of rings (size 3 to 8) (size 9 to 14) (size 15 to 20)
#    0.000    2.500    1.250    4.500    0.000    1.000 
#    0.000    0.625    0.000    4.500    0.000    0.000 
#    0.000    2.250    0.000    0.000    0.000    0.000 
#
# Total GULP energy -178411.352330 kJ/mol
# GULP energy per Si atom -5575.354760 kJ/mol
# Density = 1.806382 g / cm^3
# Si number density = 18.105026 Si / 1000 Ang^3
#
#
#
# Elastic Constant Matrix: (Units=GPa)
#
#
# Indices 1 2 3 4 5 6 
#
# 1 89.3170 38.0998 -1.4102 0.0000 15.3188 0.0000
# 2 38.0998 91.3187 2.8482 0.0000 8.5119 0.0000
# 3 -1.4102 2.8482 14.5643 0.0000 2.0502 0.0000
# 4 0.0000 0.0000 0.0000 13.5055 0.0000 5.4470
# 5 15.3188 8.5119 2.0502 0.0000 15.8369 0.0000
# 6 0.0000 0.0000 0.0000 5.4470 0.0000 26.4584
#
#
#
# Elastic Compliance Matrix: (Units=1/GPa)
#
#
# Indices 1 2 3 4 5 6 
#
# 1 0.015848 -0.005546 0.004438 0.000000 -0.012924 0.000000
# 2 -0.005546 0.013497 -0.002965 0.000000 -0.001506 0.000000
# 3 0.004438 -0.002965 0.071351 0.000000 -0.011937 0.000000
# 4 0.000000 0.000000 0.000000 0.080748 0.000000 -0.016624
# 5 -0.012924 -0.001506 -0.011937 0.000000 0.077999 0.000000
# 6 0.000000 0.000000 0.000000 -0.016624 0.000000 0.041218
#
#
# Mechanical properties :
#
#
# Convention : Reuss Voigt Hill
#
# Bulk Modulus (GPa) = 10.80471 30.47507 20.63989
# Shear Modulus (GPa) = 14.72073 21.53764 18.12918
#
# Velocity S-wave (km/s) = 2.85454 3.45279 3.16782
# Velocity P-wave (km/s) = 4.10430 5.72404 4.98046
#
# Compressibility (1/GPa) = 0.09255222
#
# Stress axis : x y z
#
# Youngs Moduli (GPa) = 63.09755 74.08817 14.01527
#
# Poissons Ratio (x) = 0.41090 -0.06221
# Poissons Ratio (y) = 0.34994 0.04155
# Poissons Ratio (z) = -0.28005 0.21964
#
# Static dielectric constant tensor:
#      x y z
#    x 1.658510 0.000000 0.008800 
#    y 0.000000 1.640230 0.000000 
#    z 0.008800 0.000000 1.642640 
# 
# From -- ./inp_files/349375.got.cif
#   From: 2010.05.17/outbox.cif.g08.bks.cpg/sg12_175_cif.got.tgz:349375.got - 2010.06.03 13:09:07.
