data_PCOD9175162
_publ_section_title
;
Structure prediction by ZEFSAII (Michael W. Deem and Ramdas Pophale) SiO2 
 PCOD9175162
Probable space group: C 2/M
;
_chemical_formula_sum "Si O2"
_cell_formula_units_Z 60
_cell_length_a 22.622713
_cell_length_b 14.463662
_cell_length_c 11.637039
_cell_angle_alpha 90.000000
_cell_angle_beta 123.262816
_cell_angle_gamma 90.000000
_cell_volume 3183.879640
_symmetry_space_group_name_H-M "C 2/M"
_symmetry_group_IT_number 12
_symmetry_cell_setting 'monoclinic'
loop_
_space_group_symop_operation_xyz
x,y,z
-x,y,-z
-x,-y,-z
x,-y,z
1/2+x,1/2+y,z
1/2-x,1/2+y,-z
1/2-x,1/2-y,-z
1/2+x,1/2-y,z
loop_
_atom_site_type_symbol
_atom_site_label
_atom_site_fract_x
_atom_site_fract_y
_atom_site_fract_z
Si Si1 0.000000 0.159950 0.500000
Si Si2 0.371724 0.100892 0.385015
Si Si3 0.702820 0.108696 0.125591
Si Si4 0.968254 0.691827 0.663706
Si Si5 0.625421 0.796136 0.844512
Si Si6 0.158743 0.286895 0.296973
Si Si7 0.140584 0.896904 0.770094
Si Si8 0.741923 0.606563 0.421108
O O1 0.023242 0.221627 0.414744
O O2 0.069937 0.107764 0.617537
O O3 0.435304 0.115770 0.542778
O O4 0.370776 0.176971 0.285698
O O5 0.300288 0.106460 0.382359
O O6 0.377607 0.000000 0.336676
O O7 0.660678 0.169754 0.172925
O O8 0.787702 0.119232 0.226233
O O9 0.686193 0.000000 0.118863
O O10 0.681283 0.148268 0.978506
O O11 0.912893 0.704725 0.706881
O O12 0.046218 0.674606 0.794464
O O13 0.635422 0.685770 0.856899
O O14 0.217446 0.348467 0.427242
O O15 0.182098 0.179973 0.324350
O O16 0.146800 0.000000 0.827010
O O17 0.720647 0.500000 0.419423
#
# Coordination Sequence:
#
# PCOD9175162 Si02
#       8
#     4   8   8   8   8   8   8   8
#     4  10  19  38  59  88 114 144 185 238 297 340
#     4  10  18  32  56  83 110 144 192 244 288 331
#     4  11  24  39  57  85 117 157 194 228 282 351
#     4  10  20  36  58  83 114 148 190 241 290 336
#     4  11  21  38  57  81 118 151 192 234 284 339
#     4  10  21  36  55  80 119 151 187 239 284 335
#     4  10  21  37  60  87 115 148 189 237 289 337
#     4   9  19  34  57  83 109 145 190 238 294 341
#
# _framework density 18.844933000000001
#
# number of rings (size 3 to 8) (size 9 to 14) (size 15 to 20)
#    0.000    1.867    2.667    2.200    3.733    2.667 
#    0.000    5.333    0.000    0.000    0.000    4.667 
#    0.000    0.000    0.000    0.000    0.000    0.000 
#
# Total GULP energy -167311.237210 kJ/mol
# GULP energy per Si atom -5577.041240 kJ/mol
# Density = 1.880204 g / cm^3
# Si number density = 18.844933 Si / 1000 Ang^3
#
#
#
# Elastic Constant Matrix: (Units=GPa)
#
#
# Indices 1 2 3 4 5 6 
#
# 1 67.0560 23.4414 31.7614 0.0000 4.4629 0.0000
# 2 23.4414 107.7000 20.2770 0.0000 1.9569 0.0000
# 3 31.7614 20.2770 39.1745 0.0000 7.9648 0.0000
# 4 0.0000 0.0000 0.0000 15.4061 0.0000 4.4844
# 5 4.4629 1.9569 7.9648 0.0000 15.9694 0.0000
# 6 0.0000 0.0000 0.0000 4.4844 0.0000 9.4981
#
#
#
# Elastic Compliance Matrix: (Units=1/GPa)
#
#
# Indices 1 2 3 4 5 6 
#
# 1 0.024652 -0.001705 -0.019749 0.000000 0.003169 0.000000
# 2 -0.001705 0.010440 -0.004294 0.000000 0.001339 0.000000
# 3 -0.019749 -0.004294 0.047332 0.000000 -0.017562 0.000000
# 4 0.000000 0.000000 0.000000 0.075251 0.000000 -0.035529
# 5 0.003169 0.001339 -0.017562 0.000000 0.070329 0.000000
# 6 0.000000 0.000000 0.000000 -0.035529 0.000000 0.122059
#
#
# Mechanical properties :
#
#
# Convention : Reuss Voigt Hill
#
# Bulk Modulus (GPa) = 32.33260 40.54336 36.43798
# Shear Modulus (GPa) = 12.13979 17.40476 14.77228
#
# Velocity S-wave (km/s) = 2.54085 3.04234 2.80283
# Velocity P-wave (km/s) = 5.07960 5.82254 5.46371
#
# Compressibility (1/GPa) = 0.03092854
#
# Stress axis : x y z
#
# Youngs Moduli (GPa) = 40.56415 95.78336 21.12741
#
# Poissons Ratio (x) = 0.16331 0.41725
# Poissons Ratio (y) = 0.06916 0.09072
# Poissons Ratio (z) = 0.80111 0.41127
#
# Static dielectric constant tensor:
#      x y z
#    x 1.651050 0.000000 0.020170 
#    y 0.000000 1.675950 0.000000 
#    z 0.020170 0.000000 1.644890 
# 
# From -- ./inp_files/176190.got.cif
#   From: 2010.05.17/outbox.cif.g08.bks.cpg/sg12_89_cif.got.tgz:176190.got - 2010.06.03 13:09:07.
