data_PCOD9175195
_publ_section_title
;
Structure prediction by ZEFSAII (Michael W. Deem and Ramdas Pophale) SiO2 
 PCOD9175195
Probable space group: C 2/M
;
_chemical_formula_sum "Si O2"
_cell_formula_units_Z 56
_cell_length_a 28.631806
_cell_length_b 7.392177
_cell_length_c 18.372603
_cell_angle_alpha 90.000000
_cell_angle_beta 137.723008
_cell_angle_gamma 90.000000
_cell_volume 2615.912374
_symmetry_space_group_name_H-M "C 2/M"
_symmetry_group_IT_number 12
_symmetry_cell_setting 'monoclinic'
loop_
_space_group_symop_operation_xyz
x,y,z
-x,y,-z
-x,-y,-z
x,-y,z
1/2+x,1/2+y,z
1/2-x,1/2+y,-z
1/2-x,1/2-y,-z
1/2+x,1/2-y,z
loop_
_atom_site_type_symbol
_atom_site_label
_atom_site_fract_x
_atom_site_fract_y
_atom_site_fract_z
Si Si1 0.039469 0.779638 0.971926
Si Si2 0.205184 0.284255 0.874382
Si Si3 0.287524 0.281441 0.668309
Si Si4 0.572854 0.500000 0.507189
Si Si5 0.801940 0.780207 0.850098
Si Si6 0.920039 0.219262 0.730213
Si Si7 0.861143 0.296534 0.512680
Si Si8 0.589813 0.500000 0.701133
O O1 0.991249 0.726809 0.849661
O O2 0.041461 0.000000 0.978017
O O3 0.118150 0.719902 0.052286
O O4 0.000000 0.721257 0.000000
O O5 0.192078 0.500000 0.854868
O O6 0.252866 0.226072 0.860098
O O7 0.133850 0.169764 0.784140
O O8 0.250000 0.250000 0.000000
O O9 0.294632 0.500000 0.676656
O O10 0.280224 0.223927 0.743852
O O11 0.355983 0.216357 0.706639
O O12 0.214743 0.232047 0.547832
O O13 0.609927 0.673438 0.516709
O O14 0.586757 0.500000 0.609331
O O15 0.493694 0.500000 0.384113
O O16 0.801643 0.000000 0.851041
O O17 0.910552 0.288744 0.638642
O O18 0.917997 0.000000 0.725173
O O19 0.853008 0.500000 0.476431
#
# Coordination Sequence:
#
# PCOD9175195 Si02
#       8
#     8   8   8   4   8   8   8   4
#     4   9  15  27  52  85 122 164 211 260 314 383
#     4  11  23  43  71 103 140 175 222 281 345 407
#     4   9  17  31  55  86 124 168 218 266 312 378
#     4  11  26  48  70 100 131 175 223 287 352 414
#     4   9  17  31  56  90 122 165 214 261 319 383
#     4  10  18  32  56  87 129 173 218 267 318 378
#     4  11  23  40  62  92 131 172 222 270 333 399
#     4  11  26  48  76 100 133 168 227 285 350 420
#
# _framework density 21.407444999999999
#
# number of rings (size 3 to 8) (size 9 to 14) (size 15 to 20)
#    0.000    2.000    2.857    1.286    0.000    3.429 
#    1.286    1.429    1.571    0.429    0.000    0.000 
#    0.000    0.000    0.000    0.000    0.000    0.000 
#
# Total GULP energy -156375.629948 kJ/mol
# GULP energy per Si atom -5584.843927 kJ/mol
# Density = 2.135872 g / cm^3
# Si number density = 21.407445 Si / 1000 Ang^3
#
#
#
# Elastic Constant Matrix: (Units=GPa)
#
#
# Indices 1 2 3 4 5 6 
#
# 1 33.1778 14.0606 -11.0927 0.0000 6.0931 0.0000
# 2 14.0606 103.5373 17.8583 0.0001 10.7961 -0.0001
# 3 -11.0927 17.8583 104.1125 0.0000 14.1314 0.0000
# 4 0.0000 0.0001 0.0000 -11.2047 0.0000 12.3362
# 5 6.0931 10.7961 14.1314 0.0000 36.4202 0.0000
# 6 0.0000 -0.0001 0.0000 12.3362 0.0000 13.3500
#
#
#
# Elastic Compliance Matrix: (Units=1/GPa)
#
#
# Indices 1 2 3 4 5 6 
#
# 1 0.035339 -0.005069 0.005524 0.000000 -0.006553 0.000000
# 2 -0.005069 0.010885 -0.002200 0.000000 -0.001525 0.000000
# 3 0.005524 -0.002200 0.011198 0.000000 -0.004617 0.000000
# 4 0.000000 0.000000 0.000000 -0.044240 0.000000 0.040880
# 5 -0.006553 -0.001525 -0.004617 0.000000 0.030797 0.000000
# 6 0.000000 0.000000 0.000000 0.040880 0.000000 0.037131
#
#
# Mechanical properties :
#
#
# Convention : Reuss Voigt Hill
#
# Bulk Modulus (GPa) = 18.54168 31.38664 24.96416
# Shear Modulus (GPa) = 48.74396 22.37986 35.56191
#
# Velocity S-wave (km/s) = 4.77693 3.23681 4.08020
# Velocity P-wave (km/s) = 6.25344 5.35375 5.82100
#
# Compressibility (1/GPa) = 0.05393255
#
# Stress axis : x y z
#
# Youngs Moduli (GPa) = 28.29726 91.86788 89.30494
#
# Poissons Ratio (x) = 0.46564 -0.49333
# Poissons Ratio (y) = 0.14343 0.19649
# Poissons Ratio (z) = -0.15632 0.20212
#
# Static dielectric constant tensor:
#      x y z
#    x 1.742920 0.000000 0.004380 
#    y 0.000000 1.830250 0.000000 
#    z 0.004380 0.000000 1.755690 
# 
# From -- ./inp_files/292614.got.cif
#   From: 2010.05.17/outbox.cif.g08.bks.cpg/sg12_147_cif.got.tgz:292614.got - 2010.06.03 13:09:07.
