data_PCOD9175308
_publ_section_title
;
Structure prediction by ZEFSAII (Michael W. Deem and Ramdas Pophale) SiO2 
 PCOD9175308
Probable space group: C 2/M
;
_chemical_formula_sum "Si O2"
_cell_formula_units_Z 56
_cell_length_a 16.848925
_cell_length_b 19.910631
_cell_length_c 10.341275
_cell_angle_alpha 90.000000
_cell_angle_beta 51.531979
_cell_angle_gamma 90.000000
_cell_volume 2716.241490
_symmetry_space_group_name_H-M "C 2/M"
_symmetry_group_IT_number 12
_symmetry_cell_setting 'monoclinic'
loop_
_space_group_symop_operation_xyz
x,y,z
-x,y,-z
-x,-y,-z
x,-y,z
1/2+x,1/2+y,z
1/2-x,1/2+y,-z
1/2-x,1/2-y,-z
1/2+x,1/2-y,z
loop_
_atom_site_type_symbol
_atom_site_label
_atom_site_fract_x
_atom_site_fract_y
_atom_site_fract_z
Si Si1 0.647855 0.757017 0.330282
Si Si2 0.081292 0.922428 0.297733
Si Si3 0.252619 0.574728 0.523463
Si Si4 0.583914 0.893910 0.508911
Si Si5 0.544380 0.200483 0.177251
Si Si6 0.565170 0.678296 0.665280
Si Si7 0.708034 0.853914 0.823154
O O1 0.638642 0.834027 0.376332
O O2 0.612262 0.759470 0.216812
O O3 0.584691 0.715104 0.504505
O O4 0.755090 0.722260 0.237995
O O5 0.190399 0.889740 0.220520
O O6 0.000000 0.921563 0.500000
O O7 0.025247 0.875397 0.252048
O O8 0.094646 0.000000 0.247339
O O9 0.296595 0.500000 0.507617
O O10 0.173196 0.568354 0.488860
O O11 0.336320 0.632154 0.409703
O O12 0.193319 0.603324 0.708746
O O13 0.500000 0.925932 0.500000
O O14 0.520298 0.854410 0.681145
O O15 0.467283 0.259580 0.210850
O O16 0.612372 0.158346 0.010099
#
# Coordination Sequence:
#
# PCOD9175308 Si02
#       7
#     8   8   8   8   8   8   8
#     4   9  17  32  56  84 116 147 200 248 284 341
#     4  11  18  29  50  83 127 171 203 227 282 361
#     4  11  23  39  59  87 120 156 204 253 294 362
#     4   9  21  40  61  81 108 152 208 257 307 349
#     4  10  19  34  55  89 126 156 192 243 302 359
#     4  10  18  32  58  88 118 161 200 250 297 339
#     4  11  21  31  55  92 129 160 188 238 310 358
#
# _framework density 20.616723
#
# number of rings (size 3 to 8) (size 9 to 14) (size 15 to 20)
#    0.000    1.857    4.286    2.571    0.000    6.000 
#    0.000    2.143    0.000    1.714    0.000    1.000 
#    0.000    0.000    0.000    0.000    0.000    0.000 
#
# Total GULP energy -155881.268618 kJ/mol
# GULP energy per Si atom -5567.188165 kJ/mol
# Density = 2.056980 g / cm^3
# Si number density = 20.616723 Si / 1000 Ang^3
#
#
#
# Elastic Constant Matrix: (Units=GPa)
#
#
# Indices 1 2 3 4 5 6 
#
# 1 107.0475 44.3042 10.9633 0.0000 -2.9652 0.0000
# 2 44.3042 130.7687 34.2587 0.0000 -8.2504 0.0000
# 3 10.9633 34.2587 58.6110 0.0000 -12.5706 0.0000
# 4 0.0000 0.0000 0.0000 13.0846 0.0000 0.8856
# 5 -2.9652 -8.2504 -12.5706 0.0000 6.6645 0.0000
# 6 0.0000 0.0000 0.0000 0.8856 0.0000 15.9927
#
#
#
# Elastic Compliance Matrix: (Units=1/GPa)
#
#
# Indices 1 2 3 4 5 6 
#
# 1 0.010869 -0.003712 0.000316 0.000000 0.000837 0.000000
# 2 -0.003712 0.010315 -0.004955 0.000000 0.001772 0.000000
# 3 0.000316 -0.004955 0.031259 0.000000 0.052968 0.000000
# 4 0.000000 0.000000 0.000000 0.076713 0.000000 -0.004248
# 5 0.000837 0.001772 0.052968 0.000000 0.252524 0.000000
# 6 0.000000 0.000000 0.000000 -0.004248 0.000000 0.062764
#
#
# Mechanical properties :
#
#
# Convention : Reuss Voigt Hill
#
# Bulk Modulus (GPa) = 27.97901 52.83107 40.40504
# Shear Modulus (GPa) = 10.56953 20.94176 15.75564
#
# Velocity S-wave (km/s) = 2.26667 3.19057 2.76745
# Velocity P-wave (km/s) = 4.52227 6.26530 5.46374
#
# Compressibility (1/GPa) = 0.03574107
#
# Stress axis : x y z
#
# Youngs Moduli (GPa) = 92.00551 96.94943 31.99107
#
# Poissons Ratio (x) = 0.35992 -0.01012
# Poissons Ratio (y) = 0.34157 0.15850
# Poissons Ratio (z) = -0.02911 0.48034
#
# Static dielectric constant tensor:
#      x y z
#    x 1.837190 0.000000 0.011820 
#    y 0.000000 1.739400 0.000000 
#    z 0.011820 0.000000 1.774470 
# 
# From -- ./inp_files/159165.got.cif
#   From: 2010.05.17/outbox.cif.g08.bks.cpg/sg12_80_cif.got.tgz:159165.got - 2010.06.03 13:09:07.
