data_PCOD9175717
_publ_section_title
;
Structure prediction by ZEFSAII (Michael W. Deem and Ramdas Pophale) SiO2 
 PCOD9175717
Probable space group: C 2/M
;
_chemical_formula_sum "Si O2"
_cell_formula_units_Z 48
_cell_length_a 8.706845
_cell_length_b 22.500399
_cell_length_c 12.410946
_cell_angle_alpha 90.000000
_cell_angle_beta 70.377316
_cell_angle_gamma 90.000000
_cell_volume 2290.192797
_symmetry_space_group_name_H-M "C 2/M"
_symmetry_group_IT_number 12
_symmetry_cell_setting 'monoclinic'
loop_
_space_group_symop_operation_xyz
x,y,z
-x,y,-z
-x,-y,-z
x,-y,z
1/2+x,1/2+y,z
1/2-x,1/2+y,-z
1/2-x,1/2-y,-z
1/2+x,1/2-y,z
loop_
_atom_site_type_symbol
_atom_site_label
_atom_site_fract_x
_atom_site_fract_y
_atom_site_fract_z
Si Si1 0.146504 0.822630 0.329595
Si Si2 0.314824 0.564487 0.996793
Si Si3 0.660252 0.770629 0.913754
Si Si4 0.736717 0.350757 0.809861
Si Si5 0.487232 0.569290 0.737199
Si Si6 0.537531 0.796195 0.612803
O O1 0.237472 0.808597 0.194640
O O2 0.076563 0.888825 0.343003
O O3 0.282351 0.810112 0.387940
O O4 0.003531 0.773934 0.370941
O O5 0.239873 0.500000 0.037456
O O6 0.233416 0.616066 0.084104
O O7 0.500000 0.563738 0.000000
O O8 0.346960 0.570407 0.862983
O O9 0.627366 0.708001 0.858434
O O10 0.500000 0.799862 0.000000
O O11 0.750000 0.750000 0.000000
O O12 0.640966 0.396182 0.754532
O O13 0.904411 0.327735 0.720360
O O14 0.521314 0.500000 0.706053
O O15 0.500000 0.815189 0.500000
#
# Coordination Sequence:
#
# PCOD9175717 Si02
#       6
#     8   8   8   8   8   8
#     4  11  22  38  59  86 116 150 193 237 292 350
#     4   8  14  27  51  82 116 153 188 221 265 336
#     4  11  19  29  50  84 122 149 178 230 290 351
#     4  10  18  33  56  85 115 151 194 233 287 343
#     4  10  20  36  60  88 120 156 191 229 279 351
#     4  11  24  41  63  85 110 148 195 253 303 341
#
# _framework density 20.958935
#
# number of rings (size 3 to 8) (size 9 to 14) (size 15 to 20)
#    0.000    1.833    0.000    9.500    0.000    0.000 
#    0.000    1.667    0.000   10.500    0.000    0.000 
#    0.000    0.000    0.000    0.000    0.000    0.000 
#
# Total GULP energy -134031.663488 kJ/mol
# GULP energy per Si atom -5584.652645 kJ/mol
# Density = 2.091123 g / cm^3
# Si number density = 20.958935 Si / 1000 Ang^3
#
#
#
# Elastic Constant Matrix: (Units=GPa)
#
#
# Indices 1 2 3 4 5 6 
#
# 1 90.8926 43.5717 12.7800 0.0000 23.2166 0.0000
# 2 43.5717 166.3010 8.8111 0.0000 3.4130 0.0000
# 3 12.7800 8.8111 44.7429 0.0000 -4.3514 0.0000
# 4 0.0000 0.0000 0.0000 6.3088 0.0000 2.2116
# 5 23.2166 3.4130 -4.3514 0.0000 31.0574 0.0000
# 6 0.0000 0.0000 0.0000 2.2116 0.0000 25.6832
#
#
#
# Elastic Compliance Matrix: (Units=1/GPa)
#
#
# Indices 1 2 3 4 5 6 
#
# 1 0.016929 -0.003887 -0.005332 0.000000 -0.012975 0.000000
# 2 -0.003887 0.006991 -0.000060 0.000000 0.002129 0.000000
# 3 -0.005332 -0.000060 0.024608 0.000000 0.007440 0.000000
# 4 0.000000 0.000000 0.000000 0.163443 0.000000 -0.014074
# 5 -0.012975 0.002129 0.007440 0.000000 0.042706 0.000000
# 6 0.000000 0.000000 0.000000 -0.014074 0.000000 0.040148
#
#
# Mechanical properties :
#
#
# Convention : Reuss Voigt Hill
#
# Bulk Modulus (GPa) = 33.36454 48.02910 40.69682
# Shear Modulus (GPa) = 15.46203 28.39479 21.92841
#
# Velocity S-wave (km/s) = 2.71906 3.68473 3.23810
# Velocity P-wave (km/s) = 5.08048 6.40847 5.78273
#
# Compressibility (1/GPa) = 0.02997194
#
# Stress axis : x y z
#
# Youngs Moduli (GPa) = 59.06990 143.04111 40.63685
#
# Poissons Ratio (x) = 0.55596 0.21667
# Poissons Ratio (y) = 0.22959 0.00242
# Poissons Ratio (z) = 0.31496 0.00851
#
# Static dielectric constant tensor:
#      x y z
#    x 1.790290 0.000000 0.023280 
#    y 0.000000 1.776360 0.000000 
#    z 0.023280 0.000000 1.794870 
# 
# From -- ./inp_files/196903.got.cif
#   From: 2010.05.17/outbox.cif.g08.bks.cpg/sg12_99_cif.got.tgz:196903.got - 2010.06.03 13:09:07.
