data_PCOD9175883
_publ_section_title
;
Structure prediction by ZEFSAII (Michael W. Deem and Ramdas Pophale) SiO2 
 PCOD9175883
Probable space group: C 2/M
;
_chemical_formula_sum "Si O2"
_cell_formula_units_Z 44
_cell_length_a 18.872234
_cell_length_b 17.125875
_cell_length_c 12.114571
_cell_angle_alpha 90.000000
_cell_angle_beta 39.343959
_cell_angle_gamma 90.000000
_cell_volume 2482.309006
_symmetry_space_group_name_H-M "C 2/M"
_symmetry_group_IT_number 12
_symmetry_cell_setting 'monoclinic'
loop_
_space_group_symop_operation_xyz
x,y,z
-x,y,-z
-x,-y,-z
x,-y,z
1/2+x,1/2+y,z
1/2-x,1/2+y,-z
1/2-x,1/2-y,-z
1/2+x,1/2-y,z
loop_
_atom_site_type_symbol
_atom_site_label
_atom_site_fract_x
_atom_site_fract_y
_atom_site_fract_z
Si Si1 0.406382 0.093360 0.950671
Si Si2 0.500000 0.311627 0.500000
Si Si3 0.842031 0.300081 0.826149
Si Si4 0.650325 0.905618 0.622225
Si Si5 0.372064 0.908752 0.607130
Si Si6 0.297373 0.594068 0.637937
O O1 0.382965 0.136880 0.865098
O O2 0.534406 0.114670 0.823944
O O3 0.404553 0.000000 0.936008
O O4 0.308097 0.111174 0.154726
O O5 0.563010 0.257314 0.335239
O O6 0.593809 0.363415 0.447191
O O7 0.802721 0.350465 0.767960
O O8 0.750000 0.250000 0.000000
O O9 0.639842 0.884048 0.506265
O O10 0.756163 0.879156 0.566256
O O11 0.655752 0.000000 0.616563
O O12 0.500000 0.904168 0.500000
O O13 0.339838 0.000000 0.655214
O O14 0.314095 0.500000 0.617900
#
# Coordination Sequence:
#
# PCOD9175883 Si02
#       6
#     8   4   8   8   8   8
#     4  10  18  34  59  85 110 141 187 239 283 325
#     4  12  23  38  55  78 118 160 186 222 275 342
#     4  12  22  36  55  83 117 149 185 227 275 335
#     4   9  17  32  59  88 110 136 185 246 282 317
#     4  10  18  33  59  83 104 136 181 232 282 325
#     4  10  21  36  56  83 112 150 191 227 277 333
#
# _framework density 17.725432000000001
#
# number of rings (size 3 to 8) (size 9 to 14) (size 15 to 20)
#    0.000    1.636    4.545    1.364    0.000    2.182 
#    0.000    3.636    0.000    0.000    0.000    3.818 
#    0.000    0.000    0.000    0.000    0.000    0.000 
#
# Total GULP energy -122626.106372 kJ/mol
# GULP energy per Si atom -5573.913926 kJ/mol
# Density = 1.768509 g / cm^3
# Si number density = 17.725432 Si / 1000 Ang^3
#
#
#
# Elastic Constant Matrix: (Units=GPa)
#
#
# Indices 1 2 3 4 5 6 
#
# 1 145.8992 38.2948 55.6012 0.0000 6.2676 0.0000
# 2 38.2948 43.7498 48.2805 0.0000 6.1373 0.0000
# 3 55.6012 48.2805 107.5276 0.0000 8.0920 0.0000
# 4 0.0000 0.0000 0.0000 29.7756 0.0000 9.6857
# 5 6.2676 6.1373 8.0920 0.0000 23.4687 0.0000
# 6 0.0000 0.0000 0.0000 9.6857 0.0000 2.4613
#
#
#
# Elastic Compliance Matrix: (Units=1/GPa)
#
#
# Indices 1 2 3 4 5 6 
#
# 1 0.009167 -0.005510 -0.002249 0.000000 -0.000232 0.000000
# 2 -0.005510 0.049189 -0.018869 0.000000 -0.004886 0.000000
# 3 -0.002249 -0.018869 0.019012 0.000000 -0.001020 0.000000
# 4 0.000000 0.000000 0.000000 -0.119912 0.000000 0.471876
# 5 -0.000232 -0.004886 -0.001020 0.000000 0.044301 0.000000
# 6 0.000000 0.000000 0.000000 0.471876 0.000000 -1.450628
#
#
# Mechanical properties :
#
#
# Convention : Reuss Voigt Hill
#
# Bulk Modulus (GPa) = 41.47308 64.61440 53.04374
# Shear Modulus (GPa) = -3.60340 21.47445 8.93552
#
# Velocity S-wave (km/s) = -1.42734 3.48444 2.24767
# Velocity P-wave (km/s) = 4.55323 7.26089 6.06022
#
# Compressibility (1/GPa) = 0.02411203
#
# Stress axis : x y z
#
# Youngs Moduli (GPa) = 109.08406 20.32970 52.59836
#
# Poissons Ratio (x) = 0.11202 0.11828
# Poissons Ratio (y) = 0.60105 0.99250
# Poissons Ratio (z) = 0.24531 0.38361
#
# Static dielectric constant tensor:
#      x y z
#    x 1.651350 0.000000 0.025820 
#    y 0.000000 1.610500 0.000000 
#    z 0.025820 0.000000 1.629860 
# 
# From -- ./inp_files/145008.got.cif
#   From: 2010.05.17/outbox.cif.g08.bks.cpg/sg12_73_cif.got.tgz:145008.got - 2010.06.03 13:09:07.
