data_PCOD9175599
_publ_section_title
;
Structure prediction by ZEFSAII (Michael W. Deem and Ramdas Pophale) SiO2 
 PCOD9175599
Probable space group: C 2/M
;
_chemical_formula_sum "Si O2"
_cell_formula_units_Z 64
_cell_length_a 20.697057
_cell_length_b 8.647054
_cell_length_c 25.677020
_cell_angle_alpha 90.000000
_cell_angle_beta 128.582410
_cell_angle_gamma 90.000000
_cell_volume 3592.263187
_symmetry_space_group_name_H-M "C 2/M"
_symmetry_group_IT_number 12
_symmetry_cell_setting 'monoclinic'
loop_
_space_group_symop_operation_xyz
x,y,z
-x,y,-z
-x,-y,-z
x,-y,z
1/2+x,1/2+y,z
1/2-x,1/2+y,-z
1/2-x,1/2-y,-z
1/2+x,1/2-y,z
loop_
_atom_site_type_symbol
_atom_site_label
_atom_site_fract_x
_atom_site_fract_y
_atom_site_fract_z
Si Si1 0.807814 0.686052 0.672862
Si Si2 0.438896 0.313260 0.923848
Si Si3 0.034522 0.686471 0.176724
Si Si4 0.414345 0.187616 0.205997
Si Si5 0.170311 0.183299 0.431013
Si Si6 0.750632 0.187271 0.826045
Si Si7 0.505986 0.185241 0.643239
Si Si8 0.167908 0.185226 0.679808
O O1 0.810657 0.500000 0.666408
O O2 0.880323 0.724557 0.750326
O O3 0.824167 0.766219 0.626461
O O4 0.720283 0.727519 0.654989
O O5 0.439572 0.500000 0.924501
O O6 0.466171 0.257197 0.880724
O O7 0.343789 0.263187 0.884654
O O8 0.500000 0.258541 0.000000
O O9 0.031075 0.500000 0.170582
O O10 0.960557 0.740755 0.177415
O O11 0.319377 0.233873 0.167338
O O12 0.463983 0.233650 0.283308
O O13 0.416886 0.000000 0.206227
O O14 0.250000 0.250000 0.500000
O O15 0.085039 0.250080 0.411122
O O16 0.169476 0.000000 0.434999
O O17 0.719753 0.253725 0.755501
O O18 0.748962 0.000000 0.821502
O O19 0.576551 0.245829 0.639853
O O20 0.504643 0.000000 0.641420
O O21 0.163791 0.000000 0.680447
#
# Coordination Sequence:
#
# PCOD9175599 Si02
#       8
#     8   8   8   8   8   8   8   8
#     4  10  20  36  57  83 116 147 182 234 284 331
#     4  10  21  35  50  73 109 147 184 230 283 335
#     4  10  18  33  55  79 106 138 180 228 278 331
#     4   8  15  29  52  77 101 133 175 223 270 323
#     4  12  25  40  60  85 116 152 190 230 277 334
#     4   9  17  31  51  74 102 143 186 225 277 336
#     4  10  19  36  58  82 115 150 184 225 278 335
#     4  10  19  32  54  85 115 142 180 233 283 327
#
# _framework density 17.816065999999999
#
# number of rings (size 3 to 8) (size 9 to 14) (size 15 to 20)
#    0.000    2.125    2.500    2.625    0.000    1.750 
#    0.000    1.875    0.000    3.750    0.000    0.000 
#    0.000    0.000    0.000    0.000    0.000    0.000 
#
# Total GULP energy -178550.039427 kJ/mol
# GULP energy per Si atom -5579.688732 kJ/mol
# Density = 1.777552 g / cm^3
# Si number density = 17.816066 Si / 1000 Ang^3
#
#
#
# Elastic Constant Matrix: (Units=GPa)
#
#
# Indices 1 2 3 4 5 6 
#
# 1 106.9052 24.9665 -1.0982 0.0000 17.9545 0.0000
# 2 24.9665 33.9690 10.9264 0.0000 6.0229 0.0000
# 3 -1.0982 10.9264 24.2003 0.0000 11.5681 0.0000
# 4 0.0000 0.0000 0.0000 22.1225 0.0000 -3.0971
# 5 17.9545 6.0229 11.5681 0.0000 25.3512 0.0000
# 6 0.0000 0.0000 0.0000 -3.0971 0.0000 28.2551
#
#
#
# Elastic Compliance Matrix: (Units=1/GPa)
#
#
# Indices 1 2 3 4 5 6 
#
# 1 0.014585 -0.012429 0.012534 0.000000 -0.013096 0.000000
# 2 -0.012429 0.045071 -0.025583 0.000000 0.009769 0.000000
# 3 0.012534 -0.025583 0.070061 0.000000 -0.034768 0.000000
# 4 0.000000 0.000000 0.000000 0.045907 0.000000 0.005032
# 5 -0.013096 0.009769 -0.034768 0.000000 0.062265 0.000000
# 6 0.000000 0.000000 0.000000 0.005032 0.000000 0.035943
#
#
# Mechanical properties :
#
#
# Convention : Reuss Voigt Hill
#
# Bulk Modulus (GPa) = 12.69688 26.07379 19.38534
# Shear Modulus (GPa) = 14.24328 23.83108 19.03718
#
# Velocity S-wave (km/s) = 2.83054 3.66131 3.27240
# Velocity P-wave (km/s) = 4.22194 5.70442 5.01822
#
# Compressibility (1/GPa) = 0.07875950
#
# Stress axis : x y z
#
# Youngs Moduli (GPa) = 68.56384 22.18737 14.27328
#
# Poissons Ratio (x) = 0.27577 -0.17890
# Poissons Ratio (y) = 0.85219 0.36515
# Poissons Ratio (z) = -0.85935 0.56762
#
# Static dielectric constant tensor:
#      x y z
#    x 1.630620 0.000000 0.016090 
#    y 0.000000 1.602500 0.000000 
#    z 0.016090 0.000000 1.578570 
# 
# From -- ./inp_files/346297.got.cif
#   From: 2010.05.17/outbox.cif.g08.bks.cpg/sg12_174_cif.got.tgz:346297.got - 2010.06.03 13:09:07.
