data_PCOD9175230
_publ_section_title
;
Structure prediction by ZEFSAII (Michael W. Deem and Ramdas Pophale) SiO2 
 PCOD9175230
Probable space group: C 2/M
;
_chemical_formula_sum "Si O2"
_cell_formula_units_Z 52
_cell_length_a 20.935768
_cell_length_b 11.603258
_cell_length_c 12.996387
_cell_angle_alpha 90.000000
_cell_angle_beta 116.258444
_cell_angle_gamma 90.000000
_cell_volume 2831.331603
_symmetry_space_group_name_H-M "C 2/M"
_symmetry_group_IT_number 12
_symmetry_cell_setting 'monoclinic'
loop_
_space_group_symop_operation_xyz
x,y,z
-x,y,-z
-x,-y,-z
x,-y,z
1/2+x,1/2+y,z
1/2-x,1/2+y,-z
1/2-x,1/2-y,-z
1/2+x,1/2-y,z
loop_
_atom_site_type_symbol
_atom_site_label
_atom_site_fract_x
_atom_site_fract_y
_atom_site_fract_z
Si Si1 0.913568 0.000000 0.065157
Si Si2 0.683360 0.500000 0.197427
Si Si3 0.916117 0.365809 0.910541
Si Si4 0.684072 0.131513 0.762545
Si Si5 0.951498 0.740592 0.721991
Si Si6 0.063066 0.000000 0.260074
Si Si7 0.113789 0.255752 0.896647
Si Si8 0.076978 0.361619 0.512359
O O1 0.887966 0.882165 0.098675
O O2 0.999149 0.000000 0.129743
O O3 0.879005 0.000000 0.929414
O O4 0.735286 0.608363 0.215132
O O5 0.643070 0.500000 0.275289
O O6 0.895019 0.500000 0.880925
O O7 0.913203 0.293038 0.802463
O O8 0.879059 0.308594 0.983717
O O9 0.000000 0.365269 0.000000
O O10 0.671844 0.201291 0.857289
O O11 0.637516 0.178684 0.634916
O O12 0.657505 0.000000 0.766389
O O13 0.948355 0.876814 0.696115
O O14 0.917661 0.677434 0.601055
O O15 0.035038 0.707942 0.797650
O O16 0.079191 0.500000 0.514688
O O17 0.000000 0.324042 0.500000
#
# Coordination Sequence:
#
# PCOD9175230 Si02
#       8
#     4   4   8   8   8   4   8   8
#     4  10  21  34  57  79 107 152 186 227 264 328
#     4  10  21  38  55  81 107 150 190 226 273 328
#     4   9  17  26  45  77 112 139 172 229 277 317
#     4   9  20  34  55  82 110 146 180 228 277 333
#     4  10  19  32  54  83 110 144 186 232 273 317
#     4  10  21  38  56  79 108 147 196 227 264 327
#     4  10  18  33  52  82 114 141 183 224 281 328
#     4  10  18  32  57  83 111 143 184 228 279 329
#
# _framework density 18.365917
#
# number of rings (size 3 to 8) (size 9 to 14) (size 15 to 20)
#    0.462    1.846    1.538    2.077    0.000    4.308 
#    0.000    1.923    0.000    0.000    2.000    0.000 
#    0.000    0.000    0.000    0.000    0.000    0.154 
#
# Total GULP energy -144825.979311 kJ/mol
# GULP energy per Si atom -5570.229973 kJ/mol
# Density = 1.832412 g / cm^3
# Si number density = 18.365917 Si / 1000 Ang^3
#
#
#
# Elastic Constant Matrix: (Units=GPa)
#
#
# Indices 1 2 3 4 5 6 
#
# 1 50.4663 0.3050 4.4387 0.0000 -3.5301 0.0000
# 2 0.3050 59.9813 11.4592 0.0000 -2.2031 0.0000
# 3 4.4387 11.4592 69.6693 0.0000 -13.7845 0.0000
# 4 0.0000 0.0000 0.0000 -18.0402 0.0000 20.4131
# 5 -3.5301 -2.2031 -13.7845 0.0000 16.7769 0.0000
# 6 0.0000 0.0000 0.0000 20.4131 0.0000 -5.6538
#
#
#
# Elastic Compliance Matrix: (Units=1/GPa)
#
#
# Indices 1 2 3 4 5 6 
#
# 1 0.020129 0.000143 -0.000554 0.000000 0.003799 0.000000
# 2 0.000143 0.017214 -0.002851 0.000000 -0.000052 0.000000
# 3 -0.000554 -0.002851 0.017626 0.000000 0.013991 0.000000
# 4 0.000000 0.000000 0.000000 0.017966 0.000000 0.064865
# 5 0.003799 -0.000052 0.013991 0.000000 0.071894 0.000000
# 6 0.000000 0.000000 0.000000 0.064865 0.000000 0.057325
#
#
# Mechanical properties :
#
#
# Convention : Reuss Voigt Hill
#
# Bulk Modulus (GPa) = 20.64209 23.61363 22.12786
# Shear Modulus (GPa) = 22.23951 9.54419 15.89185
#
# Velocity S-wave (km/s) = 3.48359 2.28210 2.94477
# Velocity P-wave (km/s) = 5.23873 4.45300 4.86176
#
# Compressibility (1/GPa) = 0.04844471
#
# Stress axis : x y z
#
# Youngs Moduli (GPa) = 49.68004 58.09278 56.73455
#
# Poissons Ratio (x) = -0.00831 0.03145
# Poissons Ratio (y) = -0.00711 0.16173
# Poissons Ratio (z) = 0.02754 0.16560
#
# Static dielectric constant tensor:
#      x y z
#    x 1.641670 0.000000 0.005270 
#    y 0.000000 1.664320 0.000000 
#    z 0.005270 0.000000 1.625290 
# 
# From -- ./inp_files/165154.got.cif
#   From: 2010.05.17/outbox.cif.g08.bks.cpg/sg12_83_cif.got.tgz:165154.got - 2010.06.03 13:09:07.
