data_PCOD9175501
_publ_section_title
;
Structure prediction by ZEFSAII (Michael W. Deem and Ramdas Pophale) SiO2 
 PCOD9175501
Probable space group: C 2/M
;
_chemical_formula_sum "Si O2"
_cell_formula_units_Z 56
_cell_length_a 11.621624
_cell_length_b 24.879775
_cell_length_c 24.285370
_cell_angle_alpha 90.000000
_cell_angle_beta 27.817803
_cell_angle_gamma 90.000000
_cell_volume 3276.875516
_symmetry_space_group_name_H-M "C 2/M"
_symmetry_group_IT_number 12
_symmetry_cell_setting 'monoclinic'
loop_
_space_group_symop_operation_xyz
x,y,z
-x,y,-z
-x,-y,-z
x,-y,z
1/2+x,1/2+y,z
1/2-x,1/2+y,-z
1/2-x,1/2-y,-z
1/2+x,1/2-y,z
loop_
_atom_site_type_symbol
_atom_site_label
_atom_site_fract_x
_atom_site_fract_y
_atom_site_fract_z
Si Si1 0.142357 0.000000 0.690520
Si Si2 0.040079 0.693352 0.695555
Si Si3 0.207379 0.500000 0.496403
Si Si4 0.478186 0.321029 0.900573
Si Si5 0.006799 0.295823 0.836680
Si Si6 0.509960 0.315648 0.680017
Si Si7 0.174523 0.381390 0.542658
Si Si8 0.899756 0.884962 0.250356
O O1 0.034171 0.055519 0.757984
O O2 0.423816 0.000000 0.594690
O O3 0.143631 0.000000 0.623896
O O4 0.746927 0.681562 0.814286
O O5 0.093545 0.695110 0.737650
O O6 0.086811 0.752952 0.651265
O O7 0.175041 0.649080 0.600942
O O8 0.249521 0.444199 0.510601
O O9 0.466942 0.267010 0.867909
O O10 0.464830 0.369089 0.862906
O O11 0.255372 0.321810 0.037637
O O12 0.223235 0.316026 0.784773
O O13 0.664134 0.348092 0.569281
O O14 0.548081 0.343844 0.722434
O O15 0.892014 0.380539 0.640110
#
# Coordination Sequence:
#
# PCOD9175501 Si02
#       8
#     4   8   4   8   8   8   8   8
#     4   9  16  28  54  76 100 130 168 215 251 294
#     4  10  20  34  50  74 104 136 169 203 253 300
#     4   9  16  30  52  76  96 134 174 207 245 290
#     4   9  19  34  53  72  99 134 170 215 242 298
#     4  10  20  33  50  74 101 136 174 198 253 305
#     4  11  20  31  49  77 107 136 157 209 259 303
#     4  10  20  33  52  76 105 133 168 208 251 302
#     4  10  18  33  53  79 103 131 168 210 258 297
#
# _framework density 17.089449999999999
#
# number of rings (size 3 to 8) (size 9 to 14) (size 15 to 20)
#    0.000    2.143    2.857    1.286    0.000    1.143 
#    2.571    0.000    0.000    6.000    0.000    5.000 
#    0.000    0.000    0.000    0.000    0.000    0.000 
#
# Total GULP energy -156115.763706 kJ/mol
# GULP energy per Si atom -5575.562990 kJ/mol
# Density = 1.705055 g / cm^3
# Si number density = 17.089450 Si / 1000 Ang^3
#
#
#
# Elastic Constant Matrix: (Units=GPa)
#
#
# Indices 1 2 3 4 5 6 
#
# 1 38.6373 23.0556 -0.3536 -0.0135 14.4510 -0.0796
# 2 23.0556 103.9508 17.6646 -0.0971 7.9702 -0.0497
# 3 -0.3536 17.6646 34.2088 -0.4235 5.6142 -0.1129
# 4 -0.0135 -0.0971 -0.4235 17.1458 -0.0259 3.5520
# 5 14.4510 7.9702 5.6142 -0.0259 14.9187 0.0247
# 6 -0.0796 -0.0497 -0.1129 3.5520 0.0247 20.8216
#
#
#
# Elastic Compliance Matrix: (Units=1/GPa)
#
#
# Indices 1 2 3 4 5 6 
#
# 1 0.049711 -0.009613 0.013366 0.000187 -0.048047 0.000264
# 2 -0.009613 0.012613 -0.007499 -0.000106 0.005395 -0.000036
# 3 0.013366 -0.007499 0.037006 0.000823 -0.022865 0.000121
# 4 0.000187 -0.000106 0.000823 0.060479 -0.000312 -0.010312
# 5 -0.048047 0.005395 -0.022865 -0.000312 0.119293 -0.000383
# 6 0.000264 -0.000036 0.000121 -0.010312 -0.000383 0.049788
#
#
# Mechanical properties :
#
#
# Convention : Reuss Voigt Hill
#
# Bulk Modulus (GPa) = 10.88869 28.61446 19.75158
# Shear Modulus (GPa) = 13.62418 19.67258 16.64838
#
# Velocity S-wave (km/s) = 2.82659 3.39655 3.12459
# Velocity P-wave (km/s) = 4.12774 5.67118 4.95986
#
# Compressibility (1/GPa) = 0.09183839
#
# Stress axis : x y z
#
# Youngs Moduli (GPa) = 20.11613 79.28624 27.02276
#
# Poissons Ratio (x) = 0.76216 -0.36119
# Poissons Ratio (y) = 0.19337 0.20264
# Poissons Ratio (z) = -0.26887 0.59457
#
# Static dielectric constant tensor:
#      x y z
#    x 1.573030 -0.000010 -0.008980 
#    y -0.000010 1.580910 0.000050 
#    z -0.008980 0.000050 1.569320 
# 
# From -- ./inp_files/337010.got.cif
#   From: 2010.05.17/outbox.cif.g08.bks.cpg/sg12_169_cif.got.tgz:337010.got - 2010.06.03 13:09:07.
