data_PCOD9175475
_publ_section_title
;
Structure prediction by ZEFSAII (Michael W. Deem and Ramdas Pophale) SiO2 
 PCOD9175475
Probable space group: C 2/M
;
_chemical_formula_sum "Si O2"
_cell_formula_units_Z 56
_cell_length_a 9.248522
_cell_length_b 26.550675
_cell_length_c 13.621917
_cell_angle_alpha 90.000000
_cell_angle_beta 108.992962
_cell_angle_gamma 90.000000
_cell_volume 3162.820616
_symmetry_space_group_name_H-M "C 2/M"
_symmetry_group_IT_number 12
_symmetry_cell_setting 'monoclinic'
loop_
_space_group_symop_operation_xyz
x,y,z
-x,y,-z
-x,-y,-z
x,-y,z
1/2+x,1/2+y,z
1/2-x,1/2+y,-z
1/2-x,1/2-y,-z
1/2+x,1/2-y,z
loop_
_atom_site_type_symbol
_atom_site_label
_atom_site_fract_x
_atom_site_fract_y
_atom_site_fract_z
Si Si1 0.444340 0.294801 0.375839
Si Si2 0.844459 0.291038 0.585662
Si Si3 0.369320 0.559690 0.888662
Si Si4 0.535372 0.938787 0.896975
Si Si5 0.662139 0.903076 0.496359
Si Si6 0.557522 0.609814 0.299327
Si Si7 0.255672 0.940631 0.698933
O O1 0.500000 0.309827 0.500000
O O2 0.261820 0.299319 0.342803
O O3 0.496459 0.237775 0.366722
O O4 0.526391 0.331652 0.317964
O O5 0.750000 0.250000 0.500000
O O6 0.857913 0.343997 0.535155
O O7 0.362439 0.500000 0.858555
O O8 0.203971 0.574615 0.895749
O O9 0.412328 0.593491 0.805028
O O10 0.500000 0.564041 0.000000
O O11 0.400260 0.921840 0.794580
O O12 0.533083 0.000000 0.897666
O O13 0.500000 0.921831 0.000000
O O14 0.500000 0.922340 0.500000
O O15 0.796122 0.907286 0.605238
O O16 0.711839 0.929731 0.407360
O O17 0.402733 0.583874 0.303392
O O18 0.242924 0.000000 0.712812
#
# Coordination Sequence:
#
# PCOD9175475 Si02
#       7
#     8   8   8   8   8   8   8
#     4  10  18  33  52  81 111 143 185 232 279 333
#     4  10  18  33  54  76 109 142 183 234 277 324
#     4  10  21  37  58  84 111 146 193 240 285 336
#     4   9  18  36  58  78 103 141 192 239 276 321
#     4  12  23  35  52  80 115 148 191 229 278 346
#     4  12  21  35  54  81 113 148 189 234 281 344
#     4  11  23  37  53  77 115 157 189 227 279 334
#
# _framework density 17.705714
#
# number of rings (size 3 to 8) (size 9 to 14) (size 15 to 20)
#    0.000    1.429    4.286    3.857    0.000    4.286 
#    0.000    0.000    0.000    0.000    0.000    2.000 
#    0.000    0.000    0.000    0.000    0.000    0.000 
#
# Total GULP energy -156232.162085 kJ/mol
# GULP energy per Si atom -5579.720074 kJ/mol
# Density = 1.766542 g / cm^3
# Si number density = 17.705714 Si / 1000 Ang^3
#
#
#
# Elastic Constant Matrix: (Units=GPa)
#
#
# Indices 1 2 3 4 5 6 
#
# 1 148.5342 12.2746 45.9164 0.0000 -4.2713 0.0000
# 2 12.2746 32.1058 13.9596 0.0000 1.8720 0.0000
# 3 45.9164 13.9596 84.5274 0.0000 -4.1995 0.0000
# 4 0.0000 0.0000 0.0000 11.1195 0.0000 -3.4216
# 5 -4.2713 1.8720 -4.1995 0.0000 31.6642 0.0000
# 6 0.0000 0.0000 0.0000 -3.4216 0.0000 31.5571
#
#
#
# Elastic Compliance Matrix: (Units=1/GPa)
#
#
# Indices 1 2 3 4 5 6 
#
# 1 0.008152 -0.001337 -0.004176 0.000000 0.000625 0.000000
# 2 -0.001337 0.034013 -0.005033 0.000000 -0.002859 0.000000
# 3 -0.004176 -0.005033 0.015016 0.000000 0.001726 0.000000
# 4 0.000000 0.000000 0.000000 0.093036 0.000000 0.010087
# 5 0.000625 -0.002859 0.001726 0.000000 0.032064 0.000000
# 6 0.000000 0.000000 0.000000 0.010087 0.000000 0.032782
#
#
# Mechanical properties :
#
#
# Convention : Reuss Voigt Hill
#
# Bulk Modulus (GPa) = 27.70980 45.49654 36.60317
# Shear Modulus (GPa) = 20.14619 27.73594 23.94106
#
# Velocity S-wave (km/s) = 3.37684 3.96219 3.68117
# Velocity P-wave (km/s) = 5.55772 6.83255 6.22784
#
# Compressibility (1/GPa) = 0.03608831
#
# Stress axis : x y z
#
# Youngs Moduli (GPa) = 122.66968 29.40033 66.59532
#
# Poissons Ratio (x) = 0.03931 0.27813
# Poissons Ratio (y) = 0.16403 0.33517
# Poissons Ratio (z) = 0.51232 0.14797
#
# Static dielectric constant tensor:
#      x y z
#    x 1.583770 0.000000 -0.001240 
#    y 0.000000 1.619850 0.000000 
#    z -0.001240 0.000000 1.588400 
# 
# From -- ./inp_files/125328.got.cif
#   From: 2010.05.17/outbox.cif.g08.bks.cpg/sg12_63_cif.got.tgz:125328.got - 2010.06.03 13:09:07.
