data_PCOD9175981
_publ_section_title
;
Structure prediction by ZEFSAII (Michael W. Deem and Ramdas Pophale) SiO2 
 PCOD9175981
Probable space group: C 2/M
;
_chemical_formula_sum "Si O2"
_cell_formula_units_Z 48
_cell_length_a 12.845383
_cell_length_b 30.249537
_cell_length_c 8.618986
_cell_angle_alpha 90.000000
_cell_angle_beta 132.864321
_cell_angle_gamma 90.000000
_cell_volume 2454.743852
_symmetry_space_group_name_H-M "C 2/M"
_symmetry_group_IT_number 12
_symmetry_cell_setting 'monoclinic'
loop_
_space_group_symop_operation_xyz
x,y,z
-x,y,-z
-x,-y,-z
x,-y,z
1/2+x,1/2+y,z
1/2-x,1/2+y,-z
1/2-x,1/2-y,-z
1/2+x,1/2-y,z
loop_
_atom_site_type_symbol
_atom_site_label
_atom_site_fract_x
_atom_site_fract_y
_atom_site_fract_z
Si Si1 0.403696 0.891922 0.264912
Si Si2 0.843605 0.448786 0.917002
Si Si3 0.168392 0.133708 0.662778
Si Si4 0.590667 0.822789 0.253737
Si Si5 0.278141 0.317913 0.959051
Si Si6 0.528433 0.254920 0.704453
O O1 0.500000 0.909355 0.500000
O O2 0.505789 0.859410 0.267220
O O3 0.351567 0.930706 0.100718
O O4 0.277117 0.859324 0.197620
O O5 0.804130 0.500000 0.867513
O O6 0.735742 0.415130 0.726037
O O7 0.000000 0.443387 0.000000
O O8 0.249589 0.161438 0.614424
O O9 0.221701 0.158341 0.872461
O O10 0.000000 0.131326 0.500000
O O11 0.589470 0.776838 0.343999
O O12 0.500000 0.817997 0.000000
O O13 0.426458 0.291973 0.124759
O O14 0.161769 0.279273 0.822655
O O15 0.500000 0.271008 0.500000
#
# Coordination Sequence:
#
# PCOD9175981 Si02
#       6
#     8   8   8   8   8   8
#     4  10  18  33  62  83 111 147 184 232 282 336
#     4  10  19  36  61  90 116 142 184 230 276 339
#     4  11  20  34  57  81 113 152 185 231 279 337
#     4  11  17  35  57  79 104 153 190 232 284 323
#     4   9  18  33  50  74 110 144 180 230 290 317
#     4  10  19  32  56  77 108 143 192 242 282 321
#
# _framework density 19.553972999999999
#
# number of rings (size 3 to 8) (size 9 to 14) (size 15 to 20)
#    0.000    1.833    6.667    2.500    0.000    0.667 
#    0.000    3.333    7.333    5.000    0.000    1.167 
#    0.000    0.000    0.000    0.000    0.000    0.000 
#
# Total GULP energy -133672.261988 kJ/mol
# GULP energy per Si atom -5569.677583 kJ/mol
# Density = 1.950947 g / cm^3
# Si number density = 19.553973 Si / 1000 Ang^3
#
#
#
# Elastic Constant Matrix: (Units=GPa)
#
#
# Indices 1 2 3 4 5 6 
#
# 1 64.8166 37.6607 28.3276 0.0000 25.4174 0.0000
# 2 37.6607 108.7234 21.3909 0.0000 15.9643 0.0000
# 3 28.3276 21.3909 73.9130 0.0000 15.4123 0.0000
# 4 0.0000 0.0000 0.0000 9.7755 0.0000 -0.8484
# 5 25.4174 15.9643 15.4123 0.0000 30.5924 0.0000
# 6 0.0000 0.0000 0.0000 -0.8484 0.0000 18.3197
#
#
#
# Elastic Compliance Matrix: (Units=1/GPa)
#
#
# Indices 1 2 3 4 5 6 
#
# 1 0.028226 -0.006144 -0.005384 0.000000 -0.017533 0.000000
# 2 -0.006144 0.011573 -0.000894 0.000000 -0.000485 0.000000
# 3 -0.005384 -0.000894 0.016561 0.000000 -0.003404 0.000000
# 4 0.000000 0.000000 0.000000 0.102709 0.000000 0.004757
# 5 -0.017533 -0.000485 -0.003404 0.000000 0.049223 0.000000
# 6 0.000000 0.000000 0.000000 0.004757 0.000000 0.054806
#
#
# Mechanical properties :
#
#
# Convention : Reuss Voigt Hill
#
# Bulk Modulus (GPa) = 31.72779 46.91240 39.32009
# Shear Modulus (GPa) = 16.75340 22.40910 19.58125
#
# Velocity S-wave (km/s) = 2.93025 3.38895 3.16792
# Velocity P-wave (km/s) = 5.26398 6.27349 5.79077
#
# Compressibility (1/GPa) = 0.03151811
#
# Stress axis : x y z
#
# Youngs Moduli (GPa) = 35.42784 86.41027 60.38186
#
# Poissons Ratio (x) = 0.53087 0.32509
# Poissons Ratio (y) = 0.21765 0.05396
# Poissons Ratio (z) = 0.19074 0.07722
#
# Static dielectric constant tensor:
#      x y z
#    x 1.724420 0.000000 0.019850 
#    y 0.000000 1.699250 0.000000 
#    z 0.019850 0.000000 1.752750 
# 
# From -- ./inp_files/68365.got.cif
#   From: 2010.05.17/outbox.cif.g08.bks.cpg/sg12_35_cif.got.tgz:68365.got - 2010.06.03 13:09:07.
