data_PCOD9175716
_publ_section_title
;
Structure prediction by ZEFSAII (Michael W. Deem and Ramdas Pophale) SiO2 
 PCOD9175716
Probable space group: C 2/M
;
_chemical_formula_sum "Si O2"
_cell_formula_units_Z 56
_cell_length_a 8.424290
_cell_length_b 16.008672
_cell_length_c 19.527924
_cell_angle_alpha 90.000000
_cell_angle_beta 109.475671
_cell_angle_gamma 90.000000
_cell_volume 2482.884414
_symmetry_space_group_name_H-M "C 2/M"
_symmetry_group_IT_number 12
_symmetry_cell_setting 'monoclinic'
loop_
_space_group_symop_operation_xyz
x,y,z
-x,y,-z
-x,-y,-z
x,-y,z
1/2+x,1/2+y,z
1/2-x,1/2+y,-z
1/2-x,1/2-y,-z
1/2+x,1/2-y,z
loop_
_atom_site_type_symbol
_atom_site_label
_atom_site_fract_x
_atom_site_fract_y
_atom_site_fract_z
Si Si1 0.439729 0.588560 0.156152
Si Si2 0.968893 0.843538 0.606468
Si Si3 0.359517 0.817980 0.346238
Si Si4 0.523608 0.000000 0.614736
Si Si5 0.784361 0.000000 0.523024
Si Si6 0.187982 0.316244 0.046528
Si Si7 0.667570 0.749514 0.197271
Si Si8 0.279567 0.909159 0.736469
O O1 0.529582 0.500000 0.161294
O O2 0.315376 0.607358 0.075127
O O3 0.557256 0.667346 0.181213
O O4 0.330175 0.584351 0.209437
O O5 0.820282 0.830105 0.641536
O O6 0.025471 0.748802 0.595244
O O7 0.140727 0.885093 0.660031
O O8 0.889191 0.914016 0.545560
O O9 0.439817 0.909214 0.347509
O O10 0.322891 0.773286 0.268805
O O11 0.654775 0.000000 0.569028
O O12 0.334164 0.000000 0.559666
O O13 0.192614 0.272014 0.121644
O O14 0.250000 0.250000 0.000000
O O15 0.000000 0.342088 0.000000
O O16 0.599767 0.833072 0.225308
O O17 0.354921 0.000000 0.733367
#
# Coordination Sequence:
#
# PCOD9175716 Si02
#       8
#     8   8   8   4   4   8   8   8
#     4  10  20  34  59  86 109 151 191 233 279 346
#     4  10  18  33  56  85 112 152 191 242 283 338
#     4  10  21  34  58  83 116 150 196 240 286 337
#     4   9  20  36  55  87 118 155 192 241 282 341
#     4   9  18  34  59  83 115 155 203 231 280 351
#     4  11  22  39  59  81 115 152 188 236 294 345
#     4  10  20  34  58  84 114 147 193 234 293 336
#     4   9  17  31  54  84 110 143 195 237 279 331
#
# _framework density 22.554414000000001
#
# number of rings (size 3 to 8) (size 9 to 14) (size 15 to 20)
#    0.000    2.143    3.571    0.000    1.000    0.857 
#    0.000    2.143    0.000    4.286    0.000    0.000 
#    0.000    0.000    0.000    0.000    0.000    0.000 
#
# Total GULP energy -156214.604697 kJ/mol
# GULP energy per Si atom -5579.093025 kJ/mol
# Density = 2.250308 g / cm^3
# Si number density = 22.554414 Si / 1000 Ang^3
#
#
#
# Elastic Constant Matrix: (Units=GPa)
#
#
# Indices 1 2 3 4 5 6 
#
# 1 52.7337 33.6082 14.0405 0.0000 -4.9689 0.0000
# 2 33.6082 210.5538 40.0522 0.0000 12.1757 0.0000
# 3 14.0405 40.0522 78.8738 0.0000 7.5979 0.0000
# 4 0.0000 0.0000 0.0000 22.2733 0.0000 19.0263
# 5 -4.9689 12.1757 7.5979 0.0000 25.4116 0.0000
# 6 0.0000 0.0000 0.0000 19.0263 0.0000 44.8508
#
#
#
# Elastic Compliance Matrix: (Units=1/GPa)
#
#
# Indices 1 2 3 4 5 6 
#
# 1 0.022600 -0.003450 -0.002941 0.000000 0.006951 0.000000
# 2 -0.003450 0.005862 -0.002087 0.000000 -0.002859 0.000000
# 3 -0.002941 -0.002087 0.014643 0.000000 -0.003953 0.000000
# 4 0.000000 0.000000 0.000000 0.070412 0.000000 -0.029870
# 5 0.006951 -0.002859 -0.003953 0.000000 0.043263 0.000000
# 6 0.000000 0.000000 0.000000 -0.029870 0.000000 0.034967
#
#
# Mechanical properties :
#
#
# Convention : Reuss Voigt Hill
#
# Bulk Modulus (GPa) = 38.24259 57.50703 47.87481
# Shear Modulus (GPa) = 22.99689 35.47116 29.23403
#
# Velocity S-wave (km/s) = 3.19661 3.97002 3.60412
# Velocity P-wave (km/s) = 5.53326 6.82401 6.21225
#
# Compressibility (1/GPa) = 0.02614885
#
# Stress axis : x y z
#
# Youngs Moduli (GPa) = 44.24798 170.57647 68.29311
#
# Poissons Ratio (x) = 0.58848 0.20084
# Poissons Ratio (y) = 0.15265 0.14255
# Poissons Ratio (z) = 0.13013 0.35606
#
# Static dielectric constant tensor:
#      x y z
#    x 1.893540 0.000000 -0.016750 
#    y 0.000000 1.897360 0.000000 
#    z -0.016750 0.000000 1.833590 
# 
# From -- ./inp_files/333031.got.cif
#   From: 2010.05.17/outbox.cif.g08.bks.cpg/sg12_167_cif.got.tgz:333031.got - 2010.06.03 13:09:07.
