data_PCOD9175987
_publ_section_title
;
Structure prediction by ZEFSAII (Michael W. Deem and Ramdas Pophale) SiO2 
 PCOD9175987
Probable space group: C 2/M
;
_chemical_formula_sum "Si O2"
_cell_formula_units_Z 56
_cell_length_a 19.456900
_cell_length_b 15.019002
_cell_length_c 9.341966
_cell_angle_alpha 90.000000
_cell_angle_beta 111.730785
_cell_angle_gamma 90.000000
_cell_volume 2535.932893
_symmetry_space_group_name_H-M "C 2/M"
_symmetry_group_IT_number 12
_symmetry_cell_setting 'monoclinic'
loop_
_space_group_symop_operation_xyz
x,y,z
-x,y,-z
-x,-y,-z
x,-y,z
1/2+x,1/2+y,z
1/2-x,1/2+y,-z
1/2-x,1/2-y,-z
1/2+x,1/2-y,z
loop_
_atom_site_type_symbol
_atom_site_label
_atom_site_fract_x
_atom_site_fract_y
_atom_site_fract_z
Si Si1 0.841915 0.156484 0.127315
Si Si2 0.149936 0.401937 0.183753
Si Si3 0.178986 0.095455 0.605586
Si Si4 0.769727 0.340938 0.186831
Si Si5 0.853379 0.787527 0.677967
Si Si6 0.010657 0.239239 0.848850
Si Si7 0.087169 0.598525 0.810429
O O1 0.868169 0.104676 0.287111
O O2 0.801272 0.245575 0.156545
O O3 0.913691 0.183905 0.094025
O O4 0.781692 0.115397 0.975259
O O5 0.120609 0.500000 0.204914
O O6 0.238352 0.406542 0.266857
O O7 0.134756 0.316536 0.271931
O O8 0.125034 0.389201 0.998934
O O9 0.169577 0.179755 0.496232
O O10 0.166069 0.000000 0.521554
O O11 0.712351 0.324246 0.271240
O O12 0.846560 0.393819 0.254050
O O13 0.938373 0.818822 0.760799
O O14 0.028747 0.321405 0.756781
O O15 0.000000 0.276946 0.000000
O O16 0.054894 0.500000 0.781170
#
# Coordination Sequence:
#
# PCOD9175987 Si02
#       7
#     8   8   8   8   8   8   8
#     4  10  19  37  59  85 119 157 205 256 303 372
#     4  10  19  34  60  95 123 156 204 256 312 371
#     4  11  24  40  62  89 121 165 216 260 310 368
#     4  10  18  33  62  90 118 158 206 254 309 357
#     4  12  22  38  62  93 130 167 208 260 307 373
#     4  11  21  36  59  92 124 162 205 251 319 375
#     4  10  20  35  61  98 130 157 201 258 322 387
#
# _framework density 22.082604
#
# number of rings (size 3 to 8) (size 9 to 14) (size 15 to 20)
#    0.000    1.429    5.714    1.286    0.000    2.000 
#    0.000    1.429    0.000    0.857    0.000    3.000 
#    0.000    0.000    0.000    0.000    0.000    0.000 
#
# Total GULP energy -155976.849438 kJ/mol
# GULP energy per Si atom -5570.601766 kJ/mol
# Density = 2.203234 g / cm^3
# Si number density = 22.082604 Si / 1000 Ang^3
#
#
#
# Elastic Constant Matrix: (Units=GPa)
#
#
# Indices 1 2 3 4 5 6 
#
# 1 142.9612 3.3235 19.3197 0.0000 -10.4104 0.0000
# 2 3.3235 61.2045 13.2591 0.0000 -11.0750 0.0000
# 3 19.3197 13.2591 45.2537 0.0000 -8.9947 0.0000
# 4 0.0000 0.0000 0.0000 17.2081 0.0000 -4.6843
# 5 -10.4104 -11.0750 -8.9947 0.0000 20.0868 0.0000
# 6 0.0000 0.0000 0.0000 -4.6843 0.0000 11.8339
#
#
#
# Elastic Compliance Matrix: (Units=1/GPa)
#
#
# Indices 1 2 3 4 5 6 
#
# 1 0.007586 0.000762 -0.002851 0.000000 0.003075 0.000000
# 2 0.000762 0.018794 -0.004055 0.000000 0.008941 0.000000
# 3 -0.002851 -0.004055 0.026086 0.000000 0.007968 0.000000
# 4 0.000000 0.000000 0.000000 0.065130 0.000000 0.025781
# 5 0.003075 0.008941 0.007968 0.000000 0.059876 0.000000
# 6 0.000000 0.000000 0.000000 0.025781 0.000000 0.094708
#
#
# Mechanical properties :
#
#
# Convention : Reuss Voigt Hill
#
# Bulk Modulus (GPa) = 24.88801 35.69155 30.28978
# Shear Modulus (GPa) = 16.78640 24.06025 20.42332
#
# Velocity S-wave (km/s) = 2.76010 3.30442 3.04445
# Velocity P-wave (km/s) = 4.63167 5.54588 5.10927
#
# Compressibility (1/GPa) = 0.04017998
#
# Stress axis : x y z
#
# Youngs Moduli (GPa) = 131.81485 53.20960 38.33410
#
# Poissons Ratio (x) = -0.04055 0.10928
# Poissons Ratio (y) = -0.10046 0.15543
# Poissons Ratio (z) = 0.37578 0.21574
#
# Static dielectric constant tensor:
#      x y z
#    x 1.876960 0.000000 -0.000320 
#    y 0.000000 1.918000 0.000000 
#    z -0.000320 0.000000 1.827710 
# 
# From -- ./inp_files/75982.got.cif
#   From: 2010.05.17/outbox.cif.g08.bks.cpg/sg12_38_cif.got.tgz:75982.got - 2010.06.03 13:09:07.
