data_PCOD9175180
_publ_section_title
;
Structure prediction by ZEFSAII (Michael W. Deem and Ramdas Pophale) SiO2 
 PCOD9175180
Probable space group: C 2/M
;
_chemical_formula_sum "Si O2"
_cell_formula_units_Z 48
_cell_length_a 14.020851
_cell_length_b 11.041400
_cell_length_c 19.091196
_cell_angle_alpha 90.000000
_cell_angle_beta 41.105928
_cell_angle_gamma 90.000000
_cell_volume 1943.106045
_symmetry_space_group_name_H-M "C 2/M"
_symmetry_group_IT_number 12
_symmetry_cell_setting 'monoclinic'
loop_
_space_group_symop_operation_xyz
x,y,z
-x,y,-z
-x,-y,-z
x,-y,z
1/2+x,1/2+y,z
1/2-x,1/2+y,-z
1/2-x,1/2-y,-z
1/2+x,1/2-y,z
loop_
_atom_site_type_symbol
_atom_site_label
_atom_site_fract_x
_atom_site_fract_y
_atom_site_fract_z
Si Si1 0.405137 0.358517 0.459568
Si Si2 0.937620 0.759393 0.195788
Si Si3 0.506609 0.000000 0.867545
Si Si4 0.761003 0.634328 0.588383
Si Si5 0.630287 0.359426 0.979142
Si Si6 0.709476 0.000000 0.895398
Si Si7 0.178963 0.757437 0.226780
O O1 0.443289 0.500000 0.457326
O O2 0.278757 0.372207 0.471470
O O3 0.349230 0.260957 0.547984
O O4 0.533717 0.285231 0.349401
O O5 0.953424 0.617029 0.198569
O O6 0.887856 0.841246 0.287270
O O7 0.801489 0.769577 0.217448
O O8 0.086182 0.797118 0.075653
O O9 0.597802 0.000000 0.890336
O O10 0.350496 0.000000 0.992100
O O11 0.819029 0.500000 0.576919
O O12 0.604952 0.500000 0.002729
O O13 0.781317 0.340016 0.855289
O O14 0.500000 0.311287 0.000000
O O15 0.793436 0.121061 0.832409
#
# Coordination Sequence:
#
# PCOD9175180 Si02
#       7
#     8   8   4   8   8   4   8
#     4  10  22  41  62  80 105 146 192 236 281 331
#     4  10  19  32  55  85 112 142 180 228 276 322
#     4   9  16  26  51  83 113 143 171 217 270 326
#     4  10  23  42  59  77 109 151 189 229 282 339
#     4   9  17  29  49  79 116 151 177 210 268 338
#     4   9  14  28  49  81 115 137 171 215 276 318
#     4  10  18  32  56  85 110 138 181 230 274 321
#
# _framework density 24.702717
#
# number of rings (size 3 to 8) (size 9 to 14) (size 15 to 20)
#    0.000    2.333    2.500    0.500    1.167    2.000 
#    0.000    2.500    0.000    0.000    0.000    0.000 
#    0.000    0.000    0.000    0.000    0.000    0.000 
#
# Total GULP energy -133791.586858 kJ/mol
# GULP energy per Si atom -5574.649452 kJ/mol
# Density = 2.464649 g / cm^3
# Si number density = 24.702717 Si / 1000 Ang^3
#
#
#
# Elastic Constant Matrix: (Units=GPa)
#
#
# Indices 1 2 3 4 5 6 
#
# 1 77.3523 -7.8300 -0.2568 0.0000 -1.7150 0.0000
# 2 -7.8300 129.5442 50.4760 0.0000 8.7992 0.0000
# 3 -0.2568 50.4760 105.3830 0.0000 -7.0066 0.0000
# 4 0.0000 0.0000 0.0000 14.3071 0.0000 8.7396
# 5 -1.7150 8.7992 -7.0066 0.0000 25.5709 0.0000
# 6 0.0000 0.0000 0.0000 8.7396 0.0000 -1.8367
#
#
#
# Elastic Compliance Matrix: (Units=1/GPa)
#
#
# Indices 1 2 3 4 5 6 
#
# 1 0.013028 0.000899 -0.000368 0.000000 0.000463 0.000000
# 2 0.000899 0.010114 -0.005164 0.000000 -0.004835 0.000000
# 3 -0.000368 -0.005164 0.012302 0.000000 0.005123 0.000000
# 4 0.000000 0.000000 0.000000 0.017891 0.000000 0.085133
# 5 0.000463 -0.004835 0.005123 0.000000 0.042206 0.000000
# 6 0.000000 0.000000 0.000000 0.085133 0.000000 -0.139368
#
#
# Mechanical properties :
#
#
# Convention : Reuss Voigt Hill
#
# Bulk Modulus (GPa) = 38.19813 44.11756 41.15785
# Shear Modulus (GPa) = -193.53461 25.60094 -83.96684
#
# Velocity S-wave (km/s) = -8.86090 3.22275 -5.83650
# Velocity P-wave (km/s) = 9.44408 5.63439 5.35931
#
# Compressibility (1/GPa) = 0.02617929
#
# Stress axis : x y z
#
# Youngs Moduli (GPa) = 76.75795 98.87126 81.28613
#
# Poissons Ratio (x) = -0.08893 0.02994
# Poissons Ratio (y) = -0.06904 0.41974
# Poissons Ratio (z) = 0.02827 0.51054
#
# Static dielectric constant tensor:
#      x y z
#    x 2.103870 0.000000 -0.030910 
#    y 0.000000 2.154810 0.000000 
#    z -0.030910 0.000000 1.971300 
# 
# From -- ./inp_files/346768.got.cif
#   From: 2010.05.17/outbox.cif.g08.bks.cpg/sg12_174_cif.got.tgz:346768.got - 2010.06.03 13:09:07.
