data_PCOD9175323
_publ_section_title
;
Structure prediction by ZEFSAII (Michael W. Deem and Ramdas Pophale) SiO2 
 PCOD9175323
Probable space group: C 2/M
;
_chemical_formula_sum "Si O2"
_cell_formula_units_Z 56
_cell_length_a 11.471136
_cell_length_b 19.634720
_cell_length_c 13.161296
_cell_angle_alpha 90.000000
_cell_angle_beta 105.264223
_cell_angle_gamma 90.000000
_cell_volume 2859.775756
_symmetry_space_group_name_H-M "C 2/M"
_symmetry_group_IT_number 12
_symmetry_cell_setting 'monoclinic'
loop_
_space_group_symop_operation_xyz
x,y,z
-x,y,-z
-x,-y,-z
x,-y,z
1/2+x,1/2+y,z
1/2-x,1/2+y,-z
1/2-x,1/2-y,-z
1/2+x,1/2-y,z
loop_
_atom_site_type_symbol
_atom_site_label
_atom_site_fract_x
_atom_site_fract_y
_atom_site_fract_z
Si Si1 0.913785 0.307352 0.721481
Si Si2 0.665487 0.700229 0.570107
Si Si3 0.091692 0.643645 0.607642
Si Si4 0.687751 0.421981 0.242488
Si Si5 0.027555 0.161740 0.332331
Si Si6 0.636650 0.175382 0.061539
Si Si7 0.856777 0.838538 0.966264
O O1 0.806673 0.308593 0.614721
O O2 0.958919 0.228818 0.735203
O O3 0.863022 0.330674 0.816853
O O4 0.021415 0.350151 0.698330
O O5 0.630037 0.778735 0.586715
O O6 0.612802 0.676464 0.450484
O O7 0.601650 0.658483 0.645349
O O8 0.206060 0.597309 0.654824
O O9 0.000000 0.619397 0.500000
O O10 0.691556 0.500000 0.212974
O O11 0.567429 0.401958 0.276429
O O12 0.695615 0.372529 0.147696
O O13 0.639647 0.256581 0.039732
O O14 0.500000 0.151152 0.000000
O O15 0.756437 0.146226 0.031937
O O16 0.000000 0.860331 0.000000
#
# Coordination Sequence:
#
# PCOD9175323 Si02
#       7
#     8   8   8   8   8   8   8
#     4  11  18  30  60  87 120 144 182 248 307 350
#     4  10  18  32  58  92 120 145 183 253 305 344
#     4  11  20  34  58  90 123 153 194 237 302 361
#     4  12  25  40  57  80 122 166 202 233 280 367
#     4  10  19  33  54  90 115 149 187 235 301 345
#     4  10  20  34  57  93 123 138 183 265 322 350
#     4  10  22  38  59  84 116 153 200 249 306 357
#
# _framework density 19.581955000000001
#
# number of rings (size 3 to 8) (size 9 to 14) (size 15 to 20)
#    0.000    1.429    5.714    2.143    2.000    2.857 
#    0.000    1.429    0.000    4.714    0.000    0.000 
#    0.000    0.000    0.000    0.000    0.000    0.000 
#
# Total GULP energy -156133.268617 kJ/mol
# GULP energy per Si atom -5576.188165 kJ/mol
# Density = 1.953739 g / cm^3
# Si number density = 19.581955 Si / 1000 Ang^3
#
#
#
# Elastic Constant Matrix: (Units=GPa)
#
#
# Indices 1 2 3 4 5 6 
#
# 1 119.8050 13.6132 31.6582 0.0000 -22.3302 0.0000
# 2 13.6132 11.5527 -3.9073 0.0000 0.1776 0.0000
# 3 31.6582 -3.9073 73.9287 0.0000 -18.0443 0.0000
# 4 0.0000 0.0000 0.0000 4.2199 0.0000 -0.1343
# 5 -22.3302 0.1776 -18.0443 0.0000 43.4567 0.0000
# 6 0.0000 0.0000 0.0000 -0.1343 0.0000 7.0380
#
#
#
# Elastic Compliance Matrix: (Units=1/GPa)
#
#
# Indices 1 2 3 4 5 6 
#
# 1 0.012355 -0.016352 -0.005107 0.000000 0.004295 0.000000
# 2 -0.016352 0.109897 0.011851 0.000000 -0.003931 0.000000
# 3 -0.005107 0.011851 0.017457 0.000000 0.004576 0.000000
# 4 0.000000 0.000000 0.000000 0.237115 0.000000 0.004525
# 5 0.004295 -0.003931 0.004576 0.000000 0.027134 0.000000
# 6 0.000000 0.000000 0.000000 0.004525 0.000000 0.142173
#
#
# Mechanical properties :
#
#
# Convention : Reuss Voigt Hill
#
# Bulk Modulus (GPa) = 8.29917 32.00161 20.15039
# Shear Modulus (GPa) = 8.25752 21.87109 15.06430
#
# Velocity S-wave (km/s) = 2.05574 3.34563 2.77663
# Velocity P-wave (km/s) = 3.14358 5.59484 4.53786
#
# Compressibility (1/GPa) = 0.12049392
#
# Stress axis : x y z
#
# Youngs Moduli (GPa) = 80.94004 9.09946 57.28513
#
# Poissons Ratio (x) = 0.14879 0.29253
# Poissons Ratio (y) = 1.32350 -0.67889
# Poissons Ratio (z) = 0.41333 -0.10784
#
# Static dielectric constant tensor:
#      x y z
#    x 1.753760 0.000000 0.013910 
#    y 0.000000 1.639230 0.000000 
#    z 0.013910 0.000000 1.727880 
# 
# From -- ./inp_files/133980.got.cif
#   From: 2010.05.17/outbox.cif.g08.bks.cpg/sg12_67_cif.got.tgz:133980.got - 2010.06.03 13:09:07.
