data_PCOD9175813
_publ_section_title
;
Structure prediction by ZEFSAII (Michael W. Deem and Ramdas Pophale) SiO2 
 PCOD9175813
Probable space group: C 2/M
;
_chemical_formula_sum "Si O2"
_cell_formula_units_Z 56
_cell_length_a 23.849741
_cell_length_b 16.287108
_cell_length_c 17.521123
_cell_angle_alpha 90.000000
_cell_angle_beta 156.259572
_cell_angle_gamma 90.000000
_cell_volume 2740.038287
_symmetry_space_group_name_H-M "C 2/M"
_symmetry_group_IT_number 12
_symmetry_cell_setting 'monoclinic'
loop_
_space_group_symop_operation_xyz
x,y,z
-x,y,-z
-x,-y,-z
x,-y,z
1/2+x,1/2+y,z
1/2-x,1/2+y,-z
1/2-x,1/2-y,-z
1/2+x,1/2-y,z
loop_
_atom_site_type_symbol
_atom_site_label
_atom_site_fract_x
_atom_site_fract_y
_atom_site_fract_z
Si Si1 0.811984 0.273454 0.454700
Si Si2 0.062821 0.907604 0.849580
Si Si3 0.707717 0.906035 0.969206
Si Si4 0.498926 0.167133 0.822938
Si Si5 0.750277 0.908761 0.399598
Si Si6 0.542763 0.093859 0.465462
Si Si7 0.991404 0.815515 0.902787
O O1 0.925497 0.278264 0.664351
O O2 0.769353 0.179747 0.380616
O O3 0.861381 0.333084 0.448279
O O4 0.673543 0.313124 0.318430
O O5 0.900402 0.912325 0.627508
O O6 0.076169 0.867643 0.948277
O O7 0.117843 0.000000 0.924562
O O8 0.153140 0.867592 0.894175
O O9 0.634346 0.867544 0.950968
O O10 0.592773 0.904015 0.758385
O O11 0.737659 0.000000 0.027880
O O12 0.380244 0.105022 0.705546
O O13 0.537680 0.222751 0.943339
O O14 0.732249 0.000000 0.340143
O O15 0.500000 0.106007 0.500000
O O16 0.600925 0.000000 0.530423
O O17 0.000000 0.841654 0.000000
#
# Coordination Sequence:
#
# PCOD9175813 Si02
#       7
#     8   8   8   8   8   8   8
#     4  10  19  36  55  79 107 143 191 230 263 328
#     4  10  20  34  51  80 112 141 174 220 281 334
#     4   9  19  33  53  78 107 137 179 227 270 321
#     4  10  18  37  56  77 104 141 193 228 263 322
#     4  10  18  33  58  79 103 140 185 231 272 315
#     4   9  19  34  52  77 110 149 183 219 268 331
#     4  11  22  34  51  78 113 144 176 226 279 331
#
# _framework density 20.437671999999999
#
# number of rings (size 3 to 8) (size 9 to 14) (size 15 to 20)
#    0.000    2.143    2.857    1.286    2.000    2.000 
#    0.000    0.000    0.000   11.143    0.000    0.000 
#    0.000    0.000    0.000    0.000    0.000    0.000 
#
# Total GULP energy -155879.710789 kJ/mol
# GULP energy per Si atom -5567.132528 kJ/mol
# Density = 2.039115 g / cm^3
# Si number density = 20.437672 Si / 1000 Ang^3
#
#
#
# Elastic Constant Matrix: (Units=GPa)
#
#
# Indices 1 2 3 4 5 6 
#
# 1 103.7109 45.1420 21.1719 -0.0001 38.6982 -0.0001
# 2 45.1420 107.7563 12.1452 0.0001 23.3034 0.0000
# 3 21.1719 12.1452 25.0000 0.0000 23.3120 -0.0002
# 4 -0.0001 0.0001 0.0000 10.7878 -0.0001 14.6835
# 5 38.6982 23.3034 23.3120 -0.0001 31.8809 -0.0002
# 6 -0.0001 0.0000 -0.0002 14.6835 -0.0002 34.7062
#
#
#
# Elastic Compliance Matrix: (Units=1/GPa)
#
#
# Indices 1 2 3 4 5 6 
#
# 1 0.020584 -0.002927 0.016638 0.000000 -0.035012 0.000000
# 2 -0.002927 0.011817 0.004651 0.000000 -0.008486 0.000000
# 3 0.016638 0.004651 0.143491 -0.000003 -0.128518 0.000001
# 4 0.000000 0.000000 -0.000003 0.218556 0.000003 -0.092467
# 5 -0.035012 -0.008486 -0.128518 0.000003 0.174043 -0.000001
# 6 0.000000 0.000000 0.000001 -0.092467 -0.000001 0.067934
#
#
# Mechanical properties :
#
#
# Convention : Reuss Voigt Hill
#
# Bulk Modulus (GPa) = 4.70333 43.70950 24.20642
# Shear Modulus (GPa) = 7.45629 26.00885 16.73257
#
# Velocity S-wave (km/s) = 1.91213 3.57121 2.86442
# Velocity P-wave (km/s) = 2.67979 6.19983 4.77594
#
# Compressibility (1/GPa) = 0.21261519
#
# Stress axis : x y z
#
# Youngs Moduli (GPa) = 48.58198 84.62194 6.96908
#
# Poissons Ratio (x) = 0.24766 -0.11595
# Poissons Ratio (y) = 0.14218 -0.03241
# Poissons Ratio (z) = -0.80829 -0.39354
#
# Static dielectric constant tensor:
#      x y z
#    x 1.717910 0.000000 0.016600 
#    y 0.000000 1.816280 0.000000 
#    z 0.016600 0.000000 1.762530 
# 
# From -- ./inp_files/285008.got.cif
#   From: 2010.05.17/outbox.cif.g08.bks.cpg/sg12_143_cif.got.tgz:285008.got - 2010.06.03 13:09:07.
