data_PCOD9175456
_publ_section_title
;
Structure prediction by ZEFSAII (Michael W. Deem and Ramdas Pophale) SiO2 
 PCOD9175456
Probable space group: C 2/M
;
_chemical_formula_sum "Si O2"
_cell_formula_units_Z 64
_cell_length_a 21.172850
_cell_length_b 17.814225
_cell_length_c 15.547398
_cell_angle_alpha 90.000000
_cell_angle_beta 142.987789
_cell_angle_gamma 90.000000
_cell_volume 3530.122663
_symmetry_space_group_name_H-M "C 2/M"
_symmetry_group_IT_number 12
_symmetry_cell_setting 'monoclinic'
loop_
_space_group_symop_operation_xyz
x,y,z
-x,y,-z
-x,-y,-z
x,-y,z
1/2+x,1/2+y,z
1/2-x,1/2+y,-z
1/2-x,1/2-y,-z
1/2+x,1/2-y,z
loop_
_atom_site_type_symbol
_atom_site_label
_atom_site_fract_x
_atom_site_fract_y
_atom_site_fract_z
Si Si1 0.378043 0.582529 0.393666
Si Si2 0.810328 0.757032 0.286030
Si Si3 0.853212 0.850921 0.068903
Si Si4 0.881922 0.157215 0.901942
Si Si5 0.402870 0.797920 0.562298
Si Si6 0.220445 0.083912 0.369711
Si Si7 0.575708 0.627036 0.366497
Si Si8 0.134336 0.311092 0.839613
O O1 0.500000 0.588720 0.500000
O O2 0.339517 0.500000 0.327449
O O3 0.319679 0.653845 0.291420
O O4 0.376784 0.592894 0.495364
O O5 0.693892 0.729736 0.183511
O O6 0.886307 0.725687 0.444126
O O7 0.842336 0.721637 0.230290
O O8 0.861034 0.760195 0.091092
O O9 0.949776 0.883875 0.227786
O O10 0.875479 0.869429 0.993628
O O11 0.732443 0.866255 0.963199
O O12 0.829702 0.099825 0.778131
O O13 0.000000 0.171915 0.000000
O O14 0.308430 0.853196 0.482223
O O15 0.403078 0.716943 0.609319
O O16 0.514232 0.836474 0.704013
O O17 0.129948 0.093285 0.342063
O O18 0.264012 0.000000 0.420534
#
# Coordination Sequence:
#
# PCOD9175456 Si02
#       8
#     8   8   8   8   8   8   8   8
#     4  10  19  31  49  76 104 128 157 203 263 309
#     4   9  17  30  53  75  99 129 163 212 252 295
#     4   9  17  29  50  76 100 124 166 205 250 286
#     4  10  19  34  50  72  98 131 173 205 245 294
#     4   9  18  31  52  76 100 130 169 208 251 300
#     4  11  22  34  50  72 104 138 169 208 254 298
#     4  10  18  33  52  75 101 130 170 209 246 300
#     4   9  16  29  52  79 100 124 162 215 251 287
#
# _framework density 18.129681999999999
#
# number of rings (size 3 to 8) (size 9 to 14) (size 15 to 20)
#    0.000    2.375    1.250    3.375    0.000    0.250 
#    0.000    0.000    0.000   16.125    0.000   21.000 
#    0.000    0.000    0.000    0.000    0.000    0.000 
#
# Total GULP energy -178346.114916 kJ/mol
# GULP energy per Si atom -5573.316091 kJ/mol
# Density = 1.808842 g / cm^3
# Si number density = 18.129682 Si / 1000 Ang^3
#
#
#
# Elastic Constant Matrix: (Units=GPa)
#
#
# Indices 1 2 3 4 5 6 
#
# 1 48.8662 -1.0478 -1.1434 0.0000 1.6923 0.0000
# 2 -1.0478 65.1179 2.6172 0.0000 11.5657 0.0000
# 3 -1.1434 2.6172 65.8016 0.0000 19.4373 0.0000
# 4 0.0000 0.0000 0.0000 7.5244 0.0000 -1.3727
# 5 1.6923 11.5657 19.4373 0.0000 32.2365 0.0000
# 6 0.0000 0.0000 0.0000 -1.3727 0.0000 6.2560
#
#
#
# Elastic Compliance Matrix: (Units=1/GPa)
#
#
# Indices 1 2 3 4 5 6 
#
# 1 0.020561 0.000620 0.000873 0.000000 -0.001828 0.000000
# 2 0.000620 0.016516 0.001355 0.000000 -0.006775 0.000000
# 3 0.000873 0.001355 0.018635 0.000000 -0.011768 0.000000
# 4 0.000000 0.000000 0.000000 0.138442 0.000000 0.030377
# 5 -0.001828 -0.006775 -0.011768 0.000000 0.040643 0.000000
# 6 0.000000 0.000000 0.000000 0.030377 0.000000 0.166512
#
#
# Mechanical properties :
#
#
# Convention : Reuss Voigt Hill
#
# Bulk Modulus (GPa) = 16.28455 20.07086 18.17770
# Shear Modulus (GPa) = 12.01690 21.16071 16.58880
#
# Velocity S-wave (km/s) = 2.57734 3.42012 3.02819
# Velocity P-wave (km/s) = 4.22595 5.16633 4.71962
#
# Compressibility (1/GPa) = 0.06140790
#
# Stress axis : x y z
#
# Youngs Moduli (GPa) = 48.63559 60.54873 53.66360
#
# Poissons Ratio (x) = -0.03757 -0.04683
# Poissons Ratio (y) = -0.03018 -0.07273
# Poissons Ratio (z) = -0.04244 -0.08206
#
# Static dielectric constant tensor:
#      x y z
#    x 1.618110 0.000000 -0.005390 
#    y 0.000000 1.609840 0.000000 
#    z -0.005390 0.000000 1.670270 
# 
# From -- ./inp_files/290467.got.cif
#   From: 2010.05.17/outbox.cif.g08.bks.cpg/sg12_146_cif.got.tgz:290467.got - 2010.06.03 13:09:07.
