data_PCOD9175788
_publ_section_title
;
Structure prediction by ZEFSAII (Michael W. Deem and Ramdas Pophale) SiO2 
 PCOD9175788
Probable space group: C 2/M
;
_chemical_formula_sum "Si O2"
_cell_formula_units_Z 64
_cell_length_a 28.240277
_cell_length_b 7.649858
_cell_length_c 16.911694
_cell_angle_alpha 90.000000
_cell_angle_beta 54.575147
_cell_angle_gamma 90.000000
_cell_volume 2977.153332
_symmetry_space_group_name_H-M "C 2/M"
_symmetry_group_IT_number 12
_symmetry_cell_setting 'monoclinic'
loop_
_space_group_symop_operation_xyz
x,y,z
-x,y,-z
-x,-y,-z
x,-y,z
1/2+x,1/2+y,z
1/2-x,1/2+y,-z
1/2-x,1/2-y,-z
1/2+x,1/2-y,z
loop_
_atom_site_type_symbol
_atom_site_label
_atom_site_fract_x
_atom_site_fract_y
_atom_site_fract_z
Si Si1 0.182478 0.790275 0.075686
Si Si2 0.626241 0.210195 0.455353
Si Si3 0.017939 0.704395 0.663600
Si Si4 0.609837 0.285918 0.994475
Si Si5 0.103971 0.791467 0.294513
Si Si6 0.016644 0.201754 0.844872
Si Si7 0.638969 0.285981 0.791831
Si Si8 0.747293 0.789867 0.410117
O O1 0.145362 0.725648 0.036615
O O2 0.152992 0.726387 0.185486
O O3 0.177392 0.000000 0.080949
O O4 0.250000 0.750000 0.000000
O O5 0.571833 0.274463 0.560111
O O6 0.618011 0.249444 0.371224
O O7 0.687460 0.276736 0.429737
O O8 0.626107 0.000000 0.462981
O O9 0.028123 0.500000 0.670131
O O10 0.958516 0.721390 0.672302
O O11 0.012409 0.793032 0.754136
O O12 0.608459 0.500000 0.998535
O O13 0.543227 0.222709 0.063280
O O14 0.639130 0.236746 0.883658
O O15 0.100548 0.000000 0.290480
O O16 0.078183 0.276470 0.813033
O O17 0.017491 0.000000 0.870829
O O18 0.639423 0.500000 0.787336
O O19 0.695224 0.223830 0.689949
O O20 0.750000 0.750000 0.500000
O O21 0.746877 0.000000 0.401737
#
# Coordination Sequence:
#
# PCOD9175788 Si02
#       8
#     8   8   8   8   8   8   8   8
#     4  10  22  38  58  84 116 150 186 229 282 340
#     4  10  23  39  57  83 116 154 192 235 286 343
#     4  11  22  37  57  82 115 154 192 230 286 348
#     4   9  17  33  55  83 114 142 182 236 281 326
#     4  11  23  40  60  87 115 144 190 242 285 331
#     4  10  18  33  57  85 115 144 186 239 285 331
#     4   9  18  31  56  86 109 145 190 232 281 334
#     4  10  21  38  58  83 114 148 191 230 275 337
#
# _framework density 21.497045
#
# number of rings (size 3 to 8) (size 9 to 14) (size 15 to 20)
#    0.000    2.000    1.250    2.250    1.750    5.500 
#    0.000    0.000    0.000    3.000    0.000    0.000 
#    0.000    0.000    0.000    0.000    0.000    0.000 
#
# Total GULP energy -178850.329514 kJ/mol
# GULP energy per Si atom -5589.072797 kJ/mol
# Density = 2.144812 g / cm^3
# Si number density = 21.497045 Si / 1000 Ang^3
#
#
#
# Elastic Constant Matrix: (Units=GPa)
#
#
# Indices 1 2 3 4 5 6 
#
# 1 71.6063 -6.7588 48.2372 -0.0001 -22.0135 0.0000
# 2 -6.7588 42.3497 -5.0520 0.0001 -6.6945 0.0002
# 3 48.2372 -5.0520 181.2053 -0.0001 -22.2533 0.0000
# 4 -0.0001 0.0001 -0.0001 13.7556 0.0000 -0.0268
# 5 -22.0135 -6.6945 -22.2533 0.0000 42.7471 0.0000
# 6 0.0000 0.0002 0.0000 -0.0268 0.0000 10.6510
#
#
#
# Elastic Compliance Matrix: (Units=1/GPa)
#
#
# Indices 1 2 3 4 5 6 
#
# 1 0.019768 0.004041 -0.004083 0.000000 0.008687 0.000000
# 2 0.004041 0.025293 0.000397 0.000000 0.006249 -0.000001
# 3 -0.004083 0.000397 0.006801 0.000000 0.001500 0.000000
# 4 0.000000 0.000000 0.000000 0.072698 0.000000 0.000183
# 5 0.008687 0.006249 0.001500 0.000000 0.029627 0.000000
# 6 0.000000 -0.000001 0.000000 0.000183 0.000000 0.093888
#
#
# Mechanical properties :
#
#
# Convention : Reuss Voigt Hill
#
# Bulk Modulus (GPa) = 19.02165 40.89044 29.95605
# Shear Modulus (GPa) = 18.87594 30.67974 24.77784
#
# Velocity S-wave (km/s) = 2.96644 3.78188 3.39870
# Velocity P-wave (km/s) = 4.53880 6.17518 5.41911
#
# Compressibility (1/GPa) = 0.05257166
#
# Stress axis : x y z
#
# Youngs Moduli (GPa) = 50.58777 39.53669 147.04392
#
# Poissons Ratio (x) = -0.15977 0.60033
# Poissons Ratio (y) = -0.20443 -0.05835
# Poissons Ratio (z) = 0.20653 -0.01569
#
# Static dielectric constant tensor:
#      x y z
#    x 1.741270 0.000000 -0.017960 
#    y 0.000000 1.833170 0.000000 
#    z -0.017960 0.000000 1.754980 
# 
# From -- ./inp_files/249722.got.cif
#   From: 2010.05.17/outbox.cif.g08.bks.cpg/sg12_125_cif.got.tgz:249722.got - 2010.06.03 13:09:07.
