data_PCOD9175130
_publ_section_title
;
Structure prediction by ZEFSAII (Michael W. Deem and Ramdas Pophale) SiO2 
 PCOD9175130
Probable space group: C 2/M
;
_chemical_formula_sum "Si O2"
_cell_formula_units_Z 64
_cell_length_a 29.475072
_cell_length_b 7.540412
_cell_length_c 15.144734
_cell_angle_alpha 90.000000
_cell_angle_beta 47.779294
_cell_angle_gamma 90.000000
_cell_volume 2492.716592
_symmetry_space_group_name_H-M "C 2/M"
_symmetry_group_IT_number 12
_symmetry_cell_setting 'monoclinic'
loop_
_space_group_symop_operation_xyz
x,y,z
-x,y,-z
-x,-y,-z
x,-y,z
1/2+x,1/2+y,z
1/2-x,1/2+y,-z
1/2-x,1/2-y,-z
1/2+x,1/2-y,z
loop_
_atom_site_type_symbol
_atom_site_label
_atom_site_fract_x
_atom_site_fract_y
_atom_site_fract_z
Si Si1 0.396025 0.210928 0.887615
Si Si2 0.099759 0.217910 0.614557
Si Si3 0.860199 0.786997 0.253708
Si Si4 0.957021 0.796722 0.481887
Si Si5 0.133605 0.290918 0.260695
Si Si6 0.765922 0.713805 0.131052
Si Si7 0.730565 0.290015 0.371133
Si Si8 0.550541 0.286888 0.004140
O O1 0.402411 0.276749 0.778950
O O2 0.390080 0.000000 0.886351
O O3 0.330810 0.280901 0.010195
O O4 0.446513 0.241833 0.896815
O O5 0.098268 0.272981 0.718367
O O6 0.052089 0.282035 0.603120
O O7 0.166944 0.276502 0.493083
O O8 0.096852 0.000000 0.617172
O O9 0.789665 0.738324 0.354972
O O10 0.886964 0.723609 0.125421
O O11 0.863478 0.000000 0.248995
O O12 0.891271 0.797518 0.617678
O O13 0.000000 0.710672 0.500000
O O14 0.976996 0.000000 0.444595
O O15 0.124036 0.500000 0.284377
O O16 0.205759 0.259583 0.153192
O O17 0.770200 0.500000 0.129146
O O18 0.749537 0.783091 0.250479
O O19 0.722278 0.500000 0.372211
O O20 0.547165 0.500000 0.007364
O O21 0.500000 0.223817 0.000000
#
# Coordination Sequence:
#
# PCOD9175130 Si02
#       8
#     8   8   8   8   8   8   8   8
#     4  10  22  39  58  83 114 151 188 229 283 340
#     4   9  18  34  54  80 110 139 175 223 274 327
#     4  10  20  34  54  79 110 141 176 225 277 328
#     4  10  21  39  62  83 107 149 196 230 273 334
#     4  11  23  37  57  86 118 147 183 234 288 335
#     4  10  19  35  59  83 112 148 188 229 276 341
#     4  10  18  32  56  80 109 142 176 221 272 332
#     4  10  22  38  56  81 111 145 188 237 281 325
#
# _framework density 25.674802
#
# number of rings (size 3 to 8) (size 9 to 14) (size 15 to 20)
#    0.000    2.000    2.500    1.125    0.000    3.500 
#    0.000    3.125    0.000    0.000    0.000    0.000 
#    0.000    0.000    0.000    0.000    0.000    0.000 
#
# Total GULP energy -178927.095927 kJ/mol
# GULP energy per Si atom -5591.471748 kJ/mol
# Density = 2.561636 g / cm^3
# Si number density = 25.674802 Si / 1000 Ang^3
#
#
#
# Elastic Constant Matrix: (Units=GPa)
#
#
# Indices 1 2 3 4 5 6 
#
# 1 151.5160 -10.5037 20.8192 0.0000 32.4784 0.0002
# 2 -10.5037 74.7333 5.4737 -0.0001 1.1006 0.0003
# 3 20.8192 5.4737 79.7814 -0.0001 27.6126 0.0001
# 4 0.0000 -0.0001 -0.0001 9.8455 0.0000 0.7874
# 5 32.4784 1.1006 27.6126 0.0000 51.7925 0.0000
# 6 0.0002 0.0003 0.0001 0.7874 0.0000 8.1662
#
#
#
# Elastic Compliance Matrix: (Units=1/GPa)
#
#
# Indices 1 2 3 4 5 6 
#
# 1 0.007740 0.001193 -0.000506 0.000000 -0.004609 0.000000
# 2 0.001193 0.013635 -0.001088 0.000000 -0.000457 -0.000001
# 3 -0.000506 -0.001088 0.015479 0.000000 -0.007912 0.000000
# 4 0.000000 0.000000 0.000000 0.102359 0.000000 -0.009870
# 5 -0.004609 -0.000457 -0.007912 0.000000 0.026426 0.000000
# 6 0.000000 -0.000001 0.000000 -0.009870 0.000000 0.123408
#
#
# Mechanical properties :
#
#
# Convention : Reuss Voigt Hill
#
# Bulk Modulus (GPa) = 27.73873 37.51215 32.62544
# Shear Modulus (GPa) = 16.56352 33.31026 24.93689
#
# Velocity S-wave (km/s) = 2.54269 3.60584 3.11988
# Velocity P-wave (km/s) = 4.40995 5.65494 5.07080
#
# Compressibility (1/GPa) = 0.03605067
#
# Stress axis : x y z
#
# Youngs Moduli (GPa) = 129.19485 73.34053 64.60182
#
# Poissons Ratio (x) = -0.08748 0.03272
# Poissons Ratio (y) = -0.15411 0.07031
# Poissons Ratio (z) = 0.06543 0.07983
#
# Static dielectric constant tensor:
#      x y z
#    x 2.075600 0.000000 -0.012020 
#    y 0.000000 1.956810 0.000000 
#    z -0.012020 0.000000 2.030370 
# 
# From -- ./inp_files/249094.got.cif
#   From: 2010.05.17/outbox.cif.g08.bks.cpg/sg12_125_cif.got.tgz:249094.got - 2010.06.03 13:09:07.
