data_PCOD9175510
_publ_section_title
;
Structure prediction by ZEFSAII (Michael W. Deem and Ramdas Pophale) SiO2 
 PCOD9175510
Probable space group: C 2/M
;
_chemical_formula_sum "Si O2"
_cell_formula_units_Z 56
_cell_length_a 25.404773
_cell_length_b 21.266702
_cell_length_c 13.474505
_cell_angle_alpha 90.000000
_cell_angle_beta 25.874098
_cell_angle_gamma 90.000000
_cell_volume 3176.933512
_symmetry_space_group_name_H-M "C 2/M"
_symmetry_group_IT_number 12
_symmetry_cell_setting 'monoclinic'
loop_
_space_group_symop_operation_xyz
x,y,z
-x,y,-z
-x,-y,-z
x,-y,z
1/2+x,1/2+y,z
1/2-x,1/2+y,-z
1/2-x,1/2-y,-z
1/2+x,1/2-y,z
loop_
_atom_site_type_symbol
_atom_site_label
_atom_site_fract_x
_atom_site_fract_y
_atom_site_fract_z
Si Si1 0.897057 0.203445 0.469111
Si Si2 0.372533 0.294420 0.280963
Si Si3 0.642461 0.570242 0.779133
Si Si4 0.282987 0.197193 0.077914
Si Si5 0.736980 0.072192 0.213475
Si Si6 0.477219 0.163248 0.420488
Si Si7 0.362488 0.668149 0.864483
O O1 0.916188 0.201129 0.320275
O O2 0.764381 0.185595 0.731849
O O3 0.918197 0.273423 0.476755
O O4 0.997222 0.161226 0.352555
O O5 0.250000 0.250000 0.500000
O O6 0.324024 0.362940 0.327462
O O7 0.500000 0.279916 0.000000
O O8 0.690879 0.500000 0.666333
O O9 0.676965 0.576954 0.836327
O O10 0.500000 0.567210 0.000000
O O11 0.175745 0.183577 0.182126
O O12 0.395856 0.157168 0.850003
O O13 0.321388 0.269671 0.995811
O O14 0.611285 0.106147 0.449122
O O15 0.718969 0.000000 0.220087
O O16 0.792776 0.109673 0.027188
O O17 0.500000 0.170980 0.500000
#
# Coordination Sequence:
#
# PCOD9175510 Si02
#       7
#     8   8   8   8   8   8   8
#     4  11  21  33  60  82 114 151 190 246 300 345
#     4  11  24  38  58  91 122 151 197 260 312 356
#     4   9  19  38  61  84 113 154 203 250 295 348
#     4  10  19  32  55  82 115 151 182 231 289 344
#     4  11  21  35  59  86 117 156 197 239 277 342
#     4  11  20  35  55  87 122 153 189 233 283 354
#     4  10  18  33  53  81 114 142 194 229 279 338
#
# _framework density 17.62706
#
# number of rings (size 3 to 8) (size 9 to 14) (size 15 to 20)
#    0.000    1.571    2.857    4.714    4.000    0.286 
#    0.000    0.000    0.000    4.714    0.000    0.000 
#    0.000    0.000    0.000    0.000    0.000    0.000 
#
# Total GULP energy -155886.751081 kJ/mol
# GULP energy per Si atom -5567.383967 kJ/mol
# Density = 1.758694 g / cm^3
# Si number density = 17.627060 Si / 1000 Ang^3
#
#
#
# Elastic Constant Matrix: (Units=GPa)
#
#
# Indices 1 2 3 4 5 6 
#
# 1 33.0429 5.8997 17.8759 -0.0001 11.7714 0.0004
# 2 5.8997 97.3847 19.0016 0.0001 5.5718 0.0002
# 3 17.8759 19.0016 123.5517 0.0001 15.4024 0.0004
# 4 -0.0001 0.0001 0.0001 68.2556 0.0001 -75.1363
# 5 11.7714 5.5718 15.4024 0.0001 21.9869 -0.0005
# 6 0.0004 0.0002 0.0004 -75.1363 -0.0005 137.0838
#
#
#
# Elastic Compliance Matrix: (Units=1/GPa)
#
#
# Indices 1 2 3 4 5 6 
#
# 1 0.038625 -0.000669 -0.003209 0.000000 -0.018262 0.000000
# 2 -0.000669 0.010655 -0.001370 0.000000 -0.001383 0.000000
# 3 -0.003209 -0.001370 0.009326 0.000000 -0.004468 0.000000
# 4 0.000000 0.000000 0.000000 0.036937 0.000000 0.020245
# 5 -0.018262 -0.001383 -0.004468 0.000000 0.058739 0.000001
# 6 0.000000 0.000000 0.000000 0.020245 0.000001 0.018391
#
#
# Mechanical properties :
#
#
# Convention : Reuss Voigt Hill
#
# Bulk Modulus (GPa) = 20.78535 37.72595 29.25565
# Shear Modulus (GPa) = 25.09976 59.54540 42.32258
#
# Velocity S-wave (km/s) = 3.77760 5.81842 4.90532
# Velocity P-wave (km/s) = 5.55377 8.16011 6.97968
#
# Compressibility (1/GPa) = 0.04811082
#
# Stress axis : x y z
#
# Youngs Moduli (GPa) = 25.89010 93.84890 107.23098
#
# Poissons Ratio (x) = 0.06279 0.34410
# Poissons Ratio (y) = 0.01732 0.14686
# Poissons Ratio (z) = 0.08308 0.12853
#
# Static dielectric constant tensor:
#      x y z
#    x 1.614460 0.000000 -0.020760 
#    y 0.000000 1.605800 0.000000 
#    z -0.020760 0.000000 1.710230 
# 
# From -- ./inp_files/177880.got.cif
#   From: 2010.05.17/outbox.cif.g08.bks.cpg/sg12_89_cif.got.tgz:177880.got - 2010.06.03 13:09:07.
