data_PCOD9175601
_publ_section_title
;
Structure prediction by ZEFSAII (Michael W. Deem and Ramdas Pophale) SiO2 
 PCOD9175601
Probable space group: C 2/M
;
_chemical_formula_sum "Si O2"
_cell_formula_units_Z 64
_cell_length_a 26.961678
_cell_length_b 18.363908
_cell_length_c 21.381634
_cell_angle_alpha 90.000000
_cell_angle_beta 19.887548
_cell_angle_gamma 90.000000
_cell_volume 3601.268932
_symmetry_space_group_name_H-M "C 2/M"
_symmetry_group_IT_number 12
_symmetry_cell_setting 'monoclinic'
loop_
_space_group_symop_operation_xyz
x,y,z
-x,y,-z
-x,-y,-z
x,-y,z
1/2+x,1/2+y,z
1/2-x,1/2+y,-z
1/2-x,1/2-y,-z
1/2+x,1/2-y,z
loop_
_atom_site_type_symbol
_atom_site_label
_atom_site_fract_x
_atom_site_fract_y
_atom_site_fract_z
Si Si1 0.421880 0.691823 0.740636
Si Si2 0.803331 0.799656 0.305283
Si Si3 0.120283 0.738909 0.402379
Si Si4 0.905671 0.686527 0.862035
Si Si5 0.585466 0.774101 0.015147
Si Si6 0.814047 0.413348 0.469124
Si Si7 0.183428 0.150143 0.497297
Si Si8 0.449165 0.080551 0.131173
O O1 0.519167 0.705133 0.563038
O O2 0.406095 0.769313 0.796243
O O3 0.517687 0.643422 0.673926
O O4 0.259252 0.662181 0.926995
O O5 0.716901 0.798323 0.342390
O O6 0.777348 0.877396 0.366563
O O7 0.726337 0.735631 0.438869
O O8 0.971500 0.773883 0.109644
O O9 0.249626 0.766128 0.203559
O O10 0.000000 0.700635 0.500000
O O11 0.026055 0.623689 0.717543
O O12 0.938678 0.739587 0.882379
O O13 0.538388 0.857770 0.061021
O O14 0.819811 0.500000 0.463076
O O15 0.734446 0.383114 0.501577
O O16 0.283751 0.108064 0.328510
O O17 0.462074 0.000000 0.143443
O O18 0.500000 0.079409 0.000000
#
# Coordination Sequence:
#
# PCOD9175601 Si02
#       8
#     8   8   8   8   8   8   8   8
#     4  10  21  35  56  82 118 142 191 232 296 334
#     4  10  20  36  57  82 115 146 191 243 290 333
#     4  11  20  34  55  90 113 147 188 244 287 345
#     4  11  20  35  56  85 111 151 180 242 288 344
#     4  11  20  33  60  84 112 143 193 237 293 341
#     4  12  22  36  59  87 116 153 197 242 295 348
#     4  10  18  33  55  79 109 141 186 239 283 335
#     4  10  19  30  47  73 107 146 184 219 266 333
#
# _framework density 17.771514
#
# number of rings (size 3 to 8) (size 9 to 14) (size 15 to 20)
#    0.000    1.375    6.250    4.125    0.000    0.000 
#    0.000    1.250    0.000    3.000    0.000    0.000 
#    0.000    0.000    0.000    0.000    0.000    0.000 
#
# Total GULP energy -178188.189476 kJ/mol
# GULP energy per Si atom -5568.380921 kJ/mol
# Density = 1.773107 g / cm^3
# Si number density = 17.771514 Si / 1000 Ang^3
#
#
#
# Elastic Constant Matrix: (Units=GPa)
#
#
# Indices 1 2 3 4 5 6 
#
# 1 75.2184 29.9934 24.4032 0.0017 -19.8158 -0.0021
# 2 29.9934 65.6462 19.6468 0.0047 0.5174 -0.0047
# 3 24.4032 19.6468 99.0484 0.0056 -22.7107 -0.0074
# 4 0.0017 0.0047 0.0056 10.6540 -0.0030 -0.4430
# 5 -19.8158 0.5174 -22.7107 -0.0030 38.1993 0.0023
# 6 -0.0021 -0.0047 -0.0074 -0.4430 0.0023 8.4531
#
#
#
# Elastic Compliance Matrix: (Units=1/GPa)
#
#
# Indices 1 2 3 4 5 6 
#
# 1 0.019670 -0.008811 -0.000847 0.000004 0.009819 -0.000003
# 2 -0.008811 0.020344 -0.003445 -0.000007 -0.006895 0.000008
# 3 -0.000847 -0.003445 0.012618 -0.000003 0.007109 0.000007
# 4 0.000004 -0.000007 -0.000003 0.094066 0.000007 0.004930
# 5 0.009819 -0.006895 0.007109 0.000007 0.035592 -0.000005
# 6 -0.000003 0.000008 0.000007 0.004930 -0.000005 0.118558
#
#
# Mechanical properties :
#
#
# Convention : Reuss Voigt Hill
#
# Bulk Modulus (GPa) = 37.84219 43.11111 40.47665
# Shear Modulus (GPa) = 14.88702 22.51926 18.70314
#
# Velocity S-wave (km/s) = 2.89743 3.56357 3.24763
# Velocity P-wave (km/s) = 5.70381 6.42209 6.07358
#
# Compressibility (1/GPa) = 0.02642554
#
# Stress axis : x y z
#
# Youngs Moduli (GPa) = 50.83999 49.15382 79.25033
#
# Poissons Ratio (x) = 0.43309 0.06712
# Poissons Ratio (y) = 0.44794 0.27305
# Poissons Ratio (z) = 0.04306 0.16936
#
# Static dielectric constant tensor:
#      x y z
#    x 1.691250 0.000000 0.020800 
#    y 0.000000 1.585550 0.000000 
#    z 0.020800 0.000000 1.667620 
# 
# From -- ./inp_files/328601.got.cif
#   From: 2010.05.17/outbox.cif.g08.bks.cpg/sg12_165_cif.got.tgz:328601.got - 2010.06.03 13:09:07.
