data_PCOD9175936
_publ_section_title
;
Structure prediction by ZEFSAII (Michael W. Deem and Ramdas Pophale) SiO2 
 PCOD9175936
Probable space group: C 2/M
;
_chemical_formula_sum "Si O2"
_cell_formula_units_Z 64
_cell_length_a 20.454028
_cell_length_b 17.916557
_cell_length_c 8.907599
_cell_angle_alpha 90.000000
_cell_angle_beta 88.004101
_cell_angle_gamma 90.000000
_cell_volume 3262.349628
_symmetry_space_group_name_H-M "C 2/M"
_symmetry_group_IT_number 12
_symmetry_cell_setting 'monoclinic'
loop_
_space_group_symop_operation_xyz
x,y,z
-x,y,-z
-x,-y,-z
x,-y,z
1/2+x,1/2+y,z
1/2-x,1/2+y,-z
1/2-x,1/2-y,-z
1/2+x,1/2-y,z
loop_
_atom_site_type_symbol
_atom_site_label
_atom_site_fract_x
_atom_site_fract_y
_atom_site_fract_z
Si Si1 0.559967 0.324811 0.901548
Si Si2 0.802252 0.122491 0.211421
Si Si3 0.223573 0.223606 0.248788
Si Si4 0.400184 0.198971 0.862494
Si Si5 0.476440 0.792849 0.332322
Si Si6 0.367854 0.919577 0.331376
Si Si7 0.206663 0.387842 0.966901
Si Si8 0.764723 0.917548 0.535576
O O1 0.625223 0.370660 0.861910
O O2 0.538106 0.285889 0.747792
O O3 0.500000 0.361520 0.000000
O O4 0.579332 0.255205 0.006843
O O5 0.772388 0.205506 0.254708
O O6 0.798688 0.084176 0.372502
O O7 0.755531 0.083726 0.091440
O O8 0.151351 0.256294 0.235603
O O9 0.250513 0.181240 0.099792
O O10 0.220424 0.158431 0.373881
O O11 0.463260 0.173894 0.767432
O O12 0.358387 0.134224 0.939644
O O13 0.500000 0.783505 0.500000
O O14 0.415184 0.848975 0.326843
O O15 0.322165 0.920809 0.185115
O O16 0.314520 0.914149 0.468591
O O17 0.402236 0.000000 0.338215
O O18 0.779855 0.000000 0.604146
#
# Coordination Sequence:
#
# PCOD9175936 Si02
#       8
#     8   8   8   8   8   8   8   8
#     4  10  19  35  56  85 121 141 178 247 305 347
#     4  11  19  33  62  89 114 146 194 246 303 347
#     4  10  18  33  60  85 112 148 199 237 305 346
#     4  10  18  34  54  83 112 143 187 248 292 334
#     4  11  24  34  54  81 121 157 198 240 289 344
#     4  10  22  41  55  75 118 169 203 231 282 349
#     4  10  18  34  58  85 109 144 196 253 295 333
#     4  10  23  37  55  84 123 154 188 241 294 349
#
# _framework density 19.617763
#
# number of rings (size 3 to 8) (size 9 to 14) (size 15 to 20)
#    0.000    1.750    3.750    1.875    5.250    0.750 
#    0.000    1.250    0.000    0.375    0.000    6.125 
#    0.000    0.000    0.000    0.000    0.000    0.000 
#
# Total GULP energy -178188.830710 kJ/mol
# GULP energy per Si atom -5568.400960 kJ/mol
# Density = 1.957311 g / cm^3
# Si number density = 19.617763 Si / 1000 Ang^3
#
#
#
# Elastic Constant Matrix: (Units=GPa)
#
#
# Indices 1 2 3 4 5 6 
#
# 1 104.0915 9.2894 35.0509 0.0000 -18.1952 0.0000
# 2 9.2894 61.0694 17.0725 0.0000 1.7937 0.0000
# 3 35.0509 17.0725 93.3541 0.0000 -9.8630 0.0000
# 4 0.0000 0.0000 0.0000 -6.1716 0.0000 -6.7303
# 5 -18.1952 1.7937 -9.8630 0.0000 27.0546 0.0000
# 6 0.0000 0.0000 0.0000 -6.7303 0.0000 7.7303
#
#
#
# Elastic Compliance Matrix: (Units=1/GPa)
#
#
# Indices 1 2 3 4 5 6 
#
# 1 0.012130 -0.001031 -0.003637 0.000000 0.006900 0.000000
# 2 -0.001031 0.017494 -0.003128 0.000000 -0.002994 0.000000
# 3 -0.003637 -0.003128 0.012910 0.000000 0.002468 0.000000
# 4 0.000000 0.000000 0.000000 -0.083116 0.000000 -0.072365
# 5 0.006900 -0.002994 0.002468 0.000000 0.042701 0.000000
# 6 0.000000 0.000000 0.000000 -0.072365 0.000000 0.066357
#
#
# Mechanical properties :
#
#
# Convention : Reuss Voigt Hill
#
# Bulk Modulus (GPa) = 37.11726 42.37118 39.74422
# Shear Modulus (GPa) = 53.73491 18.86280 36.29885
#
# Velocity S-wave (km/s) = 5.23931 3.10420 4.30618
# Velocity P-wave (km/s) = 7.45398 5.87310 6.71026
#
# Compressibility (1/GPa) = 0.02694165
#
# Stress axis : x y z
#
# Youngs Moduli (GPa) = 82.44232 57.16188 77.45802
#
# Poissons Ratio (x) = 0.05894 0.28169
# Poissons Ratio (y) = 0.08501 0.24233
# Poissons Ratio (z) = 0.29981 0.17883
#
# Static dielectric constant tensor:
#      x y z
#    x 1.690140 0.000000 0.012910 
#    y 0.000000 1.713010 0.000000 
#    z 0.012910 0.000000 1.742260 
# 
# From -- ./inp_files/87951.got.cif
#   From: 2010.05.17/outbox.cif.g08.bks.cpg/sg12_44_cif.got.tgz:87951.got - 2010.06.03 13:09:07.
