data_PCOD9175066
_publ_section_title
;
Structure prediction by ZEFSAII (Michael W. Deem and Ramdas Pophale) SiO2 
 PCOD9175066
Probable space group: C 2/M
;
_chemical_formula_sum "Si O2"
_cell_formula_units_Z 64
_cell_length_a 13.873485
_cell_length_b 26.739034
_cell_length_c 8.714951
_cell_angle_alpha 90.000000
_cell_angle_beta 91.650054
_cell_angle_gamma 90.000000
_cell_volume 3231.588921
_symmetry_space_group_name_H-M "C 2/M"
_symmetry_group_IT_number 12
_symmetry_cell_setting 'monoclinic'
loop_
_space_group_symop_operation_xyz
x,y,z
-x,y,-z
-x,-y,-z
x,-y,z
1/2+x,1/2+y,z
1/2-x,1/2+y,-z
1/2-x,1/2-y,-z
1/2+x,1/2-y,z
loop_
_atom_site_type_symbol
_atom_site_label
_atom_site_fract_x
_atom_site_fract_y
_atom_site_fract_z
Si Si1 0.596014 0.055971 0.791775
Si Si2 0.017968 0.942712 0.326078
Si Si3 0.117085 0.577731 0.154951
Si Si4 0.097701 0.318797 0.300197
Si Si5 0.626153 0.164235 0.657042
Si Si6 0.102070 0.871792 0.091828
Si Si7 0.711528 0.727504 0.158690
Si Si8 0.181402 0.945727 0.866769
O O1 0.479412 0.058393 0.767974
O O2 0.635267 0.106264 0.712741
O O3 0.629614 0.000000 0.748164
O O4 0.611726 0.062584 0.975857
O O5 0.913530 0.941644 0.239952
O O6 0.000000 0.929474 0.500000
O O7 0.086551 0.904082 0.243825
O O8 0.053745 0.000000 0.317148
O O9 0.117752 0.637017 0.180208
O O10 0.218871 0.557624 0.219151
O O11 0.131809 0.333862 0.472777
O O12 0.155508 0.270211 0.249941
O O13 0.981207 0.315942 0.303623
O O14 0.703517 0.200309 0.741496
O O15 0.136348 0.816411 0.120567
O O16 0.176757 0.901496 0.988610
O O17 0.000000 0.872369 0.000000
O O18 0.750000 0.750000 0.000000
O O19 0.176094 0.000000 0.945179
#
# Coordination Sequence:
#
# PCOD9175066 Si02
#       8
#     8   8   8   8   8   8   8   8
#     4  10  19  35  60  90 126 160 196 245 301 359
#     4   9  19  37  57  79 114 155 189 236 299 354
#     4  10  19  34  57  88 119 155 199 245 289 353
#     4  10  23  43  61  86 124 163 201 253 308 362
#     4  10  23  43  63  88 125 162 202 250 309 371
#     4  10  22  37  54  86 114 144 195 248 295 355
#     4  12  25  40  65  89 116 158 208 257 312 358
#     4  10  18  32  55  81 113 151 190 237 292 350
#
# _framework density 19.804499
#
# number of rings (size 3 to 8) (size 9 to 14) (size 15 to 20)
#    0.000    1.875    0.000    4.500    1.750    3.500 
#    2.250    6.875    0.000    0.000    0.000    0.000 
#    0.000    0.000    0.000    0.000    0.000    0.000 
#
# Total GULP energy -178639.484155 kJ/mol
# GULP energy per Si atom -5582.483880 kJ/mol
# Density = 1.975942 g / cm^3
# Si number density = 19.804499 Si / 1000 Ang^3
#
#
#
# Elastic Constant Matrix: (Units=GPa)
#
#
# Indices 1 2 3 4 5 6 
#
# 1 58.6196 35.5148 13.5538 0.0000 -1.4168 0.0000
# 2 35.5148 154.2899 58.0464 0.0000 -8.1064 0.0000
# 3 13.5538 58.0464 71.5821 0.0000 -9.6021 0.0000
# 4 0.0000 0.0000 0.0000 9.6913 0.0000 -2.3171
# 5 -1.4168 -8.1064 -9.6021 0.0000 17.1844 0.0000
# 6 0.0000 0.0000 0.0000 -2.3171 0.0000 18.9188
#
#
#
# Elastic Compliance Matrix: (Units=1/GPa)
#
#
# Indices 1 2 3 4 5 6 
#
# 1 0.019830 -0.004537 -0.000155 0.000000 -0.000592 0.000000
# 2 -0.004537 0.010365 -0.007503 0.000000 0.000323 0.000000
# 3 -0.000155 -0.007503 0.021196 0.000000 0.008291 0.000000
# 4 0.000000 0.000000 0.000000 0.106298 0.000000 0.013019
# 5 -0.000592 0.000323 0.008291 0.000000 0.062929 0.000000
# 6 0.000000 0.000000 0.000000 0.013019 0.000000 0.054452
#
#
# Mechanical properties :
#
#
# Convention : Reuss Voigt Hill
#
# Bulk Modulus (GPa) = 37.03602 55.41349 46.22475
# Shear Modulus (GPa) = 16.20957 20.98400 18.59678
#
# Velocity S-wave (km/s) = 2.86401 3.25862 3.06766
# Velocity P-wave (km/s) = 5.44777 6.49608 5.99488
#
# Compressibility (1/GPa) = 0.02700074
#
# Stress axis : x y z
#
# Youngs Moduli (GPa) = 50.42979 96.47476 47.17953
#
# Poissons Ratio (x) = 0.43774 0.00730
# Poissons Ratio (y) = 0.22882 0.35398
# Poissons Ratio (z) = 0.00780 0.72384
#
# Static dielectric constant tensor:
#      x y z
#    x 1.729660 0.000000 0.008640 
#    y 0.000000 1.689590 0.000000 
#    z 0.008640 0.000000 1.685130 
# 
# From -- ./inp_files/65875.got.cif
#   From: 2010.05.17/outbox.cif.g08.bks.cpg/sg12_33_cif.got.tgz:65875.got - 2010.06.03 13:09:07.
