data_PCOD9175056
_publ_section_title
;
Structure prediction by ZEFSAII (Michael W. Deem and Ramdas Pophale) SiO2 
 PCOD9175056
Probable space group: C 2/M
;
_chemical_formula_sum "Si O2"
_cell_formula_units_Z 48
_cell_length_a 11.938282
_cell_length_b 24.370530
_cell_length_c 8.968770
_cell_angle_alpha 90.000000
_cell_angle_beta 85.272437
_cell_angle_gamma 90.000000
_cell_volume 2600.516669
_symmetry_space_group_name_H-M "C 2/M"
_symmetry_group_IT_number 12
_symmetry_cell_setting 'monoclinic'
loop_
_space_group_symop_operation_xyz
x,y,z
-x,y,-z
-x,-y,-z
x,-y,z
1/2+x,1/2+y,z
1/2-x,1/2+y,-z
1/2-x,1/2-y,-z
1/2+x,1/2-y,z
loop_
_atom_site_type_symbol
_atom_site_label
_atom_site_fract_x
_atom_site_fract_y
_atom_site_fract_z
Si Si1 0.865986 0.214463 0.281060
Si Si2 0.670252 0.934812 0.198714
Si Si3 0.500000 0.126313 0.000000
Si Si4 0.697220 0.140569 0.468839
Si Si5 0.000000 0.726222 0.500000
Si Si6 0.624785 0.628793 0.976133
Si Si7 0.289003 0.831275 0.205412
O O1 0.808200 0.170825 0.397406
O O2 0.971225 0.238240 0.358824
O O3 0.888105 0.182002 0.128075
O O4 0.788448 0.267583 0.255071
O O5 0.670545 0.910538 0.366131
O O6 0.783980 0.911547 0.109128
O O7 0.666861 0.000000 0.196941
O O8 0.566860 0.909621 0.115136
O O9 0.402402 0.160515 0.094681
O O10 0.602217 0.186217 0.453721
O O11 0.702340 0.132728 0.645162
O O12 0.500000 0.604293 0.000000
O O13 0.682658 0.649497 0.121671
#
# Coordination Sequence:
#
# PCOD9175056 Si02
#       7
#     8   8   4   8   4   8   8
#     4  10  21  32  54  81 115 153 181 221 271 334
#     4  10  21  41  60  80 110 145 189 240 281 323
#     4  10  21  36  60  88 110 146 177 232 286 340
#     4  10  21  36  54  84 110 148 190 224 278 326
#     4  10  18  32  55  80 117 144 172 226 272 332
#     4  10  23  35  55  84 112 151 192 225 271 336
#     4  10  20  37  55  83 121 145 182 229 277 337
#
# _framework density 18.45787
#
# number of rings (size 3 to 8) (size 9 to 14) (size 15 to 20)
#    0.000    2.000    0.000    4.750    5.833    0.333 
#    0.000    7.083    0.000    1.000    0.000    0.000 
#    0.000    0.000    0.000    0.000    0.000    0.000 
#
# Total GULP energy -133922.593600 kJ/mol
# GULP energy per Si atom -5580.108067 kJ/mol
# Density = 1.841586 g / cm^3
# Si number density = 18.457870 Si / 1000 Ang^3
#
#
#
# Elastic Constant Matrix: (Units=GPa)
#
#
# Indices 1 2 3 4 5 6 
#
# 1 89.0915 1.1388 22.8802 0.0000 16.3037 0.0000
# 2 1.1388 62.0502 17.4438 0.0000 12.7188 0.0000
# 3 22.8802 17.4438 99.3572 0.0000 18.9303 0.0000
# 4 0.0000 0.0000 0.0000 13.7331 0.0000 1.0184
# 5 16.3037 12.7188 18.9303 0.0000 25.5359 0.0000
# 6 0.0000 0.0000 0.0000 1.0184 0.0000 11.7633
#
#
#
# Elastic Compliance Matrix: (Units=1/GPa)
#
#
# Indices 1 2 3 4 5 6 
#
# 1 0.013131 0.001910 -0.001841 0.000000 -0.007971 0.000000
# 2 0.001910 0.018472 -0.001977 0.000000 -0.008955 0.000000
# 3 -0.001841 -0.001977 0.012139 0.000000 -0.006839 0.000000
# 4 0.000000 0.000000 0.000000 0.073287 0.000000 -0.006345
# 5 -0.007971 -0.008955 -0.006839 0.000000 0.053780 0.000000
# 6 0.000000 0.000000 0.000000 -0.006345 0.000000 0.085560
#
#
# Mechanical properties :
#
#
# Convention : Reuss Voigt Hill
#
# Bulk Modulus (GPa) = 25.04526 37.04715 31.04620
# Shear Modulus (GPa) = 18.28206 24.14220 21.21213
#
# Velocity S-wave (km/s) = 3.15060 3.62050 3.39369
# Velocity P-wave (km/s) = 5.18009 6.13124 5.67563
#
# Compressibility (1/GPa) = 0.03992772
#
# Stress axis : x y z
#
# Youngs Moduli (GPa) = 76.15354 54.13550 82.38170
#
# Poissons Ratio (x) = -0.10341 0.15163
# Poissons Ratio (y) = -0.14547 0.16286
# Poissons Ratio (z) = 0.14017 0.10702
#
# Static dielectric constant tensor:
#      x y z
#    x 1.682590 0.000000 -0.027980 
#    y 0.000000 1.597080 0.000000 
#    z -0.027980 0.000000 1.668410 
# 
# From -- ./inp_files/50759.got.cif
#   From: 2010.05.17/outbox.cif.g08.bks.cpg/sg12_26_cif.got.tgz:50759.got - 2010.06.03 13:09:07.
