data_PCOD9175569
_publ_section_title
;
Structure prediction by ZEFSAII (Michael W. Deem and Ramdas Pophale) SiO2 
 PCOD9175569
Probable space group: C 2/M
;
_chemical_formula_sum "Si O2"
_cell_formula_units_Z 36
_cell_length_a 8.214351
_cell_length_b 14.656912
_cell_length_c 12.772459
_cell_angle_alpha 90.000000
_cell_angle_beta 67.404347
_cell_angle_gamma 90.000000
_cell_volume 1419.726113
_symmetry_space_group_name_H-M "C 2/M"
_symmetry_group_IT_number 12
_symmetry_cell_setting 'monoclinic'
loop_
_space_group_symop_operation_xyz
x,y,z
-x,y,-z
-x,-y,-z
x,-y,z
1/2+x,1/2+y,z
1/2-x,1/2+y,-z
1/2-x,1/2-y,-z
1/2+x,1/2-y,z
loop_
_atom_site_type_symbol
_atom_site_label
_atom_site_fract_x
_atom_site_fract_y
_atom_site_fract_z
Si Si1 0.541798 0.859947 0.253954
Si Si2 0.829255 0.851692 0.770389
Si Si3 0.368353 0.604598 0.443473
Si Si4 0.799284 0.143727 0.009881
Si Si5 0.000000 0.632077 0.500000
O O1 0.342269 0.862779 0.259742
O O2 0.612193 0.755200 0.246923
O O3 0.543489 0.902515 0.369521
O O4 0.670306 0.895237 0.130294
O O5 0.784130 0.890795 0.895515
O O6 0.006725 0.898437 0.686983
O O7 0.500000 0.639057 0.500000
O O8 0.312361 0.500000 0.482414
O O9 0.196596 0.664912 0.474032
O O10 0.750000 0.250000 0.000000
O O11 0.000000 0.138396 0.000000
#
# Coordination Sequence:
#
# PCOD9175569 Si02
#       5
#     8   8   8   8   4
#     4  11  22  34  60  92 121 155 189 245 307 353
#     4  11  21  38  59  87 123 153 199 244 294 357
#     4  11  24  42  61  84 118 161 203 243 290 349
#     4  10  18  33  54  84 118 154 190 233 296 357
#     4  12  23  40  62  90 119 152 198 246 302 356
#
# _framework density 25.357002999999999
#
# number of rings (size 3 to 8) (size 9 to 14) (size 15 to 20)
#    0.000    1.111    2.222    9.000    1.556    1.778 
#    0.000    0.000    0.000   10.000    0.000    0.000 
#    0.000    0.000    0.000    0.000    0.000    0.000 
#
# Total GULP energy -100409.970192 kJ/mol
# GULP energy per Si atom -5578.331677 kJ/mol
# Density = 2.529929 g / cm^3
# Si number density = 25.357003 Si / 1000 Ang^3
#
#
#
# Elastic Constant Matrix: (Units=GPa)
#
#
# Indices 1 2 3 4 5 6 
#
# 1 218.7277 39.5107 69.9108 0.0000 -8.4455 0.0000
# 2 39.5107 105.6559 21.9508 0.0000 -0.0121 0.0000
# 3 69.9108 21.9508 242.6614 0.0000 -2.3488 0.0000
# 4 0.0000 0.0000 0.0000 -46.8032 0.0000 -4.5386
# 5 -8.4455 -0.0121 -2.3488 0.0000 62.3799 0.0000
# 6 0.0000 0.0000 0.0000 -4.5386 0.0000 -8.7279
#
#
#
# Elastic Compliance Matrix: (Units=1/GPa)
#
#
# Indices 1 2 3 4 5 6 
#
# 1 0.005348 -0.001713 -0.001379 0.000000 0.000672 0.000000
# 2 -0.001713 0.010195 -0.000431 0.000000 -0.000246 0.000000
# 3 -0.001379 -0.000431 0.004557 0.000000 -0.000015 0.000000
# 4 0.000000 0.000000 0.000000 -0.022501 0.000000 0.011701
# 5 0.000672 -0.000246 -0.000015 0.000000 0.016121 0.000000
# 6 0.000000 0.000000 0.000000 0.011701 0.000000 -0.120660
#
#
# Mechanical properties :
#
#
# Convention : Reuss Voigt Hill
#
# Bulk Modulus (GPa) = 76.61084 92.19884 84.40484
# Shear Modulus (GPa) = -52.33380 30.41463 -10.95959
#
# Velocity S-wave (km/s) = -4.54792 3.46707 -2.08122
# Velocity P-wave (km/s) = 1.64327 7.24339 5.25200
#
# Compressibility (1/GPa) = 0.01305298
#
# Stress axis : x y z
#
# Youngs Moduli (GPa) = 186.97885 98.08809 219.43342
#
# Poissons Ratio (x) = 0.16806 0.30267
# Poissons Ratio (y) = 0.32036 0.09457
# Poissons Ratio (z) = 0.25790 0.04227
#
# Static dielectric constant tensor:
#      x y z
#    x 1.895770 0.000000 0.022860 
#    y 0.000000 2.078500 0.000000 
#    z 0.022860 0.000000 2.062050 
# 
# From -- ./inp_files/119967.got.cif
#   From: 2010.05.17/outbox.cif.g08.bks.cpg/sg12_60_cif.got.tgz:119967.got - 2010.06.03 13:09:07.
