data_PCOD9175313
_publ_section_title
;
Structure prediction by ZEFSAII (Michael W. Deem and Ramdas Pophale) SiO2 
 PCOD9175313
Probable space group: C 2/M
;
_chemical_formula_sum "Si O2"
_cell_formula_units_Z 64
_cell_length_a 23.461618
_cell_length_b 12.309311
_cell_length_c 11.199908
_cell_angle_alpha 90.000000
_cell_angle_beta 70.266148
_cell_angle_gamma 90.000000
_cell_volume 3044.534759
_symmetry_space_group_name_H-M "C 2/M"
_symmetry_group_IT_number 12
_symmetry_cell_setting 'monoclinic'
loop_
_space_group_symop_operation_xyz
x,y,z
-x,y,-z
-x,-y,-z
x,-y,z
1/2+x,1/2+y,z
1/2-x,1/2+y,-z
1/2-x,1/2-y,-z
1/2+x,1/2-y,z
loop_
_atom_site_type_symbol
_atom_site_label
_atom_site_fract_x
_atom_site_fract_y
_atom_site_fract_z
Si Si1 0.041854 0.875744 0.079252
Si Si2 0.905574 0.874403 0.522625
Si Si3 0.994556 0.716482 0.311554
Si Si4 0.377272 0.205208 0.733523
Si Si5 0.847938 0.746632 0.027428
Si Si6 0.890580 0.374682 0.226638
Si Si7 0.691792 0.307229 0.594658
Si Si8 0.750897 0.619594 0.786768
O O1 0.024862 0.805858 0.204439
O O2 0.028840 0.000000 0.112390
O O3 0.000000 0.839049 0.000000
O O4 0.110701 0.854735 0.994613
O O5 0.953783 0.788314 0.431250
O O6 0.884491 0.821976 0.662860
O O7 0.848583 0.869221 0.473129
O O8 0.926236 0.000000 0.517768
O O9 0.954267 0.644098 0.250292
O O10 0.054292 0.657683 0.322177
O O11 0.321319 0.145031 0.710046
O O12 0.355155 0.207655 0.886736
O O13 0.880603 0.663599 0.096291
O O14 0.781290 0.784195 0.114455
O O15 0.873509 0.500000 0.248795
O O16 0.848098 0.290949 0.325844
O O17 0.750000 0.250000 0.500000
O O18 0.713534 0.378292 0.690340
O O19 0.746993 0.500000 0.846201
#
# Coordination Sequence:
#
# PCOD9175313 Si02
#       8
#     8   8   8   8   8   8   8   8
#     4  10  18  32  58  89 119 158 201 255 319 362
#     4  11  23  41  66  94 124 164 207 256 319 375
#     4  10  22  40  61  91 130 161 209 264 308 368
#     4  11  24  40  60  89 128 169 205 253 303 371
#     4  10  22  41  61  89 128 159 210 264 305 364
#     4  10  22  40  66  92 122 166 209 259 316 366
#     4  10  21  43  65  91 121 152 205 266 307 365
#     4  11  23  41  63  89 120 160 203 254 314 366
#
# _framework density 21.021273000000001
#
# number of rings (size 3 to 8) (size 9 to 14) (size 15 to 20)
#    0.000    1.625    2.500    1.875    0.000    5.500 
#    0.000    4.375    0.000    2.250    0.000    0.000 
#    0.000    0.000    0.000    0.000    0.000    0.000 
#
# Total GULP energy -178419.256513 kJ/mol
# GULP energy per Si atom -5575.601766 kJ/mol
# Density = 2.097343 g / cm^3
# Si number density = 21.021273 Si / 1000 Ang^3
#
#
#
# Elastic Constant Matrix: (Units=GPa)
#
#
# Indices 1 2 3 4 5 6 
#
# 1 128.4621 17.9212 7.0612 0.0000 1.7531 0.0000
# 2 17.9212 81.9167 12.1132 0.0000 10.3138 0.0000
# 3 7.0612 12.1132 45.5713 0.0000 10.2397 0.0000
# 4 0.0000 0.0000 0.0000 12.4734 0.0000 -2.2950
# 5 1.7531 10.3138 10.2397 0.0000 32.2983 0.0000
# 6 0.0000 0.0000 0.0000 -2.2950 0.0000 5.6822
#
#
#
# Elastic Compliance Matrix: (Units=1/GPa)
#
#
# Indices 1 2 3 4 5 6 
#
# 1 0.008062 -0.001680 -0.000888 0.000000 0.000381 0.000000
# 2 -0.001680 0.013375 -0.002536 0.000000 -0.003376 0.000000
# 3 -0.000888 -0.002536 0.024293 0.000000 -0.006844 0.000000
# 4 0.000000 0.000000 0.000000 0.086606 0.000000 0.034980
# 5 0.000381 -0.003376 -0.006844 0.000000 0.034188 0.000000
# 6 0.000000 0.000000 0.000000 0.034980 0.000000 0.190118
#
#
# Mechanical properties :
#
#
# Convention : Reuss Voigt Hill
#
# Bulk Modulus (GPa) = 28.15229 36.68237 32.41733
# Shear Modulus (GPa) = 13.20329 24.68108 18.94218
#
# Velocity S-wave (km/s) = 2.50889 3.43023 3.00508
# Velocity P-wave (km/s) = 4.67056 5.75992 5.24360
#
# Compressibility (1/GPa) = 0.03552109
#
# Stress axis : x y z
#
# Youngs Moduli (GPa) = 124.03181 74.76498 41.16387
#
# Poissons Ratio (x) = 0.12564 0.03656
# Poissons Ratio (y) = 0.20843 0.10441
# Poissons Ratio (z) = 0.11015 0.18963
#
# Static dielectric constant tensor:
#      x y z
#    x 1.878990 0.000000 0.013660 
#    y 0.000000 1.663430 0.000000 
#    z 0.013660 0.000000 1.778340 
# 
# From -- ./inp_files/175268.got.cif
#   From: 2010.05.17/outbox.cif.g08.bks.cpg/sg12_88_cif.got.tgz:175268.got - 2010.06.03 13:09:07.
