data_PCOD9175741
_publ_section_title
;
Structure prediction by ZEFSAII (Michael W. Deem and Ramdas Pophale) SiO2 
 PCOD9175741
Probable space group: C 2/M
;
_chemical_formula_sum "Si O2"
_cell_formula_units_Z 64
_cell_length_a 20.298414
_cell_length_b 7.725229
_cell_length_c 22.046219
_cell_angle_alpha 90.000000
_cell_angle_beta 62.221553
_cell_angle_gamma 90.000000
_cell_volume 3058.660506
_symmetry_space_group_name_H-M "C 2/M"
_symmetry_group_IT_number 12
_symmetry_cell_setting 'monoclinic'
loop_
_space_group_symop_operation_xyz
x,y,z
-x,y,-z
-x,-y,-z
x,-y,z
1/2+x,1/2+y,z
1/2-x,1/2+y,-z
1/2-x,1/2-y,-z
1/2+x,1/2-y,z
loop_
_atom_site_type_symbol
_atom_site_label
_atom_site_fract_x
_atom_site_fract_y
_atom_site_fract_z
Si Si1 0.231609 0.794350 0.939073
Si Si2 0.689723 0.294503 0.212225
Si Si3 0.579461 0.706910 0.943336
Si Si4 0.376914 0.300632 0.564555
Si Si5 0.341446 0.207249 0.209544
Si Si6 0.382899 0.711794 0.425200
Si Si7 0.049048 0.212167 0.346590
Si Si8 0.285761 0.296755 0.357298
O O1 0.294985 0.734091 0.865065
O O2 0.151747 0.724106 0.949115
O O3 0.228060 0.000000 0.935417
O O4 0.250000 0.750000 0.000000
O O5 0.689483 0.500000 0.222883
O O6 0.763105 0.224661 0.215000
O O7 0.612975 0.227403 0.273137
O O8 0.578253 0.500000 0.952971
O O9 0.595808 0.739661 0.865391
O O10 0.500000 0.775872 0.000000
O O11 0.400682 0.500000 0.546894
O O12 0.375690 0.225463 0.497463
O O13 0.428692 0.227114 0.595182
O O14 0.292042 0.294398 0.624250
O O15 0.343180 0.272330 0.277477
O O16 0.339551 0.000000 0.211843
O O17 0.378362 0.500000 0.427240
O O18 0.465111 0.761616 0.367596
O O19 0.320316 0.771359 0.405159
O O20 0.050449 0.000000 0.347091
O O21 0.269629 0.500000 0.370297
#
# Coordination Sequence:
#
# PCOD9175741 Si02
#       8
#     8   8   8   8   8   8   8   8
#     4  10  20  35  56  81 109 140 173 213 258 307
#     4   9  17  32  55  79 102 133 176 219 258 304
#     4   9  19  37  59  83 109 139 176 215 259 309
#     4  10  18  33  57  79  99 132 180 224 263 310
#     4  10  19  34  56  81 105 137 180 220 259 304
#     4   9  19  32  50  78 107 135 172 221 269 313
#     4   9  16  31  54  79 102 131 176 224 263 302
#     4  11  21  33  50  76 109 142 174 212 264 320
#
# _framework density 20.924192000000001
#
# number of rings (size 3 to 8) (size 9 to 14) (size 15 to 20)
#    0.000    2.375    1.250    1.875    0.000    2.750 
#    2.250    0.625    0.000    4.500    0.000    0.000 
#    0.000    0.000    0.000    0.000    0.000    0.000 
#
# Total GULP energy -178596.224277 kJ/mol
# GULP energy per Si atom -5581.132009 kJ/mol
# Density = 2.087657 g / cm^3
# Si number density = 20.924192 Si / 1000 Ang^3
#
#
#
# Elastic Constant Matrix: (Units=GPa)
#
#
# Indices 1 2 3 4 5 6 
#
# 1 40.7271 -1.6087 0.3345 0.0002 1.5195 0.0000
# 2 -1.6087 32.6811 -11.6893 0.0001 -4.9318 -0.0002
# 3 0.3345 -11.6893 96.0678 0.0002 -3.5672 0.0004
# 4 0.0002 0.0001 0.0002 19.5092 0.0001 -0.5862
# 5 1.5195 -4.9318 -3.5672 0.0001 33.2537 0.0000
# 6 0.0000 -0.0002 0.0004 -0.5862 0.0000 6.2024
#
#
#
# Elastic Compliance Matrix: (Units=1/GPa)
#
#
# Indices 1 2 3 4 5 6 
#
# 1 0.024632 0.001070 0.000009 0.000000 -0.000966 0.000000
# 2 0.001070 0.032953 0.004202 0.000000 0.005289 0.000001
# 3 0.000009 0.004202 0.010988 0.000000 0.001801 -0.000001
# 4 0.000000 0.000000 0.000000 0.051404 0.000000 0.004858
# 5 -0.000966 0.005289 0.001801 0.000000 0.031094 0.000000
# 6 0.000000 0.000001 -0.000001 0.004858 0.000000 0.161688
#
#
# Mechanical properties :
#
#
# Convention : Reuss Voigt Hill
#
# Bulk Modulus (GPa) = 12.63691 15.94987 14.29339
# Shear Modulus (GPa) = 15.21726 23.95570 19.58648
#
# Velocity S-wave (km/s) = 2.69970 3.38728 3.06284
# Velocity P-wave (km/s) = 3.97118 4.78931 4.39930
#
# Compressibility (1/GPa) = 0.07913327
#
# Stress axis : x y z
#
# Youngs Moduli (GPa) = 40.59780 30.34657 91.01244
#
# Poissons Ratio (x) = -0.03246 -0.00078
# Poissons Ratio (y) = -0.04343 -0.38246
# Poissons Ratio (z) = -0.00035 -0.12752
#
# Static dielectric constant tensor:
#      x y z
#    x 1.738200 0.000000 -0.015210 
#    y 0.000000 1.789190 0.000000 
#    z -0.015210 0.000000 1.742710 
# 
# From -- ./inp_files/319763.got.cif
#   From: 2010.05.17/outbox.cif.g08.bks.cpg/sg12_160_cif.got.tgz:319763.got - 2010.06.03 13:09:07.
