data_PCOD9175125
_publ_section_title
;
Structure prediction by ZEFSAII (Michael W. Deem and Ramdas Pophale) SiO2 
 PCOD9175125
Probable space group: C 2/M
;
_chemical_formula_sum "Si O2"
_cell_formula_units_Z 64
_cell_length_a 16.567103
_cell_length_b 14.238678
_cell_length_c 15.428698
_cell_angle_alpha 90.000000
_cell_angle_beta 83.832863
_cell_angle_gamma 90.000000
_cell_volume 3618.468912
_symmetry_space_group_name_H-M "C 2/M"
_symmetry_group_IT_number 12
_symmetry_cell_setting 'monoclinic'
loop_
_space_group_symop_operation_xyz
x,y,z
-x,y,-z
-x,-y,-z
x,-y,z
1/2+x,1/2+y,z
1/2-x,1/2+y,-z
1/2-x,1/2-y,-z
1/2+x,1/2-y,z
loop_
_atom_site_type_symbol
_atom_site_label
_atom_site_fract_x
_atom_site_fract_y
_atom_site_fract_z
Si Si1 0.415591 0.697513 0.389495
Si Si2 0.882824 0.396456 0.667141
Si Si3 0.318763 0.389044 0.561041
Si Si4 0.086887 0.194359 0.297449
Si Si5 0.113912 0.886736 0.922274
Si Si6 0.069781 0.886923 0.112494
Si Si7 0.871051 0.607163 0.461926
Si Si8 0.805296 0.891046 0.258413
O O1 0.376912 0.649253 0.478588
O O2 0.504091 0.660370 0.353318
O O3 0.416890 0.808601 0.409463
O O4 0.356485 0.672833 0.317121
O O5 0.913765 0.500000 0.687616
O O6 0.921091 0.306444 0.706961
O O7 0.888208 0.386734 0.562494
O O8 0.787853 0.392053 0.703254
O O9 0.332048 0.500000 0.571956
O O10 0.340671 0.334085 0.646236
O O11 0.225226 0.376509 0.542968
O O12 0.096356 0.153175 0.201134
O O13 0.179375 0.860000 0.842376
O O14 0.024816 0.862763 0.894748
O O15 0.116171 0.000000 0.928058
O O16 0.118011 0.853294 0.021112
O O17 0.074492 0.000000 0.116387
O O18 0.890422 0.500000 0.432395
O O19 0.834704 0.000000 0.263526
#
# Coordination Sequence:
#
# PCOD9175125 Si02
#       8
#     8   8   8   8   8   8   8   8
#     4  12  21  32  50  75 103 132 169 208 250 297
#     4  10  21  37  53  68  96 138 182 217 241 279
#     4  11  22  34  49  73 106 135 161 201 258 309
#     4  12  23  32  48  78 108 135 159 206 263 302
#     4   8  15  30  53  77 101 131 163 199 245 304
#     4   9  17  31  50  77 110 132 155 197 255 315
#     4  10  21  38  54  66  92 142 189 214 232 279
#     4  10  18  32  56  79  98 129 172 210 245 297
#
# _framework density 17.687038000000001
#
# number of rings (size 3 to 8) (size 9 to 14) (size 15 to 20)
#    0.000    1.750    3.750    3.000    0.000    2.500 
#    0.000    1.875    0.000    0.000    0.000    2.625 
#    0.000    0.000    0.000    0.000    0.000    0.000 
#
# Total GULP energy -178569.496100 kJ/mol
# GULP energy per Si atom -5580.296753 kJ/mol
# Density = 1.764678 g / cm^3
# Si number density = 17.687038 Si / 1000 Ang^3
#
#
#
# Elastic Constant Matrix: (Units=GPa)
#
#
# Indices 1 2 3 4 5 6 
#
# 1 14.9398 -2.2824 7.8698 0.0000 -2.3427 0.0000
# 2 -2.2824 61.6242 30.8902 0.0000 -1.3118 0.0000
# 3 7.8698 30.8902 116.4788 0.0000 3.7769 0.0000
# 4 0.0000 0.0000 0.0000 15.0909 0.0000 -2.9835
# 5 -2.3427 -1.3118 3.7769 0.0000 16.4570 0.0000
# 6 0.0000 0.0000 0.0000 -2.9835 0.0000 11.3132
#
#
#
# Elastic Compliance Matrix: (Units=1/GPa)
#
#
# Indices 1 2 3 4 5 6 
#
# 1 0.073680 0.006573 -0.007131 0.000000 0.012649 0.000000
# 2 0.006573 0.019417 -0.005717 0.000000 0.003795 0.000000
# 3 -0.007131 -0.005717 0.010711 0.000000 -0.003929 0.000000
# 4 0.000000 0.000000 0.000000 0.069910 0.000000 0.018436
# 5 0.012649 0.003795 -0.003929 0.000000 0.063769 0.000000
# 6 0.000000 0.000000 0.000000 0.018436 0.000000 0.093255
#
#
# Mechanical properties :
#
#
# Convention : Reuss Voigt Hill
#
# Bulk Modulus (GPa) = 10.95806 29.55533 20.25669
# Shear Modulus (GPa) = 13.37936 19.00989 16.19463
#
# Velocity S-wave (km/s) = 2.75335 3.28196 3.02921
# Velocity P-wave (km/s) = 4.03942 5.57746 4.86955
#
# Compressibility (1/GPa) = 0.09125705
#
# Stress axis : x y z
#
# Youngs Moduli (GPa) = 13.57229 51.50086 93.36619
#
# Poissons Ratio (x) = -0.33851 0.66583
# Poissons Ratio (y) = -0.08921 0.53374
# Poissons Ratio (z) = 0.09679 0.29441
#
# Static dielectric constant tensor:
#      x y z
#    x 1.614630 0.000000 -0.022280 
#    y 0.000000 1.630150 0.000000 
#    z -0.022280 0.000000 1.598120 
# 
# From -- ./inp_files/224757.got.cif
#   From: 2010.05.17/outbox.cif.g08.bks.cpg/sg12_113_cif.got.tgz:224757.got - 2010.06.03 13:09:07.
