data_PCOD9175188
_publ_section_title
;
Structure prediction by ZEFSAII (Michael W. Deem and Ramdas Pophale) SiO2 
 PCOD9175188
Probable space group: C 2/M
;
_chemical_formula_sum "Si O2"
_cell_formula_units_Z 64
_cell_length_a 20.786905
_cell_length_b 13.212125
_cell_length_c 21.460322
_cell_angle_alpha 90.000000
_cell_angle_beta 34.694468
_cell_angle_gamma 90.000000
_cell_volume 3354.777631
_symmetry_space_group_name_H-M "C 2/M"
_symmetry_group_IT_number 12
_symmetry_cell_setting 'monoclinic'
loop_
_space_group_symop_operation_xyz
x,y,z
-x,y,-z
-x,-y,-z
x,-y,z
1/2+x,1/2+y,z
1/2-x,1/2+y,-z
1/2-x,1/2-y,-z
1/2+x,1/2-y,z
loop_
_atom_site_type_symbol
_atom_site_label
_atom_site_fract_x
_atom_site_fract_y
_atom_site_fract_z
Si Si1 0.134034 0.120028 0.103249
Si Si2 0.754443 0.218406 0.757278
Si Si3 0.607220 0.817062 0.450417
Si Si4 0.423031 0.320093 0.340807
Si Si5 0.310106 0.760763 0.049300
Si Si6 0.528198 0.886291 0.903696
Si Si7 0.164075 0.387204 0.541194
Si Si8 0.508114 0.383886 0.405730
O O1 0.213676 0.173294 0.091695
O O2 0.005347 0.155751 0.218359
O O3 0.141324 0.000000 0.102767
O O4 0.175263 0.160533 0.003523
O O5 0.795351 0.305839 0.678078
O O6 0.719345 0.254116 0.854476
O O7 0.651565 0.162628 0.805148
O O8 0.862567 0.145289 0.682149
O O9 0.500000 0.861372 0.500000
O O10 0.634552 0.873396 0.491977
O O11 0.570830 0.701949 0.499899
O O12 0.298202 0.367195 0.438411
O O13 0.401821 0.200716 0.369267
O O14 0.485676 0.367645 0.350611
O O15 0.428444 0.821444 0.953006
O O16 0.529126 0.000000 0.877696
O O17 0.500000 0.891517 0.000000
O O18 0.137215 0.500000 0.584223
O O19 0.483243 0.500000 0.442301
#
# Coordination Sequence:
#
# PCOD9175188 Si02
#       8
#     8   8   8   8   8   8   8   8
#     4  11  22  39  63  85 111 152 194 238 290 340
#     4  10  19  34  54  80 116 156 185 235 283 335
#     4   9  21  35  54  82 117 149 191 232 275 343
#     4  10  21  37  62  88 114 148 190 238 286 341
#     4  10  22  37  58  82 116 147 194 246 281 332
#     4   9  18  32  52  79 110 148 188 230 285 334
#     4  10  21  39  61  87 117 149 187 233 287 343
#     4  10  18  32  56  86 115 146 188 236 288 342
#
# _framework density 19.077271
#
# number of rings (size 3 to 8) (size 9 to 14) (size 15 to 20)
#    0.000    2.125    1.250    1.875    1.750    4.000 
#    0.000    3.750    0.000    3.375    0.000    0.000 
#    0.000    0.000    0.000    0.000    0.000    0.000 
#
# Total GULP energy -178543.220286 kJ/mol
# GULP energy per Si atom -5579.475634 kJ/mol
# Density = 1.903385 g / cm^3
# Si number density = 19.077271 Si / 1000 Ang^3
#
#
#
# Elastic Constant Matrix: (Units=GPa)
#
#
# Indices 1 2 3 4 5 6 
#
# 1 17.4684 -5.2439 6.2716 0.0000 -10.6294 0.0000
# 2 -5.2439 90.6022 27.5665 0.0000 2.2829 0.0000
# 3 6.2716 27.5665 77.8648 0.0000 -0.4255 0.0000
# 4 0.0000 0.0000 0.0000 6.2531 0.0000 -5.1848
# 5 -10.6294 2.2829 -0.4255 0.0000 35.0994 0.0000
# 6 0.0000 0.0000 0.0000 -5.1848 0.0000 2.4106
#
#
#
# Elastic Compliance Matrix: (Units=1/GPa)
#
#
# Indices 1 2 3 4 5 6 
#
# 1 0.075738 0.006318 -0.008214 0.000000 0.022426 0.000000
# 2 0.006318 0.012923 -0.005078 0.000000 0.001011 0.000000
# 3 -0.008214 -0.005078 0.015292 0.000000 -0.001972 0.000000
# 4 0.000000 0.000000 0.000000 -0.204149 0.000000 -0.439086
# 5 0.022426 0.001011 -0.001972 0.000000 0.035192 0.000000
# 6 0.000000 0.000000 0.000000 -0.439086 0.000000 -0.529561
#
#
# Mechanical properties :
#
#
# Convention : Reuss Voigt Hill
#
# Bulk Modulus (GPa) = 11.11080 27.01373 19.06227
# Shear Modulus (GPa) = -9.08077 19.24204 5.08064
#
# Velocity S-wave (km/s) = -2.18411 3.17935 1.63370
# Velocity P-wave (km/s) = 0.72366 5.26009 3.68408
#
# Compressibility (1/GPa) = 0.09000250
#
# Stress axis : x y z
#
# Youngs Moduli (GPa) = 13.20337 77.38394 65.39575
#
# Poissons Ratio (x) = -0.48890 0.53719
# Poissons Ratio (y) = -0.08342 0.33210
# Poissons Ratio (z) = 0.10846 0.39298
#
# Static dielectric constant tensor:
#      x y z
#    x 1.680370 0.000000 0.009470 
#    y 0.000000 1.648880 0.000000 
#    z 0.009470 0.000000 1.687430 
# 
# From -- ./inp_files/349364.got.cif
#   From: 2010.05.17/outbox.cif.g08.bks.cpg/sg12_175_cif.got.tgz:349364.got - 2010.06.03 13:09:07.
