data_PCOD9175816
_publ_section_title
;
Structure prediction by ZEFSAII (Michael W. Deem and Ramdas Pophale) SiO2 
 PCOD9175816
Probable space group: C 2/M
;
_chemical_formula_sum "Si O2"
_cell_formula_units_Z 56
_cell_length_a 9.579698
_cell_length_b 15.133301
_cell_length_c 23.861947
_cell_angle_alpha 90.000000
_cell_angle_beta 130.889628
_cell_angle_gamma 90.000000
_cell_volume 2615.152773
_symmetry_space_group_name_H-M "C 2/M"
_symmetry_group_IT_number 12
_symmetry_cell_setting 'monoclinic'
loop_
_space_group_symop_operation_xyz
x,y,z
-x,y,-z
-x,-y,-z
x,-y,z
1/2+x,1/2+y,z
1/2-x,1/2+y,-z
1/2-x,1/2-y,-z
1/2+x,1/2-y,z
loop_
_atom_site_type_symbol
_atom_site_label
_atom_site_fract_x
_atom_site_fract_y
_atom_site_fract_z
Si Si1 0.621485 0.165547 0.477052
Si Si2 0.642903 0.108481 0.876810
Si Si3 0.995662 0.099317 0.561763
Si Si4 0.316823 0.108247 0.984184
Si Si5 0.179318 0.602469 0.282211
Si Si6 0.586676 0.391727 0.152712
Si Si7 0.101903 0.397508 0.686364
O O1 0.500000 0.167893 0.500000
O O2 0.750000 0.250000 0.500000
O O3 0.785033 0.094518 0.524842
O O4 0.490938 0.150073 0.389871
O O5 0.444079 0.139746 0.800796
O O6 0.802198 0.134129 0.874510
O O7 0.639682 0.000000 0.875028
O O8 0.679280 0.135633 0.949808
O O9 0.000000 0.137967 0.500000
O O10 0.130452 0.141937 0.643456
O O11 0.072578 0.000000 0.574604
O O12 0.124886 0.136750 0.905579
O O13 0.317116 0.000000 0.983707
O O14 0.500000 0.137698 0.000000
O O15 0.217383 0.500000 0.276104
O O16 0.040518 0.603809 0.298850
O O17 0.590234 0.500000 0.154692
O O18 0.705903 0.362761 0.237776
O O19 0.126951 0.500000 0.676707
#
# Coordination Sequence:
#
# PCOD9175816 Si02
#       7
#     8   8   8   8   8   8   8
#     4  12  26  40  54  75 104 140 176 222 267 320
#     4   8  13  22  37  60  91 128 169 200 232 291
#     4  10  18  33  58  81 105 137 172 213 264 320
#     4   9  15  22  33  56  96 138 166 196 249 302
#     4   8  14  26  49  76  97 129 171 210 252 301
#     4   8  14  25  43  65  90 129 172 206 243 298
#     4   9  17  33  56  78 102 134 176 220 262 311
#
# _framework density 21.413663
#
# number of rings (size 3 to 8) (size 9 to 14) (size 15 to 20)
#    0.000    2.857    1.429    3.000    0.000    2.857 
#    2.571    0.000    0.000    0.000    0.000    0.000 
#    0.000    1.143    1.143    0.286    0.000    0.000 
#
# Total GULP energy -156107.473970 kJ/mol
# GULP energy per Si atom -5575.266928 kJ/mol
# Density = 2.136492 g / cm^3
# Si number density = 21.413663 Si / 1000 Ang^3
#
#
#
# Elastic Constant Matrix: (Units=GPa)
#
#
# Indices 1 2 3 4 5 6 
#
# 1 102.7525 5.7136 83.5961 0.0000 25.1382 0.0000
# 2 5.7136 32.1040 17.9867 0.0000 5.7638 0.0000
# 3 83.5961 17.9867 236.5189 0.0000 32.5421 0.0000
# 4 0.0000 0.0000 0.0000 -4.1425 0.0000 -5.2146
# 5 25.1382 5.7638 32.5421 0.0000 27.7496 0.0000
# 6 0.0000 0.0000 0.0000 -5.2146 0.0000 -46.9929
#
#
#
# Elastic Compliance Matrix: (Units=1/GPa)
#
#
# Indices 1 2 3 4 5 6 
#
# 1 0.015385 0.001307 -0.004271 0.000000 -0.009200 0.000000
# 2 0.001307 0.033146 -0.002233 0.000000 -0.005450 0.000000
# 3 -0.004271 -0.002233 0.006333 0.000000 -0.003094 0.000000
# 4 0.000000 0.000000 0.000000 -0.280597 0.000000 0.031137
# 5 -0.009200 -0.005450 -0.003094 0.000000 0.049131 0.000000
# 6 0.000000 0.000000 0.000000 0.031137 0.000000 -0.024735
#
#
# Mechanical properties :
#
#
# Convention : Reuss Voigt Hill
#
# Bulk Modulus (GPa) = 22.48751 65.10758 43.79755
# Shear Modulus (GPa) = -28.38982 12.92811 -7.73085
#
# Velocity S-wave (km/s) = -3.64508 2.45976 -1.90213
# Velocity P-wave (km/s) = 2.68164 6.20789 3.95896
#
# Compressibility (1/GPa) = 0.04446912
#
# Stress axis : x y z
#
# Youngs Moduli (GPa) = 64.99738 30.17000 157.89951
#
# Poissons Ratio (x) = -0.03942 0.67446
# Poissons Ratio (y) = -0.08493 0.35253
# Poissons Ratio (z) = 0.27763 0.06736
#
# Static dielectric constant tensor:
#      x y z
#    x 1.874080 0.000000 0.116820 
#    y 0.000000 1.598430 0.000000 
#    z 0.116820 0.000000 1.866300 
# 
# From -- ./inp_files/333388.got.cif
#   From: 2010.05.17/outbox.cif.g08.bks.cpg/sg12_167_cif.got.tgz:333388.got - 2010.06.03 13:09:07.
