data_PCOD9175246
_publ_section_title
;
Structure prediction by ZEFSAII (Michael W. Deem and Ramdas Pophale) SiO2 
 PCOD9175246
Probable space group: C 2/M
;
_chemical_formula_sum "Si O2"
_cell_formula_units_Z 56
_cell_length_a 17.675901
_cell_length_b 14.143089
_cell_length_c 11.684010
_cell_angle_alpha 90.000000
_cell_angle_beta 71.088908
_cell_angle_gamma 90.000000
_cell_volume 2763.244293
_symmetry_space_group_name_H-M "C 2/M"
_symmetry_group_IT_number 12
_symmetry_cell_setting 'monoclinic'
loop_
_space_group_symop_operation_xyz
x,y,z
-x,y,-z
-x,-y,-z
x,-y,z
1/2+x,1/2+y,z
1/2-x,1/2+y,-z
1/2-x,1/2-y,-z
1/2+x,1/2-y,z
loop_
_atom_site_type_symbol
_atom_site_label
_atom_site_fract_x
_atom_site_fract_y
_atom_site_fract_z
Si Si1 0.552848 0.108306 0.871794
Si Si2 0.202196 0.108121 0.716143
Si Si3 0.892565 0.262103 0.333207
Si Si4 0.203438 0.610155 0.956552
Si Si5 0.413270 0.318791 0.565822
Si Si6 0.250271 0.101467 0.429011
Si Si7 0.677513 0.769512 0.185856
O O1 0.548095 0.170104 0.761743
O O2 0.641852 0.110305 0.881065
O O3 0.528651 0.000000 0.862831
O O4 0.500000 0.147874 0.000000
O O5 0.119981 0.164146 0.728670
O O6 0.241112 0.103507 0.570429
O O7 0.258369 0.169294 0.771498
O O8 0.191614 0.000000 0.761306
O O9 0.909805 0.250823 0.457931
O O10 0.806395 0.312946 0.368473
O O11 0.222419 0.500000 0.972471
O O12 0.278658 0.675266 0.884438
O O13 0.161586 0.662497 0.085099
O O14 0.500000 0.364817 0.500000
O O15 0.337132 0.386122 0.582320
O O16 0.393271 0.264870 0.694133
O O17 0.285259 0.000000 0.378256
#
# Coordination Sequence:
#
# PCOD9175246 Si02
#       7
#     8   8   8   8   8   8   8
#     4  10  21  36  56  83 112 149 195 241 291 351
#     4  10  18  32  57  85 109 141 191 240 286 340
#     4  11  19  38  60  86 114 155 200 244 293 352
#     4  10  22  38  60  85 113 153 202 246 289 346
#     4  11  23  36  56  90 128 158 189 240 308 364
#     4  10  19  35  61  86 115 153 198 243 285 352
#     4  11  20  38  59  85 118 156 194 243 298 349
#
# _framework density 20.266033
#
# number of rings (size 3 to 8) (size 9 to 14) (size 15 to 20)
#    0.000    1.571    4.286    1.714    2.000    2.000 
#    0.000    0.000    0.000    3.857    0.000    0.000 
#    0.000    0.000    0.000    0.000    0.000    0.000 
#
# Total GULP energy -156149.027720 kJ/mol
# GULP energy per Si atom -5576.750990 kJ/mol
# Density = 2.021991 g / cm^3
# Si number density = 20.266033 Si / 1000 Ang^3
#
#
#
# Elastic Constant Matrix: (Units=GPa)
#
#
# Indices 1 2 3 4 5 6 
#
# 1 26.8963 -5.3242 -1.4277 0.0000 -1.3913 0.0000
# 2 -5.3242 102.8592 26.0101 0.0000 -1.1492 0.0000
# 3 -1.4277 26.0101 93.2436 0.0000 2.8875 0.0000
# 4 0.0000 0.0000 0.0000 25.6345 0.0000 0.8012
# 5 -1.3913 -1.1492 2.8875 0.0000 27.9547 0.0000
# 6 0.0000 0.0000 0.0000 0.8012 0.0000 10.4547
#
#
#
# Elastic Compliance Matrix: (Units=1/GPa)
#
#
# Indices 1 2 3 4 5 6 
#
# 1 0.037671 0.001981 -0.000037 0.000000 0.001960 0.000000
# 2 0.001981 0.010579 -0.002947 0.000000 0.000838 0.000000
# 3 -0.000037 -0.002947 0.011587 0.000000 -0.001320 0.000000
# 4 0.000000 0.000000 0.000000 0.039104 0.000000 -0.002997
# 5 0.001960 0.000838 -0.001320 0.000000 0.036040 0.000000
# 6 0.000000 0.000000 0.000000 -0.002997 0.000000 0.095881
#
#
# Mechanical properties :
#
#
# Convention : Reuss Voigt Hill
#
# Bulk Modulus (GPa) = 17.29109 29.05727 23.17418
# Shear Modulus (GPa) = 19.82993 26.39150 23.11071
#
# Velocity S-wave (km/s) = 3.13146 3.61259 3.38060
# Velocity P-wave (km/s) = 4.65030 5.63650 5.16698
#
# Compressibility (1/GPa) = 0.05783326
#
# Stress axis : x y z
#
# Youngs Moduli (GPa) = 26.54531 94.52651 86.30467
#
# Poissons Ratio (x) = -0.18727 0.00315
# Poissons Ratio (y) = -0.05259 0.25431
# Poissons Ratio (z) = 0.00097 0.27853
#
# Static dielectric constant tensor:
#      x y z
#    x 1.768020 0.000000 -0.007760 
#    y 0.000000 1.726890 0.000000 
#    z -0.007760 0.000000 1.734160 
# 
# From -- ./inp_files/155959.got.cif
#   From: 2010.05.17/outbox.cif.g08.bks.cpg/sg12_78_cif.got.tgz:155959.got - 2010.06.03 13:09:07.
