data_PCOD9175026
_publ_section_title
;
Structure prediction by ZEFSAII (Michael W. Deem and Ramdas Pophale) SiO2 
 PCOD9175026
Probable space group: C 2/M
;
_chemical_formula_sum "Si O2"
_cell_formula_units_Z 64
_cell_length_a 29.023650
_cell_length_b 7.364499
_cell_length_c 13.844230
_cell_angle_alpha 90.000000
_cell_angle_beta 74.908211
_cell_angle_gamma 90.000000
_cell_volume 2857.069447
_symmetry_space_group_name_H-M "C 2/M"
_symmetry_group_IT_number 12
_symmetry_cell_setting 'monoclinic'
loop_
_space_group_symop_operation_xyz
x,y,z
-x,y,-z
-x,-y,-z
x,-y,z
1/2+x,1/2+y,z
1/2-x,1/2+y,-z
1/2-x,1/2-y,-z
1/2+x,1/2-y,z
loop_
_atom_site_type_symbol
_atom_site_label
_atom_site_fract_x
_atom_site_fract_y
_atom_site_fract_z
Si Si1 0.421568 0.778915 0.193514
Si Si2 0.710160 0.783674 0.941716
Si Si3 0.474549 0.220168 0.789986
Si Si4 0.165789 0.280249 0.621627
Si Si5 0.545822 0.710411 0.420515
Si Si6 0.649522 0.290747 0.408033
Si Si7 0.896971 0.278330 0.989041
Si Si8 0.749804 0.777548 0.714195
O O1 0.472975 0.720938 0.204553
O O2 0.378486 0.722552 0.286856
O O3 0.421257 0.000000 0.193400
O O4 0.412552 0.722730 0.088194
O O5 0.727529 0.716960 0.827781
O O6 0.705414 0.000000 0.933774
O O7 0.750000 0.750000 0.000000
O O8 0.657415 0.717293 0.997938
O O9 0.463269 0.281807 0.688310
O O10 0.434279 0.280744 0.887607
O O11 0.474585 0.000000 0.789183
O O12 0.165407 0.500000 0.618530
O O13 0.159670 0.213767 0.516507
O O14 0.214808 0.223192 0.646328
O O15 0.500000 0.791333 0.500000
O O16 0.548416 0.500000 0.451957
O O17 0.597637 0.791615 0.415926
O O18 0.646821 0.500000 0.376315
O O19 0.696270 0.212823 0.330731
O O20 0.897732 0.500000 0.987191
O O21 0.750383 0.000000 0.713559
#
# Coordination Sequence:
#
# PCOD9175026 Si02
#       8
#     8   8   8   8   8   8   8   8
#     4   9  16  30  53  79 105 134 167 205 256 312
#     4  10  20  35  55  77 106 141 173 208 252 305
#     4  10  20  32  54  83 105 129 170 219 256 295
#     4  10  18  32  55  79 101 130 169 213 258 301
#     4  10  22  39  54  71 102 143 177 206 254 314
#     4  10  21  35  52  73 100 136 174 210 253 307
#     4   9  17  32  53  79 108 136 167 208 258 308
#     4   9  18  34  54  75 101 136 172 205 253 312
#
# _framework density 22.400575
#
# number of rings (size 3 to 8) (size 9 to 14) (size 15 to 20)
#    0.000    2.375    1.250    1.500    1.750    2.250 
#    0.000    1.250    0.000    3.000    0.000    0.000 
#    0.000    0.000    0.000    0.000    0.000    0.000 
#
# Total GULP energy -178889.935142 kJ/mol
# GULP energy per Si atom -5590.310473 kJ/mol
# Density = 2.234959 g / cm^3
# Si number density = 22.400575 Si / 1000 Ang^3
#
#
#
# Elastic Constant Matrix: (Units=GPa)
#
#
# Indices 1 2 3 4 5 6 
#
# 1 198.5935 5.1155 32.1300 0.0000 -16.4214 0.0000
# 2 5.1155 81.5647 -9.5843 0.0000 -8.2231 0.0000
# 3 32.1300 -9.5843 49.1273 0.0000 -15.8567 0.0000
# 4 0.0000 0.0000 0.0000 20.0371 0.0000 22.8749
# 5 -16.4214 -8.2231 -15.8567 0.0000 48.2903 0.0000
# 6 0.0000 0.0000 0.0000 22.8749 0.0000 5.4429
#
#
#
# Elastic Compliance Matrix: (Units=1/GPa)
#
#
# Indices 1 2 3 4 5 6 
#
# 1 0.005699 -0.000728 -0.003673 0.000000 0.000608 0.000000
# 2 -0.000728 0.013126 0.004114 0.000000 0.003339 0.000000
# 3 -0.003673 0.004114 0.026155 0.000000 0.008040 0.000000
# 4 0.000000 0.000000 0.000000 -0.013141 0.000000 0.055227
# 5 0.000608 0.003339 0.008040 0.000000 0.024123 0.000000
# 6 0.000000 0.000000 0.000000 0.055227 0.000000 -0.048375
#
#
# Mechanical properties :
#
#
# Convention : Reuss Voigt Hill
#
# Bulk Modulus (GPa) = 22.51884 42.73420 32.62652
# Shear Modulus (GPa) = 217.75780 34.86234 126.31007
#
# Velocity S-wave (km/s) = 9.87025 3.94929 7.51727
# Velocity P-wave (km/s) = 11.83091 6.31780 9.48380
#
# Compressibility (1/GPa) = 0.04440726
#
# Stress axis : x y z
#
# Youngs Moduli (GPa) = 175.48079 76.18530 38.23360
#
# Poissons Ratio (x) = 0.05544 0.14042
# Poissons Ratio (y) = 0.12769 -0.15730
# Poissons Ratio (z) = 0.64449 -0.31345
#
# Static dielectric constant tensor:
#      x y z
#    x 1.810510 0.000000 -0.024370 
#    y 0.000000 1.881270 0.000000 
#    z -0.024370 0.000000 1.748590 
# 
# From -- ./inp_files/174605.got.cif
#   From: 2010.05.17/outbox.cif.g08.bks.cpg/sg12_88_cif.got.tgz:174605.got - 2010.06.03 13:09:07.
