data_PCOD9175553
_publ_section_title
;
Structure prediction by ZEFSAII (Michael W. Deem and Ramdas Pophale) SiO2 
 PCOD9175553
Probable space group: C 2/M
;
_chemical_formula_sum "Si O2"
_cell_formula_units_Z 48
_cell_length_a 23.258769
_cell_length_b 18.318752
_cell_length_c 6.996128
_cell_angle_alpha 90.000000
_cell_angle_beta 37.924736
_cell_angle_gamma 90.000000
_cell_volume 1832.108328
_symmetry_space_group_name_H-M "C 2/M"
_symmetry_group_IT_number 12
_symmetry_cell_setting 'monoclinic'
loop_
_space_group_symop_operation_xyz
x,y,z
-x,y,-z
-x,-y,-z
x,-y,z
1/2+x,1/2+y,z
1/2-x,1/2+y,-z
1/2-x,1/2-y,-z
1/2+x,1/2-y,z
loop_
_atom_site_type_symbol
_atom_site_label
_atom_site_fract_x
_atom_site_fract_y
_atom_site_fract_z
Si Si1 0.703891 0.744022 0.328549
Si Si2 0.504144 0.225792 0.261779
Si Si3 0.180334 0.919474 0.337737
Si Si4 0.775744 0.891960 0.228725
Si Si5 0.415523 0.923756 0.071857
Si Si6 0.973383 0.888177 0.796505
O O1 0.598285 0.775363 0.570272
O O2 0.708709 0.657561 0.360388
O O3 0.762222 0.804315 0.288918
O O4 0.750000 0.750000 0.000000
O O5 0.500000 0.232598 0.500000
O O6 0.539861 0.304637 0.104298
O O7 0.566094 0.154165 0.071835
O O8 0.066900 0.918864 0.644824
O O9 0.213990 0.000000 0.309770
O O10 0.211155 0.909410 0.032573
O O11 0.681768 0.923100 0.561780
O O12 0.870334 0.920148 0.078524
O O13 0.421274 0.000000 0.940292
O O14 0.500000 0.926524 0.000000
O O15 0.000000 0.889987 0.500000
#
# Coordination Sequence:
#
# PCOD9175553 Si02
#       6
#     8   8   8   8   8   8
#     4   9  17  31  52  76 105 142 182 219 261 321
#     4  10  19  36  55  76 108 141 180 226 268 325
#     4   9  17  29  50  82 114 140 174 227 283 322
#     4  10  18  33  54  78 108 146 185 225 263 318
#     4  11  23  36  52  79 110 142 182 225 270 317
#     4   8  17  31  53  80 105 137 181 226 269 324
#
# _framework density 26.199325999999999
#
# number of rings (size 3 to 8) (size 9 to 14) (size 15 to 20)
#    0.000    2.500    1.667    3.500    0.000    4.667 
#    0.000    0.000    0.000    3.000    0.000    9.333 
#    0.000    0.000    0.000    6.167    0.000    0.000 
#
# Total GULP energy -134157.152405 kJ/mol
# GULP energy per Si atom -5589.881350 kJ/mol
# Density = 2.613969 g / cm^3
# Si number density = 26.199326 Si / 1000 Ang^3
#
#
#
# Elastic Constant Matrix: (Units=GPa)
#
#
# Indices 1 2 3 4 5 6 
#
# 1 97.9239 24.2354 33.8347 0.0000 -16.1902 0.0000
# 2 24.2354 260.1001 51.3863 0.0000 -4.0847 0.0000
# 3 33.8347 51.3863 142.6281 0.0000 -28.4359 0.0000
# 4 0.0000 0.0000 0.0000 -46.9259 0.0000 49.8548
# 5 -16.1902 -4.0847 -28.4359 0.0000 53.8236 0.0000
# 6 0.0000 0.0000 0.0000 49.8548 0.0000 -27.8776
#
#
#
# Elastic Compliance Matrix: (Units=1/GPa)
#
#
# Indices 1 2 3 4 5 6 
#
# 1 0.011453 -0.000630 -0.002026 0.000000 0.002327 0.000000
# 2 -0.000630 0.004188 -0.001491 0.000000 -0.000659 0.000000
# 3 -0.002026 -0.001491 0.008813 0.000000 0.003934 0.000000
# 4 0.000000 0.000000 0.000000 0.023679 0.000000 0.042346
# 5 0.002327 -0.000659 0.003934 0.000000 0.021307 0.000000
# 6 0.000000 0.000000 0.000000 0.042346 0.000000 0.039858
#
#
# Mechanical properties :
#
#
# Convention : Reuss Voigt Hill
#
# Bulk Modulus (GPa) = 61.88217 79.95167 70.91692
# Shear Modulus (GPa) = 40.65774 21.88374 31.27074
#
# Velocity S-wave (km/s) = 3.94364 2.89325 3.45856
# Velocity P-wave (km/s) = 6.66389 6.46097 6.56322
#
# Compressibility (1/GPa) = 0.01615974
#
# Stress axis : x y z
#
# Youngs Moduli (GPa) = 87.31570 238.80339 113.46738
#
# Poissons Ratio (x) = 0.15053 0.22987
# Poissons Ratio (y) = 0.05504 0.16914
# Poissons Ratio (z) = 0.17689 0.35596
#
# Static dielectric constant tensor:
#      x y z
#    x 2.044240 0.000000 0.028130 
#    y 0.000000 2.102700 0.000000 
#    z 0.028130 0.000000 2.033500 
# 
# From -- ./inp_files/112736.got.cif
#   From: 2010.05.17/outbox.cif.g08.bks.cpg/sg12_57_cif.got.tgz:112736.got - 2010.06.03 13:09:07.
