data_PCOD9175153
_publ_section_title
;
Structure prediction by ZEFSAII (Michael W. Deem and Ramdas Pophale) SiO2 
 PCOD9175153
Probable space group: C 2/M
;
_chemical_formula_sum "Si O2"
_cell_formula_units_Z 56
_cell_length_a 20.858511
_cell_length_b 18.556422
_cell_length_c 15.814334
_cell_angle_alpha 90.000000
_cell_angle_beta 153.204109
_cell_angle_gamma 90.000000
_cell_volume 2759.468172
_symmetry_space_group_name_H-M "C 2/M"
_symmetry_group_IT_number 12
_symmetry_cell_setting 'monoclinic'
loop_
_space_group_symop_operation_xyz
x,y,z
-x,y,-z
-x,-y,-z
x,-y,z
1/2+x,1/2+y,z
1/2-x,1/2+y,-z
1/2-x,1/2-y,-z
1/2+x,1/2-y,z
loop_
_atom_site_type_symbol
_atom_site_label
_atom_site_fract_x
_atom_site_fract_y
_atom_site_fract_z
Si Si1 0.867284 0.359121 0.392133
Si Si2 0.219314 0.723275 0.218689
Si Si3 0.331681 0.423176 0.290960
Si Si4 0.008427 0.718995 0.710623
Si Si5 0.312153 0.356658 0.091887
Si Si6 0.094061 0.084496 0.981002
Si Si7 0.071433 0.772442 0.207219
O O1 0.832368 0.279362 0.313235
O O2 0.720039 0.400151 0.198273
O O3 0.000000 0.393683 0.500000
O O4 0.926161 0.337137 0.553519
O O5 0.266154 0.642577 0.264355
O O6 0.188445 0.747605 0.278092
O O7 0.074578 0.737124 0.998782
O O8 0.500000 0.422041 0.500000
O O9 0.274475 0.500000 0.252386
O O10 0.306399 0.411705 0.161915
O O11 0.064829 0.797013 0.743329
O O12 0.917973 0.740854 0.686681
O O13 0.159083 0.681714 0.909825
O O14 0.344300 0.392465 0.038769
O O15 0.056024 0.000000 0.938397
O O16 0.965105 0.141966 0.841339
#
# Coordination Sequence:
#
# PCOD9175153 Si02
#       7
#     8   8   8   8   8   8   8
#     4  11  20  33  55  86 113 150 191 242 286 333
#     4  10  19  36  57  79 112 149 199 239 276 336
#     4  11  22  35  57  89 120 148 182 237 299 344
#     4  10  18  32  56  82 113 145 201 240 276 332
#     4  10  18  34  56  85 113 152 188 238 286 341
#     4  10  21  37  58  85 120 153 189 238 298 351
#     4   9  20  36  57  81 109 153 203 240 273 336
#
# _framework density 20.293765
#
# number of rings (size 3 to 8) (size 9 to 14) (size 15 to 20)
#    0.000    1.857    2.857    2.571    0.000    0.857 
#    0.000    7.143    0.000    0.000    0.000    0.000 
#    0.000    0.000    0.000    0.000    0.000    0.000 
#
# Total GULP energy -156157.989388 kJ/mol
# GULP energy per Si atom -5577.071050 kJ/mol
# Density = 2.024758 g / cm^3
# Si number density = 20.293765 Si / 1000 Ang^3
#
#
#
# Elastic Constant Matrix: (Units=GPa)
#
#
# Indices 1 2 3 4 5 6 
#
# 1 90.2478 37.6032 20.5643 0.0000 -10.1532 0.0000
# 2 37.6032 149.7728 6.9924 0.0000 -4.1562 0.0000
# 3 20.5643 6.9924 53.4401 0.0000 -24.0525 0.0000
# 4 0.0000 0.0000 0.0000 87.4754 0.0000 -56.7356
# 5 -10.1532 -4.1562 -24.0525 0.0000 23.0869 0.0000
# 6 0.0000 0.0000 0.0000 -56.7356 0.0000 54.3858
#
#
#
# Elastic Compliance Matrix: (Units=1/GPa)
#
#
# Indices 1 2 3 4 5 6 
#
# 1 0.013493 -0.003160 -0.004451 0.000000 0.000728 0.000000
# 2 -0.003160 0.007461 0.000412 0.000000 0.000383 0.000000
# 3 -0.004451 0.000412 0.036762 0.000000 0.036416 0.000000
# 4 0.000000 0.000000 0.000000 0.035350 0.000000 0.036877
# 5 0.000728 0.000383 0.036416 0.000000 0.081643 0.000000
# 6 0.000000 0.000000 0.000000 0.036877 0.000000 0.056858
#
#
# Mechanical properties :
#
#
# Convention : Reuss Voigt Hill
#
# Bulk Modulus (GPa) = 23.08504 47.08673 35.08589
# Shear Modulus (GPa) = 19.20085 48.20966 33.70526
#
# Velocity S-wave (km/s) = 3.07928 4.87929 4.07980
# Velocity P-wave (km/s) = 4.90334 7.41594 6.28645
#
# Compressibility (1/GPa) = 0.04331810
#
# Stress axis : x y z
#
# Youngs Moduli (GPa) = 74.11054 134.02157 27.20212
#
# Poissons Ratio (x) = 0.42347 0.12109
# Poissons Ratio (y) = 0.23417 -0.01120
# Poissons Ratio (z) = 0.32990 -0.05520
#
# Static dielectric constant tensor:
#      x y z
#    x 1.780310 0.000000 -0.023870 
#    y 0.000000 1.717820 0.000000 
#    z -0.023870 0.000000 1.791460 
# 
# From -- ./inp_files/234733.got.cif
#   From: 2010.05.17/outbox.cif.g08.bks.cpg/sg12_118_cif.got.tgz:234733.got - 2010.06.03 13:09:07.
