data_PCOD9175700
_publ_section_title
;
Structure prediction by ZEFSAII (Michael W. Deem and Ramdas Pophale) SiO2 
 PCOD9175700
Probable space group: C 2/M
;
_chemical_formula_sum "Si O2"
_cell_formula_units_Z 32
_cell_length_a 13.284716
_cell_length_b 16.427374
_cell_length_c 7.596746
_cell_angle_alpha 90.000000
_cell_angle_beta 48.323208
_cell_angle_gamma 90.000000
_cell_volume 1238.268685
_symmetry_space_group_name_H-M "C 2/M"
_symmetry_group_IT_number 12
_symmetry_cell_setting 'monoclinic'
loop_
_space_group_symop_operation_xyz
x,y,z
-x,y,-z
-x,-y,-z
x,-y,z
1/2+x,1/2+y,z
1/2-x,1/2+y,-z
1/2-x,1/2-y,-z
1/2+x,1/2-y,z
loop_
_atom_site_type_symbol
_atom_site_label
_atom_site_fract_x
_atom_site_fract_y
_atom_site_fract_z
Si Si1 0.482512 0.904183 0.813879
Si Si2 0.773938 0.688275 0.633324
Si Si3 0.196186 0.842873 0.177296
Si Si4 0.933633 0.905778 0.318346
O O1 0.587093 0.856539 0.571437
O O2 0.509721 0.000000 0.770010
O O3 0.500000 0.879304 0.000000
O O4 0.328671 0.884724 0.945876
O O5 0.750000 0.750000 0.500000
O O6 0.778722 0.750574 0.788955
O O7 0.652579 0.624623 0.747351
O O8 0.063301 0.851859 0.214507
O O9 0.160432 0.893435 0.398582
O O10 0.970541 0.000000 0.260832
#
# Coordination Sequence:
#
# PCOD9175700 Si02
#       4
#     8   8   8   8
#     4  11  19  32  56  84 110 146 195 239 279 341
#     4  10  20  33  51  84 117 147 182 239 298 336
#     4  10  20  34  53  82 118 146 183 241 295 333
#     4  10  18  33  56  83 110 147 194 238 280 341
#
# _framework density 25.842531999999999
#
# number of rings (size 3 to 8) (size 9 to 14) (size 15 to 20)
#    0.000    1.750    5.000    3.750    0.000    0.000 
#    0.000   13.750    0.000    0.000    0.000  136.500 
#    0.000    0.000    0.000    0.000    0.000    0.000 
#
# Total GULP energy -89781.372107 kJ/mol
# GULP energy per Si atom -5611.335757 kJ/mol
# Density = 2.578371 g / cm^3
# Si number density = 25.842532 Si / 1000 Ang^3
#
#
#
# Elastic Constant Matrix: (Units=GPa)
#
#
# Indices 1 2 3 4 5 6 
#
# 1 113.1679 50.5392 75.5227 0.0000 -11.9817 0.0000
# 2 50.5392 137.1177 54.1834 0.0000 -13.9093 0.0000
# 3 75.5227 54.1834 145.5761 0.0000 -19.5689 0.0000
# 4 0.0000 0.0000 0.0000 39.5911 0.0000 -8.4376
# 5 -11.9817 -13.9093 -19.5689 0.0000 62.5656 0.0000
# 6 0.0000 0.0000 0.0000 -8.4376 0.0000 45.6978
#
#
#
# Elastic Compliance Matrix: (Units=1/GPa)
#
#
# Indices 1 2 3 4 5 6 
#
# 1 0.014351 -0.002745 -0.006405 0.000000 0.000135 0.000000
# 2 -0.002745 0.009129 -0.001850 0.000000 0.000925 0.000000
# 3 -0.006405 -0.001850 0.011128 0.000000 0.001843 0.000000
# 4 0.000000 0.000000 0.000000 0.026293 0.000000 0.004855
# 5 0.000135 0.000925 0.001843 0.000000 0.016791 0.000000
# 6 0.000000 0.000000 0.000000 0.004855 0.000000 0.022779
#
#
# Mechanical properties :
#
#
# Convention : Reuss Voigt Hill
#
# Bulk Modulus (GPa) = 79.30610 84.03913 81.67262
# Shear Modulus (GPa) = 39.47105 43.94532 41.70818
#
# Velocity S-wave (km/s) = 3.91239 4.12819 4.02174
# Velocity P-wave (km/s) = 7.15290 7.43726 7.29647
#
# Compressibility (1/GPa) = 0.01260937
#
# Stress axis : x y z
#
# Youngs Moduli (GPa) = 69.68086 109.53563 89.85964
#
# Poissons Ratio (x) = 0.30065 0.57559
# Poissons Ratio (y) = 0.19126 0.16621
# Poissons Ratio (z) = 0.44634 0.20260
#
# Static dielectric constant tensor:
#      x y z
#    x 2.172720 0.000000 0.069900 
#    y 0.000000 2.445320 0.000000 
#    z 0.069900 0.000000 2.080860 
# 
# From -- ./inp_files/156445.got.cif
#   From: 2010.05.17/outbox.cif.g08.bks.cpg/sg12_79_cif.got.tgz:156445.got - 2010.06.03 13:09:07.
