data_PCOD9175414
_publ_section_title
;
Structure prediction by ZEFSAII (Michael W. Deem and Ramdas Pophale) SiO2 
 PCOD9175414
Probable space group: C 2/M
;
_chemical_formula_sum "Si O2"
_cell_formula_units_Z 48
_cell_length_a 8.481812
_cell_length_b 24.815148
_cell_length_c 14.451206
_cell_angle_alpha 90.000000
_cell_angle_beta 126.524532
_cell_angle_gamma 90.000000
_cell_volume 2444.278397
_symmetry_space_group_name_H-M "C 2/M"
_symmetry_group_IT_number 12
_symmetry_cell_setting 'monoclinic'
loop_
_space_group_symop_operation_xyz
x,y,z
-x,y,-z
-x,-y,-z
x,-y,z
1/2+x,1/2+y,z
1/2-x,1/2+y,-z
1/2-x,1/2-y,-z
1/2+x,1/2-y,z
loop_
_atom_site_type_symbol
_atom_site_label
_atom_site_fract_x
_atom_site_fract_y
_atom_site_fract_z
Si Si1 0.341487 0.904504 0.319201
Si Si2 0.424949 0.103859 0.141640
Si Si3 0.147651 0.500000 0.442654
Si Si4 0.181175 0.500000 0.234553
Si Si5 0.070950 0.813410 0.214667
Si Si6 0.132029 0.292381 0.132035
Si Si7 0.000000 0.122340 0.000000
Si Si8 0.088759 0.000000 0.282540
O O1 0.426554 0.884810 0.251682
O O2 0.515769 0.945820 0.410130
O O3 0.162971 0.947631 0.253621
O O4 0.233349 0.851341 0.323375
O O5 0.508601 0.155712 0.120257
O O6 0.197718 0.091463 0.042844
O O7 0.556448 0.052655 0.169984
O O8 0.219493 0.500000 0.360398
O O9 0.305689 0.500000 0.579158
O O10 0.365767 0.500000 0.232451
O O11 0.853808 0.808932 0.182727
O O12 0.139329 0.753093 0.213845
O O13 0.046028 0.841885 0.106006
O O14 0.000000 0.270675 0.000000
#
# Coordination Sequence:
#
# PCOD9175414 Si02
#       8
#     8   8   4   4   8   8   4   4
#     4   9  19  33  53  81 109 135 176 227 270 318
#     4  10  21  35  52  74 113 146 190 228 265 310
#     4   9  19  37  62  87 106 137 173 221 273 342
#     4  10  21  37  54  87 114 137 174 229 273 333
#     4  11  20  32  52  77 108 145 187 230 263 302
#     4  12  21  34  53  78 105 152 201 228 255 306
#     4  10  18  33  50  72 102 153 186 224 262 300
#     4  11  19  37  63  84 106 137 176 220 282 337
#
# _framework density 19.637698
#
# number of rings (size 3 to 8) (size 9 to 14) (size 15 to 20)
#    0.000    1.667    2.500    5.250    0.000    0.333 
#    0.000    2.083    0.000    0.000    0.000   44.333 
#    0.000    0.000    0.000    0.000    0.000    0.000 
#
# Total GULP energy -133615.029122 kJ/mol
# GULP energy per Si atom -5567.292880 kJ/mol
# Density = 1.959300 g / cm^3
# Si number density = 19.637698 Si / 1000 Ang^3
#
#
#
# Elastic Constant Matrix: (Units=GPa)
#
#
# Indices 1 2 3 4 5 6 
#
# 1 119.5789 34.0089 1.6784 0.0000 24.2872 0.0000
# 2 34.0089 95.7675 12.6940 0.0000 13.3840 0.0000
# 3 1.6784 12.6940 24.9857 0.0000 8.1893 0.0000
# 4 0.0000 0.0000 0.0000 167.0419 0.0000 25.6543
# 5 24.2872 13.3840 8.1893 0.0000 31.7473 0.0000
# 6 0.0000 0.0000 0.0000 25.6543 0.0000 14.5617
#
#
#
# Elastic Compliance Matrix: (Units=1/GPa)
#
#
# Indices 1 2 3 4 5 6 
#
# 1 0.010813 -0.003207 0.003464 0.000000 -0.007814 0.000000
# 2 -0.003207 0.012526 -0.005704 0.000000 -0.001356 0.000000
# 3 0.003464 -0.005704 0.046718 0.000000 -0.012296 0.000000
# 4 0.000000 0.000000 0.000000 0.008207 0.000000 -0.014459
# 5 -0.007814 -0.001356 -0.012296 0.000000 0.041220 0.000000
# 6 0.000000 0.000000 0.000000 -0.014459 0.000000 0.094147
#
#
# Mechanical properties :
#
#
# Convention : Reuss Voigt Hill
#
# Bulk Modulus (GPa) = 16.90228 37.45497 27.17863
# Shear Modulus (GPa) = 20.47098 55.46688 37.96893
#
# Velocity S-wave (km/s) = 3.23218 5.32038 4.40190
# Velocity P-wave (km/s) = 4.74921 7.54031 6.30124
#
# Compressibility (1/GPa) = 0.05916361
#
# Stress axis : x y z
#
# Youngs Moduli (GPa) = 92.47946 79.83104 21.40482
#
# Poissons Ratio (x) = 0.25603 -0.07415
# Poissons Ratio (y) = 0.29659 0.12210
# Poissons Ratio (z) = -0.32035 0.45537
#
# Static dielectric constant tensor:
#      x y z
#    x 1.693480 0.000000 0.009560 
#    y 0.000000 1.683800 0.000000 
#    z 0.009560 0.000000 1.753540 
# 
# From -- ./inp_files/259050.got.cif
#   From: 2010.05.17/outbox.cif.g08.bks.cpg/sg12_130_cif.got.tgz:259050.got - 2010.06.03 13:09:07.
