data_PCOD9175652
_publ_section_title
;
Structure prediction by ZEFSAII (Michael W. Deem and Ramdas Pophale) SiO2 
 PCOD9175652
Probable space group: C 2/M
;
_chemical_formula_sum "Si O2"
_cell_formula_units_Z 48
_cell_length_a 29.000865
_cell_length_b 7.503534
_cell_length_c 17.852713
_cell_angle_alpha 90.000000
_cell_angle_beta 36.582002
_cell_angle_gamma 90.000000
_cell_volume 2315.300511
_symmetry_space_group_name_H-M "C 2/M"
_symmetry_group_IT_number 12
_symmetry_cell_setting 'monoclinic'
loop_
_space_group_symop_operation_xyz
x,y,z
-x,y,-z
-x,-y,-z
x,-y,z
1/2+x,1/2+y,z
1/2-x,1/2+y,-z
1/2-x,1/2-y,-z
1/2+x,1/2-y,z
loop_
_atom_site_type_symbol
_atom_site_label
_atom_site_fract_x
_atom_site_fract_y
_atom_site_fract_z
Si Si1 0.623742 0.717984 0.855489
Si Si2 0.534380 0.791083 0.231148
Si Si3 0.278331 0.793304 0.727636
Si Si4 0.952747 0.281084 0.488065
Si Si5 0.521452 0.714635 0.854003
Si Si6 0.793379 0.712161 0.020915
O O1 0.624604 0.500000 0.855853
O O2 0.707560 0.783566 0.771384
O O3 0.591607 0.772467 0.816188
O O4 0.558110 0.772740 0.001174
O O5 0.495599 0.719551 0.356875
O O6 0.480424 0.773899 0.228921
O O7 0.547482 0.000000 0.228648
O O8 0.618925 0.716323 0.100281
O O9 0.364078 0.717973 0.606830
O O10 0.251353 0.787173 0.849141
O O11 0.284210 0.000000 0.697460
O O12 0.951606 0.500000 0.489697
O O13 0.000000 0.227118 0.500000
O O14 0.521261 0.500000 0.854509
O O15 0.796114 0.500000 0.029085
O O16 0.750000 0.750000 0.000000
#
# Coordination Sequence:
#
# PCOD9175652 Si02
#       6
#     8   8   8   8   8   8
#     4   8  15  28  50  77 101 130 168 206 247 300
#     4  10  20  34  51  76 104 132 168 208 255 303
#     4  10  18  33  56  76  97 131 174 213 248 293
#     4   9  18  33  52  72  99 136 171 205 251 307
#     4   9  16  30  51  75 103 132 167 207 249 300
#     4  11  22  34  51  75 103 131 166 213 256 301
#
# _framework density 20.731649999999998
#
# number of rings (size 3 to 8) (size 9 to 14) (size 15 to 20)
#    0.000    2.500    1.667    2.500    0.000    3.333 
#    0.000    4.167    0.000    2.000    0.000    0.000 
#    0.000    0.000    0.000    0.000    0.000    0.000 
#
# Total GULP energy -133982.902123 kJ/mol
# GULP energy per Si atom -5582.620922 kJ/mol
# Density = 2.068446 g / cm^3
# Si number density = 20.731650 Si / 1000 Ang^3
#
#
#
# Elastic Constant Matrix: (Units=GPa)
#
#
# Indices 1 2 3 4 5 6 
#
# 1 136.0692 -11.2899 43.3872 -0.0086 2.0510 0.0348
# 2 -11.2899 55.3268 0.6735 0.0064 -6.2654 -0.0372
# 3 43.3872 0.6735 93.6617 0.0050 4.2661 0.0136
# 4 -0.0086 0.0064 0.0050 6.3201 0.0011 9.1589
# 5 2.0510 -6.2654 4.2661 0.0011 37.9694 -0.0089
# 6 0.0348 -0.0372 0.0136 9.1589 -0.0089 24.0750
#
#
#
# Elastic Compliance Matrix: (Units=1/GPa)
#
#
# Indices 1 2 3 4 5 6 
#
# 1 0.008811 0.001881 -0.004109 0.000053 0.000296 -0.000028
# 2 0.001881 0.018827 -0.001150 -0.000127 0.003134 0.000077
# 3 -0.004109 -0.001150 0.012651 -0.000020 -0.001389 0.000004
# 4 0.000053 -0.000127 -0.000020 0.352635 -0.000063 -0.134154
# 5 0.000296 0.003134 -0.001389 -0.000063 0.026994 0.000039
# 6 -0.000028 0.000077 0.000004 -0.134154 0.000039 0.092573
#
#
# Mechanical properties :
#
#
# Convention : Reuss Voigt Hill
#
# Bulk Modulus (GPa) = 29.81850 38.95547 34.38699
# Shear Modulus (GPa) = 9.42641 30.49202 19.95921
#
# Velocity S-wave (km/s) = 2.13465 3.83926 3.10617
# Velocity P-wave (km/s) = 4.52658 6.20357 5.43021
#
# Compressibility (1/GPa) = 0.03353622
#
# Stress axis : x y z
#
# Youngs Moduli (GPa) = 113.49564 53.11417 79.04212
#
# Poissons Ratio (x) = -0.09993 0.32475
# Poissons Ratio (y) = -0.21354 0.09088
# Poissons Ratio (z) = 0.46630 0.06107
#
# Static dielectric constant tensor:
#      x y z
#    x 1.731230 0.000000 -0.021610 
#    y 0.000000 1.787790 0.000000 
#    z -0.021610 0.000000 1.717730 
# 
# From -- ./inp_files/244762.got.cif
#   From: 2010.05.17/outbox.cif.g08.bks.cpg/sg12_123_cif.got.tgz:244762.got - 2010.06.03 13:09:07.
