data_PCOD9175278
_publ_section_title
;
Structure prediction by ZEFSAII (Michael W. Deem and Ramdas Pophale) SiO2 
 PCOD9175278
Probable space group: C 2/M
;
_chemical_formula_sum "Si O2"
_cell_formula_units_Z 40
_cell_length_a 27.238668
_cell_length_b 15.394407
_cell_length_c 15.566346
_cell_angle_alpha 90.000000
_cell_angle_beta 16.833578
_cell_angle_gamma 90.000000
_cell_volume 1890.267389
_symmetry_space_group_name_H-M "C 2/M"
_symmetry_group_IT_number 12
_symmetry_cell_setting 'monoclinic'
loop_
_space_group_symop_operation_xyz
x,y,z
-x,y,-z
-x,-y,-z
x,-y,z
1/2+x,1/2+y,z
1/2-x,1/2+y,-z
1/2-x,1/2-y,-z
1/2+x,1/2-y,z
loop_
_atom_site_type_symbol
_atom_site_label
_atom_site_fract_x
_atom_site_fract_y
_atom_site_fract_z
Si Si1 0.723210 0.404253 0.172701
Si Si2 0.294390 0.101923 0.854159
Si Si3 0.777374 0.766013 0.169434
Si Si4 0.415047 0.808569 0.234086
Si Si5 0.118723 0.408361 0.555069
O O1 0.645835 0.500000 0.320898
O O2 0.674854 0.319277 0.308385
O O3 0.726467 0.387130 0.065158
O O4 0.921335 0.412796 0.863500
O O5 0.500000 0.116631 0.500000
O O6 0.204333 0.170627 0.942922
O O7 0.268911 0.000000 0.874292
O O8 0.685795 0.826113 0.391990
O O9 0.947994 0.736675 0.932098
O O10 0.250000 0.750000 0.500000
O O11 0.362103 0.893439 0.375856
O O12 0.500000 0.824633 0.000000
O O13 0.198317 0.500000 0.394665
#
# Coordination Sequence:
#
# PCOD9175278 Si02
#       5
#     8   8   8   8   8
#     4   9  19  34  55  87 124 162 203 248 304 375
#     4  10  18  32  57  91 127 164 207 254 308 378
#     4  11  20  34  62  89 122 161 214 256 310 373
#     4  11  23  42  62  88 124 165 213 269 324 371
#     4  10  20  37  63  93 121 158 207 258 310 378
#
# _framework density 21.161027000000001
#
# number of rings (size 3 to 8) (size 9 to 14) (size 15 to 20)
#    0.000    1.800    4.000    1.200    0.000    0.400 
#    0.000    3.000    0.000   10.200    0.000    0.000 
#    0.000    0.000    0.000    0.000    0.000    0.000 
#
# Total GULP energy -111570.846549 kJ/mol
# GULP energy per Si atom -5578.542327 kJ/mol
# Density = 2.111286 g / cm^3
# Si number density = 21.161027 Si / 1000 Ang^3
#
#
#
# Elastic Constant Matrix: (Units=GPa)
#
#
# Indices 1 2 3 4 5 6 
#
# 1 141.4379 71.5551 25.2204 0.0003 18.3440 -0.0012
# 2 71.5551 163.3611 43.3934 0.0011 18.0417 -0.0014
# 3 25.2204 43.3934 45.8031 0.0012 13.1578 0.0005
# 4 0.0003 0.0011 0.0012 20.8620 -0.0002 -5.1342
# 5 18.3440 18.0417 13.1578 -0.0002 39.1336 0.0011
# 6 -0.0012 -0.0014 0.0005 -5.1342 0.0011 -34.7689
#
#
#
# Elastic Compliance Matrix: (Units=1/GPa)
#
#
# Indices 1 2 3 4 5 6 
#
# 1 0.009372 -0.003545 -0.001117 0.000000 -0.002383 0.000000
# 2 -0.003545 0.009580 -0.007010 0.000000 -0.000398 0.000000
# 3 -0.001117 -0.007010 0.031005 -0.000001 -0.006669 0.000001
# 4 0.000000 0.000000 -0.000001 0.046253 0.000001 -0.006830
# 5 -0.002383 -0.000398 -0.006669 0.000001 0.029096 0.000001
# 6 0.000000 0.000000 0.000001 -0.006830 0.000001 -0.027753
#
#
# Mechanical properties :
#
#
# Convention : Reuss Voigt Hill
#
# Bulk Modulus (GPa) = 37.57635 70.10444 53.84039
# Shear Modulus (GPa) = 38.53000 19.07424 28.80212
#
# Velocity S-wave (km/s) = 4.27171 3.00556 3.69330
# Velocity P-wave (km/s) = 6.49045 6.72648 6.60952
#
# Compressibility (1/GPa) = 0.02661248
#
# Stress axis : x y z
#
# Youngs Moduli (GPa) = 106.69980 104.38167 32.25325
#
# Poissons Ratio (x) = 0.37005 0.03604
# Poissons Ratio (y) = 0.37827 0.22609
# Poissons Ratio (z) = 0.11921 0.73169
#
# Static dielectric constant tensor:
#      x y z
#    x 1.775130 0.000000 0.017560 
#    y 0.000000 1.836000 0.000000 
#    z 0.017560 0.000000 1.797370 
# 
# From -- ./inp_files/129309.got.cif
#   From: 2010.05.17/outbox.cif.g08.bks.cpg/sg12_65_cif.got.tgz:129309.got - 2010.06.03 13:09:07.
