data_PCOD9175113
_publ_section_title
;
Structure prediction by ZEFSAII (Michael W. Deem and Ramdas Pophale) SiO2 
 PCOD9175113
Probable space group: C 2/M
;
_chemical_formula_sum "Si O2"
_cell_formula_units_Z 40
_cell_length_a 21.681875
_cell_length_b 19.318008
_cell_length_c 11.515257
_cell_angle_alpha 90.000000
_cell_angle_beta 28.933280
_cell_angle_gamma 90.000000
_cell_volume 2333.406636
_symmetry_space_group_name_H-M "C 2/M"
_symmetry_group_IT_number 12
_symmetry_cell_setting 'monoclinic'
loop_
_space_group_symop_operation_xyz
x,y,z
-x,y,-z
-x,-y,-z
x,-y,z
1/2+x,1/2+y,z
1/2-x,1/2+y,-z
1/2-x,1/2-y,-z
1/2+x,1/2-y,z
loop_
_atom_site_type_symbol
_atom_site_label
_atom_site_fract_x
_atom_site_fract_y
_atom_site_fract_z
Si Si1 0.389463 0.670882 0.088621
Si Si2 0.539267 0.581871 0.247339
Si Si3 0.182048 0.325507 0.597642
Si Si4 0.385548 0.175867 0.035488
Si Si5 0.791013 0.082336 0.813042
O O1 0.275056 0.638159 0.352525
O O2 0.346456 0.743312 0.101337
O O3 0.500000 0.687534 0.000000
O O4 0.443836 0.623189 0.898423
O O5 0.542135 0.500000 0.220297
O O6 0.407077 0.596558 0.531899
O O7 0.651802 0.597458 0.154078
O O8 0.250000 0.250000 0.500000
O O9 0.165236 0.353145 0.756319
O O10 0.039021 0.322896 0.784154
O O11 0.324918 0.130369 0.034633
O O12 0.762383 0.000000 0.854267
#
# Coordination Sequence:
#
# PCOD9175113 Si02
#       5
#     8   8   8   8   8
#     4  11  19  31  56  80 107 138 174 224 268 313
#     4   9  20  37  55  78 106 143 183 220 264 312
#     4   9  17  32  48  80 109 139 165 215 272 318
#     4  10  18  32  56  77 106 141 178 213 266 322
#     4   9  19  37  57  75 106 145 182 220 260 314
#
# _framework density 17.142318
#
# number of rings (size 3 to 8) (size 9 to 14) (size 15 to 20)
#    0.000    2.400    4.000    2.400    2.800    1.200 
#    0.000    5.000    0.000    2.400    0.000    0.000 
#    0.000    0.000    0.000    0.000    0.000    0.000 
#
# Total GULP energy -111377.661735 kJ/mol
# GULP energy per Si atom -5568.883087 kJ/mol
# Density = 1.710330 g / cm^3
# Si number density = 17.142318 Si / 1000 Ang^3
#
#
#
# Elastic Constant Matrix: (Units=GPa)
#
#
# Indices 1 2 3 4 5 6 
#
# 1 76.6591 43.7308 21.9299 -0.0008 -13.1697 0.0002
# 2 43.7308 36.3057 16.9949 0.0000 -5.2236 0.0000
# 3 21.9299 16.9949 59.0131 -0.0009 -2.3488 0.0003
# 4 -0.0008 0.0000 -0.0009 996.3601 0.0011 -295.1220
# 5 -13.1697 -5.2236 -2.3488 0.0011 31.9470 -0.0003
# 6 0.0002 0.0000 0.0003 -295.1220 -0.0003 118.9944
#
#
#
# Elastic Compliance Matrix: (Units=1/GPa)
#
#
# Indices 1 2 3 4 5 6 
#
# 1 0.044593 -0.051692 -0.001293 0.000000 0.009835 0.000000
# 2 -0.051692 0.092429 -0.007678 0.000000 -0.006761 0.000000
# 3 -0.001293 -0.007678 0.019623 0.000000 -0.000346 0.000000
# 4 0.000000 0.000000 0.000000 0.003782 0.000000 0.009380
# 5 0.009835 -0.006761 -0.000346 0.000000 0.034226 0.000000
# 6 0.000000 0.000000 0.000000 0.009380 0.000000 0.031666
#
#
# Mechanical properties :
#
#
# Convention : Reuss Voigt Hill
#
# Bulk Modulus (GPa) = 28.31354 37.47656 32.89505
# Shear Modulus (GPa) = 13.91137 235.41510 124.66324
#
# Velocity S-wave (km/s) = 2.85181 11.73149 8.53700
# Velocity P-wave (km/s) = 5.23416 14.33225 10.78911
#
# Compressibility (1/GPa) = 0.03531879
#
# Stress axis : x y z
#
# Youngs Moduli (GPa) = 22.42529 10.81908 50.95985
#
# Poissons Ratio (x) = 0.55926 0.06589
# Poissons Ratio (y) = 1.15921 0.39127
# Poissons Ratio (z) = 0.02900 0.08307
#
# Static dielectric constant tensor:
#      x y z
#    x 1.576320 0.000000 0.001750 
#    y 0.000000 1.576800 0.000000 
#    z 0.001750 0.000000 1.621010 
# 
# From -- ./inp_files/130534.got.cif
#   From: 2010.05.17/outbox.cif.g08.bks.cpg/sg12_66_cif.got.tgz:130534.got - 2010.06.03 13:09:07.
