data_PCOD9175217
_publ_section_title
;
Structure prediction by ZEFSAII (Michael W. Deem and Ramdas Pophale) SiO2 
 PCOD9175217
Probable space group: C 2/M
;
_chemical_formula_sum "Si O2"
_cell_formula_units_Z 64
_cell_length_a 15.100939
_cell_length_b 7.543959
_cell_length_c 25.800744
_cell_angle_alpha 90.000000
_cell_angle_beta 111.941700
_cell_angle_gamma 90.000000
_cell_volume 2726.337662
_symmetry_space_group_name_H-M "C 2/M"
_symmetry_group_IT_number 12
_symmetry_cell_setting 'monoclinic'
loop_
_space_group_symop_operation_xyz
x,y,z
-x,y,-z
-x,-y,-z
x,-y,z
1/2+x,1/2+y,z
1/2-x,1/2+y,-z
1/2-x,1/2-y,-z
1/2+x,1/2-y,z
loop_
_atom_site_type_symbol
_atom_site_label
_atom_site_fract_x
_atom_site_fract_y
_atom_site_fract_z
Si Si1 0.339279 0.712155 0.605508
Si Si2 0.708663 0.796944 0.756815
Si Si3 0.824674 0.717183 0.360902
Si Si4 0.445113 0.294778 0.939016
Si Si5 0.479260 0.716792 0.153641
Si Si6 0.263081 0.701667 0.122450
Si Si7 0.018570 0.711318 0.446600
Si Si8 0.011370 0.215971 0.274475
O O1 0.338559 0.500000 0.607498
O O2 0.235544 0.770620 0.601910
O O3 0.380614 0.759270 0.558725
O O4 0.413049 0.774982 0.666137
O O5 0.725719 0.723380 0.703123
O O6 0.744753 0.706274 0.816654
O O7 0.593387 0.789613 0.735657
O O8 0.743343 0.000000 0.766829
O O9 0.824802 0.500000 0.357580
O O10 0.933097 0.778970 0.391128
O O11 0.475533 0.500000 0.942947
O O12 0.473344 0.219348 0.888983
O O13 0.331311 0.289576 0.920523
O O14 0.500000 0.214252 0.000000
O O15 0.479078 0.500000 0.154292
O O16 0.368133 0.775136 0.132467
O O17 0.530292 0.767250 0.218747
O O18 0.262034 0.500000 0.104119
O O19 0.006520 0.500000 0.446904
O O20 0.000000 0.781958 0.500000
O O21 0.006375 0.000000 0.275278
#
# Coordination Sequence:
#
# PCOD9175217 Si02
#       8
#     8   8   8   8   8   8   8   8
#     4  10  20  34  55  81 108 141 183 224 268 330
#     4  10  18  32  57  81 109 143 180 223 270 327
#     4   9  19  34  54  81 109 144 181 218 276 336
#     4  10  21  37  58  83 109 144 192 233 267 323
#     4   8  17  34  54  76 109 146 177 216 275 334
#     4  10  21  37  55  79 111 147 182 222 278 332
#     4  10  21  39  58  77 110 151 187 228 275 321
#     4   9  17  31  53  78 108 142 174 216 274 329
#
# _framework density 23.474716000000001
#
# number of rings (size 3 to 8) (size 9 to 14) (size 15 to 20)
#    0.000    2.500    1.250    1.500    1.750    1.500 
#    0.000    5.000    0.000    0.000    0.000    0.000 
#    0.000    0.000    0.000    0.000    0.000    0.000 
#
# Total GULP energy -178682.586667 kJ/mol
# GULP energy per Si atom -5583.830833 kJ/mol
# Density = 2.342129 g / cm^3
# Si number density = 23.474716 Si / 1000 Ang^3
#
#
#
# Elastic Constant Matrix: (Units=GPa)
#
#
# Indices 1 2 3 4 5 6 
#
# 1 65.3203 -5.1520 1.1668 0.0000 -15.3237 0.0000
# 2 -5.1520 52.4840 4.1476 0.0000 -1.4243 0.0000
# 3 1.1668 4.1476 34.6175 0.0000 -12.3082 0.0000
# 4 0.0000 0.0000 0.0000 6.4497 0.0000 4.8972
# 5 -15.3237 -1.4243 -12.3082 0.0000 29.3730 0.0000
# 6 0.0000 0.0000 0.0000 4.8972 0.0000 10.7447
#
#
#
# Elastic Compliance Matrix: (Units=1/GPa)
#
#
# Indices 1 2 3 4 5 6 
#
# 1 0.017903 0.001812 0.002975 0.000000 0.010674 0.000000
# 2 0.001812 0.019419 -0.002017 0.000000 0.001042 0.000000
# 3 0.002975 -0.002017 0.034718 0.000000 0.016002 0.000000
# 4 0.000000 0.000000 0.000000 0.237096 0.000000 -0.108064
# 5 0.010674 0.001042 0.016002 0.000000 0.046369 0.000000
# 6 0.000000 0.000000 0.000000 -0.108064 0.000000 0.142323
#
#
# Mechanical properties :
#
#
# Convention : Reuss Voigt Hill
#
# Bulk Modulus (GPa) = 12.89012 16.97182 14.93097
# Shear Modulus (GPa) = 9.64973 19.46410 14.55691
#
# Velocity S-wave (km/s) = 2.02968 2.88262 2.49290
# Velocity P-wave (km/s) = 3.31599 4.28076 3.82888
#
# Compressibility (1/GPa) = 0.07757881
#
# Stress axis : x y z
#
# Youngs Moduli (GPa) = 55.85635 51.49593 28.80352
#
# Poissons Ratio (x) = -0.09331 -0.08568
# Poissons Ratio (y) = -0.10121 0.05811
# Poissons Ratio (z) = -0.16615 0.10388
#
# Static dielectric constant tensor:
#      x y z
#    x 1.882720 0.000000 -0.025840 
#    y 0.000000 1.909490 0.000000 
#    z -0.025840 0.000000 1.891210 
# 
# From -- ./inp_files/359747.got.cif
#   From: 2010.05.17/outbox.cif.g08.bks.cpg/sg12_180_cif.got.tgz:359747.got - 2010.06.03 13:09:07.
