data_PCOD9175999
_publ_section_title
;
Structure prediction by ZEFSAII (Michael W. Deem and Ramdas Pophale) SiO2 
 PCOD9175999
Probable space group: C 2/M
;
_chemical_formula_sum "Si O2"
_cell_formula_units_Z 42
_cell_length_a 10.627751
_cell_length_b 15.850692
_cell_length_c 16.508683
_cell_angle_alpha 90.000000
_cell_angle_beta 131.481294
_cell_angle_gamma 90.000000
_cell_volume 2083.452347
_symmetry_space_group_name_H-M "C 2/M"
_symmetry_group_IT_number 12
_symmetry_cell_setting 'monoclinic'
loop_
_space_group_symop_operation_xyz
x,y,z
-x,y,-z
-x,-y,-z
x,-y,z
1/2+x,1/2+y,z
1/2-x,1/2+y,-z
1/2-x,1/2-y,-z
1/2+x,1/2-y,z
loop_
_atom_site_type_symbol
_atom_site_label
_atom_site_fract_x
_atom_site_fract_y
_atom_site_fract_z
Si Si1 0.500000 0.500000 0.000000
Si Si2 0.311700 0.099534 0.428858
Si Si3 0.064631 0.710874 0.935647
Si Si4 0.834185 0.136730 0.806197
Si Si5 0.518989 0.899993 0.772590
Si Si6 0.325911 0.397176 0.461419
O O1 0.559353 0.573454 0.091452
O O2 0.500000 0.135371 0.500000
O O3 0.210575 0.106008 0.302547
O O4 0.215347 0.134298 0.465928
O O5 0.334508 0.000000 0.456277
O O6 0.051202 0.625416 0.878643
O O7 0.935809 0.777443 0.842655
O O8 0.250000 0.750000 0.000000
O O9 0.000000 0.700746 0.000000
O O10 0.657574 0.146584 0.777592
O O11 0.333242 0.878722 0.663252
O O12 0.547169 0.000000 0.772442
O O13 0.500000 0.364541 0.500000
O O14 0.338820 0.500000 0.469467
#
# Coordination Sequence:
#
# PCOD9175999 Si02
#       6
#     2   8   8   8   8   8
#     4  12  20  36  66 104 124 168 232 278 308 382
#     4  10  18  33  64 100 127 168 228 278 323 399
#     4  12  26  45  65  97 139 178 221 286 343 392
#     4  12  22  40  68 101 133 170 229 278 332 388
#     4  11  22  43  72  96 132 180 224 272 337 405
#     4   9  19  36  61  96 134 169 211 271 341 391
#
# _framework density 20.158847999999999
#
# number of rings (size 3 to 8) (size 9 to 14) (size 15 to 20)
#    0.000    1.143    6.667    0.000    0.000    1.905 
#    0.000    1.905    0.000    0.000    0.000    0.000 
#    0.000    0.000    0.000    0.000    0.000    0.000 
#
# Total GULP energy -116984.482840 kJ/mol
# GULP energy per Si atom -5570.689659 kJ/mol
# Density = 2.011297 g / cm^3
# Si number density = 20.158848 Si / 1000 Ang^3
#
#
#
# Elastic Constant Matrix: (Units=GPa)
#
#
# Indices 1 2 3 4 5 6 
#
# 1 174.0300 8.8024 68.1790 0.0000 -2.6792 0.0000
# 2 8.8024 13.8619 5.1787 0.0000 12.6568 0.0000
# 3 68.1790 5.1787 124.9592 0.0000 -14.1141 0.0000
# 4 0.0000 0.0000 0.0000 26.5173 0.0000 3.1961
# 5 -2.6792 12.6568 -14.1141 0.0000 35.8157 0.0000
# 6 0.0000 0.0000 0.0000 3.1961 0.0000 13.0182
#
#
#
# Elastic Compliance Matrix: (Units=1/GPa)
#
#
# Indices 1 2 3 4 5 6 
#
# 1 0.007452 -0.003527 -0.003889 0.000000 0.000271 0.000000
# 2 -0.003527 0.118992 -0.008149 0.000000 -0.045525 0.000000
# 3 -0.003889 -0.008149 0.011256 0.000000 0.007024 0.000000
# 4 0.000000 0.000000 0.000000 0.038861 0.000000 -0.009541
# 5 0.000271 -0.045525 0.007024 0.000000 0.046797 0.000000
# 6 0.000000 0.000000 0.000000 -0.009541 0.000000 0.079158
#
#
# Mechanical properties :
#
#
# Convention : Reuss Voigt Hill
#
# Bulk Modulus (GPa) = 9.38357 53.01905 31.20131
# Shear Modulus (GPa) = 13.54390 30.44964 21.99677
#
# Velocity S-wave (km/s) = 2.59484 3.89071 3.30687
# Velocity P-wave (km/s) = 3.69357 6.82212 5.48561
#
# Compressibility (1/GPa) = 0.10656922
#
# Stress axis : x y z
#
# Youngs Moduli (GPa) = 134.18492 8.40394 88.84309
#
# Poissons Ratio (x) = 0.02964 0.34554
# Poissons Ratio (y) = 0.47326 0.72399
# Poissons Ratio (z) = 0.52189 0.06848
#
# Static dielectric constant tensor:
#      x y z
#    x 1.730930 0.000000 0.003990 
#    y 0.000000 1.745050 0.000000 
#    z 0.003990 0.000000 1.705180 
# 
# From -- ./inp_files/196083.got.cif
#   From: 2010.05.17/outbox.cif.g08.bks.cpg/sg12_99_cif.got.tgz:196083.got - 2010.06.03 13:09:07.
