data_PCOD9175186
_publ_section_title
;
Structure prediction by ZEFSAII (Michael W. Deem and Ramdas Pophale) SiO2 
 PCOD9175186
Probable space group: C 2/M
;
_chemical_formula_sum "Si O2"
_cell_formula_units_Z 48
_cell_length_a 16.285505
_cell_length_b 21.166560
_cell_length_c 14.056310
_cell_angle_alpha 90.000000
_cell_angle_beta 32.873030
_cell_angle_gamma 90.000000
_cell_volume 2629.941024
_symmetry_space_group_name_H-M "C 2/M"
_symmetry_group_IT_number 12
_symmetry_cell_setting 'monoclinic'
loop_
_space_group_symop_operation_xyz
x,y,z
-x,y,-z
-x,-y,-z
x,-y,z
1/2+x,1/2+y,z
1/2-x,1/2+y,-z
1/2-x,1/2-y,-z
1/2+x,1/2-y,z
loop_
_atom_site_type_symbol
_atom_site_label
_atom_site_fract_x
_atom_site_fract_y
_atom_site_fract_z
Si Si1 0.556610 0.872387 0.657332
Si Si2 0.236030 0.926044 0.916603
Si Si3 0.422652 0.795810 0.177350
Si Si4 0.891803 0.201093 0.875675
Si Si5 0.335947 0.074910 0.619468
Si Si6 0.572486 0.259910 0.531918
O O1 0.411304 0.916343 0.779008
O O2 0.568373 0.854252 0.756267
O O3 0.689854 0.901829 0.462547
O O4 0.544451 0.804988 0.616256
O O5 0.225178 0.910480 0.814077
O O6 0.194484 0.000000 0.971442
O O7 0.154600 0.868682 0.047832
O O8 0.508639 0.736702 0.142022
O O9 0.247102 0.776430 0.346694
O O10 0.500000 0.808711 0.000000
O O11 0.985112 0.193310 0.687358
O O12 0.750000 0.250000 0.000000
O O13 0.500000 0.098184 0.500000
O O14 0.345675 0.000000 0.606134
O O15 0.500000 0.256207 0.500000
#
# Coordination Sequence:
#
# PCOD9175186 Si02
#       6
#     8   8   8   8   8   8
#     4  10  18  32  56  85 122 149 198 233 298 342
#     4  10  19  33  60  93 124 158 194 236 296 366
#     4  11  24  36  56  90 123 155 204 253 295 349
#     4  11  20  37  59  92 122 158 193 243 301 356
#     4   8  15  27  49  82 116 153 187 228 283 346
#     4  11  22  36  59  87 117 156 200 253 300 349
#
# _framework density 18.251359999999998
#
# number of rings (size 3 to 8) (size 9 to 14) (size 15 to 20)
#    0.000    1.833    3.333    6.000    2.333    0.000 
#    0.000    0.000    0.000   11.000    0.000    0.000 
#    0.000    0.000    0.000    0.000    0.000    0.000 
#
# Total GULP energy -133603.569325 kJ/mol
# GULP energy per Si atom -5566.815389 kJ/mol
# Density = 1.820982 g / cm^3
# Si number density = 18.251360 Si / 1000 Ang^3
#
#
#
# Elastic Constant Matrix: (Units=GPa)
#
#
# Indices 1 2 3 4 5 6 
#
# 1 91.8244 17.7603 61.2084 -0.0053 24.5446 0.0032
# 2 17.7603 79.3542 56.9770 -0.0082 19.9535 0.0043
# 3 61.2084 56.9770 129.2467 -0.0114 25.7545 0.0060
# 4 -0.0053 -0.0082 -0.0114 33.5880 0.0062 8.3122
# 5 24.5446 19.9535 25.7545 0.0062 39.7829 -0.0027
# 6 0.0032 0.0043 0.0060 8.3122 -0.0027 9.4614
#
#
#
# Elastic Compliance Matrix: (Units=1/GPa)
#
#
# Indices 1 2 3 4 5 6 
#
# 1 0.018005 0.004246 -0.008910 0.000004 -0.007470 -0.000008
# 2 0.004246 0.020194 -0.009613 0.000007 -0.006525 -0.000012
# 3 -0.008910 -0.009613 0.016232 0.000003 -0.000190 -0.000006
# 4 0.000004 0.000007 0.000003 0.038044 -0.000016 -0.033423
# 5 -0.007470 -0.006525 -0.000190 -0.000016 0.033141 0.000029
# 6 -0.000008 -0.000012 -0.000006 -0.033423 0.000029 0.135057
#
#
# Mechanical properties :
#
#
# Convention : Reuss Voigt Hill
#
# Bulk Modulus (GPa) = 38.64332 63.59075 51.11704
# Shear Modulus (GPa) = 16.78675 27.53177 22.15926
#
# Velocity S-wave (km/s) = 3.03603 3.88813 3.48820
# Velocity P-wave (km/s) = 5.78868 7.42119 6.65518
#
# Compressibility (1/GPa) = 0.02587769
#
# Stress axis : x y z
#
# Youngs Moduli (GPa) = 55.53960 49.51853 61.60483
#
# Poissons Ratio (x) = -0.21026 0.54891
# Poissons Ratio (y) = -0.23583 0.59222
# Poissons Ratio (z) = 0.49487 0.47603
#
# Static dielectric constant tensor:
#      x y z
#    x 1.677680 0.000000 -0.010080 
#    y 0.000000 1.667760 0.000020 
#    z -0.010080 0.000020 1.760480 
# 
# From -- ./inp_files/227230.got.cif
#   From: 2010.05.17/outbox.cif.g08.bks.cpg/sg12_114_cif.got.tgz:227230.got - 2010.06.03 13:09:07.
