data_PCOD9175644
_publ_section_title
;
Structure prediction by ZEFSAII (Michael W. Deem and Ramdas Pophale) SiO2 
 PCOD9175644
Probable space group: C 2/M
;
_chemical_formula_sum "Si O2"
_cell_formula_units_Z 40
_cell_length_a 23.864813
_cell_length_b 15.549738
_cell_length_c 13.968937
_cell_angle_alpha 90.000000
_cell_angle_beta 159.051318
_cell_angle_gamma 90.000000
_cell_volume 1853.356376
_symmetry_space_group_name_H-M "C 2/M"
_symmetry_group_IT_number 12
_symmetry_cell_setting 'monoclinic'
loop_
_space_group_symop_operation_xyz
x,y,z
-x,y,-z
-x,-y,-z
x,-y,z
1/2+x,1/2+y,z
1/2-x,1/2+y,-z
1/2-x,1/2-y,-z
1/2+x,1/2-y,z
loop_
_atom_site_type_symbol
_atom_site_label
_atom_site_fract_x
_atom_site_fract_y
_atom_site_fract_z
Si Si1 0.820097 0.500000 0.251296
Si Si2 0.557021 0.500000 0.979122
Si Si3 0.883559 0.670201 0.883651
Si Si4 0.121369 0.144047 0.831487
Si Si5 0.453793 0.686029 0.739036
Si Si6 0.791782 0.904136 0.220921
O O1 0.000000 0.500000 0.500000
O O2 0.742128 0.500000 0.236258
O O3 0.741631 0.583678 0.078754
O O4 0.485704 0.586928 0.819046
O O5 0.500000 0.500000 0.000000
O O6 0.726801 0.696078 0.576844
O O7 0.830416 0.619274 0.892650
O O8 0.000000 0.619676 0.000000
O O9 0.980012 0.752615 0.074031
O O10 0.196665 0.162978 0.848515
O O11 0.052275 0.207740 0.799921
O O12 0.961023 0.096326 0.542610
O O13 0.761907 0.000000 0.134533
#
# Coordination Sequence:
#
# PCOD9175644 Si02
#       6
#     4   4   8   8   8   8
#     4  10  18  33  55  91 123 163 198 262 312 378
#     4  10  22  44  70  93 124 178 223 258 324 400
#     4  11  24  41  62  92 132 168 210 267 324 377
#     4   9  17  36  61  86 118 162 205 252 321 376
#     4  10  23  43  69  88 128 171 213 264 322 385
#     4  10  18  35  65  88 121 163 209 257 317 379
#
# _framework density 21.582466
#
# number of rings (size 3 to 8) (size 9 to 14) (size 15 to 20)
#    0.000    2.000    2.000    1.800    4.200    1.200 
#   10.800    0.000    4.400    0.000    0.000    0.000 
#    0.000    0.000    0.000    0.000    0.000    0.000 
#
# Total GULP energy -111396.613571 kJ/mol
# GULP energy per Si atom -5569.830679 kJ/mol
# Density = 2.153334 g / cm^3
# Si number density = 21.582466 Si / 1000 Ang^3
#
#
#
# Elastic Constant Matrix: (Units=GPa)
#
#
# Indices 1 2 3 4 5 6 
#
# 1 206.0966 19.3933 70.3904 0.0000 36.5639 0.0000
# 2 19.3933 24.3852 14.6717 0.0000 5.1608 0.0000
# 3 70.3904 14.6717 106.0787 0.0000 26.7456 0.0000
# 4 0.0000 0.0000 0.0000 3.7474 0.0000 1.8914
# 5 36.5639 5.1608 26.7456 0.0000 42.8431 0.0000
# 6 0.0000 0.0000 0.0000 1.8914 0.0000 22.4150
#
#
#
# Elastic Compliance Matrix: (Units=1/GPa)
#
#
# Indices 1 2 3 4 5 6 
#
# 1 0.006848 -0.002732 -0.003294 0.000000 -0.003459 0.000000
# 2 -0.002732 0.045940 -0.004431 0.000000 -0.000436 0.000000
# 3 -0.003294 -0.004431 0.013508 0.000000 -0.005088 0.000000
# 4 0.000000 0.000000 0.000000 0.278725 0.000000 -0.023519
# 5 -0.003459 -0.000436 -0.005088 0.000000 0.029521 0.000000
# 6 0.000000 0.000000 0.000000 -0.023519 0.000000 0.046598
#
#
# Mechanical properties :
#
#
# Convention : Reuss Voigt Hill
#
# Bulk Modulus (GPa) = 22.03548 60.60795 41.32172
# Shear Modulus (GPa) = 10.93658 29.27476 20.10567
#
# Velocity S-wave (km/s) = 2.25352 3.68695 3.05548
# Velocity P-wave (km/s) = 4.12349 6.80204 5.62454
#
# Compressibility (1/GPa) = 0.04538135
#
# Stress axis : x y z
#
# Youngs Moduli (GPa) = 146.03094 21.76774 74.02758
#
# Poissons Ratio (x) = 0.05947 0.24385
# Poissons Ratio (y) = 0.39897 0.32802
# Poissons Ratio (z) = 0.48104 0.09645
#
# Static dielectric constant tensor:
#      x y z
#    x 1.894290 0.000000 0.034100 
#    y 0.000000 1.789070 0.000000 
#    z 0.034100 0.000000 1.753340 
# 
# From -- ./inp_files/241349.got.cif
#   From: 2010.05.17/outbox.cif.g08.bks.cpg/sg12_121_cif.got.tgz:241349.got - 2010.06.03 13:09:07.
