data_PCOD9175572
_publ_section_title
;
Structure prediction by ZEFSAII (Michael W. Deem and Ramdas Pophale) SiO2 
 PCOD9175572
Probable space group: C 2/M
;
_chemical_formula_sum "Si O2"
_cell_formula_units_Z 48
_cell_length_a 18.928601
_cell_length_b 14.377794
_cell_length_c 17.181333
_cell_angle_alpha 90.000000
_cell_angle_beta 149.363313
_cell_angle_gamma 90.000000
_cell_volume 2382.816593
_symmetry_space_group_name_H-M "C 2/M"
_symmetry_group_IT_number 12
_symmetry_cell_setting 'monoclinic'
loop_
_space_group_symop_operation_xyz
x,y,z
-x,y,-z
-x,-y,-z
x,-y,z
1/2+x,1/2+y,z
1/2-x,1/2+y,-z
1/2-x,1/2-y,-z
1/2+x,1/2-y,z
loop_
_atom_site_type_symbol
_atom_site_label
_atom_site_fract_x
_atom_site_fract_y
_atom_site_fract_z
Si Si1 0.380295 0.000000 0.452289
Si Si2 0.777852 0.297738 0.181054
Si Si3 0.625720 0.000000 0.785345
Si Si4 0.815166 0.000000 0.094886
Si Si5 0.300419 0.315819 0.724260
Si Si6 0.439220 0.704573 0.583041
Si Si7 0.994929 0.000000 0.401814
Si Si8 0.556014 0.312891 0.855823
O O1 0.500000 0.000000 0.500000
O O2 0.464401 0.000000 0.612656
O O3 0.285238 0.911069 0.355366
O O4 0.810648 0.406303 0.192921
O O5 0.693042 0.285938 0.179814
O O6 0.924521 0.246314 0.330581
O O7 0.686371 0.262791 0.021075
O O8 0.663997 0.000000 0.912718
O O9 0.844603 0.000000 0.214925
O O10 0.888595 0.909427 0.127737
O O11 0.201508 0.247347 0.581912
O O12 0.445339 0.329001 0.818961
O O13 0.436192 0.594457 0.564438
O O14 0.474983 0.731477 0.706251
O O15 0.000000 0.000000 0.500000
#
# Coordination Sequence:
#
# PCOD9175572 Si02
#       8
#     4   8   4   4   8   8   4   8
#     4  12  19  33  54  89 119 149 181 218 269 340
#     4  11  20  36  58  83 112 148 184 225 273 341
#     4  10  18  33  54  85 117 145 175 218 266 347
#     4   8  19  35  53  77 116 149 181 215 279 329
#     4  12  21  34  57  86 116 145 182 226 280 337
#     4  11  22  38  58  78 107 148 193 234 277 327
#     4  10  20  37  58  80  99 135 197 247 271 303
#     4  10  22  36  53  82 117 148 180 228 284 333
#
# _framework density 20.144227000000001
#
# number of rings (size 3 to 8) (size 9 to 14) (size 15 to 20)
#    0.000    1.333    3.333    3.500    0.000    0.000 
#    0.000    3.333    0.000    1.000    0.000    3.500 
#    0.000    0.000    0.000    0.000    0.000    0.000 
#
# Total GULP energy -133932.922741 kJ/mol
# GULP energy per Si atom -5580.538448 kJ/mol
# Density = 2.009838 g / cm^3
# Si number density = 20.144227 Si / 1000 Ang^3
#
#
#
# Elastic Constant Matrix: (Units=GPa)
#
#
# Indices 1 2 3 4 5 6 
#
# 1 78.6209 -12.8375 22.5852 0.0003 -14.8845 -0.0001
# 2 -12.8375 67.2216 7.1286 0.0003 -0.1824 -0.0002
# 3 22.5852 7.1286 101.6717 0.0008 -31.4935 -0.0004
# 4 0.0003 0.0003 0.0008 -160.7800 0.0003 102.1572
# 5 -14.8845 -0.1824 -31.4935 0.0003 44.5719 -0.0002
# 6 -0.0001 -0.0002 -0.0004 102.1572 -0.0002 -52.8927
#
#
#
# Elastic Compliance Matrix: (Units=1/GPa)
#
#
# Indices 1 2 3 4 5 6 
#
# 1 0.014516 0.003043 -0.002474 0.000000 0.003112 0.000000
# 2 0.003043 0.015652 -0.001842 0.000000 -0.000221 0.000000
# 3 -0.002474 -0.001842 0.013130 0.000000 0.008443 0.000000
# 4 0.000000 0.000000 0.000000 0.027377 0.000000 0.052876
# 5 0.003112 -0.000221 0.008443 0.000000 0.029440 0.000000
# 6 0.000000 0.000000 0.000000 0.052876 0.000000 0.083219
#
#
# Mechanical properties :
#
#
# Convention : Reuss Voigt Hill
#
# Bulk Modulus (GPa) = 24.53875 31.25186 27.89531
# Shear Modulus (GPa) = 25.06721 -18.44428 3.31146
#
# Velocity S-wave (km/s) = 3.53141 -3.02919 1.28353
# Velocity P-wave (km/s) = 5.36990 1.82019 4.00930
#
# Compressibility (1/GPa) = 0.04075187
#
# Stress axis : x y z
#
# Youngs Moduli (GPa) = 68.88965 63.88953 76.16321
#
# Poissons Ratio (x) = -0.19441 0.18843
# Poissons Ratio (y) = -0.20963 0.14029
# Poissons Ratio (z) = 0.17043 0.11768
#
# Static dielectric constant tensor:
#      x y z
#    x 1.750790 0.000000 -0.053070 
#    y 0.000000 1.727220 0.000000 
#    z -0.053070 0.000000 1.754730 
# 
# From -- ./inp_files/278289.got.cif
#   From: 2010.05.17/outbox.cif.g08.bks.cpg/sg12_140_cif.got.tgz:278289.got - 2010.06.03 13:09:07.
