data_PCOD9175042
_publ_section_title
;
Structure prediction by ZEFSAII (Michael W. Deem and Ramdas Pophale) SiO2 
 PCOD9175042
Probable space group: C 2/M
;
_chemical_formula_sum "Si O2"
_cell_formula_units_Z 64
_cell_length_a 26.251332
_cell_length_b 12.241227
_cell_length_c 20.071812
_cell_angle_alpha 90.000000
_cell_angle_beta 33.692711
_cell_angle_gamma 90.000000
_cell_volume 3578.089919
_symmetry_space_group_name_H-M "C 2/M"
_symmetry_group_IT_number 12
_symmetry_cell_setting 'monoclinic'
loop_
_space_group_symop_operation_xyz
x,y,z
-x,y,-z
-x,-y,-z
x,-y,z
1/2+x,1/2+y,z
1/2-x,1/2+y,-z
1/2-x,1/2-y,-z
1/2+x,1/2-y,z
loop_
_atom_site_type_symbol
_atom_site_label
_atom_site_fract_x
_atom_site_fract_y
_atom_site_fract_z
Si Si1 0.429245 0.628161 0.181915
Si Si2 0.783235 0.123295 0.235172
Si Si3 0.940842 0.874114 0.413208
Si Si4 0.216598 0.872505 0.176786
Si Si5 0.120455 0.129665 0.143945
Si Si6 0.597450 0.242915 0.412978
Si Si7 0.298205 0.371896 0.452811
Si Si8 0.371512 0.712300 0.012413
O O1 0.455243 0.500000 0.139660
O O2 0.360984 0.672678 0.198977
O O3 0.372765 0.628293 0.312130
O O4 0.521239 0.698751 0.088489
O O5 0.681512 0.170399 0.347350
O O6 0.777581 0.000000 0.264635
O O7 0.819698 0.132592 0.120293
O O8 0.927115 0.820816 0.499085
O O9 0.850351 0.869112 0.466584
O O10 0.024572 0.826581 0.278544
O O11 0.965659 0.000000 0.397627
O O12 0.192813 0.856078 0.124796
O O13 0.141887 0.808247 0.302551
O O14 0.209799 0.000000 0.199040
O O15 0.317451 0.825366 0.082479
O O16 0.142249 0.181449 0.049522
O O17 0.109947 0.000000 0.142602
O O18 0.500000 0.188467 0.500000
O O19 0.256316 0.500000 0.494038
O O20 0.250000 0.250000 0.500000
#
# Coordination Sequence:
#
# PCOD9175042 Si02
#       8
#     8   8   8   8   8   8   8   8
#     4  10  19  35  58  80 106 142 185 231 275 329
#     4  10  22  36  54  82 111 140 178 226 278 331
#     4  10  19  32  55  82 106 137 183 229 271 323
#     4  10  22  36  53  80 111 143 181 227 275 326
#     4  10  18  32  55  80 105 135 176 226 268 316
#     4  11  21  35  57  80 108 145 184 225 274 331
#     4  10  20  35  56  83 113 148 188 235 284 336
#     4  11  20  34  57  81 107 139 183 227 274 327
#
# _framework density 17.886638000000001
#
# number of rings (size 3 to 8) (size 9 to 14) (size 15 to 20)
#    0.000    1.750    2.500    3.000    0.000    1.750 
#    0.000    0.625    0.000    7.500    0.000    0.000 
#    0.000    0.000    0.000    0.000    0.000    0.000 
#
# Total GULP energy -178146.779476 kJ/mol
# GULP energy per Si atom -5567.086859 kJ/mol
# Density = 1.784593 g / cm^3
# Si number density = 17.886638 Si / 1000 Ang^3
#
#
#
# Elastic Constant Matrix: (Units=GPa)
#
#
# Indices 1 2 3 4 5 6 
#
# 1 56.0332 15.2586 21.8421 0.0000 -8.0108 0.0000
# 2 15.2586 48.7597 20.0791 0.0000 -24.3385 0.0000
# 3 21.8421 20.0791 76.3232 0.0000 -12.0155 0.0000
# 4 0.0000 0.0000 0.0000 11.4135 0.0000 7.1451
# 5 -8.0108 -24.3385 -12.0155 0.0000 36.9942 0.0000
# 6 0.0000 0.0000 0.0000 7.1451 0.0000 6.3367
#
#
#
# Elastic Compliance Matrix: (Units=1/GPa)
#
#
# Indices 1 2 3 4 5 6 
#
# 1 0.020964 -0.004612 -0.004794 0.000000 -0.000052 0.000000
# 2 -0.004612 0.033587 -0.004421 0.000000 0.019662 0.000000
# 3 -0.004794 -0.004421 0.015825 0.000000 0.001193 0.000000
# 4 0.000000 0.000000 0.000000 0.297888 0.000000 -0.335888
# 5 -0.000052 0.019662 0.001193 0.000000 0.040344 0.000000
# 6 0.000000 0.000000 0.000000 -0.335888 0.000000 0.536545
#
#
# Mechanical properties :
#
#
# Convention : Reuss Voigt Hill
#
# Bulk Modulus (GPa) = 23.40718 32.83064 28.11891
# Shear Modulus (GPa) = 5.06561 19.21129 12.13845
#
# Velocity S-wave (km/s) = 1.68470 3.28084 2.60788
# Velocity P-wave (km/s) = 4.11085 5.72246 4.98225
#
# Compressibility (1/GPa) = 0.04272193
#
# Stress axis : x y z
#
# Youngs Moduli (GPa) = 47.70106 29.77348 63.19084
#
# Poissons Ratio (x) = 0.13731 0.30295
# Poissons Ratio (y) = 0.21999 0.27935
# Poissons Ratio (z) = 0.22869 0.13162
#
# Static dielectric constant tensor:
#      x y z
#    x 1.646130 0.000000 -0.025260 
#    y 0.000000 1.639300 0.000000 
#    z -0.025260 0.000000 1.618740 
# 
# From -- ./inp_files/175230.got.cif
#   From: 2010.05.17/outbox.cif.g08.bks.cpg/sg12_88_cif.got.tgz:175230.got - 2010.06.03 13:09:07.
