data_PCOD9175989
_publ_section_title
;
Structure prediction by ZEFSAII (Michael W. Deem and Ramdas Pophale) SiO2 
 PCOD9175989
Probable space group: C 2/M
;
_chemical_formula_sum "Si O2"
_cell_formula_units_Z 44
_cell_length_a 12.909801
_cell_length_b 23.976618
_cell_length_c 10.983463
_cell_angle_alpha 90.000000
_cell_angle_beta 36.629010
_cell_angle_gamma 90.000000
_cell_volume 2028.396174
_symmetry_space_group_name_H-M "C 2/M"
_symmetry_group_IT_number 12
_symmetry_cell_setting 'monoclinic'
loop_
_space_group_symop_operation_xyz
x,y,z
-x,y,-z
-x,-y,-z
x,-y,z
1/2+x,1/2+y,z
1/2-x,1/2+y,-z
1/2-x,1/2-y,-z
1/2+x,1/2-y,z
loop_
_atom_site_type_symbol
_atom_site_label
_atom_site_fract_x
_atom_site_fract_y
_atom_site_fract_z
Si Si1 0.129050 0.000000 0.267256
Si Si2 0.000000 0.793609 0.000000
Si Si3 0.341043 0.378720 0.961506
Si Si4 0.844655 0.162189 0.474312
Si Si5 0.383301 0.500000 0.989273
Si Si6 0.192179 0.617413 0.864917
Si Si7 0.144734 0.281522 0.460726
O O1 0.247706 0.945607 0.166623
O O2 0.000000 0.000000 0.500000
O O3 0.036341 0.000000 0.223011
O O4 0.109384 0.833915 0.985056
O O5 0.837144 0.764979 0.222849
O O6 0.520639 0.380099 0.713878
O O7 0.293381 0.438451 0.067075
O O8 0.210800 0.356254 0.981453
O O9 0.800968 0.141720 0.650280
O O10 0.924467 0.224151 0.415459
O O11 0.691378 0.173409 0.520810
O O12 0.500000 0.500000 0.000000
O O13 0.000000 0.620111 0.000000
O O14 0.000000 0.300135 0.500000
#
# Coordination Sequence:
#
# PCOD9175989 Si02
#       7
#     4   4   8   8   4   8   8
#     4  10  21  39  60  85 122 162 197 249 304 364
#     4  10  22  37  62  90 118 161 204 244 314 352
#     4  10  20  38  59  87 120 156 198 247 299 373
#     4  10  22  40  56  87 117 160 203 249 302 362
#     4  10  18  33  62  91 114 151 201 250 304 364
#     4  11  22  34  59  87 120 153 200 247 299 361
#     4  10  22  40  61  83 125 158 205 256 300 362
#
# _framework density 21.692015999999999
#
# number of rings (size 3 to 8) (size 9 to 14) (size 15 to 20)
#    0.000    1.818    0.909    4.091    3.818    0.000 
#    0.000    3.636    0.000    0.000    0.000    8.909 
#    0.000    0.000    0.000    0.000    0.000    0.000 
#
# Total GULP energy -122540.839437 kJ/mol
# GULP energy per Si atom -5570.038156 kJ/mol
# Density = 2.164264 g / cm^3
# Si number density = 21.692016 Si / 1000 Ang^3
#
#
#
# Elastic Constant Matrix: (Units=GPa)
#
#
# Indices 1 2 3 4 5 6 
#
# 1 210.6242 20.1517 10.7938 0.0000 -3.2664 0.0000
# 2 20.1517 69.6537 1.4560 0.0000 -4.4447 0.0000
# 3 10.7938 1.4560 43.7687 0.0001 -6.2469 -0.0002
# 4 0.0000 0.0000 0.0001 12.6483 0.0000 5.7486
# 5 -3.2664 -4.4447 -6.2469 0.0000 31.8935 0.0001
# 6 0.0000 0.0000 -0.0002 5.7486 0.0001 20.9936
#
#
#
# Elastic Compliance Matrix: (Units=1/GPa)
#
#
# Indices 1 2 3 4 5 6 
#
# 1 0.004943 -0.001400 -0.001160 0.000000 0.000084 0.000000
# 2 -0.001400 0.014884 0.000129 0.000000 0.001956 0.000000
# 3 -0.001160 0.000129 0.023780 0.000000 0.004557 0.000000
# 4 0.000000 0.000000 0.000000 0.090300 0.000000 -0.024726
# 5 0.000084 0.001956 0.004557 0.000000 0.032528 0.000000
# 6 0.000000 0.000000 0.000000 -0.024726 0.000000 0.054404
#
#
# Mechanical properties :
#
#
# Convention : Reuss Voigt Hill
#
# Bulk Modulus (GPa) = 25.81073 43.20550 34.50811
# Shear Modulus (GPa) = 20.95419 32.55009 26.75214
#
# Velocity S-wave (km/s) = 3.11140 3.87790 3.51561
# Velocity P-wave (km/s) = 4.98321 6.32549 5.69404
#
# Compressibility (1/GPa) = 0.03874358
#
# Stress axis : x y z
#
# Youngs Moduli (GPa) = 202.32538 67.18628 42.05285
#
# Poissons Ratio (x) = 0.09408 0.04880
# Poissons Ratio (y) = 0.28332 -0.00544
# Poissons Ratio (z) = 0.23476 -0.00869
#
# Static dielectric constant tensor:
#      x y z
#    x 1.889540 0.000000 0.061590 
#    y 0.000000 1.815080 0.000000 
#    z 0.061590 0.000000 1.864390 
# 
# From -- ./inp_files/53452.got.cif
#   From: 2010.05.17/outbox.cif.g08.bks.cpg/sg12_27_cif.got.tgz:53452.got - 2010.06.03 13:09:07.
