data_PCOD9175005
_publ_section_title
;
Structure prediction by ZEFSAII (Michael W. Deem and Ramdas Pophale) SiO2 
 PCOD9175005
Probable space group: C 2/M
;
_chemical_formula_sum "Si O2"
_cell_formula_units_Z 64
_cell_length_a 20.813564
_cell_length_b 7.575417
_cell_length_c 21.703030
_cell_angle_alpha 90.000000
_cell_angle_beta 64.585898
_cell_angle_gamma 90.000000
_cell_volume 3090.804772
_symmetry_space_group_name_H-M "C 2/M"
_symmetry_group_IT_number 12
_symmetry_cell_setting 'monoclinic'
loop_
_space_group_symop_operation_xyz
x,y,z
-x,y,-z
-x,-y,-z
x,-y,z
1/2+x,1/2+y,z
1/2-x,1/2+y,-z
1/2-x,1/2-y,-z
1/2+x,1/2-y,z
loop_
_atom_site_type_symbol
_atom_site_label
_atom_site_fract_x
_atom_site_fract_y
_atom_site_fract_z
Si Si1 0.328385 0.208694 0.443450
Si Si2 0.225768 0.211459 0.912851
Si Si3 0.741459 0.216318 0.236339
Si Si4 0.353363 0.289014 0.290103
Si Si5 0.863881 0.787158 0.937515
Si Si6 0.971348 0.283883 0.445716
Si Si7 0.491674 0.292995 0.807459
Si Si8 0.078730 0.286141 0.293406
O O1 0.250000 0.250000 0.500000
O O2 0.340330 0.260324 0.367639
O O3 0.392533 0.279116 0.459639
O O4 0.335627 0.000000 0.442306
O O5 0.226683 0.275254 0.842471
O O6 0.301812 0.247761 0.913547
O O7 0.217895 0.000000 0.913453
O O8 0.165842 0.279416 0.984758
O O9 0.789407 0.276705 0.273497
O O10 0.659290 0.271335 0.272999
O O11 0.741004 0.000000 0.236703
O O12 0.355804 0.500000 0.280969
O O13 0.429850 0.217095 0.236402
O O14 0.938877 0.718162 0.881204
O O15 0.868765 0.000000 0.939337
O O16 0.970821 0.500000 0.447496
O O17 0.000000 0.224608 0.500000
O O18 0.025251 0.231420 0.369347
O O19 0.500974 0.500000 0.818212
O O20 0.449768 0.279010 0.760261
O O21 0.078241 0.500000 0.290996
#
# Coordination Sequence:
#
# PCOD9175005 Si02
#       8
#     8   8   8   8   8   8   8   8
#     4  11  23  39  59  81 107 138 173 210 256 310
#     4   9  16  29  48  72 100 132 176 220 255 303
#     4   9  18  31  52  78 101 134 179 221 255 298
#     4  10  21  37  55  75 106 142 174 209 256 311
#     4   9  17  28  46  73 104 135 167 212 269 313
#     4   9  19  34  55  80 102 128 168 214 252 294
#     4  10  19  32  50  75 107 138 167 208 267 316
#     4  10  18  32  55  77  98 128 176 220 250 295
#
# _framework density 20.706579000000001
#
# number of rings (size 3 to 8) (size 9 to 14) (size 15 to 20)
#    0.000    2.375    2.500    0.375    1.750    0.000 
#    0.000    1.875    0.000    5.625    0.000    0.000 
#    0.000    6.000    0.000    0.000    0.000    0.000 
#
# Total GULP energy -178617.325493 kJ/mol
# GULP energy per Si atom -5581.791422 kJ/mol
# Density = 2.065945 g / cm^3
# Si number density = 20.706579 Si / 1000 Ang^3
#
#
#
# Elastic Constant Matrix: (Units=GPa)
#
#
# Indices 1 2 3 4 5 6 
#
# 1 146.9290 -1.2075 66.1784 -0.0011 -7.6572 -0.0016
# 2 -1.2075 45.2626 -1.8345 -0.0008 0.4456 -0.0010
# 3 66.1784 -1.8345 119.9601 -0.0005 -19.5352 -0.0014
# 4 -0.0011 -0.0008 -0.0005 10.4482 0.0001 6.4861
# 5 -7.6572 0.4456 -19.5352 0.0001 33.5438 0.0003
# 6 -0.0016 -0.0010 -0.0014 6.4861 0.0003 12.3455
#
#
#
# Elastic Compliance Matrix: (Units=1/GPa)
#
#
# Indices 1 2 3 4 5 6 
#
# 1 0.009083 0.000042 -0.005162 0.000000 -0.000933 0.000000
# 2 0.000042 0.022108 0.000297 0.000001 -0.000111 0.000001
# 3 -0.005162 0.000297 0.012148 -0.000001 0.005892 0.000001
# 4 0.000000 0.000001 -0.000001 0.142036 0.000000 -0.074624
# 5 -0.000933 -0.000111 0.005892 0.000000 0.033032 0.000000
# 6 0.000000 0.000001 0.000001 -0.074624 0.000000 0.120207
#
#
# Mechanical properties :
#
#
# Convention : Reuss Voigt Hill
#
# Bulk Modulus (GPa) = 29.68068 48.71384 39.19726
# Shear Modulus (GPa) = 13.90858 27.86852 20.88855
#
# Velocity S-wave (km/s) = 2.59453 3.67260 3.17959
# Velocity P-wave (km/s) = 4.83120 6.44677 5.69655
#
# Compressibility (1/GPa) = 0.03369196
#
# Stress axis : x y z
#
# Youngs Moduli (GPa) = 110.09883 45.23348 82.31844
#
# Poissons Ratio (x) = -0.00191 0.42493
# Poissons Ratio (y) = -0.00465 -0.02442
# Poissons Ratio (z) = 0.56833 -0.01342
#
# Static dielectric constant tensor:
#      x y z
#    x 1.720470 0.000000 -0.017710 
#    y 0.000000 1.787290 0.000000 
#    z -0.017710 0.000000 1.721040 
# 
# From -- ./inp_files/319889.got.cif
#   From: 2010.05.17/outbox.cif.g08.bks.cpg/sg12_160_cif.got.tgz:319889.got - 2010.06.03 13:09:07.
