data_PCOD9175552
_publ_section_title
;
Structure prediction by ZEFSAII (Michael W. Deem and Ramdas Pophale) SiO2 
 PCOD9175552
Probable space group: C 2/M
;
_chemical_formula_sum "Si O2"
_cell_formula_units_Z 64
_cell_length_a 20.689756
_cell_length_b 8.657656
_cell_length_c 20.662984
_cell_angle_alpha 90.000000
_cell_angle_beta 77.248536
_cell_angle_gamma 90.000000
_cell_volume 3609.967498
_symmetry_space_group_name_H-M "C 2/M"
_symmetry_group_IT_number 12
_symmetry_cell_setting 'monoclinic'
loop_
_space_group_symop_operation_xyz
x,y,z
-x,y,-z
-x,-y,-z
x,-y,z
1/2+x,1/2+y,z
1/2-x,1/2+y,-z
1/2-x,1/2-y,-z
1/2+x,1/2-y,z
loop_
_atom_site_type_symbol
_atom_site_label
_atom_site_fract_x
_atom_site_fract_y
_atom_site_fract_z
Si Si1 0.642233 0.687016 0.318170
Si Si2 0.757950 0.814853 0.069961
Si Si3 0.418445 0.685817 0.329904
Si Si4 0.626185 0.184915 0.177652
Si Si5 0.708004 0.814256 0.703576
Si Si6 0.512204 0.314986 0.821053
Si Si7 0.139598 0.685046 0.854516
Si Si8 0.486972 0.688669 0.575829
O O1 0.641640 0.500000 0.315408
O O2 0.627386 0.747852 0.249750
O O3 0.716246 0.736750 0.321577
O O4 0.584224 0.735743 0.379735
O O5 0.693363 0.768566 0.126135
O O6 0.822384 0.750030 0.092076
O O7 0.761024 0.000000 0.067698
O O8 0.750000 0.750000 0.000000
O O9 0.415805 0.500000 0.331289
O O10 0.344880 0.749154 0.335383
O O11 0.460573 0.730474 0.256642
O O12 0.456695 0.738219 0.385589
O O13 0.560954 0.247387 0.156376
O O14 0.623612 0.000000 0.181157
O O15 0.681882 0.768373 0.780958
O O16 0.706185 0.000000 0.701144
O O17 0.510326 0.500000 0.824498
O O18 0.566251 0.250643 0.859070
O O19 0.137523 0.500000 0.857352
O O20 0.500000 0.741224 0.500000
O O21 0.487653 0.500000 0.575238
#
# Coordination Sequence:
#
# PCOD9175552 Si02
#       8
#     8   8   8   8   8   8   8   8
#     4  10  18  33  54  78 105 139 185 226 268 321
#     4  11  24  40  58  82 113 148 183 222 272 328
#     4   9  17  30  50  75 104 138 176 221 267 315
#     4  11  22  35  55  84 112 140 180 228 273 318
#     4   9  18  30  50  77 105 137 173 220 270 319
#     4  10  19  33  55  82 111 142 182 227 272 324
#     4  10  19  34  56  82 112 144 179 223 277 327
#     4   9  17  31  52  77 105 141 185 227 267 318
#
# _framework density 17.728691999999999
#
# number of rings (size 3 to 8) (size 9 to 14) (size 15 to 20)
#    0.000    2.125    2.500    1.500    0.000    3.000 
#    0.000    1.250    0.000    5.250    0.000    0.000 
#    0.000    0.000    0.000    0.000    0.000    0.000 
#
# Total GULP energy -178587.441575 kJ/mol
# GULP energy per Si atom -5580.857549 kJ/mol
# Density = 1.768834 g / cm^3
# Si number density = 17.728692 Si / 1000 Ang^3
#
#
#
# Elastic Constant Matrix: (Units=GPa)
#
#
# Indices 1 2 3 4 5 6 
#
# 1 112.3956 13.8842 6.9350 0.0000 18.2731 0.0000
# 2 13.8842 13.2372 5.7959 0.0000 1.2471 0.0000
# 3 6.9350 5.7959 39.5999 0.0000 11.1386 0.0000
# 4 0.0000 0.0000 0.0000 16.5573 0.0000 5.5763
# 5 18.2731 1.2471 11.1386 0.0000 27.6976 0.0000
# 6 0.0000 0.0000 0.0000 5.5763 0.0000 31.4877
#
#
#
# Elastic Compliance Matrix: (Units=1/GPa)
#
#
# Indices 1 2 3 4 5 6 
#
# 1 0.011571 -0.012263 0.001985 0.000000 -0.007880 0.000000
# 2 -0.012263 0.093753 -0.014278 0.000000 0.009611 0.000000
# 3 0.001985 -0.014278 0.030649 0.000000 -0.012992 0.000000
# 4 0.000000 0.000000 0.000000 0.064227 0.000000 -0.011374
# 5 -0.007880 0.009611 -0.012992 0.000000 0.046095 0.000000
# 6 0.000000 0.000000 0.000000 -0.011374 0.000000 0.033773
#
#
# Mechanical properties :
#
#
# Convention : Reuss Voigt Hill
#
# Bulk Modulus (GPa) = 11.51258 24.27364 17.89311
# Shear Modulus (GPa) = 13.96134 24.38969 19.17551
#
# Velocity S-wave (km/s) = 2.80929 3.71309 3.29235
# Velocity P-wave (km/s) = 4.12682 5.66606 4.95655
#
# Compressibility (1/GPa) = 0.08686150
#
# Stress axis : x y z
#
# Youngs Moduli (GPa) = 86.42638 10.66634 32.62737
#
# Poissons Ratio (x) = 0.13080 -0.06476
# Poissons Ratio (y) = 1.05983 0.46584
# Poissons Ratio (z) = -0.17154 0.15229
#
# Static dielectric constant tensor:
#      x y z
#    x 1.607430 0.000000 -0.005250 
#    y 0.000000 1.596760 0.000000 
#    z -0.005250 0.000000 1.584030 
# 
# From -- ./inp_files/319131.got.cif
#   From: 2010.05.17/outbox.cif.g08.bks.cpg/sg12_160_cif.got.tgz:319131.got - 2010.06.03 13:09:07.
