data_PCOD9175531
_publ_section_title
;
Structure prediction by ZEFSAII (Michael W. Deem and Ramdas Pophale) SiO2 
 PCOD9175531
Probable space group: C 2/M
;
_chemical_formula_sum "Si O2"
_cell_formula_units_Z 64
_cell_length_a 36.313964
_cell_length_b 8.801622
_cell_length_c 12.779128
_cell_angle_alpha 90.000000
_cell_angle_beta 76.783632
_cell_angle_gamma 90.000000
_cell_volume 3976.304438
_symmetry_space_group_name_H-M "C 2/M"
_symmetry_group_IT_number 12
_symmetry_cell_setting 'monoclinic'
loop_
_space_group_symop_operation_xyz
x,y,z
-x,y,-z
-x,-y,-z
x,-y,z
1/2+x,1/2+y,z
1/2-x,1/2+y,-z
1/2-x,1/2-y,-z
1/2+x,1/2-y,z
loop_
_atom_site_type_symbol
_atom_site_label
_atom_site_fract_x
_atom_site_fract_y
_atom_site_fract_z
Si Si1 0.843352 0.317610 0.402694
Si Si2 0.211493 0.818270 0.977848
Si Si3 0.581303 0.319910 0.563733
Si Si4 0.289904 0.683543 0.265413
Si Si5 0.419936 0.183742 0.668540
Si Si6 0.204748 0.684435 0.363398
Si Si7 0.997131 0.675369 0.374910
Si Si8 0.340661 0.816809 0.816118
O O1 0.920613 0.500000 0.654080
O O2 0.885218 0.252538 0.390559
O O3 0.822214 0.257877 0.314141
O O4 0.818545 0.266248 0.519819
O O5 0.207627 0.776077 0.858562
O O6 0.213856 0.000000 0.981919
O O7 0.250000 0.750000 0.000000
O O8 0.177199 0.758451 0.070644
O O9 0.584681 0.500000 0.559571
O O10 0.585290 0.255344 0.442794
O O11 0.539593 0.271294 0.629544
O O12 0.292105 0.500000 0.272494
O O13 0.248384 0.732771 0.333395
O O14 0.155267 0.500000 0.597669
O O15 0.461111 0.228071 0.686394
O O16 0.384152 0.221730 0.763288
O O17 0.204565 0.500000 0.363629
O O18 0.183792 0.730452 0.270039
O O19 0.991344 0.500000 0.347368
O O20 0.000000 0.677749 0.500000
O O21 0.337648 0.000000 0.826956
#
# Coordination Sequence:
#
# PCOD9175531 Si02
#       8
#     8   8   8   8   8   8   8   8
#     4  11  21  34  52  73  98 132 173 209 245 301
#     4  11  22  36  54  74  99 132 171 213 254 298
#     4  11  20  29  45  71 103 136 165 202 249 297
#     4  10  21  37  51  69  99 132 166 211 257 292
#     4   9  17  31  50  71 100 135 168 204 248 296
#     4   9  17  32  52  71  98 132 163 203 252 293
#     4   8  15  28  46  68  96 133 169 199 239 297
#     4  10  18  33  54  75 101 133 168 209 254 296
#
# _framework density 16.095348000000001
#
# number of rings (size 3 to 8) (size 9 to 14) (size 15 to 20)
#    0.000    2.125    2.500    3.000    0.000    3.750 
#    0.000    0.625    0.000    0.000    0.000    0.875 
#    0.000    7.000    0.000    0.000    0.000    0.000 
#
# Total GULP energy -178506.380051 kJ/mol
# GULP energy per Si atom -5578.324377 kJ/mol
# Density = 1.605871 g / cm^3
# Si number density = 16.095348 Si / 1000 Ang^3
#
#
#
# Elastic Constant Matrix: (Units=GPa)
#
#
# Indices 1 2 3 4 5 6 
#
# 1 162.4850 49.2636 61.0192 0.0000 -1.0444 0.0000
# 2 49.2636 40.3589 31.8103 0.0000 2.5065 0.0000
# 3 61.0192 31.8103 67.1182 0.0000 8.0610 0.0000
# 4 0.0000 0.0000 0.0000 22.4078 0.0000 1.1045
# 5 -1.0444 2.5065 8.0610 0.0000 19.3678 0.0000
# 6 0.0000 0.0000 0.0000 1.1045 0.0000 24.1388
#
#
#
# Elastic Compliance Matrix: (Units=1/GPa)
#
#
# Indices 1 2 3 4 5 6 
#
# 1 0.011400 -0.008936 -0.006675 0.000000 0.004549 0.000000
# 2 -0.008936 0.046706 -0.013924 0.000000 -0.000731 0.000000
# 3 -0.006675 -0.013924 0.028835 0.000000 -0.010559 0.000000
# 4 0.000000 0.000000 0.000000 0.044728 0.000000 -0.002047
# 5 0.004549 -0.000731 -0.010559 0.000000 0.056367 0.000000
# 6 0.000000 0.000000 0.000000 -0.002047 0.000000 0.041521
#
#
# Mechanical properties :
#
#
# Convention : Reuss Voigt Hill
#
# Bulk Modulus (GPa) = 35.88075 61.57202 48.72638
# Shear Modulus (GPa) = 16.78325 21.70747 19.24536
#
# Velocity S-wave (km/s) = 3.23265 3.67642 3.46165
# Velocity P-wave (km/s) = 6.02282 7.50726 6.80564
#
# Compressibility (1/GPa) = 0.02787010
#
# Stress axis : x y z
#
# Youngs Moduli (GPa) = 87.72126 21.41064 34.68054
#
# Poissons Ratio (x) = 0.19134 0.23149
# Poissons Ratio (y) = 0.78392 0.48288
# Poissons Ratio (z) = 0.58553 0.29811
#
# Static dielectric constant tensor:
#      x y z
#    x 1.555860 0.000000 -0.016790 
#    y 0.000000 1.540750 0.000000 
#    z -0.016790 0.000000 1.512810 
# 
# From -- ./inp_files/187402.got.cif
#   From: 2010.05.17/outbox.cif.g08.bks.cpg/sg12_94_cif.got.tgz:187402.got - 2010.06.03 13:09:07.
