data_PCOD9175919
_publ_section_title
;
Structure prediction by ZEFSAII (Michael W. Deem and Ramdas Pophale) SiO2 
 PCOD9175919
Probable space group: C 2/M
;
_chemical_formula_sum "Si O2"
_cell_formula_units_Z 58
_cell_length_a 15.278713
_cell_length_b 19.808212
_cell_length_c 16.312293
_cell_angle_alpha 90.000000
_cell_angle_beta 32.710248
_cell_angle_gamma 90.000000
_cell_volume 2667.810818
_symmetry_space_group_name_H-M "C 2/M"
_symmetry_group_IT_number 12
_symmetry_cell_setting 'monoclinic'
loop_
_space_group_symop_operation_xyz
x,y,z
-x,y,-z
-x,-y,-z
x,-y,z
1/2+x,1/2+y,z
1/2-x,1/2+y,-z
1/2-x,1/2-y,-z
1/2+x,1/2-y,z
loop_
_atom_site_type_symbol
_atom_site_label
_atom_site_fract_x
_atom_site_fract_y
_atom_site_fract_z
Si Si1 0.981590 0.242381 0.632992
Si Si2 0.719613 0.072082 0.498238
Si Si3 0.291148 0.421619 0.010416
Si Si4 0.937957 0.575203 0.205342
Si Si5 0.445807 0.314047 0.250837
Si Si6 0.880786 0.395086 0.693526
Si Si7 0.278780 0.793187 0.278435
Si Si8 0.000000 0.500000 0.500000
O O1 0.938303 0.318721 0.641207
O O2 0.820568 0.205708 0.727711
O O3 0.010537 0.234992 0.707061
O O4 0.136324 0.214266 0.460703
O O5 0.690648 0.077077 0.618102
O O6 0.803541 0.137743 0.396546
O O7 0.536646 0.067535 0.609548
O O8 0.801727 0.000000 0.415848
O O9 0.342318 0.500000 0.963218
O O10 0.260410 0.403816 0.130014
O O11 0.117201 0.416343 0.101842
O O12 0.410556 0.365727 0.881053
O O13 0.928816 0.500000 0.175020
O O14 0.886404 0.640032 0.195410
O O15 0.389944 0.270735 0.216345
O O16 0.862986 0.439651 0.627225
#
# Coordination Sequence:
#
# PCOD9175919 Si02
#       8
#     8   8   8   8   8   8   8   2
#     4  11  24  39  63 101 131 163 225 285 326 398
#     4  10  18  33  59  89 115 160 223 259 311 397
#     4  10  22  42  62  96 134 173 219 273 323 409
#     4   9  19  38  63  86 121 171 217 268 328 388
#     4  12  22  39  66  91 131 177 208 274 347 383
#     4  11  21  38  63  90 126 171 220 264 329 388
#     4  11  22  40  64  97 130 164 223 283 326 397
#     4  12  20  36  68  90 120 176 222 268 322 392
#
# _framework density 21.740673000000001
#
# number of rings (size 3 to 8) (size 9 to 14) (size 15 to 20)
#    0.000    1.379    4.138    4.138    0.000    2.207 
#    0.000    5.517    0.000    3.310    0.000    0.000 
#    0.000    0.000    0.000    0.000    0.000    0.000 
#
# Total GULP energy -161609.763215 kJ/mol
# GULP energy per Si atom -5572.750456 kJ/mol
# Density = 2.169119 g / cm^3
# Si number density = 21.740673 Si / 1000 Ang^3
#
#
#
# Elastic Constant Matrix: (Units=GPa)
#
#
# Indices 1 2 3 4 5 6 
#
# 1 43.0971 6.5608 2.2150 -0.0018 -9.8418 0.0018
# 2 6.5608 115.6802 23.2916 -0.0057 -27.6211 0.0043
# 3 2.2150 23.2916 56.7829 0.0081 -8.9470 -0.0050
# 4 -0.0018 -0.0057 0.0081 34.2652 -0.0071 -9.2033
# 5 -9.8418 -27.6211 -8.9470 -0.0071 17.4920 0.0026
# 6 0.0018 0.0043 -0.0050 -9.2033 0.0026 22.9378
#
#
#
# Elastic Compliance Matrix: (Units=1/GPa)
#
#
# Indices 1 2 3 4 5 6 
#
# 1 0.027483 0.003310 0.000903 0.000005 0.021152 -0.000003
# 2 0.003310 0.014592 -0.002383 0.000007 0.023685 -0.000003
# 3 0.000903 -0.002383 0.019622 -0.000003 0.006782 0.000003
# 4 0.000005 0.000007 -0.000003 0.032709 0.000024 0.013124
# 5 0.021152 0.023685 0.006782 0.000024 0.109940 -0.000007
# 6 -0.000003 -0.000003 0.000003 0.013124 -0.000007 0.048862
#
#
# Mechanical properties :
#
#
# Convention : Reuss Voigt Hill
#
# Bulk Modulus (GPa) = 15.30036 31.07723 23.18879
# Shear Modulus (GPa) = 18.42754 27.17186 22.79970
#
# Velocity S-wave (km/s) = 2.91453 3.53911 3.24190
# Velocity P-wave (km/s) = 4.28706 5.57009 4.97015
#
# Compressibility (1/GPa) = 0.06535794
#
# Stress axis : x y z
#
# Youngs Moduli (GPa) = 36.38551 68.53127 50.96416
#
# Poissons Ratio (x) = -0.22684 -0.04602
# Poissons Ratio (y) = -0.12043 0.12142
# Poissons Ratio (z) = -0.03286 0.16328
#
# Static dielectric constant tensor:
#      x y z
#    x 2.107130 0.000000 0.221210 
#    y 0.000000 1.600230 0.000000 
#    z 0.221210 0.000000 1.974260 
# 
# From -- ./inp_files/278802.got.cif
#   From: 2010.05.17/outbox.cif.g08.bks.cpg/sg12_140_cif.got.tgz:278802.got - 2010.06.03 13:09:07.
