data_PCOD9175900
_publ_section_title
;
Structure prediction by ZEFSAII (Michael W. Deem and Ramdas Pophale) SiO2 
 PCOD9175900
Probable space group: C 2/M
;
_chemical_formula_sum "Si O2"
_cell_formula_units_Z 48
_cell_length_a 20.086968
_cell_length_b 14.864488
_cell_length_c 10.304608
_cell_angle_alpha 90.000000
_cell_angle_beta 71.489306
_cell_angle_gamma 90.000000
_cell_volume 2917.596781
_symmetry_space_group_name_H-M "C 2/M"
_symmetry_group_IT_number 12
_symmetry_cell_setting 'monoclinic'
loop_
_space_group_symop_operation_xyz
x,y,z
-x,y,-z
-x,-y,-z
x,-y,z
1/2+x,1/2+y,z
1/2-x,1/2+y,-z
1/2-x,1/2-y,-z
1/2+x,1/2-y,z
loop_
_atom_site_type_symbol
_atom_site_label
_atom_site_fract_x
_atom_site_fract_y
_atom_site_fract_z
Si Si1 0.281020 0.000000 0.324007
Si Si2 0.558080 0.306914 0.353015
Si Si3 0.601989 0.500000 0.715422
Si Si4 0.329998 0.195493 0.306034
Si Si5 0.812358 0.695263 0.628796
Si Si6 0.265561 0.000000 0.646817
Si Si7 0.616856 0.500000 0.392707
Si Si8 0.534717 0.688784 0.838285
O O1 0.319767 0.092782 0.266991
O O2 0.274269 0.000000 0.485010
O O3 0.201049 0.000000 0.322155
O O4 0.500000 0.289867 0.500000
O O5 0.625047 0.244308 0.336372
O O6 0.583098 0.410226 0.354884
O O7 0.522090 0.290728 0.237721
O O8 0.681897 0.500000 0.717320
O O9 0.604038 0.500000 0.556608
O O10 0.564274 0.589680 0.786865
O O11 0.260604 0.251246 0.309524
O O12 0.330225 0.198139 0.463576
O O13 0.399920 0.243131 0.213304
O O14 0.799796 0.591900 0.674881
O O15 0.500000 0.690958 0.000000
#
# Coordination Sequence:
#
# PCOD9175900 Si02
#       8
#     4   8   4   8   8   4   4   8
#     4   9  18  30  58  90 110 140 193 240 274 323
#     4  12  21  35  57  87 118 144 187 238 285 328
#     4  11  18  35  59  86 117 148 183 230 280 345
#     4  10  18  35  57  84 115 147 191 229 277 336
#     4  10  18  33  59  86 113 145 186 238 279 331
#     4   9  18  30  57  90 113 140 188 235 284 327
#     4  11  18  32  60  94 114 135 182 251 284 322
#     4  12  25  38  55  83 121 156 183 227 291 344
#
# _framework density 16.451896000000001
#
# number of rings (size 3 to 8) (size 9 to 14) (size 15 to 20)
#    0.000    1.333    6.667    1.000    0.000    0.000 
#    0.000    2.500    0.000    0.000    0.000    0.000 
#    0.000    0.000    0.000    0.000    0.000    0.000 
#
# Total GULP energy -133996.112762 kJ/mol
# GULP energy per Si atom -5583.171365 kJ/mol
# Density = 1.641445 g / cm^3
# Si number density = 16.451896 Si / 1000 Ang^3
#
#
#
# Elastic Constant Matrix: (Units=GPa)
#
#
# Indices 1 2 3 4 5 6 
#
# 1 150.0712 82.4733 51.8271 0.0000 8.6757 0.0000
# 2 82.4733 143.3603 31.4001 0.0000 -0.9594 0.0000
# 3 51.8271 31.4001 63.5726 0.0000 6.8524 0.0000
# 4 0.0000 0.0000 0.0000 -0.7800 0.0000 8.1869
# 5 8.6757 -0.9594 6.8524 0.0000 15.2904 0.0000
# 6 0.0000 0.0000 0.0000 8.1869 0.0000 25.4473
#
#
#
# Elastic Compliance Matrix: (Units=1/GPa)
#
#
# Indices 1 2 3 4 5 6 
#
# 1 0.012381 -0.005654 -0.006835 0.000000 -0.004316 0.000000
# 2 -0.005654 0.010484 -0.001035 0.000000 0.004330 0.000000
# 3 -0.006835 -0.001035 0.022489 0.000000 -0.006265 0.000000
# 4 0.000000 0.000000 0.000000 -0.292918 0.000000 0.094237
# 5 -0.004316 0.004330 -0.006265 0.000000 0.070929 0.000000
# 6 0.000000 0.000000 0.000000 0.094237 0.000000 0.008979
#
#
# Mechanical properties :
#
#
# Convention : Reuss Voigt Hill
#
# Bulk Modulus (GPa) = 54.63288 76.48945 65.56116
# Shear Modulus (GPa) = -37.17380 20.74510 -8.21435
#
# Velocity S-wave (km/s) = -4.75862 3.55484 -2.23692
# Velocity P-wave (km/s) = 1.75701 7.96511 5.76758
#
# Compressibility (1/GPa) = 0.01830400
#
# Stress axis : x y z
#
# Youngs Moduli (GPa) = 80.76814 95.38248 44.46546
#
# Poissons Ratio (x) = 0.53933 0.30394
# Poissons Ratio (y) = 0.45670 0.04604
# Poissons Ratio (z) = 0.55209 0.09876
#
# Static dielectric constant tensor:
#      x y z
#    x 1.539780 0.000000 0.003100 
#    y 0.000000 1.556200 0.000000 
#    z 0.003100 0.000000 1.521820 
# 
# From -- ./inp_files/73701.got.cif
#   From: 2010.05.17/outbox.cif.g08.bks.cpg/sg12_37_cif.got.tgz:73701.got - 2010.06.03 13:09:07.
