data_PCOD9175367
_publ_section_title
;
Structure prediction by ZEFSAII (Michael W. Deem and Ramdas Pophale) SiO2 
 PCOD9175367
Probable space group: C 2/M
;
_chemical_formula_sum "Si O2"
_cell_formula_units_Z 48
_cell_length_a 18.744815
_cell_length_b 14.183443
_cell_length_c 17.692228
_cell_angle_alpha 90.000000
_cell_angle_beta 22.899251
_cell_angle_gamma 90.000000
_cell_volume 1830.289867
_symmetry_space_group_name_H-M "C 2/M"
_symmetry_group_IT_number 12
_symmetry_cell_setting 'monoclinic'
loop_
_space_group_symop_operation_xyz
x,y,z
-x,y,-z
-x,-y,-z
x,-y,z
1/2+x,1/2+y,z
1/2-x,1/2+y,-z
1/2-x,1/2-y,-z
1/2+x,1/2-y,z
loop_
_atom_site_type_symbol
_atom_site_label
_atom_site_fract_x
_atom_site_fract_y
_atom_site_fract_z
Si Si1 0.984107 0.307816 0.635401
Si Si2 0.559726 0.393036 0.271090
Si Si3 0.636860 0.900101 0.797696
Si Si4 0.660915 0.310823 0.782065
Si Si5 0.375738 0.390512 0.957850
Si Si6 0.368476 0.104495 0.362301
O O1 0.925966 0.197007 0.688311
O O2 0.136338 0.351050 0.430312
O O3 0.072062 0.321386 0.633502
O O4 0.796098 0.364704 0.822646
O O5 0.604340 0.500000 0.254225
O O6 0.346234 0.393047 0.451574
O O7 0.668869 0.375188 0.086550
O O8 0.719148 0.798225 0.730843
O O9 0.540989 0.891339 0.809245
O O10 0.743081 0.000000 0.692464
O O11 0.500000 0.907633 0.000000
O O12 0.500000 0.333893 0.000000
O O13 0.548631 0.330096 0.815078
O O14 0.425027 0.500000 0.918655
O O15 0.407207 0.000000 0.356781
#
# Coordination Sequence:
#
# PCOD9175367 Si02
#       6
#     8   8   8   8   8   8
#     4  12  22  39  65  90 124 165 204 252 312 364
#     4  10  20  36  60  93 127 157 198 252 302 363
#     4   9  18  34  60  93 125 160 201 242 296 370
#     4  11  24  42  64  89 122 164 207 255 309 365
#     4  11  25  42  61  92 124 155 208 262 307 365
#     4  10  18  32  60  91 119 160 202 242 301 359
#
# _framework density 26.225353999999999
#
# number of rings (size 3 to 8) (size 9 to 14) (size 15 to 20)
#    0.000    1.500    3.333    2.500    0.000    1.667 
#    0.000    3.333    0.000    0.000    0.000    5.833 
#    0.000    0.000    0.000    0.000    0.000    0.000 
#
# Total GULP energy -133995.779271 kJ/mol
# GULP energy per Si atom -5583.157470 kJ/mol
# Density = 2.616566 g / cm^3
# Si number density = 26.225354 Si / 1000 Ang^3
#
#
#
# Elastic Constant Matrix: (Units=GPa)
#
#
# Indices 1 2 3 4 5 6 
#
# 1 81.4725 6.4660 34.4607 -0.0047 3.6733 0.0032
# 2 6.4660 92.3761 20.7196 -0.0021 6.0239 0.0025
# 3 34.4607 20.7196 168.5960 -0.0026 23.9702 0.0028
# 4 -0.0047 -0.0021 -0.0026 10.7169 0.0012 6.9352
# 5 3.6733 6.0239 23.9702 0.0012 34.3277 -0.0007
# 6 0.0032 0.0025 0.0028 6.9352 -0.0007 -10.9363
#
#
#
# Elastic Compliance Matrix: (Units=1/GPa)
#
#
# Indices 1 2 3 4 5 6 
#
# 1 0.013456 -0.000354 -0.002788 0.000002 0.000569 0.000005
# 2 -0.000354 0.011180 -0.001141 0.000000 -0.001127 0.000002
# 3 -0.002788 -0.001141 0.007295 0.000000 -0.004595 0.000001
# 4 0.000002 0.000000 0.000000 0.066160 -0.000002 0.041955
# 5 0.000569 -0.001127 -0.004595 -0.000002 0.032477 -0.000004
# 6 0.000005 0.000002 0.000001 0.041955 -0.000004 -0.064833
#
#
# Mechanical properties :
#
#
# Convention : Reuss Voigt Hill
#
# Bulk Modulus (GPa) = 42.80020 51.74857 47.27439
# Shear Modulus (GPa) = 60.91081 25.54156 43.22618
#
# Velocity S-wave (km/s) = 4.82456 3.12416 4.06428
# Velocity P-wave (km/s) = 6.88409 5.72617 6.33165
#
# Compressibility (1/GPa) = 0.02336438
#
# Stress axis : x y z
#
# Youngs Moduli (GPa) = 74.31829 89.44890 137.08528
#
# Poissons Ratio (x) = 0.03164 0.38215
# Poissons Ratio (y) = 0.02628 0.15647
# Poissons Ratio (z) = 0.20718 0.10210
#
# Static dielectric constant tensor:
#      x y z
#    x 2.083930 0.000000 0.071170 
#    y 0.000000 2.089210 0.000000 
#    z 0.071170 0.000000 2.162960 
# 
# From -- ./inp_files/325638.got.cif
#   From: 2010.05.17/outbox.cif.g08.bks.cpg/sg12_163_cif.got.tgz:325638.got - 2010.06.03 13:09:07.
