data_PCOD9175077
_publ_section_title
;
Structure prediction by ZEFSAII (Michael W. Deem and Ramdas Pophale) SiO2 
 PCOD9175077
Probable space group: C 2/M
;
_chemical_formula_sum "Si O2"
_cell_formula_units_Z 56
_cell_length_a 27.128291
_cell_length_b 17.196083
_cell_length_c 18.422246
_cell_angle_alpha 90.000000
_cell_angle_beta 18.271761
_cell_angle_gamma 90.000000
_cell_volume 2694.424399
_symmetry_space_group_name_H-M "C 2/M"
_symmetry_group_IT_number 12
_symmetry_cell_setting 'monoclinic'
loop_
_space_group_symop_operation_xyz
x,y,z
-x,y,-z
-x,-y,-z
x,-y,z
1/2+x,1/2+y,z
1/2-x,1/2+y,-z
1/2-x,1/2-y,-z
1/2+x,1/2-y,z
loop_
_atom_site_type_symbol
_atom_site_label
_atom_site_fract_x
_atom_site_fract_y
_atom_site_fract_z
Si Si1 0.492247 0.792665 0.345800
Si Si2 0.572677 0.685121 0.817014
Si Si3 0.043979 0.120583 0.324798
Si Si4 0.750526 0.372184 0.176150
Si Si5 0.411859 0.168172 0.301111
Si Si6 0.257887 0.313886 0.187239
Si Si7 0.301010 0.913465 0.867031
O O1 0.550333 0.713160 0.300447
O O2 0.459620 0.783237 0.306879
O O3 0.336723 0.817760 0.605699
O O4 0.612175 0.861605 0.194174
O O5 0.599311 0.775182 0.753231
O O6 0.736312 0.641904 0.569544
O O7 0.500000 0.681972 0.000000
O O8 0.433117 0.658908 0.959215
O O9 0.154730 0.101151 0.238994
O O10 0.863907 0.102634 0.597938
O O11 0.121430 0.084081 0.145813
O O12 0.747613 0.277246 0.180402
O O13 0.937235 0.388919 0.919321
O O14 0.185817 0.366202 0.225504
O O15 0.364895 0.000000 0.772366
#
# Coordination Sequence:
#
# PCOD9175077 Si02
#       7
#     8   8   8   8   8   8   8
#     4  11  19  34  59  84 116 150 189 235 291 354
#     4  10  19  33  52  86 118 149 188 242 293 333
#     4  10  18  32  55  82 112 148 187 231 291 349
#     4   9  17  31  54  83 108 144 188 230 287 343
#     4  10  19  31  53  82 120 146 182 238 293 339
#     4  10  20  34  54  82 116 151 188 236 285 342
#     4  12  24  36  54  86 123 155 189 236 293 349
#
# _framework density 20.783659
#
# number of rings (size 3 to 8) (size 9 to 14) (size 15 to 20)
#    0.000    1.714    4.286    2.571    0.000    1.143 
#    0.000    1.429    0.000    1.286    0.000    1.000 
#    0.000    0.000    0.000    0.000    0.000    0.000 
#
# Total GULP energy -156022.398383 kJ/mol
# GULP energy per Si atom -5572.228514 kJ/mol
# Density = 2.073635 g / cm^3
# Si number density = 20.783659 Si / 1000 Ang^3
#
#
#
# Elastic Constant Matrix: (Units=GPa)
#
#
# Indices 1 2 3 4 5 6 
#
# 1 51.6743 5.3169 13.2675 -0.0007 1.5455 -0.0001
# 2 5.3169 51.8016 8.8727 -0.0005 -1.1226 -0.0001
# 3 13.2675 8.8727 157.1248 -0.0013 -4.6007 0.0002
# 4 -0.0007 -0.0005 -0.0013 -6.5515 0.0007 -5.5635
# 5 1.5455 -1.1226 -4.6007 0.0007 36.3677 0.0001
# 6 -0.0001 -0.0001 0.0002 -5.5635 0.0001 -14.7757
#
#
#
# Elastic Compliance Matrix: (Units=1/GPa)
#
#
# Indices 1 2 3 4 5 6 
#
# 1 0.019986 -0.001798 -0.001619 -0.000003 -0.001110 0.000001
# 2 -0.001798 0.019663 -0.000942 -0.000001 0.000564 0.000000
# 3 -0.001619 -0.000942 0.006580 -0.000002 0.000872 0.000001
# 4 -0.000003 -0.000001 -0.000002 -0.224384 0.000004 0.084487
# 5 -0.001110 0.000564 0.000872 0.000004 0.027672 -0.000001
# 6 0.000001 0.000000 0.000001 0.084487 -0.000001 -0.099490
#
#
# Mechanical properties :
#
#
# Convention : Reuss Voigt Hill
#
# Bulk Modulus (GPa) = 26.65904 35.05723 30.85813
# Shear Modulus (GPa) = -21.85757 18.55100 -1.65329
#
# Velocity S-wave (km/s) = -3.24647 2.99084 -0.89286
# Velocity P-wave (km/s) = 1.09451 5.36947 3.71707
#
# Compressibility (1/GPa) = 0.03751073
#
# Stress axis : x y z
#
# Youngs Moduli (GPa) = 50.03567 50.85808 151.98119
#
# Poissons Ratio (x) = 0.09145 0.24599
# Poissons Ratio (y) = 0.08997 0.14316
# Poissons Ratio (z) = 0.08098 0.04791
#
# Static dielectric constant tensor:
#      x y z
#    x 1.717090 0.000000 -0.013590 
#    y 0.000000 1.730370 0.000000 
#    z -0.013590 0.000000 1.889170 
# 
# From -- ./inp_files/143708.got.cif
#   From: 2010.05.17/outbox.cif.g08.bks.cpg/sg12_72_cif.got.tgz:143708.got - 2010.06.03 13:09:07.
