data_PCOD9175416
_publ_section_title
;
Structure prediction by ZEFSAII (Michael W. Deem and Ramdas Pophale) SiO2 
 PCOD9175416
Probable space group: C 2/M
;
_chemical_formula_sum "Si O2"
_cell_formula_units_Z 44
_cell_length_a 10.613829
_cell_length_b 25.511090
_cell_length_c 16.330864
_cell_angle_alpha 90.000000
_cell_angle_beta 141.780933
_cell_angle_gamma 90.000000
_cell_volume 2735.704825
_symmetry_space_group_name_H-M "C 2/M"
_symmetry_group_IT_number 12
_symmetry_cell_setting 'monoclinic'
loop_
_space_group_symop_operation_xyz
x,y,z
-x,y,-z
-x,-y,-z
x,-y,z
1/2+x,1/2+y,z
1/2-x,1/2+y,-z
1/2-x,1/2-y,-z
1/2+x,1/2-y,z
loop_
_atom_site_type_symbol
_atom_site_label
_atom_site_fract_x
_atom_site_fract_y
_atom_site_fract_z
Si Si1 0.699950 0.641338 0.469786
Si Si2 0.620499 0.560062 0.649173
Si Si3 0.500000 0.181664 0.500000
Si Si4 0.627057 0.729204 0.687105
Si Si5 0.725541 0.280362 0.074587
Si Si6 0.923049 0.355533 0.755597
O O1 0.534971 0.595296 0.378203
O O2 0.831573 0.646980 0.456883
O O3 0.575784 0.694730 0.421607
O O4 0.845009 0.637345 0.622794
O O5 0.500000 0.560358 0.500000
O O6 0.645492 0.500000 0.687000
O O7 0.833366 0.591718 0.751441
O O8 0.400027 0.219507 0.381407
O O9 0.662669 0.745992 0.798441
O O10 0.801412 0.692092 0.737999
O O11 0.845048 0.335704 0.126127
O O12 0.500000 0.286297 0.000000
O O13 0.750000 0.250000 0.000000
#
# Coordination Sequence:
#
# PCOD9175416 Si02
#       6
#     8   8   4   8   8   8
#     4  10  19  28  50  77 100 130 170 208 260 312
#     4   8  16  32  53  75  97 122 165 219 268 309
#     4  12  18  26  47  76 105 138 158 204 258 316
#     4  11  19  31  49  72 104 138 171 202 253 308
#     4  12  24  34  46  71 112 149 174 203 243 300
#     4  10  18  33  50  74  99 135 171 208 252 307
#
# _framework density 16.083606
#
# number of rings (size 3 to 8) (size 9 to 14) (size 15 to 20)
#    0.000    1.636    5.455    2.727    0.000    0.000 
#    0.000    0.455    0.000    0.545    0.000   10.182 
#    0.000    0.000    0.000    0.000    0.000    0.000 
#
# Total GULP energy -122535.426926 kJ/mol
# GULP energy per Si atom -5569.792133 kJ/mol
# Density = 1.604700 g / cm^3
# Si number density = 16.083606 Si / 1000 Ang^3
#
#
#
# Elastic Constant Matrix: (Units=GPa)
#
#
# Indices 1 2 3 4 5 6 
#
# 1 130.4729 58.5151 26.8544 0.0000 6.5220 0.0000
# 2 58.5151 110.9161 27.0380 0.0000 10.6093 0.0000
# 3 26.8544 27.0380 47.7142 0.0000 -6.2257 0.0000
# 4 0.0000 0.0000 0.0000 25.4948 0.0000 -18.4590
# 5 6.5220 10.6093 -6.2257 0.0000 25.0867 0.0000
# 6 0.0000 0.0000 0.0000 -18.4590 0.0000 37.0248
#
#
#
# Elastic Compliance Matrix: (Units=1/GPa)
#
#
# Indices 1 2 3 4 5 6 
#
# 1 0.010509 -0.004506 -0.003585 0.000000 -0.001716 0.000000
# 2 -0.004506 0.013379 -0.005819 0.000000 -0.005931 0.000000
# 3 -0.003585 -0.005819 0.027610 0.000000 0.010245 0.000000
# 4 0.000000 0.000000 0.000000 0.061380 0.000000 0.030602
# 5 -0.001716 -0.005931 0.010245 0.000000 0.045359 0.000000
# 6 0.000000 0.000000 0.000000 0.030602 0.000000 0.042266
#
#
# Mechanical properties :
#
#
# Convention : Reuss Voigt Hill
#
# Bulk Modulus (GPa) = 42.23431 57.10202 49.66816
# Shear Modulus (GPa) = 21.16713 29.30097 25.23405
#
# Velocity S-wave (km/s) = 3.63170 4.27287 3.96527
# Velocity P-wave (km/s) = 6.62585 7.74103 7.20505
#
# Compressibility (1/GPa) = 0.02367743
#
# Stress axis : x y z
#
# Youngs Moduli (GPa) = 95.15643 74.74497 36.21857
#
# Poissons Ratio (x) = 0.33680 0.12985
# Poissons Ratio (y) = 0.42878 0.21076
# Poissons Ratio (z) = 0.34115 0.43495
#
# Static dielectric constant tensor:
#      x y z
#    x 1.569720 0.000000 0.021750 
#    y 0.000000 1.527770 0.000000 
#    z 0.021750 0.000000 1.563000 
# 
# From -- ./inp_files/199488.got.cif
#   From: 2010.05.17/outbox.cif.g08.bks.cpg/sg12_100_cif.got.tgz:199488.got - 2010.06.03 13:09:07.
