data_PCOD9175310
_publ_section_title
;
Structure prediction by ZEFSAII (Michael W. Deem and Ramdas Pophale) SiO2 
 PCOD9175310
Probable space group: C 2/M
;
_chemical_formula_sum "Si O2"
_cell_formula_units_Z 48
_cell_length_a 14.967763
_cell_length_b 19.599466
_cell_length_c 9.717278
_cell_angle_alpha 90.000000
_cell_angle_beta 69.183212
_cell_angle_gamma 90.000000
_cell_volume 2664.575543
_symmetry_space_group_name_H-M "C 2/M"
_symmetry_group_IT_number 12
_symmetry_cell_setting 'monoclinic'
loop_
_space_group_symop_operation_xyz
x,y,z
-x,y,-z
-x,-y,-z
x,-y,z
1/2+x,1/2+y,z
1/2-x,1/2+y,-z
1/2-x,1/2-y,-z
1/2+x,1/2-y,z
loop_
_atom_site_type_symbol
_atom_site_label
_atom_site_fract_x
_atom_site_fract_y
_atom_site_fract_z
Si Si1 0.064828 0.786582 0.824951
Si Si2 0.437941 0.077430 0.904622
Si Si3 0.984211 0.926939 0.845419
Si Si4 0.262327 0.735160 0.828561
Si Si5 0.770376 0.922420 0.852152
Si Si6 0.460852 0.190125 0.673368
O O1 0.172607 0.772142 0.808477
O O2 0.043172 0.860676 0.771785
O O3 0.031670 0.732811 0.731089
O O4 0.000000 0.780800 0.000000
O O5 0.449042 0.119858 0.761246
O O6 0.471435 0.000000 0.867195
O O7 0.500000 0.105930 0.000000
O O8 0.326371 0.077116 0.005607
O O9 0.871499 0.918654 0.876825
O O10 0.014443 0.000000 0.767981
O O11 0.000000 0.930476 0.000000
O O12 0.263652 0.653988 0.790777
O O13 0.361035 0.769263 0.729679
O O14 0.250000 0.750000 0.000000
O O15 0.771058 0.000000 0.784683
O O16 0.500000 0.181890 0.500000
#
# Coordination Sequence:
#
# PCOD9175310 Si02
#       6
#     8   8   8   8   8   8
#     4  11  20  36  61  85 114 156 203 251 299 363
#     4  10  21  38  61  89 117 155 206 253 299 361
#     4   9  17  29  51  87 116 139 184 252 307 342
#     4  12  20  36  63  88 116 156 206 252 301 359
#     4  10  18  32  58  89 112 143 199 253 294 345
#     4  12  25  38  56  89 127 161 199 251 312 365
#
# _framework density 18.014126000000001
#
# number of rings (size 3 to 8) (size 9 to 14) (size 15 to 20)
#    0.000    1.333    5.000    2.500    0.000    1.000 
#    0.000    0.000    0.000    2.000    0.000    0.000 
#    0.000    0.000    0.000    0.000    0.000    0.000 
#
# Total GULP energy -133688.573662 kJ/mol
# GULP energy per Si atom -5570.357236 kJ/mol
# Density = 1.797313 g / cm^3
# Si number density = 18.014126 Si / 1000 Ang^3
#
#
#
# Elastic Constant Matrix: (Units=GPa)
#
#
# Indices 1 2 3 4 5 6 
#
# 1 124.6138 31.6541 31.8550 0.0000 -1.9719 0.0000
# 2 31.6541 125.7408 40.4825 0.0000 -1.0739 0.0000
# 3 31.8550 40.4825 75.9757 0.0000 -3.5056 0.0000
# 4 0.0000 0.0000 0.0000 -9.8463 0.0000 -0.6283
# 5 -1.9719 -1.0739 -3.5056 0.0000 13.0432 0.0000
# 6 0.0000 0.0000 0.0000 -0.6283 0.0000 31.0180
#
#
#
# Elastic Compliance Matrix: (Units=1/GPa)
#
#
# Indices 1 2 3 4 5 6 
#
# 1 0.009161 -0.001294 -0.003131 0.000000 0.000437 0.000000
# 2 -0.001294 0.009787 -0.004702 0.000000 -0.000654 0.000000
# 3 -0.003131 -0.004702 0.017154 0.000000 0.003750 0.000000
# 4 0.000000 0.000000 0.000000 -0.101430 0.000000 -0.002055
# 5 0.000437 -0.000654 0.003750 0.000000 0.077688 0.000000
# 6 0.000000 0.000000 0.000000 -0.002055 0.000000 0.032198
#
#
# Mechanical properties :
#
#
# Convention : Reuss Voigt Hill
#
# Bulk Modulus (GPa) = 56.03564 59.36816 57.70190
# Shear Modulus (GPa) = 72.71446 21.66556 47.19001
#
# Velocity S-wave (km/s) = 6.36026 3.47176 5.12377
# Velocity P-wave (km/s) = 9.22557 7.00705 8.19176
#
# Compressibility (1/GPa) = 0.01784578
#
# Stress axis : x y z
#
# Youngs Moduli (GPa) = 109.15946 102.17576 58.29712
#
# Poissons Ratio (x) = 0.13225 0.18254
# Poissons Ratio (y) = 0.14129 0.27413
# Poissons Ratio (z) = 0.34179 0.48047
#
# Static dielectric constant tensor:
#      x y z
#    x 1.647160 0.000000 0.113390 
#    y 0.000000 1.729930 0.000000 
#    z 0.113390 0.000000 1.802190 
# 
# From -- ./inp_files/63339.got.cif
#   From: 2010.05.17/outbox.cif.g08.bks.cpg/sg12_32_cif.got.tgz:63339.got - 2010.06.03 13:09:07.
