data_PCOD9175909
_publ_section_title
;
Structure prediction by ZEFSAII (Michael W. Deem and Ramdas Pophale) SiO2 
 PCOD9175909
Probable space group: C 2/M
;
_chemical_formula_sum "Si O2"
_cell_formula_units_Z 64
_cell_length_a 11.793474
_cell_length_b 18.306219
_cell_length_c 20.847757
_cell_angle_alpha 90.000000
_cell_angle_beta 127.940867
_cell_angle_gamma 90.000000
_cell_volume 3549.618701
_symmetry_space_group_name_H-M "C 2/M"
_symmetry_group_IT_number 12
_symmetry_cell_setting 'monoclinic'
loop_
_space_group_symop_operation_xyz
x,y,z
-x,y,-z
-x,-y,-z
x,-y,z
1/2+x,1/2+y,z
1/2-x,1/2+y,-z
1/2-x,1/2-y,-z
1/2+x,1/2-y,z
loop_
_atom_site_type_symbol
_atom_site_label
_atom_site_fract_x
_atom_site_fract_y
_atom_site_fract_z
Si Si1 0.879636 0.918596 0.270733
Si Si2 0.633772 0.315621 0.375431
Si Si3 0.620223 0.916441 0.486442
Si Si4 0.396996 0.088352 0.024316
Si Si5 0.082223 0.084862 0.869574
Si Si6 0.825486 0.810884 0.762395
Si Si7 0.920725 0.643630 0.796451
Si Si8 0.995427 0.657762 0.675803
O O1 0.887006 0.912120 0.196186
O O2 0.718282 0.904785 0.236366
O O3 0.986174 0.858973 0.336392
O O4 0.927655 0.000000 0.304674
O O5 0.757719 0.356110 0.457827
O O6 0.672505 0.324508 0.313642
O O7 0.598162 0.230626 0.372315
O O8 0.500000 0.908668 0.500000
O O9 0.547468 0.900853 0.392669
O O10 0.675550 0.000000 0.508976
O O11 0.457707 0.121970 0.110584
O O12 0.402841 0.000000 0.030096
O O13 0.500000 0.109405 0.000000
O O14 0.231310 0.108854 0.953981
O O15 0.943992 0.134943 0.833747
O O16 0.053867 0.000000 0.876028
O O17 0.875364 0.727943 0.790516
O O18 0.664039 0.823298 0.729813
O O19 0.963485 0.634701 0.737361
#
# Coordination Sequence:
#
# PCOD9175909 Si02
#       8
#     8   8   8   8   8   8   8   8
#     4  10  18  33  59  87 114 148 195 245 291 338
#     4  10  20  39  63  85 113 155 199 243 283 347
#     4  11  23  39  61  89 118 151 197 243 286 348
#     4  10  19  35  59  87 118 155 200 244 288 344
#     4   9  19  35  59  85 111 151 202 247 281 333
#     4  10  21  38  58  85 119 153 202 238 290 353
#     4  11  22  35  58  87 122 156 189 243 304 350
#     4  11  23  40  59  85 121 158 188 242 303 353
#
# _framework density 18.030106
#
# number of rings (size 3 to 8) (size 9 to 14) (size 15 to 20)
#    0.000    1.750    3.750    1.125    0.000    2.500 
#    0.000    1.250    0.000    3.000    0.000    0.000 
#    0.000    0.000    0.000    0.000    0.000    0.000 
#
# Total GULP energy -178585.343478 kJ/mol
# GULP energy per Si atom -5580.791984 kJ/mol
# Density = 1.798907 g / cm^3
# Si number density = 18.030106 Si / 1000 Ang^3
#
#
#
# Elastic Constant Matrix: (Units=GPa)
#
#
# Indices 1 2 3 4 5 6 
#
# 1 62.4782 21.4132 24.5619 0.0000 8.2708 0.0000
# 2 21.4132 43.3656 33.4981 0.0000 -5.7896 0.0000
# 3 24.5619 33.4981 97.5499 0.0000 7.1992 0.0000
# 4 0.0000 0.0000 0.0000 31.9532 0.0000 5.0684
# 5 8.2708 -5.7896 7.1992 0.0000 21.5046 0.0000
# 6 0.0000 0.0000 0.0000 5.0684 0.0000 24.2260
#
#
#
# Elastic Compliance Matrix: (Units=1/GPa)
#
#
# Indices 1 2 3 4 5 6 
#
# 1 0.021795 -0.011826 -0.000588 0.000000 -0.011369 0.000000
# 2 -0.011826 0.041372 -0.012701 0.000000 0.019938 0.000000
# 3 -0.000588 -0.012701 0.015376 0.000000 -0.008341 0.000000
# 4 0.000000 0.000000 0.000000 0.032370 0.000000 -0.006772
# 5 -0.011369 0.019938 -0.008341 0.000000 0.059035 0.000000
# 6 0.000000 0.000000 0.000000 -0.006772 0.000000 0.042695
#
#
# Mechanical properties :
#
#
# Convention : Reuss Voigt Hill
#
# Bulk Modulus (GPa) = 35.31795 40.25999 37.78897
# Shear Modulus (GPa) = 18.36154 23.79813 21.07984
#
# Velocity S-wave (km/s) = 3.19467 3.63700 3.42299
# Velocity P-wave (km/s) = 5.76531 6.32573 6.05201
#
# Compressibility (1/GPa) = 0.02831421
#
# Stress axis : x y z
#
# Youngs Moduli (GPa) = 45.88266 24.17107 65.03625
#
# Poissons Ratio (x) = 0.28584 0.03822
# Poissons Ratio (y) = 0.54260 0.82601
# Poissons Ratio (z) = 0.02696 0.30699
#
# Static dielectric constant tensor:
#      x y z
#    x 1.591180 0.000000 0.007580 
#    y 0.000000 1.620420 0.000000 
#    z 0.007580 0.000000 1.600740 
# 
# From -- ./inp_files/306243.got.cif
#   From: 2010.05.17/outbox.cif.g08.bks.cpg/sg12_154_cif.got.tgz:306243.got - 2010.06.03 13:09:07.
