data_PCOD9175136
_publ_section_title
;
Structure prediction by ZEFSAII (Michael W. Deem and Ramdas Pophale) SiO2 
 PCOD9175136
Probable space group: C 2/M
;
_chemical_formula_sum "Si O2"
_cell_formula_units_Z 56
_cell_length_a 29.317102
_cell_length_b 7.895243
_cell_length_c 12.184706
_cell_angle_alpha 90.000000
_cell_angle_beta 114.393176
_cell_angle_gamma 90.000000
_cell_volume 2568.577054
_symmetry_space_group_name_H-M "C 2/M"
_symmetry_group_IT_number 12
_symmetry_cell_setting 'monoclinic'
loop_
_space_group_symop_operation_xyz
x,y,z
-x,y,-z
-x,-y,-z
x,-y,z
1/2+x,1/2+y,z
1/2-x,1/2+y,-z
1/2-x,1/2-y,-z
1/2+x,1/2-y,z
loop_
_atom_site_type_symbol
_atom_site_label
_atom_site_fract_x
_atom_site_fract_y
_atom_site_fract_z
Si Si1 0.420888 0.303187 0.467255
Si Si2 0.494014 0.809270 0.717932
Si Si3 0.354601 0.292255 0.943966
Si Si4 0.448417 0.704005 0.889129
Si Si5 0.825730 0.701982 0.505849
Si Si6 0.218772 0.795611 0.309198
Si Si7 0.899984 0.806064 0.207650
O O1 0.434429 0.500000 0.464362
O O2 0.467066 0.218884 0.575566
O O3 0.373350 0.289175 0.499830
O O4 0.405262 0.227750 0.333776
O O5 0.453419 0.773259 0.771665
O O6 0.542998 0.694694 0.781061
O O7 0.512105 0.000000 0.745936
O O8 0.355492 0.500000 0.948888
O O9 0.401145 0.239724 0.913161
O O10 0.304810 0.239917 0.829558
O O11 0.365030 0.231131 0.077817
O O12 0.446537 0.500000 0.880692
O O13 0.500000 0.753469 0.000000
O O14 0.831284 0.500000 0.497725
O O15 0.816280 0.740093 0.624357
O O16 0.774903 0.760802 0.393545
O O17 0.219271 0.000000 0.310624
O O18 0.883303 0.000000 0.207824
#
# Coordination Sequence:
#
# PCOD9175136 Si02
#       7
#     8   8   8   8   8   8   8
#     4  11  23  38  58  78 103 144 192 232 270 326
#     4  12  24  36  54  81 114 145 179 228 282 329
#     4   9  17  33  57  81 106 140 183 225 265 316
#     4  10  18  32  56  81 109 144 182 222 262 317
#     4  10  20  35  56  84 115 141 176 227 277 324
#     4   9  18  34  59  86 111 144 179 217 272 335
#     4  10  21  39  58  77 104 144 192 230 264 324
#
# _framework density 21.801955
#
# number of rings (size 3 to 8) (size 9 to 14) (size 15 to 20)
#    0.000    1.857    1.429    3.429    0.000    4.857 
#    0.000    1.429    0.000    0.000    0.000    0.000 
#    0.000    0.000    0.000    0.000    0.000    0.000 
#
# Total GULP energy -156447.013139 kJ/mol
# GULP energy per Si atom -5587.393326 kJ/mol
# Density = 2.175233 g / cm^3
# Si number density = 21.801955 Si / 1000 Ang^3
#
#
#
# Elastic Constant Matrix: (Units=GPa)
#
#
# Indices 1 2 3 4 5 6 
#
# 1 21.7666 -6.5231 3.8588 0.0000 1.5625 0.0000
# 2 -6.5231 32.3401 4.5302 0.0000 0.9118 0.0000
# 3 3.8588 4.5302 175.5292 0.0000 1.9998 0.0000
# 4 0.0000 0.0000 0.0000 7.1947 0.0000 7.9661
# 5 1.5625 0.9118 1.9998 0.0000 25.7763 0.0000
# 6 0.0000 0.0000 0.0000 7.9661 0.0000 -8.9134
#
#
#
# Elastic Compliance Matrix: (Units=1/GPa)
#
#
# Indices 1 2 3 4 5 6 
#
# 1 0.049483 0.010257 -0.001315 0.000000 -0.003260 0.000000
# 2 0.010257 0.033187 -0.001063 0.000000 -0.001713 0.000000
# 3 -0.001315 -0.001063 0.005757 0.000000 -0.000329 0.000000
# 4 0.000000 0.000000 0.000000 0.069861 0.000000 0.062436
# 5 -0.003260 -0.001713 -0.000329 0.000000 0.039079 0.000000
# 6 0.000000 0.000000 0.000000 0.062436 0.000000 -0.056390
#
#
# Mechanical properties :
#
#
# Convention : Reuss Voigt Hill
#
# Bulk Modulus (GPa) = 9.59823 25.92975 17.76399
# Shear Modulus (GPa) = 31.26026 19.99620 25.62823
#
# Velocity S-wave (km/s) = 3.79070 3.03177 3.43228
# Velocity P-wave (km/s) = 4.85502 4.91677 4.88600
#
# Compressibility (1/GPa) = 0.10418588
#
# Stress axis : x y z
#
# Youngs Moduli (GPa) = 20.20894 30.13197 173.69705
#
# Poissons Ratio (x) = -0.30907 0.22848
# Poissons Ratio (y) = -0.20728 0.18455
# Poissons Ratio (z) = 0.02658 0.03202
#
# Static dielectric constant tensor:
#      x y z
#    x 1.761860 0.000000 -0.007280 
#    y 0.000000 1.778660 0.000000 
#    z -0.007280 0.000000 1.840780 
# 
# From -- ./inp_files/186861.got.cif
#   From: 2010.05.17/outbox.cif.g08.bks.cpg/sg12_94_cif.got.tgz:186861.got - 2010.06.03 13:09:07.
