data_PCOD9175511
_publ_section_title
;
Structure prediction by ZEFSAII (Michael W. Deem and Ramdas Pophale) SiO2 
 PCOD9175511
Probable space group: C 2/M
;
_chemical_formula_sum "Si O2"
_cell_formula_units_Z 44
_cell_length_a 28.200613
_cell_length_b 14.012296
_cell_length_c 12.250067
_cell_angle_alpha 90.000000
_cell_angle_beta 27.962039
_cell_angle_gamma 90.000000
_cell_volume 2269.729042
_symmetry_space_group_name_H-M "C 2/M"
_symmetry_group_IT_number 12
_symmetry_cell_setting 'monoclinic'
loop_
_space_group_symop_operation_xyz
x,y,z
-x,y,-z
-x,-y,-z
x,-y,z
1/2+x,1/2+y,z
1/2-x,1/2+y,-z
1/2-x,1/2-y,-z
1/2+x,1/2-y,z
loop_
_atom_site_type_symbol
_atom_site_label
_atom_site_fract_x
_atom_site_fract_y
_atom_site_fract_z
Si Si1 0.600863 0.789242 0.223841
Si Si2 0.096552 0.799680 0.009525
Si Si3 0.305131 0.786657 0.496832
Si Si4 0.105025 0.105293 0.555568
Si Si5 0.000000 0.694063 0.000000
Si Si6 0.298070 0.606002 0.881246
O O1 0.500000 0.798207 0.500000
O O2 0.652519 0.687529 0.146403
O O3 0.585915 0.781822 0.124365
O O4 0.681533 0.868168 0.095682
O O5 0.213463 0.828576 0.755585
O O6 0.015593 0.880394 0.203372
O O7 0.054614 0.757175 0.981327
O O8 0.250000 0.750000 0.500000
O O9 0.347324 0.692962 0.474043
O O10 0.402722 0.849560 0.261912
O O11 0.147524 0.110949 0.346895
O O12 0.129899 0.000000 0.550082
O O13 0.310107 0.500000 0.901641
#
# Coordination Sequence:
#
# PCOD9175511 Si02
#       6
#     8   8   8   8   4   8
#     4  11  21  35  58  83 111 149 189 224 283 337
#     4  10  18  33  53  82 109 143 181 221 272 333
#     4   9  17  33  52  78 106 143 181 222 270 325
#     4  10  19  33  54  82 110 140 181 233 277 325
#     4   8  18  30  53  76 103 138 180 226 258 324
#     4  10  22  36  52  82 116 145 187 234 274 329
#
# _framework density 19.385573000000001
#
# number of rings (size 3 to 8) (size 9 to 14) (size 15 to 20)
#    0.000    2.182    3.636    0.000    0.000    1.455 
#    0.000   16.364    0.000    0.000    0.000   47.091 
#    0.000    0.000    0.000    0.000    0.000    0.000 
#
# Total GULP energy -122469.538365 kJ/mol
# GULP energy per Si atom -5566.797198 kJ/mol
# Density = 1.934145 g / cm^3
# Si number density = 19.385573 Si / 1000 Ang^3
#
#
#
# Elastic Constant Matrix: (Units=GPa)
#
#
# Indices 1 2 3 4 5 6 
#
# 1 47.9768 1.8369 24.8051 0.0000 -2.7207 0.0000
# 2 1.8369 40.9734 8.2741 0.0000 -6.3166 0.0000
# 3 24.8051 8.2741 170.3342 0.0000 -14.8692 0.0000
# 4 0.0000 0.0000 0.0000 11.0200 0.0000 -6.1191
# 5 -2.7207 -6.3166 -14.8692 0.0000 24.2289 0.0000
# 6 0.0000 0.0000 0.0000 -6.1191 0.0000 16.9180
#
#
#
# Elastic Compliance Matrix: (Units=1/GPa)
#
#
# Indices 1 2 3 4 5 6 
#
# 1 0.022551 -0.000286 -0.003228 0.000000 0.000476 0.000000
# 2 -0.000286 0.025509 -0.000655 0.000000 0.006216 0.000000
# 3 -0.003228 -0.000655 0.006684 0.000000 0.003569 0.000000
# 4 0.000000 0.000000 0.000000 0.113549 0.000000 0.041070
# 5 0.000476 0.006216 0.003569 0.000000 0.045137 0.000000
# 6 0.000000 0.000000 0.000000 0.041070 0.000000 0.073963
#
#
# Mechanical properties :
#
#
# Convention : Reuss Voigt Hill
#
# Bulk Modulus (GPa) = 21.54871 36.56850 29.05861
# Shear Modulus (GPa) = 16.06682 25.39128 20.72905
#
# Velocity S-wave (km/s) = 2.88202 3.62305 3.27357
# Velocity P-wave (km/s) = 4.71324 6.03379 5.41393
#
# Compressibility (1/GPa) = 0.04640648
#
# Stress axis : x y z
#
# Youngs Moduli (GPa) = 44.34480 39.20116 149.60389
#
# Poissons Ratio (x) = 0.01119 0.48299
# Poissons Ratio (y) = 0.01266 0.09797
# Poissons Ratio (z) = 0.14317 0.02567
#
# Static dielectric constant tensor:
#      x y z
#    x 1.714190 0.000000 0.009050 
#    y 0.000000 1.658750 0.000000 
#    z 0.009050 0.000000 1.760500 
# 
# From -- ./inp_files/183388.got.cif
#   From: 2010.05.17/outbox.cif.g08.bks.cpg/sg12_92_cif.got.tgz:183388.got - 2010.06.03 13:09:07.
