data_PCOD9175697
_publ_section_title
;
Structure prediction by ZEFSAII (Michael W. Deem and Ramdas Pophale) SiO2 
 PCOD9175697
Probable space group: C 2/M
;
_chemical_formula_sum "Si O2"
_cell_formula_units_Z 64
_cell_length_a 25.550127
_cell_length_b 7.638032
_cell_length_c 19.805418
_cell_angle_alpha 90.000000
_cell_angle_beta 49.049088
_cell_angle_gamma 90.000000
_cell_volume 2919.184722
_symmetry_space_group_name_H-M "C 2/M"
_symmetry_group_IT_number 12
_symmetry_cell_setting 'monoclinic'
loop_
_space_group_symop_operation_xyz
x,y,z
-x,y,-z
-x,-y,-z
x,-y,z
1/2+x,1/2+y,z
1/2-x,1/2+y,-z
1/2-x,1/2-y,-z
1/2+x,1/2-y,z
loop_
_atom_site_type_symbol
_atom_site_label
_atom_site_fract_x
_atom_site_fract_y
_atom_site_fract_z
Si Si1 0.826285 0.288742 0.143991
Si Si2 0.335077 0.208243 0.286932
Si Si3 0.036364 0.205563 0.036761
Si Si4 0.587171 0.301524 0.486375
Si Si5 0.294681 0.805038 0.526446
Si Si6 0.035256 0.214290 0.321324
Si Si7 0.667743 0.286175 0.286911
Si Si8 0.976932 0.209714 0.227931
O O1 0.826285 0.500000 0.139948
O O2 0.854551 0.238966 0.194576
O O3 0.881373 0.222152 0.043514
O O4 0.746550 0.227586 0.208534
O O5 0.262927 0.295563 0.366545
O O6 0.395485 0.253538 0.287866
O O7 0.323332 0.000000 0.297965
O O8 0.018013 0.000000 0.053779
O O9 0.011475 0.279900 0.129557
O O10 0.000000 0.282377 0.000000
O O11 0.571139 0.500000 0.478884
O O12 0.640166 0.305418 0.504759
O O13 0.516550 0.223330 0.575376
O O14 0.630407 0.223109 0.387588
O O15 0.250000 0.750000 0.500000
O O16 0.320747 0.000000 0.493921
O O17 0.113836 0.259169 0.273496
O O18 0.008899 0.276394 0.270769
O O19 0.030709 0.000000 0.325643
O O20 0.672084 0.500000 0.288255
O O21 0.986187 0.000000 0.221319
#
# Coordination Sequence:
#
# PCOD9175697 Si02
#       8
#     8   8   8   8   8   8   8   8
#     4  10  20  34  55  81 109 138 179 229 275 329
#     4  11  21  35  55  81 111 143 178 226 279 333
#     4  10  20  34  53  77 110 145 183 228 274 330
#     4  10  18  33  56  83 110 138 183 231 273 326
#     4  12  24  36  52  77 113 153 187 224 273 328
#     4   9  18  32  56  82 106 141 184 228 274 325
#     4   9  17  33  55  82 111 140 180 230 275 323
#     4  10  20  35  54  81 111 145 186 229 277 332
#
# _framework density 21.923929000000001
#
# number of rings (size 3 to 8) (size 9 to 14) (size 15 to 20)
#    0.000    1.875    2.500    2.625    0.000    3.750 
#    0.000    0.625    0.000    3.750    0.000    0.000 
#    0.000    0.000    0.000    0.000    0.000    0.000 
#
# Total GULP energy -178741.250422 kJ/mol
# GULP energy per Si atom -5585.664076 kJ/mol
# Density = 2.187403 g / cm^3
# Si number density = 21.923929 Si / 1000 Ang^3
#
#
#
# Elastic Constant Matrix: (Units=GPa)
#
#
# Indices 1 2 3 4 5 6 
#
# 1 138.3691 0.7236 35.8589 -0.0004 -17.2024 -0.0102
# 2 0.7236 46.3569 0.5198 -0.0180 6.3621 -0.0152
# 3 35.8589 0.5198 90.7626 -0.0048 -15.1757 -0.0070
# 4 -0.0004 -0.0180 -0.0048 8.2624 -0.0040 -9.5159
# 5 -17.2024 6.3621 -15.1757 -0.0040 27.2596 0.0121
# 6 -0.0102 -0.0152 -0.0070 -9.5159 0.0121 7.7879
#
#
#
# Elastic Compliance Matrix: (Units=1/GPa)
#
#
# Indices 1 2 3 4 5 6 
#
# 1 0.008413 -0.000648 -0.002654 -0.000002 0.003983 -0.000001
# 2 -0.000648 0.022435 -0.000900 -0.000257 -0.006146 -0.000263
# 3 -0.002654 -0.000900 0.013041 -0.000013 0.005795 -0.000019
# 4 -0.000002 -0.000257 -0.000013 -0.297186 0.000169 -0.363126
# 5 0.003983 -0.006146 0.005795 0.000169 0.043858 0.000136
# 6 -0.000001 -0.000263 -0.000019 -0.363126 0.000136 -0.315293
#
#
# Mechanical properties :
#
#
# Convention : Reuss Voigt Hill
#
# Bulk Modulus (GPa) = 28.18172 38.85481 33.51827
# Shear Modulus (GPa) = -9.91085 24.55440 7.32177
#
# Velocity S-wave (km/s) = -2.12847 3.35024 1.82945
# Velocity P-wave (km/s) = 2.61567 5.72071 4.44794
#
# Compressibility (1/GPa) = 0.03548399
#
# Stress axis : x y z
#
# Youngs Moduli (GPa) = 118.85662 44.57264 76.68414
#
# Poissons Ratio (x) = 0.02889 0.20355
# Poissons Ratio (y) = 0.07704 0.06902
# Poissons Ratio (z) = 0.31549 0.04012
#
# Static dielectric constant tensor:
#      x y z
#    x 1.814760 0.000000 0.020560 
#    y 0.000000 1.837000 0.000010 
#    z 0.020560 0.000010 1.819640 
# 
# From -- ./inp_files/324202.got.cif
#   From: 2010.05.17/outbox.cif.g08.bks.cpg/sg12_163_cif.got.tgz:324202.got - 2010.06.03 13:09:07.
