data_PCOD9175793
_publ_section_title
;
Structure prediction by ZEFSAII (Michael W. Deem and Ramdas Pophale) SiO2 
 PCOD9175793
Probable space group: C 2/M
;
_chemical_formula_sum "Si O2"
_cell_formula_units_Z 64
_cell_length_a 15.244820
_cell_length_b 26.669306
_cell_length_c 8.792749
_cell_angle_alpha 90.000000
_cell_angle_beta 116.869045
_cell_angle_gamma 90.000000
_cell_volume 3188.922124
_symmetry_space_group_name_H-M "C 2/M"
_symmetry_group_IT_number 12
_symmetry_cell_setting 'monoclinic'
loop_
_space_group_symop_operation_xyz
x,y,z
-x,y,-z
-x,-y,-z
x,-y,z
1/2+x,1/2+y,z
1/2-x,1/2+y,-z
1/2-x,1/2-y,-z
1/2+x,1/2-y,z
loop_
_atom_site_type_symbol
_atom_site_label
_atom_site_fract_x
_atom_site_fract_y
_atom_site_fract_z
Si Si1 0.573431 0.057273 0.742475
Si Si2 0.756538 0.099996 0.703985
Si Si3 0.932145 0.369695 0.796422
Si Si4 0.101675 0.845858 0.610855
Si Si5 0.297708 0.053701 0.851382
Si Si6 0.912350 0.943593 0.615731
Si Si7 0.774196 0.692398 0.545987
Si Si8 0.616006 0.591873 0.893231
O O1 0.653882 0.078067 0.686602
O O2 0.489330 0.097697 0.714392
O O3 0.542018 0.000000 0.683916
O O4 0.628702 0.053834 0.948071
O O5 0.812285 0.063395 0.631213
O O6 0.744273 0.153606 0.609479
O O7 0.832187 0.100991 0.905982
O O8 0.838640 0.403295 0.775678
O O9 0.884099 0.319869 0.690325
O O10 0.000000 0.362058 0.000000
O O11 0.090831 0.899095 0.510608
O O12 0.196834 0.821399 0.617005
O O13 0.108347 0.856537 0.793915
O O14 0.000000 0.817570 0.500000
O O15 0.192985 0.061025 0.849214
O O16 0.302650 0.000000 0.776696
O O17 0.008412 0.933012 0.797165
O O18 0.919178 0.000000 0.560861
O O19 0.750000 0.750000 0.500000
#
# Coordination Sequence:
#
# PCOD9175793 Si02
#       8
#     8   8   8   8   8   8   8   8
#     4   9  18  34  58  90 127 160 194 232 294 372
#     4  10  22  38  57  85 125 164 196 254 309 364
#     4  10  20  38  63  90 123 159 203 251 299 361
#     4   9  20  39  60  85 117 157 204 256 298 355
#     4   9  16  28  54  88 122 159 196 239 290 354
#     4  10  20  33  54  88 129 171 208 242 292 357
#     4  11  24  46  64  85 118 156 204 264 318 360
#     4  10  18  33  57  85 121 157 205 246 302 353
#
# _framework density 20.069478
#
# number of rings (size 3 to 8) (size 9 to 14) (size 15 to 20)
#    0.000    2.250    1.250    1.500    0.000    6.750 
#    2.250    6.875    0.000    0.000    0.000    0.000 
#    0.000    0.000    0.000    0.000    0.000    0.000 
#
# Total GULP energy -178431.805279 kJ/mol
# GULP energy per Si atom -5575.993915 kJ/mol
# Density = 2.002380 g / cm^3
# Si number density = 20.069478 Si / 1000 Ang^3
#
#
#
# Elastic Constant Matrix: (Units=GPa)
#
#
# Indices 1 2 3 4 5 6 
#
# 1 119.7652 47.3961 20.7133 0.0000 -5.2894 0.0000
# 2 47.3961 102.9914 15.7696 0.0000 12.3032 0.0000
# 3 20.7133 15.7696 84.6845 0.0000 18.8940 0.0000
# 4 0.0000 0.0000 0.0000 14.0933 0.0000 3.5348
# 5 -5.2894 12.3032 18.8940 0.0000 29.8501 0.0000
# 6 0.0000 0.0000 0.0000 3.5348 0.0000 15.1505
#
#
#
# Elastic Compliance Matrix: (Units=1/GPa)
#
#
# Indices 1 2 3 4 5 6 
#
# 1 0.011342 -0.005486 -0.003150 0.000000 0.006265 0.000000
# 2 -0.005486 0.012958 0.000393 0.000000 -0.006561 0.000000
# 3 -0.003150 0.000393 0.014750 0.000000 -0.010056 0.000000
# 4 0.000000 0.000000 0.000000 0.075366 0.000000 -0.017584
# 5 0.006265 -0.006561 -0.010056 0.000000 0.043680 0.000000
# 6 0.000000 0.000000 0.000000 -0.017584 0.000000 0.070107
#
#
# Mechanical properties :
#
#
# Convention : Reuss Voigt Hill
#
# Bulk Modulus (GPa) = 44.32093 52.79987 48.56040
# Shear Modulus (GPa) = 19.82470 26.72291 23.27380
#
# Velocity S-wave (km/s) = 3.14634 3.65296 3.40907
# Velocity P-wave (km/s) = 5.94399 6.64513 6.30432
#
# Compressibility (1/GPa) = 0.02256270
#
# Stress axis : x y z
#
# Youngs Moduli (GPa) = 88.16702 77.17443 67.79840
#
# Poissons Ratio (x) = 0.42335 0.21360
# Poissons Ratio (y) = 0.48365 -0.02663
# Poissons Ratio (z) = 0.27777 -0.03031
#
# Static dielectric constant tensor:
#      x y z
#    x 1.732770 0.000000 0.035820 
#    y 0.000000 1.702580 0.000000 
#    z 0.035820 0.000000 1.764840 
# 
# From -- ./inp_files/67045.got.cif
#   From: 2010.05.17/outbox.cif.g08.bks.cpg/sg12_34_cif.got.tgz:67045.got - 2010.06.03 13:09:07.
