data_PCOD9175108
_publ_section_title
;
Structure prediction by ZEFSAII (Michael W. Deem and Ramdas Pophale) SiO2 
 PCOD9175108
Probable space group: C 2/M
;
_chemical_formula_sum "Si O2"
_cell_formula_units_Z 64
_cell_length_a 20.735407
_cell_length_b 19.890743
_cell_length_c 9.642780
_cell_angle_alpha 90.000000
_cell_angle_beta 59.579327
_cell_angle_gamma 90.000000
_cell_volume 3429.571352
_symmetry_space_group_name_H-M "C 2/M"
_symmetry_group_IT_number 12
_symmetry_cell_setting 'monoclinic'
loop_
_space_group_symop_operation_xyz
x,y,z
-x,y,-z
-x,-y,-z
x,-y,z
1/2+x,1/2+y,z
1/2-x,1/2+y,-z
1/2-x,1/2-y,-z
1/2+x,1/2-y,z
loop_
_atom_site_type_symbol
_atom_site_label
_atom_site_fract_x
_atom_site_fract_y
_atom_site_fract_z
Si Si1 0.087539 0.573270 0.380382
Si Si2 0.838534 0.841949 0.237818
Si Si3 0.440607 0.576869 0.936107
Si Si4 0.969292 0.814688 0.318493
Si Si5 0.817468 0.689151 0.190222
Si Si6 0.654207 0.715565 0.346836
Si Si7 0.176526 0.349665 0.508289
Si Si8 0.409101 0.201050 0.822206
O O1 0.116724 0.500000 0.303213
O O2 0.128327 0.597039 0.476110
O O3 0.092041 0.634547 0.269112
O O4 0.000000 0.567178 0.500000
O O5 0.905383 0.826111 0.271617
O O6 0.817966 0.770090 0.197580
O O7 0.764264 0.866719 0.395548
O O8 0.867358 0.891291 0.086918
O O9 0.430899 0.500000 0.901152
O O10 0.472063 0.626322 0.783186
O O11 0.500000 0.576537 0.000000
O O12 0.922519 0.817343 0.512757
O O13 0.012892 0.743138 0.254582
O O14 0.729711 0.672085 0.264731
O O15 0.841863 0.659154 0.310789
O O16 0.874861 0.677641 0.004326
O O17 0.664206 0.777478 0.445628
O O18 0.642614 0.747024 0.208036
#
# Coordination Sequence:
#
# PCOD9175108 Si02
#       8
#     8   8   8   8   8   8   8   8
#     4  10  23  44  62  82 117 161 206 252 312 389
#     4  10  18  32  55  87 120 149 195 254 308 353
#     4   9  19  32  50  81 120 156 198 250 302 357
#     4  11  18  33  56  85 119 159 205 251 297 357
#     4  11  19  34  55  91 118 147 195 269 311 354
#     4  10  19  34  53  83 124 156 192 251 309 359
#     4  10  19  35  61  85 114 152 197 253 312 364
#     4  11  22  33  59  91 121 161 203 248 313 374
#
# _framework density 18.661225000000002
#
# number of rings (size 3 to 8) (size 9 to 14) (size 15 to 20)
#    0.000    1.750    3.750    3.000    0.000    0.500 
#    0.000    0.625    0.000    3.750    0.000    0.000 
#    0.000    0.000    0.000    0.000    0.000    0.000 
#
# Total GULP energy -178317.657077 kJ/mol
# GULP energy per Si atom -5572.426784 kJ/mol
# Density = 1.861875 g / cm^3
# Si number density = 18.661225 Si / 1000 Ang^3
#
#
#
# Elastic Constant Matrix: (Units=GPa)
#
#
# Indices 1 2 3 4 5 6 
#
# 1 87.2823 25.2941 37.8981 0.0000 -2.0176 0.0000
# 2 25.2941 97.6195 37.9575 0.0000 -2.3406 0.0000
# 3 37.8981 37.9575 114.4690 0.0000 -5.4687 0.0000
# 4 0.0000 0.0000 0.0000 17.6014 0.0000 1.3708
# 5 -2.0176 -2.3406 -5.4687 0.0000 17.7813 0.0000
# 6 0.0000 0.0000 0.0000 1.3708 0.0000 13.1260
#
#
#
# Elastic Compliance Matrix: (Units=1/GPa)
#
#
# Indices 1 2 3 4 5 6 
#
# 1 0.013731 -0.002055 -0.003860 0.000000 0.000100 0.000000
# 2 -0.002055 0.012070 -0.003306 0.000000 0.000339 0.000000
# 3 -0.003860 -0.003306 0.011233 0.000000 0.002582 0.000000
# 4 0.000000 0.000000 0.000000 0.057279 0.000000 -0.005982
# 5 0.000100 0.000339 0.002582 0.000000 0.057089 0.000000
# 6 0.000000 0.000000 0.000000 -0.005982 0.000000 0.076810
#
#
# Mechanical properties :
#
#
# Convention : Reuss Voigt Hill
#
# Bulk Modulus (GPa) = 53.78247 55.74113 54.76180
# Shear Modulus (GPa) = 19.77456 22.91649 21.34553
#
# Velocity S-wave (km/s) = 3.25877 3.50812 3.38575
# Velocity P-wave (km/s) = 6.56068 6.80765 6.68530
#
# Compressibility (1/GPa) = 0.01859342
#
# Stress axis : x y z
#
# Youngs Moduli (GPa) = 72.82919 82.85173 89.01967
#
# Poissons Ratio (x) = 0.17022 0.34360
# Poissons Ratio (y) = 0.14963 0.29429
# Poissons Ratio (z) = 0.28111 0.27390
#
# Static dielectric constant tensor:
#      x y z
#    x 1.705100 0.000000 -0.017020 
#    y 0.000000 1.646010 0.000000 
#    z -0.017020 0.000000 1.681760 
# 
# From -- ./inp_files/89554.got.cif
#   From: 2010.05.17/outbox.cif.g08.bks.cpg/sg12_45_cif.got.tgz:89554.got - 2010.06.03 13:09:07.
