data_PCOD9175397
_publ_section_title
;
Structure prediction by ZEFSAII (Michael W. Deem and Ramdas Pophale) SiO2 
 PCOD9175397
Probable space group: C 2/M
;
_chemical_formula_sum "Si O2"
_cell_formula_units_Z 64
_cell_length_a 17.101197
_cell_length_b 20.293361
_cell_length_c 22.507370
_cell_angle_alpha 90.000000
_cell_angle_beta 29.759740
_cell_angle_gamma 90.000000
_cell_volume 3877.087410
_symmetry_space_group_name_H-M "C 2/M"
_symmetry_group_IT_number 12
_symmetry_cell_setting 'monoclinic'
loop_
_space_group_symop_operation_xyz
x,y,z
-x,y,-z
-x,-y,-z
x,-y,z
1/2+x,1/2+y,z
1/2-x,1/2+y,-z
1/2-x,1/2-y,-z
1/2+x,1/2-y,z
loop_
_atom_site_type_symbol
_atom_site_label
_atom_site_fract_x
_atom_site_fract_y
_atom_site_fract_z
Si Si1 0.169199 0.693025 0.593997
Si Si2 0.687316 0.710175 0.370317
Si Si3 0.388530 0.197887 0.125588
Si Si4 0.323683 0.354741 0.292889
Si Si5 0.198103 0.689704 0.182030
Si Si6 0.121546 0.789138 0.047395
Si Si7 0.665267 0.073193 0.294522
Si Si8 0.700084 0.076753 0.485739
O O1 0.250000 0.750000 0.500000
O O2 0.230109 0.693013 0.621339
O O3 0.195948 0.621013 0.547531
O O4 0.982346 0.705628 0.713738
O O5 0.500000 0.698682 0.500000
O O6 0.767364 0.675369 0.259142
O O7 0.719961 0.789466 0.345823
O O8 0.282042 0.248536 0.157985
O O9 0.513438 0.237282 0.083369
O O10 0.500000 0.163281 0.000000
O O11 0.502237 0.333526 0.163044
O O12 0.258465 0.410983 0.292699
O O13 0.305121 0.382028 0.370888
O O14 0.209384 0.629309 0.219247
O O15 0.287625 0.671272 0.063038
O O16 0.250000 0.750000 0.000000
O O17 0.476336 0.077787 0.425798
O O18 0.700969 0.000000 0.249321
O O19 0.743554 0.000000 0.465116
#
# Coordination Sequence:
#
# PCOD9175397 Si02
#       8
#     8   8   8   8   8   8   8   8
#     4  11  21  31  54  80 105 139 182 225 278 328
#     4  11  19  31  50  78 108 133 173 226 272 324
#     4   9  18  31  48  66 102 141 167 208 272 317
#     4  11  19  31  49  72 107 145 180 215 262 321
#     4  10  18  33  48  70 104 138 176 222 260 321
#     4  10  20  31  46  68  99 141 177 217 269 310
#     4  10  19  31  50  74 103 146 181 215 263 324
#     4  10  21  35  51  76 110 144 183 226 275 330
#
# _framework density 16.507235999999999
#
# number of rings (size 3 to 8) (size 9 to 14) (size 15 to 20)
#    0.000    1.750    3.750    3.750    0.000    1.000 
#    0.000    1.875    0.000    0.375    0.000    0.000 
#    0.000    0.500    0.000    3.500    0.000    0.000 
#
# Total GULP energy -178142.464082 kJ/mol
# GULP energy per Si atom -5566.952003 kJ/mol
# Density = 1.646967 g / cm^3
# Si number density = 16.507236 Si / 1000 Ang^3
#
#
#
# Elastic Constant Matrix: (Units=GPa)
#
#
# Indices 1 2 3 4 5 6 
#
# 1 87.5879 8.2991 32.0221 0.0008 2.4514 0.0014
# 2 8.2991 24.0202 11.3704 0.0043 3.3053 -0.0003
# 3 32.0221 11.3704 108.2842 0.0009 13.4466 -0.0007
# 4 0.0008 0.0043 0.0009 6.4630 -0.0031 -3.7022
# 5 2.4514 3.3053 13.4466 -0.0031 21.7072 0.0012
# 6 0.0014 -0.0003 -0.0007 -3.7022 0.0012 9.9718
#
#
#
# Elastic Compliance Matrix: (Units=1/GPa)
#
#
# Indices 1 2 3 4 5 6 
#
# 1 0.013010 -0.002919 -0.003698 0.000000 0.001266 -0.000002
# 2 -0.002919 0.044810 -0.003289 -0.000038 -0.004456 -0.000012
# 3 -0.003698 -0.003289 0.011440 -0.000001 -0.006168 0.000002
# 4 0.000000 -0.000038 -0.000001 0.196522 0.000030 0.072962
# 5 0.001266 -0.004456 -0.006168 0.000030 0.050424 0.000004
# 6 -0.000002 -0.000012 0.000002 0.072962 0.000004 0.127371
#
#
# Mechanical properties :
#
#
# Convention : Reuss Voigt Hill
#
# Bulk Modulus (GPa) = 20.22293 35.91952 28.07122
# Shear Modulus (GPa) = 10.41946 18.84177 14.63062
#
# Velocity S-wave (km/s) = 2.51511 3.38216 2.98033
# Velocity P-wave (km/s) = 4.55103 6.08762 5.37452
#
# Compressibility (1/GPa) = 0.04944882
#
# Stress axis : x y z
#
# Youngs Moduli (GPa) = 76.86237 22.31643 87.41358
#
# Poissons Ratio (x) = 0.06514 0.32327
# Poissons Ratio (y) = 0.22434 0.28748
# Poissons Ratio (z) = 0.28425 0.07339
#
# Static dielectric constant tensor:
#      x y z
#    x 1.569270 0.000000 0.017850 
#    y 0.000000 1.533340 0.000000 
#    z 0.017850 0.000000 1.634490 
# 
# From -- ./inp_files/317808.got.cif
#   From: 2010.05.17/outbox.cif.g08.bks.cpg/sg12_159_cif.got.tgz:317808.got - 2010.06.03 13:09:07.
