data_PCOD9175710
_publ_section_title
;
Structure prediction by ZEFSAII (Michael W. Deem and Ramdas Pophale) SiO2 
 PCOD9175710
Probable space group: C 2/M
;
_chemical_formula_sum "Si O2"
_cell_formula_units_Z 60
_cell_length_a 14.360794
_cell_length_b 23.466208
_cell_length_c 13.568063
_cell_angle_alpha 90.000000
_cell_angle_beta 41.288148
_cell_angle_gamma 90.000000
_cell_volume 3017.046284
_symmetry_space_group_name_H-M "C 2/M"
_symmetry_group_IT_number 12
_symmetry_cell_setting 'monoclinic'
loop_
_space_group_symop_operation_xyz
x,y,z
-x,y,-z
-x,-y,-z
x,-y,z
1/2+x,1/2+y,z
1/2-x,1/2+y,-z
1/2-x,1/2-y,-z
1/2+x,1/2-y,z
loop_
_atom_site_type_symbol
_atom_site_label
_atom_site_fract_x
_atom_site_fract_y
_atom_site_fract_z
Si Si1 0.059541 0.659598 0.250704
Si Si2 0.149139 0.567145 0.591319
Si Si3 0.803553 0.564949 0.219675
Si Si4 0.556116 0.742437 0.793703
Si Si5 0.566303 0.631561 0.658775
Si Si6 0.000000 0.112072 0.500000
Si Si7 0.775881 0.246426 0.146180
Si Si8 0.255442 0.368241 0.917417
O O1 0.158714 0.697603 0.241207
O O2 0.961374 0.610079 0.370624
O O3 0.967725 0.705340 0.261469
O O4 0.166300 0.632033 0.086716
O O5 0.128087 0.500000 0.591028
O O6 0.134787 0.577989 0.721514
O O7 0.306870 0.586711 0.437643
O O8 0.836478 0.500000 0.170092
O O9 0.634751 0.573784 0.367109
O O10 0.832526 0.603353 0.101567
O O11 0.596649 0.686138 0.701545
O O12 0.666494 0.758226 0.790979
O O13 0.409403 0.730639 0.969914
O O14 0.546583 0.647235 0.558643
O O15 0.411755 0.606900 0.809050
O O16 0.718892 0.303420 0.139688
#
# Coordination Sequence:
#
# PCOD9175710 Si02
#       8
#     8   8   8   8   8   4   8   8
#     4  11  20  37  57  83 119 151 181 234 286 339
#     4  10  23  38  53  78 116 153 188 235 289 333
#     4   9  17  30  49  78 111 147 185 224 275 338
#     4  10  19  34  61  88 114 149 186 232 284 341
#     4  10  18  36  56  79 112 149 191 226 274 337
#     4   8  17  28  52  76 112 148 179 230 272 322
#     4  10  19  34  57  89 120 143 182 238 288 330
#     4  10  18  33  56  84 112 149 186 225 277 345
#
# _framework density 19.886998999999999
#
# number of rings (size 3 to 8) (size 9 to 14) (size 15 to 20)
#    0.000    2.133    2.667    1.800    0.000    5.867 
#    0.000    2.000    0.000    1.600    0.000    1.867 
#    0.000    0.000    0.000    0.000    0.000    0.000 
#
# Total GULP energy -167416.879170 kJ/mol
# GULP energy per Si atom -5580.562639 kJ/mol
# Density = 1.984174 g / cm^3
# Si number density = 19.886999 Si / 1000 Ang^3
#
#
#
# Elastic Constant Matrix: (Units=GPa)
#
#
# Indices 1 2 3 4 5 6 
#
# 1 48.6449 9.3741 12.6280 -0.0004 -18.8221 0.0004
# 2 9.3741 62.7239 21.5573 0.0003 -12.9770 -0.0003
# 3 12.6280 21.5573 40.3865 -0.0018 -17.1348 0.0020
# 4 -0.0004 0.0003 -0.0018 10.6097 0.0009 19.8355
# 5 -18.8221 -12.9770 -17.1348 0.0009 26.1294 -0.0009
# 6 0.0004 -0.0003 0.0020 19.8355 -0.0009 3.4740
#
#
#
# Elastic Compliance Matrix: (Units=1/GPa)
#
#
# Indices 1 2 3 4 5 6 
#
# 1 0.028503 0.000057 -0.000304 0.000001 0.020361 -0.000001
# 2 0.000057 0.019826 -0.008875 0.000002 0.004068 -0.000002
# 3 -0.000304 -0.008875 0.038280 -0.000004 0.020476 0.000005
# 4 0.000001 0.000002 -0.000004 -0.009742 0.000001 0.055626
# 5 0.020361 0.004068 0.020476 0.000001 0.068386 -0.000002
# 6 -0.000001 -0.000002 0.000005 0.055626 -0.000002 -0.029753
#
#
# Mechanical properties :
#
#
# Convention : Reuss Voigt Hill
#
# Bulk Modulus (GPa) = 14.62708 26.54158 20.58433
# Shear Modulus (GPa) = 31.94225 15.25568 23.59897
#
# Velocity S-wave (km/s) = 4.01207 2.77269 3.44852
# Velocity P-wave (km/s) = 5.36967 4.86062 5.12147
#
# Compressibility (1/GPa) = 0.06836633
#
# Stress axis : x y z
#
# Youngs Moduli (GPa) = 35.08361 50.43867 26.12299
#
# Poissons Ratio (x) = -0.00289 0.00795
# Poissons Ratio (y) = -0.00201 0.23183
# Poissons Ratio (z) = 0.01068 0.44762
#
# Static dielectric constant tensor:
#      x y z
#    x 1.727110 0.000000 -0.025490 
#    y 0.000000 1.680590 0.000000 
#    z -0.025490 0.000000 1.751520 
# 
# From -- ./inp_files/217899.got.cif
#   From: 2010.05.17/outbox.cif.g08.bks.cpg/sg12_109_cif.got.tgz:217899.got - 2010.06.03 13:09:07.
