data_PCOD9175251
_publ_section_title
;
Structure prediction by ZEFSAII (Michael W. Deem and Ramdas Pophale) SiO2 
 PCOD9175251
Probable space group: C 2/M
;
_chemical_formula_sum "Si O2"
_cell_formula_units_Z 64
_cell_length_a 15.165577
_cell_length_b 8.841113
_cell_length_c 29.507374
_cell_angle_alpha 90.000000
_cell_angle_beta 130.492666
_cell_angle_gamma 90.000000
_cell_volume 3008.773043
_symmetry_space_group_name_H-M "C 2/M"
_symmetry_group_IT_number 12
_symmetry_cell_setting 'monoclinic'
loop_
_space_group_symop_operation_xyz
x,y,z
-x,y,-z
-x,-y,-z
x,-y,z
1/2+x,1/2+y,z
1/2-x,1/2+y,-z
1/2-x,1/2-y,-z
1/2+x,1/2-y,z
loop_
_atom_site_type_symbol
_atom_site_label
_atom_site_fract_x
_atom_site_fract_y
_atom_site_fract_z
Si Si1 0.403202 0.817756 0.357726
Si Si2 0.509627 0.821759 0.300963
Si Si3 0.860038 0.319634 0.511032
Si Si4 0.363893 0.182586 0.014839
Si Si5 0.278188 0.676431 0.394679
Si Si6 0.763847 0.316334 0.889286
Si Si7 0.095859 0.682160 0.146715
Si Si8 0.495583 0.679906 0.198176
O O1 0.424472 0.771018 0.312841
O O2 0.520942 0.777030 0.424306
O O3 0.301527 0.742347 0.352582
O O4 0.390720 0.000000 0.354273
O O5 0.642745 0.809148 0.362102
O O6 0.504746 0.730922 0.252959
O O7 0.488725 0.000000 0.285011
O O8 0.851508 0.500000 0.509679
O O9 0.750000 0.250000 0.500000
O O10 0.852269 0.264424 0.456785
O O11 0.353707 0.227453 0.958563
O O12 0.358833 0.000000 0.014738
O O13 0.250000 0.250000 0.000000
O O14 0.479814 0.226848 0.079957
O O15 0.308169 0.500000 0.405512
O O16 0.763991 0.500000 0.887880
O O17 0.800440 0.265325 0.851440
O O18 0.634539 0.268891 0.859265
O O19 0.098882 0.500000 0.151108
O O20 0.085988 0.749284 0.193313
O O21 0.503200 0.500000 0.197596
#
# Coordination Sequence:
#
# PCOD9175251 Si02
#       8
#     8   8   8   8   8   8   8   8
#     4  10  22  41  62  88 122 158 192 238 296 347
#     4  10  23  44  62  80 116 157 197 241 289 347
#     4  11  21  37  62  91 125 159 193 237 294 353
#     4  10  18  32  57  85 115 149 185 228 283 343
#     4  11  23  40  62  91 121 155 197 242 291 349
#     4   9  19  36  57  83 116 149 187 233 280 341
#     4  10  20  36  60  85 112 153 192 226 284 351
#     4  11  23  39  59  84 114 147 192 247 291 331
#
# _framework density 21.271128999999998
#
# number of rings (size 3 to 8) (size 9 to 14) (size 15 to 20)
#    0.000    1.750    2.500    1.875    0.000    6.500 
#    0.000    5.625    0.000    1.500    0.000    0.000 
#    0.000    0.000    0.000    0.000    0.000    0.000 
#
# Total GULP energy -178809.801489 kJ/mol
# GULP energy per Si atom -5587.806297 kJ/mol
# Density = 2.122272 g / cm^3
# Si number density = 21.271129 Si / 1000 Ang^3
#
#
#
# Elastic Constant Matrix: (Units=GPa)
#
#
# Indices 1 2 3 4 5 6 
#
# 1 118.3634 13.2288 -1.0895 0.0000 -35.8154 0.0000
# 2 13.2288 13.0729 7.7412 0.0000 -5.4627 0.0000
# 3 -1.0895 7.7412 46.6272 0.0000 -25.6824 0.0000
# 4 0.0000 0.0000 0.0000 20.8520 0.0000 -3.0724
# 5 -35.8154 -5.4627 -25.6824 0.0000 35.5826 0.0000
# 6 0.0000 0.0000 0.0000 -3.0724 0.0000 27.3525
#
#
#
# Elastic Compliance Matrix: (Units=1/GPa)
#
#
# Indices 1 2 3 4 5 6 
#
# 1 0.022007 -0.021354 0.023993 0.000000 0.036189 0.000000
# 2 -0.021354 0.106042 -0.034819 0.000000 -0.030346 0.000000
# 3 0.023993 -0.034819 0.063317 0.000000 0.064505 0.000000
# 4 0.000000 0.000000 0.000000 0.048764 0.000000 0.005477
# 5 0.036189 -0.030346 0.064505 0.000000 0.106429 0.000000
# 6 0.000000 0.000000 0.000000 0.005477 0.000000 0.037175
#
#
# Mechanical properties :
#
#
# Convention : Reuss Voigt Hill
#
# Bulk Modulus (GPa) = 7.87374 24.20273 16.03824
# Shear Modulus (GPa) = 10.19515 27.30295 18.74905
#
# Velocity S-wave (km/s) = 2.19166 3.58658 2.97211
# Velocity P-wave (km/s) = 3.18027 5.34362 4.39707
#
# Compressibility (1/GPa) = 0.12700437
#
# Stress axis : x y z
#
# Youngs Moduli (GPa) = 45.44101 9.43026 15.79345
#
# Poissons Ratio (x) = 0.20138 -0.37893
# Poissons Ratio (y) = 0.97037 0.54991
# Poissons Ratio (z) = -1.09025 0.32835
#
# Static dielectric constant tensor:
#      x y z
#    x 1.775460 0.000000 -0.001730 
#    y 0.000000 1.708470 0.000000 
#    z -0.001730 0.000000 1.799350 
# 
# From -- ./inp_files/375570.got.cif
#   From: 2010.05.17/outbox.cif.g08.bks.cpg/sg12_188_cif.got.tgz:375570.got - 2010.06.03 13:09:07.
