data_PCOD9175351
_publ_section_title
;
Structure prediction by ZEFSAII (Michael W. Deem and Ramdas Pophale) SiO2 
 PCOD9175351
Probable space group: C 2/M
;
_chemical_formula_sum "Si O2"
_cell_formula_units_Z 48
_cell_length_a 13.355790
_cell_length_b 16.560561
_cell_length_c 12.073274
_cell_angle_alpha 90.000000
_cell_angle_beta 56.957585
_cell_angle_gamma 90.000000
_cell_volume 2238.474399
_symmetry_space_group_name_H-M "C 2/M"
_symmetry_group_IT_number 12
_symmetry_cell_setting 'monoclinic'
loop_
_space_group_symop_operation_xyz
x,y,z
-x,y,-z
-x,-y,-z
x,-y,z
1/2+x,1/2+y,z
1/2-x,1/2+y,-z
1/2-x,1/2-y,-z
1/2+x,1/2-y,z
loop_
_atom_site_type_symbol
_atom_site_label
_atom_site_fract_x
_atom_site_fract_y
_atom_site_fract_z
Si Si1 0.256581 0.598040 0.894005
Si Si2 0.247478 0.852506 0.453779
Si Si3 0.003122 0.093535 0.364335
Si Si4 0.588030 0.090438 0.814029
Si Si5 0.860976 0.401867 0.811699
Si Si6 0.863262 0.300684 0.587165
O O1 0.255327 0.500000 0.881426
O O2 0.378607 0.629126 0.763987
O O3 0.140040 0.627416 0.895651
O O4 0.240064 0.613283 0.033820
O O5 0.122155 0.866817 0.589508
O O6 0.292880 0.913264 0.333644
O O7 0.227312 0.770864 0.393874
O O8 0.345236 0.856741 0.490946
O O9 0.000000 0.095444 0.500000
O O10 0.997948 0.000000 0.334383
O O11 0.482799 0.125507 0.801923
O O12 0.545436 0.000000 0.862249
O O13 0.866437 0.500000 0.786195
O O14 0.842801 0.349518 0.712153
O O15 0.000000 0.270656 0.500000
#
# Coordination Sequence:
#
# PCOD9175351 Si02
#       6
#     8   8   8   8   8   8
#     4   9  18  33  57  92 124 152 190 241 299 350
#     4  11  22  37  59  84 118 151 197 251 289 348
#     4  10  18  32  59  91 117 149 195 242 294 349
#     4  10  18  33  61  92 119 149 192 247 296 342
#     4  10  21  38  60  88 123 156 196 246 294 355
#     4  11  24  40  57  83 116 159 201 240 301 349
#
# _framework density 21.443175
#
# number of rings (size 3 to 8) (size 9 to 14) (size 15 to 20)
#    0.000    1.833    3.333    1.500    0.000    3.667 
#    0.000    1.667    0.000    3.000    0.000    0.000 
#    0.000    0.000    0.000    0.000    0.000    0.000 
#
# Total GULP energy -133689.823652 kJ/mol
# GULP energy per Si atom -5570.409319 kJ/mol
# Density = 2.139437 g / cm^3
# Si number density = 21.443175 Si / 1000 Ang^3
#
#
#
# Elastic Constant Matrix: (Units=GPa)
#
#
# Indices 1 2 3 4 5 6 
#
# 1 103.3834 23.2301 52.3459 0.0000 13.2952 0.0000
# 2 23.2301 40.5074 37.1565 0.0000 15.2054 0.0000
# 3 52.3459 37.1565 151.5566 0.0000 12.9423 0.0000
# 4 0.0000 0.0000 0.0000 7.2029 0.0000 14.3887
# 5 13.2952 15.2054 12.9423 0.0000 40.9307 0.0000
# 6 0.0000 0.0000 0.0000 14.3887 0.0000 7.9797
#
#
#
# Elastic Compliance Matrix: (Units=1/GPa)
#
#
# Indices 1 2 3 4 5 6 
#
# 1 0.012316 -0.003429 -0.003268 0.000000 -0.001693 0.000000
# 2 -0.003429 0.036975 -0.006991 0.000000 -0.010411 0.000000
# 3 -0.003268 -0.006991 0.009382 0.000000 0.000692 0.000000
# 4 0.000000 0.000000 0.000000 -0.053356 0.000000 0.096209
# 5 -0.001693 -0.010411 0.000692 0.000000 0.028630 0.000000
# 6 0.000000 0.000000 0.000000 0.096209 0.000000 -0.048162
#
#
# Mechanical properties :
#
#
# Convention : Reuss Voigt Hill
#
# Bulk Modulus (GPa) = 31.95474 57.87915 44.91695
# Shear Modulus (GPa) = 211.91054 23.40367 117.65710
#
# Velocity S-wave (km/s) = 9.95182 3.30726 7.41541
# Velocity P-wave (km/s) = 12.12378 6.45247 9.71135
#
# Compressibility (1/GPa) = 0.03129426
#
# Stress axis : x y z
#
# Youngs Moduli (GPa) = 81.19565 27.04555 106.58680
#
# Poissons Ratio (x) = 0.09275 0.34837
# Poissons Ratio (y) = 0.27844 0.74519
# Poissons Ratio (z) = 0.26538 0.18909
#
# Static dielectric constant tensor:
#      x y z
#    x 1.839450 0.000000 -0.037330 
#    y 0.000000 1.850920 0.000000 
#    z -0.037330 0.000000 1.817960 
# 
# From -- ./inp_files/133004.got.cif
#   From: 2010.05.17/outbox.cif.g08.bks.cpg/sg12_67_cif.got.tgz:133004.got - 2010.06.03 13:09:07.
