data_PCOD9175869
_publ_section_title
;
Structure prediction by ZEFSAII (Michael W. Deem and Ramdas Pophale) SiO2 
 PCOD9175869
Probable space group: C 2/M
;
_chemical_formula_sum "Si O2"
_cell_formula_units_Z 64
_cell_length_a 31.691018
_cell_length_b 17.802416
_cell_length_c 13.110047
_cell_angle_alpha 90.000000
_cell_angle_beta 152.440962
_cell_angle_gamma 90.000000
_cell_volume 3422.027883
_symmetry_space_group_name_H-M "C 2/M"
_symmetry_group_IT_number 12
_symmetry_cell_setting 'monoclinic'
loop_
_space_group_symop_operation_xyz
x,y,z
-x,y,-z
-x,-y,-z
x,-y,z
1/2+x,1/2+y,z
1/2-x,1/2+y,-z
1/2-x,1/2-y,-z
1/2+x,1/2-y,z
loop_
_atom_site_type_symbol
_atom_site_label
_atom_site_fract_x
_atom_site_fract_y
_atom_site_fract_z
Si Si1 0.307043 0.413863 0.658451
Si Si2 0.960942 0.914703 0.262503
Si Si3 0.795080 0.089043 0.037296
Si Si4 0.096297 0.201660 0.022686
Si Si5 0.729890 0.310300 0.599842
Si Si6 0.177218 0.089101 0.682641
Si Si7 0.684846 0.086681 0.601640
Si Si8 0.439800 0.201102 0.771883
O O1 0.327594 0.500000 0.676865
O O2 0.392769 0.360490 0.864517
O O3 0.254206 0.371305 0.455258
O O4 0.252037 0.412107 0.647255
O O5 0.903606 0.906089 0.244137
O O6 0.068812 0.909366 0.475327
O O7 0.935299 0.000000 0.172501
O O8 0.917583 0.848804 0.104838
O O9 0.777086 0.116951 0.113127
O O10 0.777227 0.000000 0.004215
O O11 0.734830 0.116366 0.811669
O O12 0.182810 0.256640 0.201769
O O13 0.007853 0.250103 0.851137
O O14 0.703161 0.357389 0.643887
O O15 0.647470 0.254087 0.391958
O O16 0.199068 0.000000 0.710024
O O17 0.599269 0.133762 0.379498
O O18 0.660883 0.000000 0.568175
O O19 0.500000 0.179132 0.000000
#
# Coordination Sequence:
#
# PCOD9175869 Si02
#       8
#     8   8   8   8   8   8   8   8
#     4  11  21  37  61  86 113 151 198 243 290 347
#     4  10  18  33  58  88 115 146 197 247 288 343
#     4   9  17  34  62  88 113 151 197 248 294 333
#     4  12  22  37  59  85 119 159 189 237 297 351
#     4  12  23  39  56  86 125 160 188 233 298 359
#     4  10  21  36  58  88 120 155 195 240 294 352
#     4  10  21  39  63  87 112 151 206 250 281 335
#     4  12  23  38  59  86 120 158 193 234 300 353
#
# _framework density 18.702361
#
# number of rings (size 3 to 8) (size 9 to 14) (size 15 to 20)
#    0.000    1.250    5.000    2.250    0.000    1.750 
#    0.000    4.375    0.000    0.000    0.000    2.625 
#    0.000    0.000    0.000    0.000    0.000    0.000 
#
# Total GULP energy -178304.304079 kJ/mol
# GULP energy per Si atom -5572.009502 kJ/mol
# Density = 1.865979 g / cm^3
# Si number density = 18.702361 Si / 1000 Ang^3
#
#
#
# Elastic Constant Matrix: (Units=GPa)
#
#
# Indices 1 2 3 4 5 6 
#
# 1 46.6532 30.5553 28.3873 0.0000 -16.4120 0.0000
# 2 30.5553 102.0188 48.3668 0.0000 -4.5874 0.0000
# 3 28.3873 48.3668 81.9491 0.0000 -6.6878 0.0000
# 4 0.0000 0.0000 0.0000 25.3317 0.0000 -3.8334
# 5 -16.4120 -4.5874 -6.6878 0.0000 36.1125 0.0000
# 6 0.0000 0.0000 0.0000 -3.8334 0.0000 6.4653
#
#
#
# Elastic Compliance Matrix: (Units=1/GPa)
#
#
# Indices 1 2 3 4 5 6 
#
# 1 0.034800 -0.006418 -0.007151 0.000000 0.013676 0.000000
# 2 -0.006418 0.014796 -0.006696 0.000000 -0.002277 0.000000
# 3 -0.007151 -0.006696 0.018578 0.000000 -0.000660 0.000000
# 4 0.000000 0.000000 0.000000 0.043367 0.000000 0.025713
# 5 0.013676 -0.002277 -0.000660 0.000000 0.033495 0.000000
# 6 0.000000 0.000000 0.000000 0.025713 0.000000 0.169917
#
#
# Mechanical properties :
#
#
# Convention : Reuss Voigt Hill
#
# Bulk Modulus (GPa) = 36.17199 49.47110 42.82154
# Shear Modulus (GPa) = 13.71000 21.80267 17.75634
#
# Velocity S-wave (km/s) = 2.71045 3.41804 3.08460
# Velocity P-wave (km/s) = 5.40169 6.48742 5.96929
#
# Compressibility (1/GPa) = 0.02764570
#
# Stress axis : x y z
#
# Youngs Moduli (GPa) = 28.73542 67.58490 53.82800
#
# Poissons Ratio (x) = 0.43374 0.38492
# Poissons Ratio (y) = 0.18442 0.36041
# Poissons Ratio (z) = 0.20549 0.45252
#
# Static dielectric constant tensor:
#      x y z
#    x 1.674810 0.000000 -0.034250 
#    y 0.000000 1.643150 0.000000 
#    z -0.034250 0.000000 1.700230 
# 
# From -- ./inp_files/190075.got.cif
#   From: 2010.05.17/outbox.cif.g08.bks.cpg/sg12_96_cif.got.tgz:190075.got - 2010.06.03 13:09:07.
