data_PCOD9175957
_publ_section_title
;
Structure prediction by ZEFSAII (Michael W. Deem and Ramdas Pophale) SiO2 
 PCOD9175957
Probable space group: C 2/M
;
_chemical_formula_sum "Si O2"
_cell_formula_units_Z 48
_cell_length_a 28.923921
_cell_length_b 14.059245
_cell_length_c 14.840654
_cell_angle_alpha 90.000000
_cell_angle_beta 160.725329
_cell_angle_gamma 90.000000
_cell_volume 1992.112930
_symmetry_space_group_name_H-M "C 2/M"
_symmetry_group_IT_number 12
_symmetry_cell_setting 'monoclinic'
loop_
_space_group_symop_operation_xyz
x,y,z
-x,y,-z
-x,-y,-z
x,-y,z
1/2+x,1/2+y,z
1/2-x,1/2+y,-z
1/2-x,1/2-y,-z
1/2+x,1/2-y,z
loop_
_atom_site_type_symbol
_atom_site_label
_atom_site_fract_x
_atom_site_fract_y
_atom_site_fract_z
Si Si1 0.600738 0.384798 0.361771
Si Si2 0.853863 0.384574 0.692048
Si Si3 0.940492 0.190176 0.520160
Si Si4 0.594051 0.894174 0.560024
Si Si5 0.299082 0.393226 0.098625
Si Si6 0.792539 0.112060 0.754697
O O1 0.593540 0.500000 0.358740
O O2 0.726470 0.365069 0.525251
O O3 0.619249 0.340763 0.494392
O O4 0.449841 0.349536 0.048038
O O5 0.868454 0.500000 0.713437
O O6 0.808182 0.349949 0.509007
O O7 0.000000 0.347521 0.000000
O O8 0.991878 0.299009 0.615167
O O9 0.824797 0.177488 0.228691
O O10 0.070010 0.125524 0.727334
O O11 0.662680 0.889945 0.785171
O O12 0.718368 0.883403 0.714933
O O13 0.532948 0.000000 0.433485
O O14 0.309617 0.500000 0.155015
O O15 0.809755 0.000000 0.765315
#
# Coordination Sequence:
#
# PCOD9175957 Si02
#       6
#     8   8   8   8   8   8
#     4  10  18  33  60  94 123 160 217 265 305 372
#     4   9  18  33  55  88 130 168 200 252 326 383
#     4  11  20  34  60  93 119 158 211 266 307 363
#     4  10  21  38  59  84 123 169 209 255 315 374
#     4  10  20  38  63  90 125 163 205 258 317 372
#     4   9  17  34  59  85 118 167 215 254 306 375
#
# _framework density 24.095020000000002
#
# number of rings (size 3 to 8) (size 9 to 14) (size 15 to 20)
#    0.000    2.167    1.667    3.000    0.000    2.000 
#    3.000    2.500    0.000    2.000    0.000    0.000 
#    0.000    0.000    0.000    0.000    0.000    0.167 
#
# Total GULP energy -134288.106202 kJ/mol
# GULP energy per Si atom -5595.337758 kJ/mol
# Density = 2.404018 g / cm^3
# Si number density = 24.095020 Si / 1000 Ang^3
#
#
#
# Elastic Constant Matrix: (Units=GPa)
#
#
# Indices 1 2 3 4 5 6 
#
# 1 127.4276 3.3556 61.2561 0.0000 -20.1152 0.0000
# 2 3.3556 107.6612 8.4065 0.0000 -1.9620 0.0000
# 3 61.2561 8.4065 97.9802 0.0000 -5.4374 0.0000
# 4 0.0000 0.0000 0.0000 6.7951 0.0000 -2.5900
# 5 -20.1152 -1.9620 -5.4374 0.0000 36.6427 0.0000
# 6 0.0000 0.0000 0.0000 -2.5900 0.0000 19.3446
#
#
#
# Elastic Compliance Matrix: (Units=1/GPa)
#
#
# Indices 1 2 3 4 5 6 
#
# 1 0.012288 0.000298 -0.007394 0.000000 0.005664 0.000000
# 2 0.000298 0.009364 -0.000960 0.000000 0.000522 0.000000
# 3 -0.007394 -0.000960 0.014805 0.000000 -0.001913 0.000000
# 4 0.000000 0.000000 0.000000 0.155079 0.000000 0.020763
# 5 0.005664 0.000522 -0.001913 0.000000 0.030144 0.000000
# 6 0.000000 0.000000 0.000000 0.020763 0.000000 0.054474
#
#
# Mechanical properties :
#
#
# Convention : Reuss Voigt Hill
#
# Bulk Modulus (GPa) = 49.15552 53.23392 51.19472
# Shear Modulus (GPa) = 16.71971 29.89318 23.30645
#
# Velocity S-wave (km/s) = 2.63707 3.52609 3.11347
# Velocity P-wave (km/s) = 5.45135 6.22246 5.84962
#
# Compressibility (1/GPa) = 0.02034360
#
# Stress axis : x y z
#
# Youngs Moduli (GPa) = 81.37951 106.79613 67.54590
#
# Poissons Ratio (x) = -0.03178 0.49941
# Poissons Ratio (y) = -0.02421 0.06487
# Poissons Ratio (z) = 0.60168 0.10257
#
# Static dielectric constant tensor:
#      x y z
#    x 1.871230 0.000000 0.007100 
#    y 0.000000 1.912970 0.000000 
#    z 0.007100 0.000000 1.920050 
# 
# From -- ./inp_files/251487.got.cif
#   From: 2010.05.17/outbox.cif.g08.bks.cpg/sg12_126_cif.got.tgz:251487.got - 2010.06.03 13:09:07.
