data_PCOD9175529
_publ_section_title
;
Structure prediction by ZEFSAII (Michael W. Deem and Ramdas Pophale) SiO2 
 PCOD9175529
Probable space group: C 2/M
;
_chemical_formula_sum "Si O2"
_cell_formula_units_Z 56
_cell_length_a 17.757844
_cell_length_b 21.777886
_cell_length_c 9.781490
_cell_angle_alpha 90.000000
_cell_angle_beta 55.265479
_cell_angle_gamma 90.000000
_cell_volume 3108.691196
_symmetry_space_group_name_H-M "C 2/M"
_symmetry_group_IT_number 12
_symmetry_cell_setting 'monoclinic'
loop_
_space_group_symop_operation_xyz
x,y,z
-x,y,-z
-x,-y,-z
x,-y,z
1/2+x,1/2+y,z
1/2-x,1/2+y,-z
1/2-x,1/2-y,-z
1/2+x,1/2-y,z
loop_
_atom_site_type_symbol
_atom_site_label
_atom_site_fract_x
_atom_site_fract_y
_atom_site_fract_z
Si Si1 0.927387 0.184521 0.888345
Si Si2 0.185077 0.206854 0.256113
Si Si3 0.928473 0.341673 0.274296
Si Si4 0.615529 0.821408 0.987630
Si Si5 0.370068 0.699401 0.375808
Si Si6 0.398004 0.072883 0.548019
Si Si7 0.239004 0.841552 0.775704
O O1 0.896120 0.195336 0.764930
O O2 0.033848 0.168863 0.770323
O O3 0.912284 0.249137 0.984219
O O4 0.852057 0.143645 0.042401
O O5 0.276598 0.174516 0.102552
O O6 0.161978 0.187749 0.435393
O O7 0.211295 0.278852 0.226649
O O8 0.902454 0.348411 0.143346
O O9 0.892725 0.272985 0.348159
O O10 0.890835 0.394273 0.408558
O O11 0.039250 0.346255 0.168786
O O12 0.296182 0.677126 0.340874
O O13 0.500000 0.086828 0.500000
O O14 0.313583 0.105260 0.711425
O O15 0.388175 0.000000 0.553210
#
# Coordination Sequence:
#
# PCOD9175529 Si02
#       7
#     8   8   8   8   8   8   8
#     4  10  21  30  49  85 121 140 174 218 282 354
#     4  11  19  28  48  85 117 144 176 212 278 353
#     4  10  18  33  54  74 111 147 180 227 280 330
#     4   9  18  29  48  80 110 147 176 215 277 344
#     4  11  19  32  53  85 115 146 174 221 291 346
#     4  11  26  40  55  78 107 151 202 237 267 315
#     4  11  20  35  56  76 115 150 183 224 280 337
#
# _framework density 18.014012000000001
#
# number of rings (size 3 to 8) (size 9 to 14) (size 15 to 20)
#    0.000    1.571    4.286    3.857    6.000    0.000 
#    0.000    1.429    0.000    1.714    0.000    0.000 
#    0.000    3.714    0.000    0.000    0.000    0.000 
#
# Total GULP energy -156084.378311 kJ/mol
# GULP energy per Si atom -5574.442083 kJ/mol
# Density = 1.797301 g / cm^3
# Si number density = 18.014012 Si / 1000 Ang^3
#
#
#
# Elastic Constant Matrix: (Units=GPa)
#
#
# Indices 1 2 3 4 5 6 
#
# 1 99.7042 28.5180 29.1351 0.0000 -7.7514 0.0000
# 2 28.5180 40.2006 23.2687 0.0000 -5.7033 0.0000
# 3 29.1351 23.2687 86.9877 0.0000 -12.7326 0.0000
# 4 0.0000 0.0000 0.0000 9.3275 0.0000 -3.1203
# 5 -7.7514 -5.7033 -12.7326 0.0000 43.1784 0.0000
# 6 0.0000 0.0000 0.0000 -3.1203 0.0000 18.6658
#
#
#
# Elastic Compliance Matrix: (Units=1/GPa)
#
#
# Indices 1 2 3 4 5 6 
#
# 1 0.012954 -0.007857 -0.002141 0.000000 0.000656 0.000000
# 2 -0.007857 0.034309 -0.006364 0.000000 0.001245 0.000000
# 3 -0.002141 -0.006364 0.014355 0.000000 0.003008 0.000000
# 4 0.000000 0.000000 0.000000 0.113560 0.000000 0.018983
# 5 0.000656 0.001245 0.003008 0.000000 0.024329 0.000000
# 6 0.000000 0.000000 0.000000 0.018983 0.000000 0.056747
#
#
# Mechanical properties :
#
#
# Convention : Reuss Voigt Hill
#
# Bulk Modulus (GPa) = 34.60796 43.19288 38.90042
# Shear Modulus (GPa) = 16.74433 23.96573 20.35503
#
# Velocity S-wave (km/s) = 3.05211 3.65141 3.36513
# Velocity P-wave (km/s) = 5.62795 6.46580 6.06137
#
# Compressibility (1/GPa) = 0.02889508
#
# Stress axis : x y z
#
# Youngs Moduli (GPa) = 77.19886 29.14699 69.65974
#
# Poissons Ratio (x) = 0.22900 0.14913
# Poissons Ratio (y) = 0.60654 0.44329
# Poissons Ratio (z) = 0.16527 0.18548
#
# Static dielectric constant tensor:
#      x y z
#    x 1.675620 0.000000 -0.024190 
#    y 0.000000 1.573080 0.000000 
#    z -0.024190 0.000000 1.700060 
# 
# From -- ./inp_files/77391.got.cif
#   From: 2010.05.17/outbox.cif.g08.bks.cpg/sg12_39_cif.got.tgz:77391.got - 2010.06.03 13:09:07.
