data_PCOD9175812
_publ_section_title
;
Structure prediction by ZEFSAII (Michael W. Deem and Ramdas Pophale) SiO2 
 PCOD9175812
Probable space group: C 2/M
;
_chemical_formula_sum "Si O2"
_cell_formula_units_Z 64
_cell_length_a 29.235409
_cell_length_b 8.286371
_cell_length_c 21.336352
_cell_angle_alpha 90.000000
_cell_angle_beta 136.511473
_cell_angle_gamma 90.000000
_cell_volume 3557.248950
_symmetry_space_group_name_H-M "C 2/M"
_symmetry_group_IT_number 12
_symmetry_cell_setting 'monoclinic'
loop_
_space_group_symop_operation_xyz
x,y,z
-x,y,-z
-x,-y,-z
x,-y,z
1/2+x,1/2+y,z
1/2-x,1/2+y,-z
1/2-x,1/2-y,-z
1/2+x,1/2-y,z
loop_
_atom_site_type_symbol
_atom_site_label
_atom_site_fract_x
_atom_site_fract_y
_atom_site_fract_z
Si Si1 0.967411 0.690003 0.289993
Si Si2 0.045480 0.190848 0.487203
Si Si3 0.458182 0.197543 0.142507
Si Si4 0.037977 0.306269 0.100001
Si Si5 0.677491 0.809136 0.670625
Si Si6 0.673966 0.692439 0.186555
Si Si7 0.680037 0.805096 0.049296
Si Si8 0.328378 0.690408 0.194726
O O1 0.981588 0.500000 0.308280
O O2 0.982600 0.749498 0.234980
O O3 0.889000 0.717938 0.223286
O O4 0.007734 0.775211 0.385230
O O5 0.117303 0.271776 0.564617
O O6 0.000000 0.250961 0.500000
O O7 0.054289 0.000000 0.504059
O O8 0.503044 0.252286 0.128770
O O9 0.458136 0.000000 0.142802
O O10 0.382032 0.248667 0.054047
O O11 0.031111 0.500000 0.093096
O O12 0.115018 0.264377 0.169034
O O13 0.000000 0.244545 0.000000
O O14 0.750793 0.762960 0.719408
O O15 0.665602 0.717117 0.724314
O O16 0.678716 0.000000 0.686232
O O17 0.668165 0.500000 0.181915
O O18 0.666919 0.751060 0.107674
O O19 0.754034 0.750801 0.103646
O O20 0.681507 0.000000 0.050776
O O21 0.334197 0.500000 0.187105
#
# Coordination Sequence:
#
# PCOD9175812 Si02
#       8
#     8   8   8   8   8   8   8   8
#     4  11  22  35  53  75 107 143 176 217 264 314
#     4  11  22  36  56  80 105 133 174 223 263 309
#     4   9  19  35  53  77 104 140 185 219 253 307
#     4  10  18  33  58  79 102 141 184 218 254 307
#     4  10  20  34  54  79 107 138 171 213 266 316
#     4  10  20  32  50  82 114 134 167 219 269 311
#     4   9  17  33  53  72 103 145 183 214 250 303
#     4  10  19  31  50  76 106 141 180 217 253 303
#
# _framework density 17.991430999999999
#
# number of rings (size 3 to 8) (size 9 to 14) (size 15 to 20)
#    0.000    2.000    2.500    1.875    0.000    3.250 
#    0.000    2.500    0.000    0.750    0.000    0.000 
#    0.000    0.000    0.000    0.000    0.000    0.000 
#
# Total GULP energy -178596.595534 kJ/mol
# GULP energy per Si atom -5581.143610 kJ/mol
# Density = 1.795048 g / cm^3
# Si number density = 17.991431 Si / 1000 Ang^3
#
#
#
# Elastic Constant Matrix: (Units=GPa)
#
#
# Indices 1 2 3 4 5 6 
#
# 1 88.4232 -0.9561 53.5886 0.0000 0.0819 0.0000
# 2 -0.9561 9.3588 1.6657 0.0000 -0.4817 0.0000
# 3 53.5886 1.6657 105.1242 0.0000 0.5482 0.0000
# 4 0.0000 0.0000 0.0000 9.0472 0.0000 11.4623
# 5 0.0819 -0.4817 0.5482 0.0000 23.0970 0.0000
# 6 0.0000 0.0000 0.0000 11.4623 0.0000 18.8919
#
#
#
# Elastic Compliance Matrix: (Units=1/GPa)
#
#
# Indices 1 2 3 4 5 6 
#
# 1 0.016460 0.003195 -0.008443 0.000000 0.000209 0.000000
# 2 0.003195 0.107894 -0.003350 0.000000 0.002318 0.000000
# 3 -0.008443 -0.003350 0.013871 0.000000 -0.000369 0.000000
# 4 0.000000 0.000000 0.000000 0.477863 0.000000 -0.289935
# 5 0.000209 0.002318 -0.000369 0.000000 0.043352 0.000000
# 6 0.000000 0.000000 0.000000 -0.289935 0.000000 0.228845
#
#
# Mechanical properties :
#
#
# Convention : Reuss Voigt Hill
#
# Bulk Modulus (GPa) = 8.26247 34.61140 21.43693
# Shear Modulus (GPa) = 5.28640 20.11442 12.70041
#
# Velocity S-wave (km/s) = 1.71600 3.34728 2.65979
# Velocity P-wave (km/s) = 2.92038 5.84966 4.62316
#
# Compressibility (1/GPa) = 0.12102923
#
# Stress axis : x y z
#
# Youngs Moduli (GPa) = 60.75277 9.26839 72.09144
#
# Poissons Ratio (x) = -0.02961 0.60863
# Poissons Ratio (y) = -0.19410 0.24152
# Poissons Ratio (z) = 0.51291 0.03105
#
# Static dielectric constant tensor:
#      x y z
#    x 1.614490 0.000000 0.013800 
#    y 0.000000 1.613710 0.000000 
#    z 0.013800 0.000000 1.617230 
# 
# From -- ./inp_files/326963.got.cif
#   From: 2010.05.17/outbox.cif.g08.bks.cpg/sg12_164_cif.got.tgz:326963.got - 2010.06.03 13:09:07.
