data_PCOD9175219
_publ_section_title
;
Structure prediction by ZEFSAII (Michael W. Deem and Ramdas Pophale) SiO2 
 PCOD9175219
Probable space group: C 2/M
;
_chemical_formula_sum "Si O2"
_cell_formula_units_Z 48
_cell_length_a 21.204613
_cell_length_b 7.476802
_cell_length_c 15.202645
_cell_angle_alpha 90.000000
_cell_angle_beta 72.423820
_cell_angle_gamma 90.000000
_cell_volume 2297.748017
_symmetry_space_group_name_H-M "C 2/M"
_symmetry_group_IT_number 12
_symmetry_cell_setting 'monoclinic'
loop_
_space_group_symop_operation_xyz
x,y,z
-x,y,-z
-x,-y,-z
x,-y,z
1/2+x,1/2+y,z
1/2-x,1/2+y,-z
1/2-x,1/2-y,-z
1/2+x,1/2-y,z
loop_
_atom_site_type_symbol
_atom_site_label
_atom_site_fract_x
_atom_site_fract_y
_atom_site_fract_z
Si Si1 0.945621 0.284554 0.260183
Si Si2 0.293764 0.285640 0.567755
Si Si3 0.457399 0.781563 0.932182
Si Si4 0.689145 0.213935 0.961429
Si Si5 0.695836 0.218976 0.758623
Si Si6 0.559956 0.712103 0.532648
O O1 0.945132 0.500000 0.256451
O O2 0.874688 0.224772 0.252079
O O3 0.952536 0.234123 0.358583
O O4 0.004127 0.222041 0.171343
O O5 0.298073 0.500000 0.574277
O O6 0.250000 0.250000 0.500000
O O7 0.254442 0.219877 0.669881
O O8 0.367690 0.214303 0.522514
O O9 0.456899 0.000000 0.931322
O O10 0.500000 0.729886 0.000000
O O11 0.381831 0.720052 0.973413
O O12 0.701530 0.279028 0.856869
O O13 0.682656 0.000000 0.957574
O O14 0.750000 0.250000 0.000000
O O15 0.696198 0.000000 0.758027
O O16 0.500000 0.786482 0.500000
O O17 0.562970 0.500000 0.513747
#
# Coordination Sequence:
#
# PCOD9175219 Si02
#       6
#     8   8   8   8   8   8
#     4  10  18  32  57  82 100 130 180 224 254 296
#     4  10  19  33  54  78 102 134 177 217 255 305
#     4   9  16  30  55  81 102 132 175 217 255 302
#     4  10  20  35  54  79 110 139 169 211 262 311
#     4   9  17  31  54  78 100 133 175 214 255 305
#     4  10  22  37  51  74 111 145 168 206 267 321
#
# _framework density 20.89002
#
# number of rings (size 3 to 8) (size 9 to 14) (size 15 to 20)
#    0.000    2.333    3.333    0.000    0.000    1.667 
#    0.000    4.167    0.000    1.000    0.000    0.000 
#    0.000    0.000    0.000    0.000    0.000    0.000 
#
# Total GULP energy -134055.082729 kJ/mol
# GULP energy per Si atom -5585.628447 kJ/mol
# Density = 2.084247 g / cm^3
# Si number density = 20.890020 Si / 1000 Ang^3
#
#
#
# Elastic Constant Matrix: (Units=GPa)
#
#
# Indices 1 2 3 4 5 6 
#
# 1 222.3426 4.1428 145.8211 0.0000 -8.6639 0.0000
# 2 4.1428 59.0421 0.5060 0.0000 -5.8841 0.0000
# 3 145.8211 0.5060 218.6625 0.0000 -19.6161 0.0000
# 4 0.0000 0.0000 0.0000 14.4865 0.0000 11.3201
# 5 -8.6639 -5.8841 -19.6161 0.0000 43.1461 0.0000
# 6 0.0000 0.0000 0.0000 11.3201 0.0000 -26.7581
#
#
#
# Elastic Compliance Matrix: (Units=1/GPa)
#
#
# Indices 1 2 3 4 5 6 
#
# 1 0.008046 -0.000612 -0.005449 0.000000 -0.000945 0.000000
# 2 -0.000612 0.017224 0.000592 0.000000 0.002495 0.000000
# 3 -0.005449 0.000592 0.008460 0.000000 0.002833 0.000000
# 4 0.000000 0.000000 0.000000 0.051879 0.000000 0.021948
# 5 -0.000945 0.002495 0.002833 0.000000 0.024615 0.000000
# 6 0.000000 0.000000 0.000000 0.021948 0.000000 -0.028087
#
#
# Mechanical properties :
#
#
# Convention : Reuss Voigt Hill
#
# Bulk Modulus (GPa) = 43.87597 88.99853 66.43725
# Shear Modulus (GPa) = 49.66632 29.48006 39.57319
#
# Velocity S-wave (km/s) = 4.88127 3.76067 4.35714
# Velocity P-wave (km/s) = 7.26759 7.84556 7.56210
#
# Compressibility (1/GPa) = 0.02279152
#
# Stress axis : x y z
#
# Youngs Moduli (GPa) = 124.28939 58.05986 118.20665
#
# Poissons Ratio (x) = 0.03554 0.64410
# Poissons Ratio (y) = 0.07607 -0.07000
# Poissons Ratio (z) = 0.67724 -0.03438
#
# Static dielectric constant tensor:
#      x y z
#    x 1.722050 0.000000 -0.028840 
#    y 0.000000 1.814510 0.000000 
#    z -0.028840 0.000000 1.719250 
# 
# From -- ./inp_files/229820.got.cif
#   From: 2010.05.17/outbox.cif.g08.bks.cpg/sg12_115_cif.got.tgz:229820.got - 2010.06.03 13:09:07.
