data_PCOD9175592
_publ_section_title
;
Structure prediction by ZEFSAII (Michael W. Deem and Ramdas Pophale) SiO2 
 PCOD9175592
Probable space group: C 2/M
;
_chemical_formula_sum "Si O2"
_cell_formula_units_Z 56
_cell_length_a 21.261419
_cell_length_b 7.607347
_cell_length_c 22.846534
_cell_angle_alpha 90.000000
_cell_angle_beta 131.364120
_cell_angle_gamma 90.000000
_cell_volume 2773.390282
_symmetry_space_group_name_H-M "C 2/M"
_symmetry_group_IT_number 12
_symmetry_cell_setting 'monoclinic'
loop_
_space_group_symop_operation_xyz
x,y,z
-x,y,-z
-x,-y,-z
x,-y,z
1/2+x,1/2+y,z
1/2-x,1/2+y,-z
1/2-x,1/2-y,-z
1/2+x,1/2-y,z
loop_
_atom_site_type_symbol
_atom_site_label
_atom_site_fract_x
_atom_site_fract_y
_atom_site_fract_z
Si Si1 0.882878 0.287791 0.575381
Si Si2 0.057423 0.707511 0.725951
Si Si3 0.743906 0.792345 0.401447
Si Si4 0.246467 0.283275 0.827798
Si Si5 0.335472 0.704575 0.765749
Si Si6 0.984260 0.213796 0.165277
Si Si7 0.678151 0.289501 0.003056
O O1 0.884136 0.500000 0.579727
O O2 0.833555 0.240623 0.486220
O O3 0.825164 0.223691 0.594232
O O4 0.977231 0.221094 0.641394
O O5 0.061182 0.500000 0.715422
O O6 0.149924 0.777803 0.769887
O O7 0.036676 0.728759 0.781787
O O8 0.727202 0.715257 0.327657
O O9 0.731556 0.000000 0.388641
O O10 0.245076 0.500000 0.827348
O O11 0.294364 0.222340 0.799213
O O12 0.292953 0.225379 0.915654
O O13 0.351764 0.500000 0.788512
O O14 0.424779 0.778583 0.799569
O O15 0.910280 0.274544 0.076668
O O16 0.984836 0.000000 0.166543
O O17 0.671230 0.500000 0.003285
O O18 0.750000 0.250000 0.000000
#
# Coordination Sequence:
#
# PCOD9175592 Si02
#       7
#     8   8   8   8   8   8   8
#     4   9  18  31  51  78 103 131 172 217 257 303
#     4  10  18  33  55  78 102 135 177 214 253 306
#     4  10  19  32  52  78 105 135 171 214 262 306
#     4   9  19  34  54  76 103 141 176 211 255 308
#     4  10  20  35  52  75 108 141 173 210 258 312
#     4  10  20  31  51  80 106 134 171 216 261 304
#     4  10  19  33  53  78 105 135 174 217 259 301
#
# _framework density 20.191894000000001
#
# number of rings (size 3 to 8) (size 9 to 14) (size 15 to 20)
#    0.000    2.286    2.857    0.429    0.000    1.714 
#    0.000    5.000    0.000    4.286    0.000    3.000 
#    0.000    0.000    0.000    0.000    0.000    0.000 
#
# Total GULP energy -156291.498774 kJ/mol
# GULP energy per Si atom -5581.839242 kJ/mol
# Density = 2.014594 g / cm^3
# Si number density = 20.191894 Si / 1000 Ang^3
#
#
#
# Elastic Constant Matrix: (Units=GPa)
#
#
# Indices 1 2 3 4 5 6 
#
# 1 117.1985 -9.8544 65.3906 0.0000 -1.2046 0.0000
# 2 -9.8544 37.4494 -14.0634 0.0000 4.2293 0.0000
# 3 65.3906 -14.0634 140.4522 0.0000 9.8615 0.0000
# 4 0.0000 0.0000 0.0000 12.3148 0.0000 -4.9601
# 5 -1.2046 4.2293 9.8615 0.0000 34.4893 0.0000
# 6 0.0000 0.0000 0.0000 -4.9601 0.0000 13.2495
#
#
#
# Elastic Compliance Matrix: (Units=1/GPa)
#
#
# Indices 1 2 3 4 5 6 
#
# 1 0.011683 0.000800 -0.005491 0.000000 0.001880 0.000000
# 2 0.000800 0.028435 0.002773 0.000000 -0.004252 0.000000
# 3 -0.005491 0.002773 0.010196 0.000000 -0.003447 0.000000
# 4 0.000000 0.000000 0.000000 0.095621 0.000000 0.035797
# 5 0.001880 -0.004252 -0.003447 0.000000 0.030567 0.000000
# 6 0.000000 0.000000 0.000000 0.035797 0.000000 0.088876
#
#
# Mechanical properties :
#
#
# Convention : Reuss Voigt Hill
#
# Bulk Modulus (GPa) = 21.51566 42.00508 31.76037
# Shear Modulus (GPa) = 17.56195 28.91920 23.24058
#
# Velocity S-wave (km/s) = 2.95236 3.78857 3.39630
# Velocity P-wave (km/s) = 4.72235 6.32343 5.58061
#
# Compressibility (1/GPa) = 0.04647778
#
# Stress axis : x y z
#
# Youngs Moduli (GPa) = 85.59546 35.16816 98.07666
#
# Poissons Ratio (x) = -0.02813 0.53855
# Poissons Ratio (y) = -0.06846 -0.27200
# Poissons Ratio (z) = 0.47002 -0.09753
#
# Static dielectric constant tensor:
#      x y z
#    x 1.693630 0.000000 0.026580 
#    y 0.000000 1.741560 0.000000 
#    z 0.026580 0.000000 1.706450 
# 
# From -- ./inp_files/274999.got.cif
#   From: 2010.05.17/outbox.cif.g08.bks.cpg/sg12_138_cif.got.tgz:274999.got - 2010.06.03 13:09:07.
