data_PCOD9175062
_publ_section_title
;
Structure prediction by ZEFSAII (Michael W. Deem and Ramdas Pophale) SiO2 
 PCOD9175062
Probable space group: C 2/M
;
_chemical_formula_sum "Si O2"
_cell_formula_units_Z 48
_cell_length_a 24.297900
_cell_length_b 17.469502
_cell_length_c 5.913691
_cell_angle_alpha 90.000000
_cell_angle_beta 58.841166
_cell_angle_gamma 90.000000
_cell_volume 2148.066955
_symmetry_space_group_name_H-M "C 2/M"
_symmetry_group_IT_number 12
_symmetry_cell_setting 'monoclinic'
loop_
_space_group_symop_operation_xyz
x,y,z
-x,y,-z
-x,-y,-z
x,-y,z
1/2+x,1/2+y,z
1/2-x,1/2+y,-z
1/2-x,1/2-y,-z
1/2+x,1/2-y,z
loop_
_atom_site_type_symbol
_atom_site_label
_atom_site_fract_x
_atom_site_fract_y
_atom_site_fract_z
Si Si1 0.237946 0.085062 0.231668
Si Si2 0.076887 0.765624 0.603680
Si Si3 0.520591 0.868969 0.209161
Si Si4 0.105204 0.083685 0.781907
Si Si5 0.666964 0.671242 0.032278
Si Si6 0.658751 0.180011 0.775543
O O1 0.166737 0.081151 0.485923
O O2 0.227955 0.142220 0.043729
O O3 0.284937 0.119346 0.319930
O O4 0.258470 0.000000 0.119890
O O5 0.068363 0.840391 0.779112
O O6 0.109567 0.796409 0.309217
O O7 0.129249 0.707784 0.602573
O O8 0.014085 0.714204 0.715341
O O9 0.500000 0.903637 0.500000
O O10 0.500000 0.901663 0.000000
O O11 0.596965 0.855708 0.037096
O O12 0.074041 0.000000 0.841562
O O13 0.135777 0.101731 0.959895
O O14 0.683455 0.741146 0.833509
#
# Coordination Sequence:
#
# PCOD9175062 Si02
#       6
#     8   8   8   8   8   8
#     4  10  21  35  51  78 117 151 185 227 284 347
#     4   9  19  33  55  81 106 142 190 239 287 335
#     4  10  19  36  59  86 113 145 190 251 294 332
#     4   9  19  34  52  78 116 151 182 225 285 348
#     4  10  18  32  55  81 108 143 187 235 282 338
#     4  10  20  33  55  82 109 145 189 238 285 339
#
# _framework density 22.345673000000001
#
# number of rings (size 3 to 8) (size 9 to 14) (size 15 to 20)
#    0.000    2.333    1.667    1.000    0.000    8.000 
#    0.000    0.000    0.000   19.000    0.000    0.000 
#    0.000    0.000    0.000    0.000    0.000    0.000 
#
# Total GULP energy -133869.959172 kJ/mol
# GULP energy per Si atom -5577.914965 kJ/mol
# Density = 2.229481 g / cm^3
# Si number density = 22.345673 Si / 1000 Ang^3
#
#
#
# Elastic Constant Matrix: (Units=GPa)
#
#
# Indices 1 2 3 4 5 6 
#
# 1 66.5872 25.2735 3.5988 0.0000 -2.7628 0.0000
# 2 25.2735 47.7895 -2.1421 0.0000 -10.5439 0.0000
# 3 3.5988 -2.1421 49.7998 0.0000 20.2313 0.0000
# 4 0.0000 0.0000 0.0000 3.8525 0.0000 -13.5619
# 5 -2.7628 -10.5439 20.2313 0.0000 26.3607 0.0000
# 6 0.0000 0.0000 0.0000 -13.5619 0.0000 -23.3133
#
#
#
# Elastic Compliance Matrix: (Units=1/GPa)
#
#
# Indices 1 2 3 4 5 6 
#
# 1 0.018969 -0.010335 -0.001371 0.000000 -0.001093 0.000000
# 2 -0.010335 0.029138 -0.003334 0.000000 0.013131 0.000000
# 3 -0.001371 -0.003334 0.029985 0.000000 -0.024491 0.000000
# 4 0.000000 0.000000 0.000000 0.085166 0.000000 -0.049543
# 5 -0.001093 0.013131 -0.024491 0.000000 0.061869 0.000000
# 6 0.000000 0.000000 0.000000 -0.049543 0.000000 -0.014074
#
#
# Mechanical properties :
#
#
# Convention : Reuss Voigt Hill
#
# Bulk Modulus (GPa) = 20.82775 24.18188 22.50482
# Shear Modulus (GPa) = 19.44478 10.54307 14.99392
#
# Velocity S-wave (km/s) = 2.95308 2.17449 2.59317
# Velocity P-wave (km/s) = 4.57914 4.14123 4.36568
#
# Compressibility (1/GPa) = 0.04801286
#
# Stress axis : x y z
#
# Youngs Moduli (GPa) = 52.71714 34.31931 33.34950
#
# Poissons Ratio (x) = 0.35467 0.04573
# Poissons Ratio (y) = 0.54481 0.11119
# Poissons Ratio (z) = 0.07229 0.11443
#
# Static dielectric constant tensor:
#      x y z
#    x 1.820210 0.000000 0.038920 
#    y 0.000000 1.833540 0.000000 
#    z 0.038920 0.000000 1.891490 
# 
# From -- ./inp_files/20976.got.cif
#   From: 2010.05.17/outbox.cif.g08.bks.cpg/sg12_11_cif.got.tgz:20976.got - 2010.06.03 13:09:07.
