data_PCOD9175349
_publ_section_title
;
Structure prediction by ZEFSAII (Michael W. Deem and Ramdas Pophale) SiO2 
 PCOD9175349
Probable space group: C 2/M
;
_chemical_formula_sum "Si O2"
_cell_formula_units_Z 64
_cell_length_a 13.228132
_cell_length_b 14.835688
_cell_length_c 15.050306
_cell_angle_alpha 90.000000
_cell_angle_beta 62.372014
_cell_angle_gamma 90.000000
_cell_volume 2616.821360
_symmetry_space_group_name_H-M "C 2/M"
_symmetry_group_IT_number 12
_symmetry_cell_setting 'monoclinic'
loop_
_space_group_symop_operation_xyz
x,y,z
-x,y,-z
-x,-y,-z
x,-y,z
1/2+x,1/2+y,z
1/2-x,1/2+y,-z
1/2-x,1/2-y,-z
1/2+x,1/2-y,z
loop_
_atom_site_type_symbol
_atom_site_label
_atom_site_fract_x
_atom_site_fract_y
_atom_site_fract_z
Si Si1 0.705418 0.899642 0.872240
Si Si2 0.094158 0.209345 0.891128
Si Si3 0.080094 0.104308 0.571499
Si Si4 0.313963 0.899086 0.766684
Si Si5 0.791723 0.669320 0.591301
Si Si6 0.058135 0.604279 0.618373
Si Si7 0.456362 0.391322 0.797555
Si Si8 0.778871 0.868395 0.648046
O O1 0.619117 0.815680 0.898242
O O2 0.823156 0.876062 0.875915
O O3 0.754641 0.908141 0.752705
O O4 0.663099 0.000000 0.916719
O O5 0.216508 0.160728 0.850234
O O6 0.039546 0.173196 0.820663
O O7 0.000000 0.178964 0.000000
O O8 0.185476 0.161291 0.568928
O O9 0.108489 0.106685 0.453952
O O10 0.981459 0.128950 0.682479
O O11 0.102141 0.000000 0.583077
O O12 0.288637 0.902687 0.670977
O O13 0.444030 0.863013 0.713894
O O14 0.312394 0.000000 0.804707
O O15 0.901832 0.659108 0.484099
O O16 0.785489 0.761245 0.647497
O O17 0.037479 0.500000 0.600702
O O18 0.167038 0.605766 0.637487
O O19 0.477677 0.500000 0.803805
#
# Coordination Sequence:
#
# PCOD9175349 Si02
#       8
#     8   8   8   8   8   8   8   8
#     4  11  25  47  71  99 140 185 231 283 351 421
#     4  12  27  47  75 106 132 172 235 304 354 412
#     4  10  18  32  59  90 130 179 226 270 325 397
#     4  11  22  40  63  95 132 174 220 277 353 415
#     4  11  19  33  54  91 133 184 220 271 325 403
#     4  10  21  35  59  94 138 181 224 276 336 407
#     4  10  23  45  72 102 142 186 226 282 349 417
#     4  11  21  37  58  96 135 184 232 275 320 400
#
# _framework density 24.457152000000001
#
# number of rings (size 3 to 8) (size 9 to 14) (size 15 to 20)
#    0.000    1.250    2.500    5.250    0.000    6.250 
#    2.250    1.875    0.000    2.250    0.000    0.000 
#    0.000    0.000    0.000    0.000    0.000    0.000 
#
# Total GULP energy -178708.155233 kJ/mol
# GULP energy per Si atom -5584.629851 kJ/mol
# Density = 2.440149 g / cm^3
# Si number density = 24.457152 Si / 1000 Ang^3
#
#
#
# Elastic Constant Matrix: (Units=GPa)
#
#
# Indices 1 2 3 4 5 6 
#
# 1 159.6054 46.3522 14.2964 0.0000 -46.6582 0.0000
# 2 46.3522 143.2308 6.5933 0.0000 -24.8093 0.0000
# 3 14.2964 6.5933 108.3070 0.0000 -34.1860 0.0000
# 4 0.0000 0.0000 0.0000 -17.4901 0.0000 -35.8320
# 5 -46.6582 -24.8093 -34.1860 0.0000 32.2502 0.0000
# 6 0.0000 0.0000 0.0000 -35.8320 0.0000 -0.2420
#
#
#
# Elastic Compliance Matrix: (Units=1/GPa)
#
#
# Indices 1 2 3 4 5 6 
#
# 1 0.013344 -0.000095 0.006485 0.000000 0.026106 0.000000
# 2 -0.000095 0.008421 0.002256 0.000000 0.008732 0.000000
# 3 0.006485 0.002256 0.017656 0.000000 0.029833 0.000000
# 4 0.000000 0.000000 0.000000 0.000189 0.000000 -0.028000
# 5 0.026106 0.008732 0.029833 0.000000 0.107118 0.000000
# 6 0.000000 0.000000 0.000000 -0.028000 0.000000 0.013667
#
#
# Mechanical properties :
#
#
# Convention : Reuss Voigt Hill
#
# Bulk Modulus (GPa) = 17.63272 60.62524 39.12898
# Shear Modulus (GPa) = 30.86256 25.83037 28.34646
#
# Velocity S-wave (km/s) = 3.55618 3.25337 3.40814
# Velocity P-wave (km/s) = 4.90787 6.24137 5.61435
#
# Compressibility (1/GPa) = 0.05671274
#
# Stress axis : x y z
#
# Youngs Moduli (GPa) = 74.94063 118.74839 56.63720
#
# Poissons Ratio (x) = 0.01128 -0.36726
# Poissons Ratio (y) = 0.00712 -0.12778
# Poissons Ratio (z) = -0.48595 -0.26792
#
# Static dielectric constant tensor:
#      x y z
#    x 2.049110 0.000000 0.013750 
#    y 0.000000 1.279640 0.000000 
#    z 0.013750 0.000000 1.929510 
# 
# From -- ./inp_files/270635.got.cif
#   From: 2010.05.17/outbox.cif.g08.bks.cpg/sg12_136_cif.got.tgz:270635.got - 2010.06.03 13:09:07.
