data_PCOD9175264
_publ_section_title
;
Structure prediction by ZEFSAII (Michael W. Deem and Ramdas Pophale) SiO2 
 PCOD9175264
Probable space group: C 2/M
;
_chemical_formula_sum "Si O2"
_cell_formula_units_Z 48
_cell_length_a 19.523068
_cell_length_b 16.080417
_cell_length_c 7.378075
_cell_angle_alpha 90.000000
_cell_angle_beta 67.589927
_cell_angle_gamma 90.000000
_cell_volume 2141.339367
_symmetry_space_group_name_H-M "C 2/M"
_symmetry_group_IT_number 12
_symmetry_cell_setting 'monoclinic'
loop_
_space_group_symop_operation_xyz
x,y,z
-x,y,-z
-x,-y,-z
x,-y,z
1/2+x,1/2+y,z
1/2-x,1/2+y,-z
1/2-x,1/2-y,-z
1/2+x,1/2-y,z
loop_
_atom_site_type_symbol
_atom_site_label
_atom_site_fract_x
_atom_site_fract_y
_atom_site_fract_z
Si Si1 0.926086 0.638885 0.993483
Si Si2 0.633672 0.145104 0.329178
Si Si3 0.189155 0.588969 0.620599
Si Si4 0.917411 0.168344 0.124358
Si Si5 0.218540 0.153166 0.005413
Si Si6 0.830332 0.170965 0.564614
O O1 0.853917 0.595930 0.147998
O O2 0.920833 0.731843 0.084432
O O3 0.923758 0.641208 0.778062
O O4 0.000000 0.600650 0.000000
O O5 0.628129 0.097682 0.523778
O O6 0.643423 0.240211 0.385030
O O7 0.710746 0.113579 0.162575
O O8 0.226982 0.500000 0.563727
O O9 0.250657 0.660963 0.545390
O O10 0.890960 0.147458 0.354108
O O11 0.851371 0.144499 0.055662
O O12 0.000000 0.136234 0.000000
O O13 0.189566 0.122883 0.229505
O O14 0.250000 0.250000 0.000000
#
# Coordination Sequence:
#
# PCOD9175264 Si02
#       6
#     8   8   8   8   8   8
#     4  11  23  40  59  91 131 161 203 256 311 363
#     4  11  20  38  65  87 120 165 208 259 302 359
#     4  12  25  39  62  91 121 170 214 250 307 370
#     4  11  21  34  58  95 125 151 197 256 319 360
#     4  10  18  32  57  87 114 156 194 246 308 353
#     4  11  20  37  65  87 122 155 205 264 303 361
#
# _framework density 22.415876999999998
#
# number of rings (size 3 to 8) (size 9 to 14) (size 15 to 20)
#    0.000    1.000    8.333    1.500    0.000    2.333 
#    0.000    0.833    0.000    0.500    0.000    1.167 
#    0.000    0.667    0.000    0.000    0.000    0.000 
#
# Total GULP energy -133763.198392 kJ/mol
# GULP energy per Si atom -5573.466600 kJ/mol
# Density = 2.236486 g / cm^3
# Si number density = 22.415877 Si / 1000 Ang^3
#
#
#
# Elastic Constant Matrix: (Units=GPa)
#
#
# Indices 1 2 3 4 5 6 
#
# 1 140.0649 8.1252 53.6565 0.0000 4.4437 0.0000
# 2 8.1252 36.9979 -16.3211 0.0000 7.4759 0.0000
# 3 53.6565 -16.3211 142.0449 0.0000 18.1930 0.0000
# 4 0.0000 0.0000 0.0000 -0.9864 0.0000 -1.8925
# 5 4.4437 7.4759 18.1930 0.0000 39.1522 0.0000
# 6 0.0000 0.0000 0.0000 -1.8925 0.0000 -1.1186
#
#
#
# Elastic Compliance Matrix: (Units=1/GPa)
#
#
# Indices 1 2 3 4 5 6 
#
# 1 0.008864 -0.004053 -0.004024 0.000000 0.001637 0.000000
# 2 -0.004053 0.032493 0.006380 0.000000 -0.008709 0.000000
# 3 -0.004024 0.006380 0.009985 0.000000 -0.005401 0.000000
# 4 0.000000 0.000000 0.000000 0.451385 0.000000 -0.763668
# 5 0.001637 -0.008709 -0.005401 0.000000 0.029528 0.000000
# 6 0.000000 0.000000 0.000000 -0.763668 0.000000 0.398023
#
#
# Mechanical properties :
#
#
# Convention : Reuss Voigt Hill
#
# Bulk Modulus (GPa) = 20.85583 45.55876 33.20729
# Shear Modulus (GPa) = 5.26508 25.65258 15.45883
#
# Velocity S-wave (km/s) = 1.53425 3.38656 2.62894
# Velocity P-wave (km/s) = 3.53027 5.97161 4.90525
#
# Compressibility (1/GPa) = 0.04794822
#
# Stress axis : x y z
#
# Youngs Moduli (GPa) = 112.81454 30.77626 100.15266
#
# Poissons Ratio (x) = 0.12472 0.40299
# Poissons Ratio (y) = 0.45719 -0.63894
# Poissons Ratio (z) = 0.45393 -0.19634
#
# Static dielectric constant tensor:
#      x y z
#    x 1.893540 0.000000 0.027310 
#    y 0.000000 1.960270 0.000000 
#    z 0.027310 0.000000 1.842270 
# 
# From -- ./inp_files/75080.got.cif
#   From: 2010.05.17/outbox.cif.g08.bks.cpg/sg12_38_cif.got.tgz:75080.got - 2010.06.03 13:09:07.
