data_PCOD9175410
_publ_section_title
;
Structure prediction by ZEFSAII (Michael W. Deem and Ramdas Pophale) SiO2 
 PCOD9175410
Probable space group: C 2/M
;
_chemical_formula_sum "Si O2"
_cell_formula_units_Z 64
_cell_length_a 14.742961
_cell_length_b 31.221784
_cell_length_c 9.176276
_cell_angle_alpha 90.000000
_cell_angle_beta 63.409675
_cell_angle_gamma 90.000000
_cell_volume 3777.096266
_symmetry_space_group_name_H-M "C 2/M"
_symmetry_group_IT_number 12
_symmetry_cell_setting 'monoclinic'
loop_
_space_group_symop_operation_xyz
x,y,z
-x,y,-z
-x,-y,-z
x,-y,z
1/2+x,1/2+y,z
1/2-x,1/2+y,-z
1/2-x,1/2-y,-z
1/2+x,1/2-y,z
loop_
_atom_site_type_symbol
_atom_site_label
_atom_site_fract_x
_atom_site_fract_y
_atom_site_fract_z
Si Si1 0.358648 0.682498 0.727618
Si Si2 0.488640 0.601604 0.675623
Si Si3 0.427569 0.227002 0.674796
Si Si4 0.181371 0.115671 0.741690
Si Si5 0.889230 0.752318 0.275280
Si Si6 0.203370 0.198303 0.904468
Si Si7 0.745556 0.323775 0.476897
Si Si8 0.109625 0.950475 0.003959
O O1 0.448100 0.650086 0.697462
O O2 0.392602 0.727389 0.634966
O O3 0.290501 0.660014 0.654420
O O4 0.307007 0.695871 0.915454
O O5 0.500000 0.586587 0.500000
O O6 0.592917 0.604184 0.690593
O O7 0.411378 0.573496 0.828203
O O8 0.500000 0.206399 0.500000
O O9 0.495887 0.241629 0.763553
O O10 0.323124 0.202683 0.781667
O O11 0.157696 0.154291 0.871818
O O12 0.265286 0.137647 0.575619
O O13 0.188227 0.074902 0.843292
O O14 0.856698 0.763009 0.132695
O O15 0.830663 0.711116 0.380672
O O16 0.843013 0.795013 0.384161
O O17 0.136526 0.000000 0.004484
O O18 0.000000 0.948801 0.000000
#
# Coordination Sequence:
#
# PCOD9175410 Si02
#       8
#     8   8   8   8   8   8   8   8
#     4  12  20  33  47  71  99 131 172 221 243 291
#     4  11  20  31  52  76  98 136 171 204 253 301
#     4  12  21  33  50  66  96 137 179 217 256 288
#     4  10  19  33  51  71  96 132 168 206 249 299
#     4  10  20  34  48  66  95 136 173 214 257 289
#     4  11  23  34  48  71  99 132 180 218 250 297
#     4  10  18  33  50  67  99 129 171 216 251 291
#     4   9  19  35  52  73 102 130 163 206 251 305
#
# _framework density 16.944233000000001
#
# number of rings (size 3 to 8) (size 9 to 14) (size 15 to 20)
#    0.000    1.375    5.000    3.750    0.000    1.750 
#    0.000    0.000    0.000    0.000    0.000    0.000 
#    0.000    4.500    0.000    1.125    0.250    0.375 
#
# Total GULP energy -178206.690861 kJ/mol
# GULP energy per Si atom -5568.959089 kJ/mol
# Density = 1.690567 g / cm^3
# Si number density = 16.944233 Si / 1000 Ang^3
#
#
#
# Elastic Constant Matrix: (Units=GPa)
#
#
# Indices 1 2 3 4 5 6 
#
# 1 49.3026 -1.7500 20.0028 0.0000 6.8459 0.0000
# 2 -1.7500 68.4327 27.1273 0.0000 0.9472 0.0000
# 3 20.0028 27.1273 112.3450 0.0000 15.6941 0.0000
# 4 0.0000 0.0000 0.0000 15.6935 0.0000 -5.0723
# 5 6.8459 0.9472 15.6941 0.0000 18.9430 0.0000
# 6 0.0000 0.0000 0.0000 -5.0723 0.0000 10.6675
#
#
#
# Elastic Compliance Matrix: (Units=1/GPa)
#
#
# Indices 1 2 3 4 5 6 
#
# 1 0.022627 0.002171 -0.003840 0.000000 -0.005104 0.000000
# 2 0.002171 0.016495 -0.004687 0.000000 0.002274 0.000000
# 3 -0.003840 -0.004687 0.011863 0.000000 -0.008206 0.000000
# 4 0.000000 0.000000 0.000000 0.075292 0.000000 0.035800
# 5 -0.005104 0.002274 -0.008206 0.000000 0.061320 0.000000
# 6 0.000000 0.000000 0.000000 0.035800 0.000000 0.110765
#
#
# Mechanical properties :
#
#
# Convention : Reuss Voigt Hill
#
# Bulk Modulus (GPa) = 26.12784 35.64895 30.88840
# Shear Modulus (GPa) = 15.44019 21.37415 18.40717
#
# Velocity S-wave (km/s) = 3.02194 3.55553 3.29954
# Velocity P-wave (km/s) = 5.25638 6.15958 5.72582
#
# Compressibility (1/GPa) = 0.03827335
#
# Stress axis : x y z
#
# Youngs Moduli (GPa) = 44.19563 60.62437 84.29559
#
# Poissons Ratio (x) = -0.13164 0.32369
# Poissons Ratio (y) = -0.09597 0.39511
# Poissons Ratio (z) = 0.16971 0.28416
#
# Static dielectric constant tensor:
#      x y z
#    x 1.650340 0.000000 0.022380 
#    y 0.000000 1.568090 0.000000 
#    z 0.022380 0.000000 1.650190 
# 
# From -- ./inp_files/68216.got.cif
#   From: 2010.05.17/outbox.cif.g08.bks.cpg/sg12_35_cif.got.tgz:68216.got - 2010.06.03 13:09:07.
