data_PCOD9175332
_publ_section_title
;
Structure prediction by ZEFSAII (Michael W. Deem and Ramdas Pophale) SiO2 
 PCOD9175332
Probable space group: C 2/M
;
_chemical_formula_sum "Si O2"
_cell_formula_units_Z 48
_cell_length_a 32.134534
_cell_length_b 16.868468
_cell_length_c 12.897595
_cell_angle_alpha 90.000000
_cell_angle_beta 23.279488
_cell_angle_gamma 90.000000
_cell_volume 2763.068424
_symmetry_space_group_name_H-M "C 2/M"
_symmetry_group_IT_number 12
_symmetry_cell_setting 'monoclinic'
loop_
_space_group_symop_operation_xyz
x,y,z
-x,y,-z
-x,-y,-z
x,-y,z
1/2+x,1/2+y,z
1/2-x,1/2+y,-z
1/2-x,1/2-y,-z
1/2+x,1/2-y,z
loop_
_atom_site_type_symbol
_atom_site_label
_atom_site_fract_x
_atom_site_fract_y
_atom_site_fract_z
Si Si1 0.819694 0.411089 0.895459
Si Si2 0.718636 0.691199 0.303158
Si Si3 0.878140 0.193851 0.004234
Si Si4 0.618827 0.624904 0.219255
Si Si5 0.483775 0.407163 0.160181
Si Si6 0.916632 0.725787 0.557004
O O1 0.854407 0.500000 0.835853
O O2 0.900359 0.360167 0.641767
O O3 0.792883 0.364394 0.062452
O O4 0.710236 0.412758 0.079307
O O5 0.625432 0.636446 0.560360
O O6 0.666893 0.753412 0.340983
O O7 0.782238 0.745318 0.238749
O O8 0.854450 0.134582 0.962403
O O9 0.924607 0.141971 0.990980
O O10 0.972759 0.249194 0.744407
O O11 0.500000 0.590851 0.500000
O O12 0.608630 0.712410 0.293287
O O13 0.481904 0.500000 0.196997
O O14 0.500000 0.404400 0.000000
#
# Coordination Sequence:
#
# PCOD9175332 Si02
#       6
#     8   8   8   8   8   8
#     4  11  19  28  45  75 113 141 163 201 249 294
#     4  10  18  34  54  75 102 140 178 204 249 314
#     4  10  18  32  59  75  96 141 179 204 245 319
#     4   9  16  28  48  69  98 137 172 203 240 297
#     4  10  23  40  55  78 106 126 165 236 285 297
#     4   9  17  31  47  73 110 141 167 202 244 291
#
# _framework density 17.371991000000001
#
# number of rings (size 3 to 8) (size 9 to 14) (size 15 to 20)
#    0.000    2.167    3.333    2.500    0.000    1.667 
#    0.000    2.500    0.000    0.000    0.000    0.000 
#    0.000   11.333    0.000    0.000    0.000    0.000 
#
# Total GULP energy -133787.522150 kJ/mol
# GULP energy per Si atom -5574.480090 kJ/mol
# Density = 1.733245 g / cm^3
# Si number density = 17.371991 Si / 1000 Ang^3
#
#
#
# Elastic Constant Matrix: (Units=GPa)
#
#
# Indices 1 2 3 4 5 6 
#
# 1 84.7493 42.7469 22.1560 0.0000 -5.1639 0.0000
# 2 42.7469 118.1063 30.6509 0.0000 -4.4939 0.0000
# 3 22.1560 30.6509 31.5575 0.0000 0.3166 0.0000
# 4 0.0000 0.0000 0.0000 15.9754 0.0000 -11.0889
# 5 -5.1639 -4.4939 0.3166 0.0000 17.2465 0.0000
# 6 0.0000 0.0000 0.0000 -11.0889 0.0000 -62.7052
#
#
#
# Elastic Compliance Matrix: (Units=1/GPa)
#
#
# Indices 1 2 3 4 5 6 
#
# 1 0.015863 -0.003597 -0.007683 0.000000 0.003953 0.000000
# 2 -0.003597 0.012310 -0.009454 0.000000 0.002304 0.000000
# 3 -0.007683 -0.009454 0.046321 0.000000 -0.005614 0.000000
# 4 0.000000 0.000000 0.000000 0.055753 0.000000 -0.009859
# 5 0.003953 0.002304 -0.005614 0.000000 0.059870 0.000000
# 6 0.000000 0.000000 0.000000 -0.009859 0.000000 -0.014204
#
#
# Mechanical properties :
#
#
# Convention : Reuss Voigt Hill
#
# Bulk Modulus (GPa) = 30.27940 47.28009 38.77975
# Shear Modulus (GPa) = 21.89231 3.36062 12.62646
#
# Velocity S-wave (km/s) = 3.55379 1.39237 2.69890
# Velocity P-wave (km/s) = 5.85723 5.46446 5.66425
#
# Compressibility (1/GPa) = 0.03302575
#
# Stress axis : x y z
#
# Youngs Moduli (GPa) = 63.03806 81.23441 21.58836
#
# Poissons Ratio (x) = 0.29221 0.16587
# Poissons Ratio (y) = 0.22676 0.20410
# Poissons Ratio (z) = 0.48434 0.76799
#
# Static dielectric constant tensor:
#      x y z
#    x 1.617350 0.000000 -0.053690 
#    y 0.000000 1.603310 0.000000 
#    z -0.053690 0.000000 1.622710 
# 
# From -- ./inp_files/189521.got.cif
#   From: 2010.05.17/outbox.cif.g08.bks.cpg/sg12_95_cif.got.tgz:189521.got - 2010.06.03 13:09:07.
