data_PCOD9175164
_publ_section_title
;
Structure prediction by ZEFSAII (Michael W. Deem and Ramdas Pophale) SiO2 
 PCOD9175164
Probable space group: C 2/M
;
_chemical_formula_sum "Si O2"
_cell_formula_units_Z 56
_cell_length_a 19.417705
_cell_length_b 16.187091
_cell_length_c 6.933136
_cell_angle_alpha 90.000000
_cell_angle_beta 72.198606
_cell_angle_gamma 90.000000
_cell_volume 2074.860993
_symmetry_space_group_name_H-M "C 2/M"
_symmetry_group_IT_number 12
_symmetry_cell_setting 'monoclinic'
loop_
_space_group_symop_operation_xyz
x,y,z
-x,y,-z
-x,-y,-z
x,-y,z
1/2+x,1/2+y,z
1/2-x,1/2+y,-z
1/2-x,1/2-y,-z
1/2+x,1/2-y,z
loop_
_atom_site_type_symbol
_atom_site_label
_atom_site_fract_x
_atom_site_fract_y
_atom_site_fract_z
Si Si1 0.273334 0.406773 0.019986
Si Si2 0.774642 0.406334 0.488837
Si Si3 0.368818 0.319513 0.450688
Si Si4 0.498882 0.589272 0.766289
Si Si5 0.585899 0.856177 0.464339
Si Si6 0.606723 0.278779 0.022421
Si Si7 0.382504 0.911195 0.969514
O O1 0.306377 0.500000 0.974719
O O2 0.246430 0.400935 0.264721
O O3 0.323175 0.326579 0.950953
O O4 0.204224 0.405048 0.939095
O O5 0.759982 0.500000 0.444314
O O6 0.714178 0.345893 0.452952
O O7 0.861595 0.388962 0.405315
O O8 0.426983 0.393696 0.414272
O O9 0.386987 0.238297 0.556909
O O10 0.383752 0.299201 0.212104
O O11 0.469678 0.500000 0.731310
O O12 0.500000 0.581280 0.000000
O O13 0.455149 0.674495 0.804476
O O14 0.500000 0.854089 0.500000
O O15 0.607315 0.913971 0.269612
O O16 0.589494 0.181591 0.024529
O O17 0.409382 0.000000 0.023599
#
# Coordination Sequence:
#
# PCOD9175164 Si02
#       7
#     8   8   8   8   8   8   8
#     4   8  15  29  52  82 111 143 184 227 280 346
#     4   9  18  34  57  83 111 147 193 238 281 339
#     4  10  20  35  58  86 113 144 187 237 289 337
#     4   9  17  30  53  84 112 137 170 218 277 339
#     4  11  22  37  57  80 111 152 195 236 281 339
#     4  10  18  32  56  83 111 143 184 237 285 330
#     4  10  21  36  53  75 109 153 193 231 282 341
#
# _framework density 26.989761000000001
#
# number of rings (size 3 to 8) (size 9 to 14) (size 15 to 20)
#    0.000    2.429    0.000    3.857    0.000    4.571 
#    0.000    1.429    0.000   19.286    0.000    0.000 
#    0.000    0.000    0.000    0.000    0.000    0.000 
#
# Total GULP energy -156030.217700 kJ/mol
# GULP energy per Si atom -5572.507775 kJ/mol
# Density = 2.692833 g / cm^3
# Si number density = 26.989761 Si / 1000 Ang^3
#
#
#
# Elastic Constant Matrix: (Units=GPa)
#
#
# Indices 1 2 3 4 5 6 
#
# 1 137.2805 66.5433 22.1985 0.0000 -28.2812 0.0000
# 2 66.5433 217.4417 44.7511 0.0000 -14.8374 0.0000
# 3 22.1985 44.7511 71.5860 0.0000 -1.9615 0.0000
# 4 0.0000 0.0000 0.0000 113.0553 0.0000 -79.0875
# 5 -28.2812 -14.8374 -1.9615 0.0000 29.7761 0.0000
# 6 0.0000 0.0000 0.0000 -79.0875 0.0000 175.9174
#
#
#
# Elastic Compliance Matrix: (Units=1/GPa)
#
#
# Indices 1 2 3 4 5 6 
#
# 1 0.010427 -0.002276 -0.001573 0.000000 0.008666 0.000000
# 2 -0.002276 0.005954 -0.003000 0.000000 0.000608 0.000000
# 3 -0.001573 -0.003000 0.016280 0.000000 -0.001917 0.000000
# 4 0.000000 0.000000 0.000000 0.012903 0.000000 0.005801
# 5 0.008666 0.000608 -0.001917 0.000000 0.041992 0.000000
# 6 0.000000 0.000000 0.000000 0.005801 0.000000 0.008292
#
#
# Mechanical properties :
#
#
# Convention : Reuss Voigt Hill
#
# Bulk Modulus (GPa) = 52.73312 77.03267 64.88290
# Shear Modulus (GPa) = 43.15267 83.27079 63.21173
#
# Velocity S-wave (km/s) = 4.00290 5.56055 4.84474
# Velocity P-wave (km/s) = 6.39882 8.35642 7.44227
#
# Compressibility (1/GPa) = 0.01896341
#
# Stress axis : x y z
#
# Youngs Moduli (GPa) = 95.90277 167.94620 61.42563
#
# Poissons Ratio (x) = 0.38223 0.09664
# Poissons Ratio (y) = 0.21827 0.18427
# Poissons Ratio (z) = 0.15088 0.50381
#
# Static dielectric constant tensor:
#      x y z
#    x 2.318860 0.000000 0.020260 
#    y 0.000000 2.069090 0.000000 
#    z 0.020260 0.000000 2.170310 
# 
# From -- ./inp_files/166649.got.cif
#   From: 2010.05.17/outbox.cif.g08.bks.cpg/sg12_84_cif.got.tgz:166649.got - 2010.06.03 13:09:07.
