data_PCOD9175002
_publ_section_title
;
Structure prediction by ZEFSAII (Michael W. Deem and Ramdas Pophale) SiO2 
 PCOD9175002
Probable space group: C 2/M
;
_chemical_formula_sum "Si O2"
_cell_formula_units_Z 48
_cell_length_a 15.217323
_cell_length_b 7.860717
_cell_length_c 21.406670
_cell_angle_alpha 90.000000
_cell_angle_beta 116.563542
_cell_angle_gamma 90.000000
_cell_volume 2290.341526
_symmetry_space_group_name_H-M "C 2/M"
_symmetry_group_IT_number 12
_symmetry_cell_setting 'monoclinic'
loop_
_space_group_symop_operation_xyz
x,y,z
-x,y,-z
-x,-y,-z
x,-y,z
1/2+x,1/2+y,z
1/2-x,1/2+y,-z
1/2-x,1/2-y,-z
1/2+x,1/2-y,z
loop_
_atom_site_type_symbol
_atom_site_label
_atom_site_fract_x
_atom_site_fract_y
_atom_site_fract_z
Si Si1 0.564784 0.701568 0.604932
Si Si2 0.149300 0.204880 0.502978
Si Si3 0.514326 0.791361 0.166264
Si Si4 0.600797 0.198478 0.754930
Si Si5 0.686503 0.206179 0.137402
Si Si6 0.140677 0.704252 0.986746
O O1 0.558413 0.500000 0.593016
O O2 0.633821 0.765232 0.570100
O O3 0.452240 0.766036 0.562232
O O4 0.603276 0.727997 0.686637
O O5 0.250000 0.250000 0.500000
O O6 0.148603 0.000000 0.502716
O O7 0.480717 0.729928 0.223380
O O8 0.621065 0.742642 0.175662
O O9 0.510726 0.000000 0.166111
O O10 0.437030 0.732639 0.088747
O O11 0.704638 0.222935 0.822294
O O12 0.581137 0.000000 0.740873
O O13 0.633562 0.261221 0.056382
O O14 0.692980 0.000000 0.138241
O O15 0.129893 0.500000 0.984235
O O16 0.250000 0.750000 0.000000
#
# Coordination Sequence:
#
# PCOD9175002 Si02
#       6
#     8   8   8   8   8   8
#     4   9  20  39  58  80 113 149 180 211 259 324
#     4   9  19  37  62  87 112 143 178 219 261 309
#     4   9  19  35  53  75 105 140 181 224 270 325
#     4  11  22  36  54  79 112 143 176 227 274 310
#     4  10  20  35  56  77 101 143 187 222 272 333
#     4  10  18  32  55  77 101 136 180 229 276 323
#
# _framework density 20.957573
#
# number of rings (size 3 to 8) (size 9 to 14) (size 15 to 20)
#    0.000    2.333    1.667    2.000    0.000    4.667 
#    0.000    9.167    0.000    2.000    0.000    0.000 
#    0.000    0.000    0.000    0.000    0.000    0.000 
#
# Total GULP energy -133880.869359 kJ/mol
# GULP energy per Si atom -5578.369557 kJ/mol
# Density = 2.090987 g / cm^3
# Si number density = 20.957573 Si / 1000 Ang^3
#
#
#
# Elastic Constant Matrix: (Units=GPa)
#
#
# Indices 1 2 3 4 5 6 
#
# 1 118.6021 4.8738 19.5711 0.0000 -34.7801 0.0000
# 2 4.8738 20.1146 6.4563 0.0000 -4.9646 0.0000
# 3 19.5711 6.4563 86.5463 0.0000 -28.6744 0.0000
# 4 0.0000 0.0000 0.0000 14.9267 0.0000 3.1489
# 5 -34.7801 -4.9646 -28.6744 0.0000 26.4205 0.0000
# 6 0.0000 0.0000 0.0000 3.1489 0.0000 22.7951
#
#
#
# Elastic Compliance Matrix: (Units=1/GPa)
#
#
# Indices 1 2 3 4 5 6 
#
# 1 0.014977 0.001025 0.004892 0.000000 0.025218 0.000000
# 2 0.001025 0.052259 -0.000671 0.000000 0.010441 0.000000
# 3 0.004892 -0.000671 0.019659 0.000000 0.027650 0.000000
# 4 0.000000 0.000000 0.000000 0.069005 0.000000 -0.009532
# 5 0.025218 0.010441 0.027650 0.000000 0.103017 0.000000
# 6 0.000000 0.000000 0.000000 -0.009532 0.000000 0.045186
#
#
# Mechanical properties :
#
#
# Convention : Reuss Voigt Hill
#
# Bulk Modulus (GPa) = 10.26826 31.89616 21.08221
# Shear Modulus (GPa) = 15.33391 25.78590 20.55990
#
# Velocity S-wave (km/s) = 2.70786 3.51149 3.13553
# Velocity P-wave (km/s) = 3.83235 5.62967 4.81560
#
# Compressibility (1/GPa) = 0.09738746
#
# Stress axis : x y z
#
# Youngs Moduli (GPa) = 66.76733 19.13537 50.86657
#
# Poissons Ratio (x) = -0.01961 -0.24883
# Poissons Ratio (y) = -0.06844 0.03413
# Poissons Ratio (z) = -0.32661 0.01284
#
# Static dielectric constant tensor:
#      x y z
#    x 1.755410 0.000000 -0.028460 
#    y 0.000000 1.777260 0.000000 
#    z -0.028460 0.000000 1.759430 
# 
# From -- ./inp_files/308268.got.cif
#   From: 2010.05.17/outbox.cif.g08.bks.cpg/sg12_155_cif.got.tgz:308268.got - 2010.06.03 13:09:07.
