data_PCOD9175976
_publ_section_title
;
Structure prediction by ZEFSAII (Michael W. Deem and Ramdas Pophale) SiO2 
 PCOD9175976
Probable space group: C 2/M
;
_chemical_formula_sum "Si O2"
_cell_formula_units_Z 64
_cell_length_a 19.271168
_cell_length_b 22.629577
_cell_length_c 17.559368
_cell_angle_alpha 90.000000
_cell_angle_beta 159.507235
_cell_angle_gamma 90.000000
_cell_volume 2680.846477
_symmetry_space_group_name_H-M "C 2/M"
_symmetry_group_IT_number 12
_symmetry_cell_setting 'monoclinic'
loop_
_space_group_symop_operation_xyz
x,y,z
-x,y,-z
-x,-y,-z
x,-y,z
1/2+x,1/2+y,z
1/2-x,1/2+y,-z
1/2-x,1/2-y,-z
1/2+x,1/2-y,z
loop_
_atom_site_type_symbol
_atom_site_label
_atom_site_fract_x
_atom_site_fract_y
_atom_site_fract_z
Si Si1 0.783984 0.123288 0.444905
Si Si2 0.496709 0.338225 0.854809
Si Si3 0.638650 0.433745 0.735427
Si Si4 0.892865 0.331170 0.964043
Si Si5 0.796263 0.568219 0.473490
Si Si6 0.250842 0.433682 0.974959
Si Si7 0.019665 0.237262 0.742073
Si Si8 0.368477 0.780936 0.289481
O O1 0.570606 0.147932 0.201016
O O2 0.755276 0.084659 0.491585
O O3 0.912347 0.084797 0.518215
O O4 0.920699 0.180379 0.600609
O O5 0.620257 0.380908 0.924871
O O6 0.670261 0.320702 0.091195
O O7 0.318142 0.381850 0.692972
O O8 0.437158 0.279455 0.743604
O O9 0.654842 0.500000 0.724775
O O10 0.762495 0.388645 0.812690
O O11 0.738753 0.429988 0.922894
O O12 0.732624 0.283551 0.824794
O O13 0.000000 0.306466 0.000000
O O14 0.744514 0.500000 0.402530
O O15 0.033036 0.572113 0.716346
O O16 0.323497 0.500000 0.030603
O O17 0.004800 0.286589 0.659089
O O18 0.250000 0.250000 0.000000
O O19 0.500000 0.783801 0.500000
#
# Coordination Sequence:
#
# PCOD9175976 Si02
#       8
#     8   8   8   8   8   8   8   8
#     4  11  20  36  59  85 117 155 196 245 302 359
#     4  10  20  37  61  93 119 155 201 253 296 358
#     4  11  22  38  61  87 120 156 195 247 302 357
#     4  12  26  41  60  82 114 163 211 249 299 358
#     4  10  19  33  58  94 126 151 187 241 306 366
#     4  10  18  33  61  93 124 155 186 238 309 364
#     4   9  18  35  58  83 114 150 195 246 295 347
#     4  11  23  44  63  81 119 164 206 252 306 359
#
# _framework density 23.873055999999998
#
# number of rings (size 3 to 8) (size 9 to 14) (size 15 to 20)
#    0.000    1.500    5.000    1.500    0.000    0.750 
#    6.750    2.500    0.000    1.500    0.000    1.750 
#    0.000    0.000    0.000    0.000    0.000    0.000 
#
# Total GULP energy -178408.520728 kJ/mol
# GULP energy per Si atom -5575.266273 kJ/mol
# Density = 2.381872 g / cm^3
# Si number density = 23.873056 Si / 1000 Ang^3
#
#
#
# Elastic Constant Matrix: (Units=GPa)
#
#
# Indices 1 2 3 4 5 6 
#
# 1 22.2100 0.1758 23.7955 0.0000 5.1358 0.0001
# 2 0.1758 111.9011 50.0813 0.0001 4.0788 0.0001
# 3 23.7955 50.0813 137.3241 0.0001 -15.0626 0.0002
# 4 0.0000 0.0001 0.0001 32.7276 0.0000 11.0115
# 5 5.1358 4.0788 -15.0626 0.0000 42.2857 0.0001
# 6 0.0001 0.0001 0.0002 11.0115 0.0001 16.2393
#
#
#
# Elastic Compliance Matrix: (Units=1/GPa)
#
#
# Indices 1 2 3 4 5 6 
#
# 1 0.064754 0.007318 -0.015432 0.000000 -0.014068 0.000000
# 2 0.007318 0.011770 -0.006018 0.000000 -0.004168 0.000000
# 3 -0.015432 -0.006018 0.012925 0.000000 0.007059 0.000000
# 4 0.000000 0.000000 0.000000 0.039587 0.000000 -0.026843
# 5 -0.014068 -0.004168 0.007059 0.000000 0.028274 0.000000
# 6 0.000000 0.000000 0.000000 -0.026843 0.000000 0.079780
#
#
# Mechanical properties :
#
#
# Convention : Reuss Voigt Hill
#
# Bulk Modulus (GPa) = 16.34400 46.61559 31.47980
# Shear Modulus (GPa) = 17.49789 31.40937 24.45363
#
# Velocity S-wave (km/s) = 2.71025 3.63117 3.20397
# Velocity P-wave (km/s) = 4.08106 6.09503 5.18673
#
# Compressibility (1/GPa) = 0.06118452
#
# Stress axis : x y z
#
# Youngs Moduli (GPa) = 15.44311 84.96131 77.36954
#
# Poissons Ratio (x) = -0.62172 1.19399
# Poissons Ratio (y) = -0.11301 0.46558
# Poissons Ratio (z) = 0.23832 0.51126
#
# Static dielectric constant tensor:
#      x y z
#    x 1.938760 0.000000 0.007690 
#    y 0.000000 1.985950 0.000000 
#    z 0.007690 0.000000 1.976540 
# 
# From -- ./inp_files/286488.got.cif
#   From: 2010.05.17/outbox.cif.g08.bks.cpg/sg12_144_cif.got.tgz:286488.got - 2010.06.03 13:09:07.
