data_PCOD9175325
_publ_section_title
;
Structure prediction by ZEFSAII (Michael W. Deem and Ramdas Pophale) SiO2 
 PCOD9175325
Probable space group: C 2/M
;
_chemical_formula_sum "Si O2"
_cell_formula_units_Z 32
_cell_length_a 19.553791
_cell_length_b 11.047235
_cell_length_c 9.620586
_cell_angle_alpha 90.000000
_cell_angle_beta 41.558682
_cell_angle_gamma 90.000000
_cell_volume 1378.646422
_symmetry_space_group_name_H-M "C 2/M"
_symmetry_group_IT_number 12
_symmetry_cell_setting 'monoclinic'
loop_
_space_group_symop_operation_xyz
x,y,z
-x,y,-z
-x,-y,-z
x,-y,z
1/2+x,1/2+y,z
1/2-x,1/2+y,-z
1/2-x,1/2-y,-z
1/2+x,1/2-y,z
loop_
_atom_site_type_symbol
_atom_site_label
_atom_site_fract_x
_atom_site_fract_y
_atom_site_fract_z
Si Si1 0.536945 0.132775 0.618640
Si Si2 0.919414 0.780595 0.997933
Si Si3 0.269492 0.864343 0.870812
Si Si4 0.306229 0.127902 0.368267
O O1 0.471808 0.246828 0.771438
O O2 0.617853 0.153250 0.371070
O O3 0.608730 0.117535 0.643734
O O4 0.486919 0.000000 0.676817
O O5 0.820344 0.861446 0.111270
O O6 0.866902 0.657505 0.135076
O O7 0.000000 0.818748 0.000000
O O8 0.263731 0.000000 0.941421
O O9 0.250000 0.750000 0.000000
O O10 0.250000 0.250000 0.500000
O O11 0.247723 0.000000 0.448009
#
# Coordination Sequence:
#
# PCOD9175325 Si02
#       4
#     8   8   8   8
#     4   9  19  38  62  90 127 171 214 256 313 385
#     4  10  21  38  67  99 128 160 214 268 320 374
#     4  11  25  45  66  92 131 173 216 264 320 384
#     4  10  18  32  58  92 126 160 202 256 313 376
#
# _framework density 23.211172000000001
#
# number of rings (size 3 to 8) (size 9 to 14) (size 15 to 20)
#    0.000    2.000    2.500    0.750    0.000    6.500 
#    0.000    8.750    0.000    0.000    0.000    0.000 
#    0.000    0.000    0.000    0.000    0.000    0.000 
#
# Total GULP energy -89102.187656 kJ/mol
# GULP energy per Si atom -5568.886728 kJ/mol
# Density = 2.315834 g / cm^3
# Si number density = 23.211172 Si / 1000 Ang^3
#
#
#
# Elastic Constant Matrix: (Units=GPa)
#
#
# Indices 1 2 3 4 5 6 
#
# 1 114.9331 29.8265 4.8648 0.0000 -6.1903 0.0000
# 2 29.8265 138.1180 43.4946 0.0000 0.1626 0.0000
# 3 4.8648 43.4946 97.0854 0.0000 1.6906 0.0000
# 4 0.0000 0.0000 0.0000 16.1940 0.0000 -0.8659
# 5 -6.1903 0.1626 1.6906 0.0000 35.3030 0.0000
# 6 0.0000 0.0000 0.0000 -0.8659 0.0000 23.1422
#
#
#
# Elastic Compliance Matrix: (Units=1/GPa)
#
#
# Indices 1 2 3 4 5 6 
#
# 1 0.009330 -0.002166 0.000475 0.000000 0.001623 0.000000
# 2 -0.002166 0.008933 -0.003889 0.000000 -0.000235 0.000000
# 3 0.000475 -0.003889 0.012027 0.000000 -0.000475 0.000000
# 4 0.000000 0.000000 0.000000 0.061875 0.000000 0.002315
# 5 0.001623 -0.000235 -0.000475 0.000000 0.028635 0.000000
# 6 0.000000 0.000000 0.000000 0.002315 0.000000 0.043298
#
#
# Mechanical properties :
#
#
# Convention : Reuss Voigt Hill
#
# Bulk Modulus (GPa) = 52.27795 56.27869 54.27832
# Shear Modulus (GPa) = 27.52758 33.05787 30.29273
#
# Velocity S-wave (km/s) = 3.44752 3.77798 3.61653
# Velocity P-wave (km/s) = 6.19829 6.58254 6.39330
#
# Compressibility (1/GPa) = 0.01912852
#
# Stress axis : x y z
#
# Youngs Moduli (GPa) = 107.17864 111.94350 83.14511
#
# Poissons Ratio (x) = 0.24250 -0.03947
# Poissons Ratio (y) = 0.23218 0.32339
# Poissons Ratio (z) = -0.05088 0.43540
#
# Static dielectric constant tensor:
#      x y z
#    x 1.967550 0.000000 -0.004980 
#    y 0.000000 2.008140 0.000000 
#    z -0.004980 0.000000 2.008930 
# 
# From -- ./inp_files/83235.got.cif
#   From: 2010.05.17/outbox.cif.g08.bks.cpg/sg12_42_cif.got.tgz:83235.got - 2010.06.03 13:09:07.
