data_PCOD9175496
_publ_section_title
;
Structure prediction by ZEFSAII (Michael W. Deem and Ramdas Pophale) SiO2 
 PCOD9175496
Probable space group: C 2/M
;
_chemical_formula_sum "Si O2"
_cell_formula_units_Z 48
_cell_length_a 25.532420
_cell_length_b 16.696697
_cell_length_c 19.025307
_cell_angle_alpha 90.000000
_cell_angle_beta 162.017856
_cell_angle_gamma 90.000000
_cell_volume 2503.916314
_symmetry_space_group_name_H-M "C 2/M"
_symmetry_group_IT_number 12
_symmetry_cell_setting 'monoclinic'
loop_
_space_group_symop_operation_xyz
x,y,z
-x,y,-z
-x,-y,-z
x,-y,z
1/2+x,1/2+y,z
1/2-x,1/2+y,-z
1/2-x,1/2-y,-z
1/2+x,1/2-y,z
loop_
_atom_site_type_symbol
_atom_site_label
_atom_site_fract_x
_atom_site_fract_y
_atom_site_fract_z
Si Si1 0.685510 0.092052 0.274515
Si Si2 0.621941 0.912527 0.437975
Si Si3 0.020582 0.311602 0.183084
Si Si4 0.991824 0.853020 0.908466
Si Si5 0.869560 0.369524 0.393517
Si Si6 0.656264 0.323084 0.651254
O O1 0.656344 0.141743 0.307998
O O2 0.816596 0.132055 0.387789
O O3 0.728533 0.000000 0.343668
O O4 0.500000 0.093947 0.000000
O O5 0.550005 0.840684 0.299315
O O6 0.826342 0.907135 0.694953
O O7 0.578426 0.901080 0.463990
O O8 0.564933 0.000000 0.339527
O O9 0.033639 0.218805 0.179029
O O10 0.831023 0.334934 0.916924
O O11 0.000000 0.819288 0.000000
O O12 0.174133 0.893103 0.129286
O O13 0.864641 0.272083 0.389267
O O14 0.000000 0.394104 0.500000
O O15 0.500000 0.350065 0.500000
#
# Coordination Sequence:
#
# PCOD9175496 Si02
#       6
#     8   8   8   8   8   8
#     4   9  16  27  46  70  99 137 172 202 243 299
#     4  11  22  34  52  79 108 135 168 217 266 303
#     4  10  18  33  53  77 106 134 170 215 260 304
#     4   9  18  34  57  79 101 135 176 212 249 305
#     4   9  19  37  56  75  99 135 178 214 255 309
#     4   9  18  34  54  76 104 138 178 213 248 305
#
# _framework density 19.169969999999999
#
# number of rings (size 3 to 8) (size 9 to 14) (size 15 to 20)
#    0.000    2.500    0.000    4.500    0.000    4.333 
#    0.000    9.167    0.000    0.000    0.000    0.000 
#    0.000    0.000    0.000    0.000    0.000    0.000 
#
# Total GULP energy -133900.796998 kJ/mol
# GULP energy per Si atom -5579.199875 kJ/mol
# Density = 1.912634 g / cm^3
# Si number density = 19.169970 Si / 1000 Ang^3
#
#
#
# Elastic Constant Matrix: (Units=GPa)
#
#
# Indices 1 2 3 4 5 6 
#
# 1 113.8136 23.2048 41.1721 0.0007 21.8197 0.0010
# 2 23.2048 46.6858 14.6488 0.0011 -4.4343 0.0007
# 3 41.1721 14.6488 43.3038 0.0003 11.3849 0.0007
# 4 0.0007 0.0011 0.0003 12.4162 0.0002 1.2849
# 5 21.8197 -4.4343 11.3849 0.0002 39.0674 0.0003
# 6 0.0010 0.0007 0.0007 1.2849 0.0003 -5.1397
#
#
#
# Elastic Compliance Matrix: (Units=1/GPa)
#
#
# Indices 1 2 3 4 5 6 
#
# 1 0.014745 -0.004370 -0.011096 0.000000 -0.005498 0.000000
# 2 -0.004370 0.026403 -0.006722 -0.000002 0.007396 0.000002
# 3 -0.011096 -0.006722 0.037349 0.000000 -0.005450 0.000002
# 4 0.000000 -0.000002 0.000000 0.078509 -0.000001 0.019626
# 5 -0.005498 0.007396 -0.005450 -0.000001 0.031095 0.000001
# 6 0.000000 0.000002 0.000002 0.019626 0.000001 -0.189656
#
#
# Mechanical properties :
#
#
# Convention : Reuss Voigt Hill
#
# Bulk Modulus (GPa) = 29.30561 40.20609 34.75585
# Shear Modulus (GPa) = 92.26228 17.58727 54.92478
#
# Velocity S-wave (km/s) = 6.94500 3.03221 5.35851
# Velocity P-wave (km/s) = 8.92363 5.76872 7.51363
#
# Compressibility (1/GPa) = 0.03412316
#
# Stress axis : x y z
#
# Youngs Moduli (GPa) = 67.81934 37.87414 26.77462
#
# Poissons Ratio (x) = 0.16549 0.29708
# Poissons Ratio (y) = 0.29634 0.17997
# Poissons Ratio (z) = 0.75250 0.25458
#
# Static dielectric constant tensor:
#      x y z
#    x 1.659920 0.000000 -0.004870 
#    y 0.000000 1.678880 0.000000 
#    z -0.004870 0.000000 1.670660 
# 
# From -- ./inp_files/104919.got.cif
#   From: 2010.05.17/outbox.cif.g08.bks.cpg/sg12_53_cif.got.tgz:104919.got - 2010.06.03 13:09:07.
