data_PCOD9175417
_publ_section_title
;
Structure prediction by ZEFSAII (Michael W. Deem and Ramdas Pophale) SiO2 
 PCOD9175417
Probable space group: C 2/M
;
_chemical_formula_sum "Si O2"
_cell_formula_units_Z 56
_cell_length_a 9.414019
_cell_length_b 26.558446
_cell_length_c 22.646484
_cell_angle_alpha 90.000000
_cell_angle_beta 146.245316
_cell_angle_gamma 90.000000
_cell_volume 3146.086177
_symmetry_space_group_name_H-M "C 2/M"
_symmetry_group_IT_number 12
_symmetry_cell_setting 'monoclinic'
loop_
_space_group_symop_operation_xyz
x,y,z
-x,y,-z
-x,-y,-z
x,-y,z
1/2+x,1/2+y,z
1/2-x,1/2+y,-z
1/2-x,1/2-y,-z
1/2+x,1/2-y,z
loop_
_atom_site_type_symbol
_atom_site_label
_atom_site_fract_x
_atom_site_fract_y
_atom_site_fract_z
Si Si1 0.376979 0.939225 0.866953
Si Si2 0.255888 0.793581 0.627187
Si Si3 0.091973 0.939038 0.887411
Si Si4 0.288480 0.559045 0.318798
Si Si5 0.626412 0.709155 0.412005
Si Si6 0.438602 0.111583 0.294019
Si Si7 0.850042 0.401629 0.505346
O O1 0.183587 0.924789 0.852716
O O2 0.304208 0.920469 0.777034
O O3 0.362699 0.000000 0.860310
O O4 0.664767 0.927576 0.986987
O O5 0.332373 0.736996 0.635631
O O6 0.486609 0.830068 0.689386
O O7 0.000000 0.808733 0.500000
O O8 0.157749 0.797910 0.660217
O O9 0.841972 0.908173 0.818534
O O10 0.046776 0.000000 0.873621
O O11 0.232844 0.500000 0.301689
O O12 0.589649 0.568471 0.426383
O O13 0.143312 0.584660 0.322474
O O14 0.750000 0.750000 0.500000
O O15 0.766444 0.656096 0.463815
O O16 0.486311 0.097709 0.378647
O O17 0.000000 0.420901 0.500000
#
# Coordination Sequence:
#
# PCOD9175417 Si02
#       7
#     8   8   8   8   8   8   8
#     4   8  17  37  57  76 102 140 191 232 263 307
#     4  10  18  33  50  75 108 138 175 225 268 314
#     4   9  18  34  58  80 106 142 182 229 269 315
#     4  11  23  37  53  75 114 153 180 219 266 321
#     4  10  18  33  54  73 101 141 178 224 268 307
#     4  12  21  33  50  81 115 139 179 221 274 331
#     4  12  23  35  52  78 110 145 186 219 264 334
#
# _framework density 17.799893999999998
#
# number of rings (size 3 to 8) (size 9 to 14) (size 15 to 20)
#    0.000    1.714    4.286    3.857    0.000    2.571 
#    0.000    2.143    0.000    0.000    0.000    1.000 
#    0.000    0.000    0.000    0.000    0.000    0.000 
#
# Total GULP energy -156158.474963 kJ/mol
# GULP energy per Si atom -5577.088392 kJ/mol
# Density = 1.775938 g / cm^3
# Si number density = 17.799894 Si / 1000 Ang^3
#
#
#
# Elastic Constant Matrix: (Units=GPa)
#
#
# Indices 1 2 3 4 5 6 
#
# 1 63.2059 -5.9025 4.6008 -0.0001 19.8276 0.0000
# 2 -5.9025 26.6562 -0.7433 -0.0003 -0.1562 0.0000
# 3 4.6008 -0.7433 30.5065 0.0019 12.3696 0.0001
# 4 -0.0001 -0.0003 0.0019 8.3317 0.0002 4.0476
# 5 19.8276 -0.1562 12.3696 0.0002 25.0434 0.0001
# 6 0.0000 0.0000 0.0001 4.0476 0.0001 29.7172
#
#
#
# Elastic Compliance Matrix: (Units=1/GPa)
#
#
# Indices 1 2 3 4 5 6 
#
# 1 0.022180 0.004930 0.004855 0.000000 -0.019928 0.000000
# 2 0.004930 0.038638 0.002104 0.000001 -0.004701 0.000000
# 3 0.004855 0.002104 0.042080 -0.000009 -0.024615 0.000001
# 4 0.000000 0.000001 -0.000009 0.128528 0.000004 -0.017506
# 5 -0.019928 -0.004701 -0.024615 0.000004 0.067837 -0.000001
# 6 0.000000 0.000000 0.000001 -0.017506 -0.000001 0.036035
#
#
# Mechanical properties :
#
#
# Convention : Reuss Voigt Hill
#
# Bulk Modulus (GPa) = 7.89420 12.91985 10.40702
# Shear Modulus (GPa) = 14.13455 20.77936 17.45696
#
# Velocity S-wave (km/s) = 2.82100 3.42041 3.13506
# Velocity P-wave (km/s) = 3.88012 4.78258 4.35479
#
# Compressibility (1/GPa) = 0.12667534
#
# Stress axis : x y z
#
# Youngs Moduli (GPa) = 45.08661 25.88156 23.76445
#
# Poissons Ratio (x) = -0.12759 -0.11538
# Poissons Ratio (y) = -0.22227 -0.05001
# Poissons Ratio (z) = -0.21890 -0.05446
#
# Static dielectric constant tensor:
#      x y z
#    x 1.664850 0.000000 -0.012710 
#    y 0.000000 1.621410 0.000000 
#    z -0.012710 0.000000 1.597700 
# 
# From -- ./inp_files/303069.got.cif
#   From: 2010.05.17/outbox.cif.g08.bks.cpg/sg12_152_cif.got.tgz:303069.got - 2010.06.03 13:09:07.
