data_PCOD9175662
_publ_section_title
;
Structure prediction by ZEFSAII (Michael W. Deem and Ramdas Pophale) SiO2 
 PCOD9175662
Probable space group: C 2/M
;
_chemical_formula_sum "Si O2"
_cell_formula_units_Z 48
_cell_length_a 19.791352
_cell_length_b 7.538989
_cell_length_c 14.219813
_cell_angle_alpha 90.000000
_cell_angle_beta 104.033592
_cell_angle_gamma 90.000000
_cell_volume 2058.367957
_symmetry_space_group_name_H-M "C 2/M"
_symmetry_group_IT_number 12
_symmetry_cell_setting 'monoclinic'
loop_
_space_group_symop_operation_xyz
x,y,z
-x,y,-z
-x,-y,-z
x,-y,z
1/2+x,1/2+y,z
1/2-x,1/2+y,-z
1/2-x,1/2-y,-z
1/2+x,1/2-y,z
loop_
_atom_site_type_symbol
_atom_site_label
_atom_site_fract_x
_atom_site_fract_y
_atom_site_fract_z
Si Si1 0.858153 0.714413 0.562499
Si Si2 0.028297 0.283210 0.258361
Si Si3 0.403739 0.202355 0.910961
Si Si4 0.774668 0.206950 0.358760
Si Si5 0.104901 0.282530 0.887652
Si Si6 0.253644 0.798092 0.144633
O O1 0.857179 0.500000 0.561229
O O2 0.929356 0.775049 0.635625
O O3 0.839193 0.773161 0.451361
O O4 0.793552 0.772938 0.607257
O O5 0.030114 0.500000 0.261419
O O6 0.069468 0.221868 0.178283
O O7 0.948911 0.230594 0.211985
O O8 0.319938 0.201950 0.881458
O O9 0.429435 0.000000 0.919444
O O10 0.422272 0.278102 0.019501
O O11 0.780890 0.298390 0.261041
O O12 0.763168 0.000000 0.335316
O O13 0.107169 0.500000 0.890307
O O14 0.183351 0.222129 0.895371
O O15 0.240136 0.000000 0.110865
#
# Coordination Sequence:
#
# PCOD9175662 Si02
#       6
#     8   8   8   8   8   8
#     4   9  17  31  53  80 102 126 166 217 263 300
#     4   9  16  31  54  80 104 130 172 218 257 298
#     4  10  18  33  56  79 101 134 178 218 255 296
#     4  10  19  33  53  78 102 132 172 213 257 304
#     4   9  19  32  51  78 107 137 172 214 256 301
#     4  11  21  33  50  77 109 140 171 208 257 307
#
# _framework density 23.319445999999999
#
# number of rings (size 3 to 8) (size 9 to 14) (size 15 to 20)
#    0.000    2.333    1.667    2.000    0.000    2.667 
#    0.000    1.667    0.000   12.000    0.000    0.000 
#    0.000    0.000    0.000    0.000    0.000    0.000 
#
# Total GULP energy -134072.725251 kJ/mol
# GULP energy per Si atom -5586.363552 kJ/mol
# Density = 2.326637 g / cm^3
# Si number density = 23.319446 Si / 1000 Ang^3
#
#
#
# Elastic Constant Matrix: (Units=GPa)
#
#
# Indices 1 2 3 4 5 6 
#
# 1 64.0371 1.1310 0.8188 0.0000 22.2961 0.0000
# 2 1.1310 63.6490 1.8117 0.0000 1.2430 0.0000
# 3 0.8188 1.8117 106.1142 0.0000 27.6434 0.0000
# 4 0.0000 0.0000 0.0000 12.0219 0.0000 3.0532
# 5 22.2961 1.2430 27.6434 0.0000 40.8831 0.0000
# 6 0.0000 0.0000 0.0000 3.0532 0.0000 9.0267
#
#
#
# Elastic Compliance Matrix: (Units=1/GPa)
#
#
# Indices 1 2 3 4 5 6 
#
# 1 0.020183 -0.000194 0.003294 0.000000 -0.013228 0.000000
# 2 -0.000194 0.015725 -0.000206 0.000000 -0.000233 0.000000
# 3 0.003294 -0.000206 0.011978 0.000000 -0.009889 0.000000
# 4 0.000000 0.000000 0.000000 0.090998 0.000000 -0.030779
# 5 -0.013228 -0.000233 -0.009889 0.000000 0.038368 0.000000
# 6 0.000000 0.000000 0.000000 -0.030779 0.000000 0.121193
#
#
# Mechanical properties :
#
#
# Convention : Reuss Voigt Hill
#
# Bulk Modulus (GPa) = 18.63157 26.81370 22.72264
# Shear Modulus (GPa) = 16.10048 27.72226 21.91137
#
# Velocity S-wave (km/s) = 2.63046 3.45164 3.06864
# Velocity P-wave (km/s) = 4.15124 5.23532 4.72447
#
# Compressibility (1/GPa) = 0.05367233
#
# Stress axis : x y z
#
# Youngs Moduli (GPa) = 49.54683 63.59289 83.48598
#
# Poissons Ratio (x) = 0.01234 -0.27497
# Poissons Ratio (y) = 0.00962 0.01723
# Poissons Ratio (z) = -0.16319 0.01312
#
# Static dielectric constant tensor:
#      x y z
#    x 1.863880 0.000000 0.017210 
#    y 0.000000 1.888990 0.000000 
#    z 0.017210 0.000000 1.880980 
# 
# From -- ./inp_files/229861.got.cif
#   From: 2010.05.17/outbox.cif.g08.bks.cpg/sg12_115_cif.got.tgz:229861.got - 2010.06.03 13:09:07.
