data_PCOD9175109
_publ_section_title
;
Structure prediction by ZEFSAII (Michael W. Deem and Ramdas Pophale) SiO2 
 PCOD9175109
Probable space group: C 2/M
;
_chemical_formula_sum "Si O2"
_cell_formula_units_Z 58
_cell_length_a 15.999821
_cell_length_b 9.573018
_cell_length_c 17.407070
_cell_angle_alpha 90.000000
_cell_angle_beta 116.022423
_cell_angle_gamma 90.000000
_cell_volume 2395.890273
_symmetry_space_group_name_H-M "C 2/M"
_symmetry_group_IT_number 12
_symmetry_cell_setting 'monoclinic'
loop_
_space_group_symop_operation_xyz
x,y,z
-x,y,-z
-x,-y,-z
x,-y,z
1/2+x,1/2+y,z
1/2-x,1/2+y,-z
1/2-x,1/2-y,-z
1/2+x,1/2-y,z
loop_
_atom_site_type_symbol
_atom_site_label
_atom_site_fract_x
_atom_site_fract_y
_atom_site_fract_z
Si Si1 0.693301 0.854755 0.103801
Si Si2 0.343273 0.839632 0.115846
Si Si3 0.012225 0.159563 0.911866
Si Si4 0.564985 0.155895 0.680442
Si Si5 0.359607 0.836886 0.754430
Si Si6 0.500000 0.000000 0.000000
Si Si7 0.282724 0.835842 0.394378
Si Si8 0.927296 0.839532 0.542491
O O1 0.741016 0.719569 0.088913
O O2 0.710933 0.849945 0.201992
O O3 0.738683 0.000000 0.092987
O O4 0.603327 0.743516 0.922184
O O5 0.394272 0.833802 0.218251
O O6 0.347840 0.000000 0.091555
O O7 0.936620 0.239029 0.826239
O O8 0.082821 0.385165 0.050222
O O9 0.015665 0.000000 0.886114
O O10 0.000000 0.145704 0.000000
O O11 0.647344 0.166860 0.651169
O O12 0.487053 0.270596 0.634025
O O13 0.524332 0.000000 0.652985
O O14 0.306721 0.755909 0.665779
O O15 0.389778 0.000000 0.750768
O O16 0.341024 0.757175 0.483746
O O17 0.263701 0.000000 0.401933
O O18 0.000000 0.837861 0.500000
O O19 0.900861 0.000000 0.545069
#
# Coordination Sequence:
#
# PCOD9175109 Si02
#       8
#     8   8   8   8   8   2   8   8
#     4   9  20  38  68  97 134 175 222 281 353 427
#     4  11  22  41  70 106 139 179 239 301 362 434
#     4  11  27  48  70  96 134 181 237 301 377 445
#     4   9  18  32  55  90 134 176 223 281 353 423
#     4  11  22  37  66  95 127 174 226 290 353 428
#     4   8  20  40  66 100 134 182 222 280 358 440
#     4  10  18  32  55  87 133 180 229 281 347 426
#     4   9  17  28  47  84 132 179 228 282 344 412
#
# _framework density 24.208120000000001
#
# number of rings (size 3 to 8) (size 9 to 14) (size 15 to 20)
#    0.414    1.655    1.379    2.069    0.966    4.966 
#    0.000    1.034    0.000    0.828    0.000    0.000 
#    0.000    0.000    0.000    0.000    0.000    0.000 
#
# Total GULP energy -161656.186232 kJ/mol
# GULP energy per Si atom -5574.351249 kJ/mol
# Density = 2.415302 g / cm^3
# Si number density = 24.208120 Si / 1000 Ang^3
#
#
#
# Elastic Constant Matrix: (Units=GPa)
#
#
# Indices 1 2 3 4 5 6 
#
# 1 85.8057 47.6472 25.7361 0.0000 5.1922 0.0000
# 2 47.6472 245.1105 82.0507 0.0000 33.0586 0.0000
# 3 25.7361 82.0507 132.7580 0.0000 32.1919 0.0000
# 4 0.0000 0.0000 0.0000 29.3534 0.0000 16.8606
# 5 5.1922 33.0586 32.1919 0.0000 27.4086 0.0000
# 6 0.0000 0.0000 0.0000 16.8606 0.0000 25.3269
#
#
#
# Elastic Compliance Matrix: (Units=1/GPa)
#
#
# Indices 1 2 3 4 5 6 
#
# 1 0.013318 -0.002329 -0.001694 0.000000 0.002276 0.000000
# 2 -0.002329 0.005796 -0.002157 0.000000 -0.004017 0.000000
# 3 -0.001694 -0.002157 0.011864 0.000000 -0.011012 0.000000
# 4 0.000000 0.000000 0.000000 0.055160 0.000000 -0.036721
# 5 0.002276 -0.004017 -0.011012 0.000000 0.053833 0.000000
# 6 0.000000 0.000000 0.000000 -0.036721 0.000000 0.063930
#
#
# Mechanical properties :
#
#
# Convention : Reuss Voigt Hill
#
# Bulk Modulus (GPa) = 53.71014 86.06027 69.88521
# Shear Modulus (GPa) = 22.47522 36.96712 29.72117
#
# Velocity S-wave (km/s) = 3.05030 3.91199 3.50771
# Velocity P-wave (km/s) = 5.88564 7.48547 6.73324
#
# Compressibility (1/GPa) = 0.01861846
#
# Stress axis : x y z
#
# Youngs Moduli (GPa) = 75.08753 172.52645 84.28543
#
# Poissons Ratio (x) = 0.40174 0.14282
# Poissons Ratio (y) = 0.17485 0.18180
# Poissons Ratio (z) = 0.12723 0.37213
#
# Static dielectric constant tensor:
#      x y z
#    x 2.017120 0.000000 -0.036170 
#    y 0.000000 1.936010 0.000000 
#    z -0.036170 0.000000 1.932910 
# 
# From -- ./inp_files/294523.got.cif
#   From: 2010.05.17/outbox.cif.g08.bks.cpg/sg12_148_cif.got.tgz:294523.got - 2010.06.03 13:09:07.
