data_PCOD9175595
_publ_section_title
;
Structure prediction by ZEFSAII (Michael W. Deem and Ramdas Pophale) SiO2 
 PCOD9175595
Probable space group: C 2/M
;
_chemical_formula_sum "Si O2"
_cell_formula_units_Z 56
_cell_length_a 27.520927
_cell_length_b 8.488584
_cell_length_c 13.876552
_cell_angle_alpha 90.000000
_cell_angle_beta 59.433979
_cell_angle_gamma 90.000000
_cell_volume 2791.290904
_symmetry_space_group_name_H-M "C 2/M"
_symmetry_group_IT_number 12
_symmetry_cell_setting 'monoclinic'
loop_
_space_group_symop_operation_xyz
x,y,z
-x,y,-z
-x,-y,-z
x,-y,z
1/2+x,1/2+y,z
1/2-x,1/2+y,-z
1/2-x,1/2-y,-z
1/2+x,1/2-y,z
loop_
_atom_site_type_symbol
_atom_site_label
_atom_site_fract_x
_atom_site_fract_y
_atom_site_fract_z
Si Si1 0.285110 0.308975 0.753161
Si Si2 0.987755 0.184219 0.760627
Si Si3 0.427651 0.184326 0.009038
Si Si4 0.280273 0.809506 0.374095
Si Si5 0.616783 0.188643 0.235596
Si Si6 0.313863 0.184395 0.018303
Si Si7 0.089950 0.310259 0.760255
O O1 0.285408 0.500000 0.756049
O O2 0.255564 0.259858 0.683516
O O3 0.348035 0.247562 0.708408
O O4 0.243569 0.247840 0.880834
O O5 0.946793 0.255631 0.720387
O O6 0.049862 0.254611 0.714595
O O7 0.991752 0.000000 0.741822
O O8 0.956554 0.222763 0.893602
O O9 0.360569 0.188500 0.055789
O O10 0.435882 0.239085 0.109758
O O11 0.444905 0.000000 0.981912
O O12 0.250000 0.750000 0.500000
O O13 0.345436 0.755020 0.308679
O O14 0.281432 0.000000 0.371725
O O15 0.616493 0.000000 0.232679
O O16 0.654136 0.251924 0.106744
O O17 0.303254 0.000000 0.007722
O O18 0.090185 0.500000 0.761747
#
# Coordination Sequence:
#
# PCOD9175595 Si02
#       7
#     8   8   8   8   8   8   8
#     4  10  18  33  55  78 107 142 179 225 274 319
#     4  11  22  33  48  77 114 148 182 223 268 318
#     4   9  16  30  51  75 106 146 187 220 260 323
#     4  10  22  39  61  85 110 141 181 229 281 328
#     4  10  20  33  51  77 109 148 186 219 260 323
#     4   8  14  27  48  74 106 141 180 216 256 314
#     4  10  19  35  57  77 104 146 186 223 271 326
#
# _framework density 20.062403
#
# number of rings (size 3 to 8) (size 9 to 14) (size 15 to 20)
#    0.000    2.286    1.429    3.429    0.000    3.429 
#    0.000    2.857    0.000    0.857    0.000    6.000 
#    0.000    0.000    0.000    0.000    0.000    0.000 
#
# Total GULP energy -156169.631030 kJ/mol
# GULP energy per Si atom -5577.486822 kJ/mol
# Density = 2.001674 g / cm^3
# Si number density = 20.062403 Si / 1000 Ang^3
#
#
#
# Elastic Constant Matrix: (Units=GPa)
#
#
# Indices 1 2 3 4 5 6 
#
# 1 193.5933 29.0325 27.3125 0.0000 -0.3092 0.0000
# 2 29.0325 26.3262 7.9395 0.0000 0.0410 0.0000
# 3 27.3125 7.9395 31.5466 0.0000 -1.5239 0.0000
# 4 0.0000 0.0000 0.0000 17.4812 0.0000 -0.2899
# 5 -0.3092 0.0410 -1.5239 0.0000 10.6158 0.0000
# 6 0.0000 0.0000 0.0000 -0.2899 0.0000 30.5766
#
#
#
# Elastic Compliance Matrix: (Units=1/GPa)
#
#
# Indices 1 2 3 4 5 6 
#
# 1 0.006679 -0.006076 -0.004272 0.000000 -0.000395 0.000000
# 2 -0.006076 0.046662 -0.006545 0.000000 -0.001297 0.000000
# 3 -0.004272 -0.006545 0.037299 0.000000 0.005255 0.000000
# 4 0.000000 0.000000 0.000000 0.057213 0.000000 0.000542
# 5 -0.000395 -0.001297 0.005255 0.000000 0.094947 0.000000
# 6 0.000000 0.000000 0.000000 0.000542 0.000000 0.032710
#
#
# Mechanical properties :
#
#
# Convention : Reuss Voigt Hill
#
# Bulk Modulus (GPa) = 17.58959 42.22612 29.90786
# Shear Modulus (GPa) = 15.23232 24.21348 19.72290
#
# Velocity S-wave (km/s) = 2.75843 3.47783 3.13881
# Velocity P-wave (km/s) = 4.35106 6.10083 5.29867
#
# Compressibility (1/GPa) = 0.05685179
#
# Stress axis : x y z
#
# Youngs Moduli (GPa) = 149.72695 21.43075 26.81021
#
# Poissons Ratio (x) = 0.13022 0.11454
# Poissons Ratio (y) = 0.90979 0.17549
# Poissons Ratio (z) = 0.63967 0.14027
#
# Static dielectric constant tensor:
#      x y z
#    x 1.789480 0.000000 -0.008290 
#    y 0.000000 1.691270 0.000000 
#    z -0.008290 0.000000 1.702370 
# 
# From -- ./inp_files/243649.got.cif
#   From: 2010.05.17/outbox.cif.g08.bks.cpg/sg12_122_cif.got.tgz:243649.got - 2010.06.03 13:09:07.
