data_PCOD9175736
_publ_section_title
;
Structure prediction by ZEFSAII (Michael W. Deem and Ramdas Pophale) SiO2 
 PCOD9175736
Probable space group: C 2/M
;
_chemical_formula_sum "Si O2"
_cell_formula_units_Z 64
_cell_length_a 21.104314
_cell_length_b 7.432291
_cell_length_c 19.157177
_cell_angle_alpha 90.000000
_cell_angle_beta 95.244518
_cell_angle_gamma 90.000000
_cell_volume 2992.289057
_symmetry_space_group_name_H-M "C 2/M"
_symmetry_group_IT_number 12
_symmetry_cell_setting 'monoclinic'
loop_
_space_group_symop_operation_xyz
x,y,z
-x,y,-z
-x,-y,-z
x,-y,z
1/2+x,1/2+y,z
1/2-x,1/2+y,-z
1/2-x,1/2-y,-z
1/2+x,1/2-y,z
loop_
_atom_site_type_symbol
_atom_site_label
_atom_site_fract_x
_atom_site_fract_y
_atom_site_fract_z
Si Si1 0.696263 0.715415 0.552374
Si Si2 0.100599 0.711073 0.913919
Si Si3 0.027996 0.280202 0.170614
Si Si4 0.090424 0.716812 0.317751
Si Si5 0.565289 0.712785 0.475799
Si Si6 0.235153 0.280002 0.302242
Si Si7 0.136157 0.280208 0.070695
Si Si8 0.768191 0.217266 0.149564
O O1 0.690891 0.500000 0.557958
O O2 0.750000 0.750000 0.500000
O O3 0.629116 0.787499 0.517968
O O4 0.720452 0.781571 0.629760
O O5 0.086929 0.500000 0.923025
O O6 0.164920 0.727162 0.876112
O O7 0.039049 0.783772 0.867285
O O8 0.113854 0.784662 0.992629
O O9 0.026876 0.500000 0.171953
O O10 0.044810 0.220849 0.250598
O O11 0.085571 0.228819 0.124889
O O12 0.091519 0.500000 0.315660
O O13 0.069747 0.767989 0.393087
O O14 0.162648 0.777148 0.309659
O O15 0.500000 0.788491 0.500000
O O16 0.565373 0.500000 0.491140
O O17 0.234865 0.500000 0.302163
O O18 0.258194 0.222838 0.228302
O O19 0.137300 0.500000 0.069705
O O20 0.207262 0.221862 0.098285
O O21 0.767135 0.000000 0.149515
#
# Coordination Sequence:
#
# PCOD9175736 Si02
#       8
#     8   8   8   8   8   8   8   8
#     4  10  19  33  54  77 100 130 169 208 248 295
#     4  10  20  32  49  77 109 133 163 214 263 297
#     4   9  17  31  53  78 101 131 173 215 253 297
#     4  10  18  33  57  78  98 129 174 218 249 289
#     4  10  22  37  52  76 110 139 162 199 257 316
#     4   9  17  31  53  76  97 128 172 213 245 290
#     4   9  16  30  53  76  99 135 177 210 246 299
#     4  10  19  33  53  75 101 137 175 206 247 305
#
# _framework density 21.388309
#
# number of rings (size 3 to 8) (size 9 to 14) (size 15 to 20)
#    0.000    2.375    2.500    0.750    0.000    2.750 
#    0.000    3.125    0.000    3.000    0.000    0.000 
#    0.000    0.000    0.000    0.000    0.000    0.000 
#
# Total GULP energy -178789.566968 kJ/mol
# GULP energy per Si atom -5587.173968 kJ/mol
# Density = 2.133963 g / cm^3
# Si number density = 21.388309 Si / 1000 Ang^3
#
#
#
# Elastic Constant Matrix: (Units=GPa)
#
#
# Indices 1 2 3 4 5 6 
#
# 1 146.4623 -4.7858 62.0751 0.0000 26.9242 0.0000
# 2 -4.7858 66.0120 -6.1087 0.0000 7.0080 0.0000
# 3 62.0751 -6.1087 134.3447 0.0000 34.8802 0.0000
# 4 0.0000 0.0000 0.0000 9.0280 0.0000 -7.1509
# 5 26.9242 7.0080 34.8802 0.0000 31.8802 0.0000
# 6 0.0000 0.0000 0.0000 -7.1509 0.0000 9.0414
#
#
#
# Elastic Compliance Matrix: (Units=1/GPa)
#
#
# Indices 1 2 3 4 5 6 
#
# 1 0.008922 0.000861 -0.002902 0.000000 -0.004549 0.000000
# 2 0.000861 0.016084 0.002012 0.000000 -0.006464 0.000000
# 3 -0.002902 0.002012 0.011669 0.000000 -0.010758 0.000000
# 4 0.000000 0.000000 0.000000 0.296540 0.000000 0.234538
# 5 -0.004549 -0.006464 -0.010758 0.000000 0.048401 0.000000
# 6 0.000000 0.000000 0.000000 0.234538 0.000000 0.296102
#
#
# Mechanical properties :
#
#
# Convention : Reuss Voigt Hill
#
# Bulk Modulus (GPa) = 27.31050 49.90891 38.60970
# Shear Modulus (GPa) = 7.24656 29.69915 18.47286
#
# Velocity S-wave (km/s) = 1.84267 3.73039 2.94205
# Velocity P-wave (km/s) = 4.16220 6.47609 5.44351
#
# Compressibility (1/GPa) = 0.03661596
#
# Stress axis : x y z
#
# Youngs Moduli (GPa) = 112.08027 62.17525 85.69513
#
# Poissons Ratio (x) = -0.05355 0.24872
# Poissons Ratio (y) = -0.09652 -0.17238
# Poissons Ratio (z) = 0.32529 -0.12507
#
# Static dielectric constant tensor:
#      x y z
#    x 1.731600 0.000000 0.030300 
#    y 0.000000 1.845800 0.000000 
#    z 0.030300 0.000000 1.735480 
# 
# From -- ./inp_files/276522.got.cif
#   From: 2010.05.17/outbox.cif.g08.bks.cpg/sg12_139_cif.got.tgz:276522.got - 2010.06.03 13:09:07.
