data_PCOD9175413
_publ_section_title
;
Structure prediction by ZEFSAII (Michael W. Deem and Ramdas Pophale) SiO2 
 PCOD9175413
Probable space group: C 2/M
;
_chemical_formula_sum "Si O2"
_cell_formula_units_Z 64
_cell_length_a 20.599153
_cell_length_b 25.496082
_cell_length_c 8.606351
_cell_angle_alpha 90.000000
_cell_angle_beta 123.036908
_cell_angle_gamma 90.000000
_cell_volume 3789.234320
_symmetry_space_group_name_H-M "C 2/M"
_symmetry_group_IT_number 12
_symmetry_cell_setting 'monoclinic'
loop_
_space_group_symop_operation_xyz
x,y,z
-x,y,-z
-x,-y,-z
x,-y,z
1/2+x,1/2+y,z
1/2-x,1/2+y,-z
1/2-x,1/2-y,-z
1/2+x,1/2-y,z
loop_
_atom_site_type_symbol
_atom_site_label
_atom_site_fract_x
_atom_site_fract_y
_atom_site_fract_z
Si Si1 0.321326 0.061813 0.731553
Si Si2 0.563640 0.302356 0.205423
Si Si3 0.130629 0.625998 0.910205
Si Si4 0.278130 0.347545 0.513173
Si Si5 0.942761 0.720236 0.563665
Si Si6 0.533396 0.118178 0.216214
Si Si7 0.214358 0.310518 0.759713
Si Si8 0.326489 0.226111 0.846389
O O1 0.250176 0.095420 0.574062
O O2 0.396791 0.077953 0.725507
O O3 0.311567 0.000000 0.718419
O O4 0.334073 0.084445 0.922612
O O5 0.629527 0.340861 0.356865
O O6 0.528357 0.270573 0.304152
O O7 0.614017 0.258192 0.181105
O O8 0.500000 0.322429 0.000000
O O9 0.182614 0.643521 0.831335
O O10 0.042067 0.606238 0.775698
O O11 0.129217 0.682018 0.998486
O O12 0.245682 0.335669 0.641933
O O13 0.235512 0.305455 0.342619
O O14 0.934476 0.671171 0.668583
O O15 0.858846 0.725850 0.378068
O O16 0.000000 0.706672 0.500000
O O17 0.500000 0.127060 0.000000
O O18 0.282664 0.269889 0.892701
#
# Coordination Sequence:
#
# PCOD9175413 Si02
#       8
#     8   8   8   8   8   8   8   8
#     4  10  21  38  56  70  91 132 185 223 261 309
#     4  11  20  32  47  74 107 138 172 203 242 304
#     4  10  20  30  48  74 105 133 165 212 255 297
#     4  10  19  35  54  71  98 139 175 212 252 298
#     4  12  19  28  48  74 113 143 168 196 243 297
#     4  10  19  31  48  71  98 134 171 204 248 297
#     4  11  18  30  48  75 106 138 169 203 243 301
#     4  10  18  33  50  71 105 145 172 195 237 309
#
# _framework density 16.889956000000002
#
# number of rings (size 3 to 8) (size 9 to 14) (size 15 to 20)
#    0.000    1.500    5.000    3.750    0.000    2.250 
#    0.000    0.625    0.000    1.500    0.000    0.000 
#    0.000    4.500    0.000    0.000    0.000    0.000 
#
# Total GULP energy -178258.429540 kJ/mol
# GULP energy per Si atom -5570.575923 kJ/mol
# Density = 1.685151 g / cm^3
# Si number density = 16.889956 Si / 1000 Ang^3
#
#
#
# Elastic Constant Matrix: (Units=GPa)
#
#
# Indices 1 2 3 4 5 6 
#
# 1 45.6327 30.8815 12.6814 0.0000 -4.5118 0.0000
# 2 30.8815 80.8722 24.8065 0.0000 1.7310 0.0000
# 3 12.6814 24.8065 44.2680 0.0000 10.5928 0.0000
# 4 0.0000 0.0000 0.0000 9.9956 0.0000 -2.2652
# 5 -4.5118 1.7310 10.5928 0.0000 30.7277 0.0000
# 6 0.0000 0.0000 0.0000 -2.2652 0.0000 13.4413
#
#
#
# Elastic Compliance Matrix: (Units=1/GPa)
#
#
# Indices 1 2 3 4 5 6 
#
# 1 0.031010 -0.010587 -0.004559 0.000000 0.006721 0.000000
# 2 -0.010587 0.018687 -0.007428 0.000000 -0.000047 0.000000
# 3 -0.004559 -0.007428 0.030646 0.000000 -0.010816 0.000000
# 4 0.000000 0.000000 0.000000 0.104017 0.000000 0.017530
# 5 0.006721 -0.000047 -0.010816 0.000000 0.037262 0.000000
# 6 0.000000 0.000000 0.000000 0.017530 0.000000 0.077352
#
#
# Mechanical properties :
#
#
# Convention : Reuss Voigt Hill
#
# Bulk Modulus (GPa) = 28.41249 34.16797 31.29023
# Shear Modulus (GPa) = 14.05072 17.65982 15.85527
#
# Velocity S-wave (km/s) = 2.88739 3.23705 3.06721
# Velocity P-wave (km/s) = 5.28911 5.85192 5.57762
#
# Compressibility (1/GPa) = 0.03519578
#
# Stress axis : x y z
#
# Youngs Moduli (GPa) = 32.24739 53.51259 32.63048
#
# Poissons Ratio (x) = 0.56653 0.14877
# Poissons Ratio (y) = 0.34140 0.24237
# Poissons Ratio (z) = 0.14703 0.39748
#
# Static dielectric constant tensor:
#      x y z
#    x 1.629760 0.000000 -0.002090 
#    y 0.000000 1.541670 0.000000 
#    z -0.002090 0.000000 1.636140 
# 
# From -- ./inp_files/90409.got.cif
#   From: 2010.05.17/outbox.cif.g08.bks.cpg/sg12_46_cif.got.tgz:90409.got - 2010.06.03 13:09:07.
