data_PCOD9175691
_publ_section_title
;
Structure prediction by ZEFSAII (Michael W. Deem and Ramdas Pophale) SiO2 
 PCOD9175691
Probable space group: C 2/M
;
_chemical_formula_sum "Si O2"
_cell_formula_units_Z 40
_cell_length_a 17.065503
_cell_length_b 17.086273
_cell_length_c 9.258431
_cell_angle_alpha 90.000000
_cell_angle_beta 57.835106
_cell_angle_gamma 90.000000
_cell_volume 2285.287268
_symmetry_space_group_name_H-M "C 2/M"
_symmetry_group_IT_number 12
_symmetry_cell_setting 'monoclinic'
loop_
_space_group_symop_operation_xyz
x,y,z
-x,y,-z
-x,-y,-z
x,-y,z
1/2+x,1/2+y,z
1/2-x,1/2+y,-z
1/2-x,1/2-y,-z
1/2+x,1/2-y,z
loop_
_atom_site_type_symbol
_atom_site_label
_atom_site_fract_x
_atom_site_fract_y
_atom_site_fract_z
Si Si1 0.852425 0.411090 0.823700
Si Si2 0.337808 0.771129 0.319050
Si Si3 0.525606 0.246327 0.314987
Si Si4 0.315739 0.307862 0.028973
Si Si5 0.603158 0.087380 0.885504
O O1 0.874711 0.500000 0.750098
O O2 0.922372 0.339004 0.717089
O O3 0.748175 0.384239 0.887723
O O4 0.857463 0.413972 0.992675
O O5 0.250000 0.750000 0.500000
O O6 0.431514 0.760965 0.317077
O O7 0.337873 0.726349 0.165408
O O8 0.334430 0.861814 0.278346
O O9 0.500000 0.274404 0.500000
O O10 0.592546 0.304311 0.159187
O O11 0.250000 0.250000 0.000000
O O12 0.591095 0.000000 0.840492
O O13 0.500000 0.123166 0.000000
#
# Coordination Sequence:
#
# PCOD9175691 Si02
#       5
#     8   8   8   8   8
#     4  10  20  35  58  84 114 147 181 230 287 334
#     4  12  21  34  56  83 114 151 190 231 275 331
#     4  11  22  35  56  85 112 147 187 231 281 329
#     4  10  19  36  55  79 114 145 185 227 274 335
#     4  10  18  33  56  82 113 148 183 228 283 336
#
# _framework density 17.503271000000002
#
# number of rings (size 3 to 8) (size 9 to 14) (size 15 to 20)
#    0.000    1.400    6.000    3.000    0.000    0.400 
#    0.000    3.000    0.000    4.200    0.000    0.000 
#    0.000    0.000    0.000    0.000    0.000    0.000 
#
# Total GULP energy -111403.025609 kJ/mol
# GULP energy per Si atom -5570.151280 kJ/mol
# Density = 1.746343 g / cm^3
# Si number density = 17.503271 Si / 1000 Ang^3
#
#
#
# Elastic Constant Matrix: (Units=GPa)
#
#
# Indices 1 2 3 4 5 6 
#
# 1 89.7807 23.4179 41.5992 0.0000 0.9810 0.0000
# 2 23.4179 53.8204 28.4998 0.0000 -11.3510 0.0000
# 3 41.5992 28.4998 130.5606 0.0000 -5.1618 0.0000
# 4 0.0000 0.0000 0.0000 14.1609 0.0000 1.4708
# 5 0.9810 -11.3510 -5.1618 0.0000 34.3066 0.0000
# 6 0.0000 0.0000 0.0000 1.4708 0.0000 19.1150
#
#
#
# Elastic Compliance Matrix: (Units=1/GPa)
#
#
# Indices 1 2 3 4 5 6 
#
# 1 0.014047 -0.004771 -0.003534 0.000000 -0.002512 0.000000
# 2 -0.004771 0.024075 -0.003435 0.000000 0.007585 0.000000
# 3 -0.003534 -0.003435 0.009551 0.000000 0.000401 0.000000
# 4 0.000000 0.000000 0.000000 0.071186 0.000000 -0.005478
# 5 -0.002512 0.007585 0.000401 0.000000 0.031791 0.000000
# 6 0.000000 0.000000 0.000000 -0.005478 0.000000 0.052736
#
#
# Mechanical properties :
#
#
# Convention : Reuss Voigt Hill
#
# Bulk Modulus (GPa) = 41.33291 51.24394 46.28843
# Shear Modulus (GPa) = 21.28286 25.55948 23.42117
#
# Velocity S-wave (km/s) = 3.49081 3.82549 3.66198
# Velocity P-wave (km/s) = 6.31770 6.98948 6.66206
#
# Compressibility (1/GPa) = 0.02419380
#
# Stress axis : x y z
#
# Youngs Moduli (GPa) = 71.18763 41.53689 104.70168
#
# Poissons Ratio (x) = 0.19816 0.36998
# Poissons Ratio (y) = 0.33962 0.35969
# Poissons Ratio (z) = 0.25156 0.14269
#
# Static dielectric constant tensor:
#      x y z
#    x 1.650130 0.000000 -0.043380 
#    y 0.000000 1.655740 0.000000 
#    z -0.043380 0.000000 1.629720 
# 
# From -- ./inp_files/60840.got.cif
#   From: 2010.05.17/outbox.cif.g08.bks.cpg/sg12_31_cif.got.tgz:60840.got - 2010.06.03 13:09:07.
