data_PCOD9175870
_publ_section_title
;
Structure prediction by ZEFSAII (Michael W. Deem and Ramdas Pophale) SiO2 
 PCOD9175870
Probable space group: C 2/M
;
_chemical_formula_sum "Si O2"
_cell_formula_units_Z 44
_cell_length_a 17.505448
_cell_length_b 8.365519
_cell_length_c 14.622173
_cell_angle_alpha 90.000000
_cell_angle_beta 57.134767
_cell_angle_gamma 90.000000
_cell_volume 1798.585608
_symmetry_space_group_name_H-M "C 2/M"
_symmetry_group_IT_number 12
_symmetry_cell_setting 'monoclinic'
loop_
_space_group_symop_operation_xyz
x,y,z
-x,y,-z
-x,-y,-z
x,-y,z
1/2+x,1/2+y,z
1/2-x,1/2+y,-z
1/2-x,1/2-y,-z
1/2+x,1/2-y,z
loop_
_atom_site_type_symbol
_atom_site_label
_atom_site_fract_x
_atom_site_fract_y
_atom_site_fract_z
Si Si1 0.869544 0.194830 0.148766
Si Si2 0.391866 0.000000 0.584335
Si Si3 0.979116 0.167207 0.700691
Si Si4 0.320315 0.318785 0.655113
Si Si5 0.471088 0.000000 0.721604
Si Si6 0.653284 0.679541 0.038682
Si Si7 0.978688 0.500000 0.120406
O O1 0.766087 0.252444 0.232522
O O2 0.890086 0.232497 0.028722
O O3 0.924510 0.330899 0.168932
O O4 0.883574 0.000000 0.157942
O O5 0.500000 0.000000 0.500000
O O6 0.346277 0.162970 0.579041
O O7 0.389538 0.000000 0.699818
O O8 0.909584 0.163790 0.660947
O O9 0.025719 0.338076 0.667977
O O10 0.031753 0.000000 0.667899
O O11 0.913864 0.174371 0.831874
O O12 0.302243 0.500000 0.631703
O O13 0.446691 0.000000 0.845887
O O14 0.677247 0.500000 0.999197
O O15 0.750000 0.750000 0.000000
O O16 0.000000 0.500000 0.000000
#
# Coordination Sequence:
#
# PCOD9175870 Si02
#       7
#     8   4   8   8   4   8   4
#     4  11  22  35  54  83 114 160 205 246 286 333
#     4  10  22  40  66  94 121 140 178 256 319 361
#     4   9  18  31  49  78 111 146 186 239 286 335
#     4  10  18  33  58  89 117 143 187 237 304 361
#     4  10  22  38  58  78 114 162 192 222 295 362
#     4  10  19  25  43  74 110 142 186 236 279 323
#     4  12  26  40  56  80 125 174 208 235 269 344
#
# _framework density 24.463667000000001
#
# number of rings (size 3 to 8) (size 9 to 14) (size 15 to 20)
#    0.000    1.818    3.636    1.091    2.545    1.455 
#    0.000    0.000    0.000    1.091    0.000    0.000 
#    0.000    0.000    0.000    0.000    0.000    0.000 
#
# Total GULP energy -122494.467569 kJ/mol
# GULP energy per Si atom -5567.930344 kJ/mol
# Density = 2.440799 g / cm^3
# Si number density = 24.463667 Si / 1000 Ang^3
#
#
#
# Elastic Constant Matrix: (Units=GPa)
#
#
# Indices 1 2 3 4 5 6 
#
# 1 57.9444 21.4575 -2.3255 0.0000 10.3833 0.0000
# 2 21.4575 278.2586 13.9453 -0.0001 -8.6692 0.0000
# 3 -2.3255 13.9453 62.6495 0.0000 0.0981 0.0000
# 4 0.0000 -0.0001 0.0000 -91.8858 0.0000 16.2241
# 5 10.3833 -8.6692 0.0981 0.0000 11.2391 0.0000
# 6 0.0000 0.0000 0.0000 16.2241 0.0000 18.6088
#
#
#
# Elastic Compliance Matrix: (Units=1/GPa)
#
#
# Indices 1 2 3 4 5 6 
#
# 1 0.022270 -0.002489 0.001416 0.000000 -0.022506 0.000000
# 2 -0.002489 0.004004 -0.000992 0.000000 0.005397 0.000000
# 3 0.001416 -0.000992 0.016239 0.000000 -0.002215 0.000000
# 4 0.000000 0.000000 0.000000 -0.009431 0.000000 0.008223
# 5 -0.022506 0.005397 -0.002215 0.000000 0.113949 0.000000
# 6 0.000000 0.000000 0.000000 0.008223 0.000000 0.046569
#
#
# Mechanical properties :
#
#
# Convention : Reuss Voigt Hill
#
# Bulk Modulus (GPa) = 26.05464 51.66746 38.86105
# Shear Modulus (GPa) = 23.75030 11.97745 17.86388
#
# Velocity S-wave (km/s) = 3.11921 2.21509 2.70519
# Velocity P-wave (km/s) = 4.86272 5.26385 5.06726
#
# Compressibility (1/GPa) = 0.03838088
#
# Stress axis : x y z
#
# Youngs Moduli (GPa) = 44.90428 249.77535 61.58145
#
# Poissons Ratio (x) = 0.62180 -0.08720
# Poissons Ratio (y) = 0.11179 0.06109
# Poissons Ratio (z) = -0.06358 0.24778
#
# Static dielectric constant tensor:
#      x y z
#    x 1.853100 0.000000 0.020920 
#    y 0.000000 2.115160 0.000000 
#    z 0.020920 0.000000 1.965760 
# 
# From -- ./inp_files/274869.got.cif
#   From: 2010.05.17/outbox.cif.g08.bks.cpg/sg12_138_cif.got.tgz:274869.got - 2010.06.03 13:09:07.
