data_PCOD9175393
_publ_section_title
;
Structure prediction by ZEFSAII (Michael W. Deem and Ramdas Pophale) SiO2 
 PCOD9175393
Probable space group: C 2/M
;
_chemical_formula_sum "Si O2"
_cell_formula_units_Z 56
_cell_length_a 29.243755
_cell_length_b 18.912766
_cell_length_c 19.351049
_cell_angle_alpha 90.000000
_cell_angle_beta 161.304371
_cell_angle_gamma 90.000000
_cell_volume 3430.646093
_symmetry_space_group_name_H-M "C 2/M"
_symmetry_group_IT_number 12
_symmetry_cell_setting 'monoclinic'
loop_
_space_group_symop_operation_xyz
x,y,z
-x,y,-z
-x,-y,-z
x,-y,z
1/2+x,1/2+y,z
1/2-x,1/2+y,-z
1/2-x,1/2-y,-z
1/2+x,1/2-y,z
loop_
_atom_site_type_symbol
_atom_site_label
_atom_site_fract_x
_atom_site_fract_y
_atom_site_fract_z
Si Si1 0.542888 0.336019 0.309077
Si Si2 0.982992 0.323423 0.771644
Si Si3 0.130016 0.303426 0.234486
Si Si4 0.020118 0.917064 0.643656
Si Si5 0.459032 0.582301 0.051584
Si Si6 0.262520 0.417022 0.168075
Si Si7 0.201497 0.860457 0.303819
O O1 0.501553 0.254196 0.239268
O O2 0.716441 0.339477 0.557281
O O3 0.485145 0.368418 0.297096
O O4 0.483500 0.378992 0.158748
O O5 0.916242 0.311701 0.752303
O O6 0.865963 0.365305 0.559121
O O7 0.128824 0.366101 0.984687
O O8 0.155639 0.220553 0.253983
O O9 0.000000 0.328872 0.000000
O O10 0.152719 0.904256 0.782160
O O11 0.878081 0.905917 0.394259
O O12 0.022824 0.000000 0.667409
O O13 0.427876 0.500000 0.015949
O O14 0.603739 0.592135 0.213883
O O15 0.339392 0.619245 0.832525
O O16 0.221132 0.500000 0.110627
#
# Coordination Sequence:
#
# PCOD9175393 Si02
#       7
#     8   8   8   8   8   8   8
#     4  11  20  33  53  81 107 136 173 212 264 305
#     4  11  20  33  54  79 108 134 170 218 260 308
#     4  11  18  32  52  75 110 138 165 210 261 312
#     4   9  19  38  58  76 102 135 174 217 261 314
#     4  11  20  32  49  72 106 146 181 205 237 304
#     4   9  20  38  58  77  99 134 176 217 265 313
#     4  10  18  33  47  71 105 141 178 202 242 297
#
# _framework density 16.323457000000001
#
# number of rings (size 3 to 8) (size 9 to 14) (size 15 to 20)
#    0.000    1.714    4.286    3.857    0.000    2.857 
#    0.000    0.000    0.000    3.857    0.000    3.000 
#    0.000    0.000    0.000    0.000    0.000    0.000 
#
# Total GULP energy -156238.847408 kJ/mol
# GULP energy per Si atom -5579.958836 kJ/mol
# Density = 1.628630 g / cm^3
# Si number density = 16.323457 Si / 1000 Ang^3
#
#
#
# Elastic Constant Matrix: (Units=GPa)
#
#
# Indices 1 2 3 4 5 6 
#
# 1 70.3966 35.9349 9.7065 0.0000 -14.9643 0.0000
# 2 35.9349 63.4436 33.7751 0.0000 -6.0310 0.0000
# 3 9.7065 33.7751 59.1736 0.0000 -7.5518 0.0000
# 4 0.0000 0.0000 0.0000 13.2086 0.0000 0.1801
# 5 -14.9643 -6.0310 -7.5518 0.0000 21.2809 0.0000
# 6 0.0000 0.0000 0.0000 0.1801 0.0000 14.9883
#
#
#
# Elastic Compliance Matrix: (Units=1/GPa)
#
#
# Indices 1 2 3 4 5 6 
#
# 1 0.024926 -0.016552 0.007329 0.000000 0.015437 0.000000
# 2 -0.016552 0.033709 -0.017588 0.000000 -0.008327 0.000000
# 3 0.007329 -0.017588 0.026980 0.000000 0.009743 0.000000
# 4 0.000000 0.000000 0.000000 0.075721 0.000000 -0.000910
# 5 0.015437 -0.008327 0.009743 0.000000 0.058943 0.000000
# 6 0.000000 0.000000 0.000000 -0.000910 0.000000 0.066730
#
#
# Mechanical properties :
#
#
# Convention : Reuss Voigt Hill
#
# Bulk Modulus (GPa) = 31.25808 39.09410 35.17609
# Shear Modulus (GPa) = 14.23309 17.46870 15.85090
#
# Velocity S-wave (km/s) = 2.95607 3.27488 3.11955
# Velocity P-wave (km/s) = 5.55355 6.18881 5.87977
#
# Compressibility (1/GPa) = 0.03199173
#
# Stress axis : x y z
#
# Youngs Moduli (GPa) = 40.11952 29.66565 37.06514
#
# Poissons Ratio (x) = 0.49104 -0.27166
# Poissons Ratio (y) = 0.66407 0.65190
# Poissons Ratio (z) = -0.29404 0.52176
#
# Static dielectric constant tensor:
#      x y z
#    x 1.526420 0.000000 -0.013060 
#    y 0.000000 1.540240 0.000000 
#    z -0.013060 0.000000 1.554940 
# 
# From -- ./inp_files/293906.got.cif
#   From: 2010.05.17/outbox.cif.g08.bks.cpg/sg12_147_cif.got.tgz:293906.got - 2010.06.03 13:09:07.
