data_PCOD9175859
_publ_section_title
;
Structure prediction by ZEFSAII (Michael W. Deem and Ramdas Pophale) SiO2 
 PCOD9175859
Probable space group: C 2/M
;
_chemical_formula_sum "Si O2"
_cell_formula_units_Z 56
_cell_length_a 17.656307
_cell_length_b 22.038084
_cell_length_c 15.457789
_cell_angle_alpha 90.000000
_cell_angle_beta 24.537819
_cell_angle_gamma 90.000000
_cell_volume 2497.908433
_symmetry_space_group_name_H-M "C 2/M"
_symmetry_group_IT_number 12
_symmetry_cell_setting 'monoclinic'
loop_
_space_group_symop_operation_xyz
x,y,z
-x,y,-z
-x,-y,-z
x,-y,z
1/2+x,1/2+y,z
1/2-x,1/2+y,-z
1/2-x,1/2-y,-z
1/2+x,1/2-y,z
loop_
_atom_site_type_symbol
_atom_site_label
_atom_site_fract_x
_atom_site_fract_y
_atom_site_fract_z
Si Si1 0.780927 0.649491 0.551593
Si Si2 0.497855 0.070913 0.811980
Si Si3 0.554886 0.750578 0.341992
Si Si4 0.416596 0.321412 0.991208
Si Si5 0.759468 0.931703 0.694294
Si Si6 0.881427 0.115602 0.744405
Si Si7 0.781471 0.569629 0.719599
O O1 0.876319 0.614203 0.375635
O O2 0.747660 0.600053 0.662098
O O3 0.916403 0.702231 0.442549
O O4 0.579412 0.676765 0.753452
O O5 0.580553 0.076730 0.822866
O O6 0.514782 0.000000 0.769962
O O7 0.287428 0.091039 0.024951
O O8 0.500000 0.747763 0.500000
O O9 0.759291 0.776039 0.127043
O O10 0.556982 0.683580 0.301199
O O11 0.317641 0.386395 0.109396
O O12 0.500000 0.304694 0.000000
O O13 0.799338 0.886685 0.731461
O O14 0.937060 0.925112 0.447995
O O15 0.757605 0.000000 0.733164
O O16 0.723267 0.500000 0.786729
O O17 0.000000 0.572163 0.500000
#
# Coordination Sequence:
#
# PCOD9175859 Si02
#       7
#     8   8   8   8   8   8   8
#     4  11  23  39  60  88 131 171 207 253 315 376
#     4  11  25  43  63  95 134 166 204 258 322 386
#     4  12  21  41  64  95 125 163 219 265 303 369
#     4  10  20  35  59  86 120 165 214 263 305 358
#     4  10  21  41  67  96 123 157 216 270 316 378
#     4  11  23  40  71  92 122 164 212 265 321 368
#     4  10  18  33  58  86 117 159 216 266 304 356
#
# _framework density 22.418758
#
# number of rings (size 3 to 8) (size 9 to 14) (size 15 to 20)
#    0.000    1.286    5.714    2.571    0.000    8.286 
#    0.000    1.429    0.000    0.000    0.000    0.000 
#    0.000    0.000    0.000    0.000    0.000    0.000 
#
# Total GULP energy -156599.285351 kJ/mol
# GULP energy per Si atom -5592.831620 kJ/mol
# Density = 2.236773 g / cm^3
# Si number density = 22.418758 Si / 1000 Ang^3
#
#
#
# Elastic Constant Matrix: (Units=GPa)
#
#
# Indices 1 2 3 4 5 6 
#
# 1 40.0497 30.6091 16.5747 -0.0174 0.7868 -0.0098
# 2 30.6091 96.4582 15.8437 -0.1191 0.3441 0.0594
# 3 16.5747 15.8437 143.0002 -0.1454 -13.2134 0.0812
# 4 -0.0174 -0.1191 -0.1454 -36.0924 0.0525 41.6555
# 5 0.7868 0.3441 -13.2134 0.0525 27.3117 -0.0141
# 6 -0.0098 0.0594 0.0812 41.6555 -0.0141 -10.6975
#
#
#
# Elastic Compliance Matrix: (Units=1/GPa)
#
#
# Indices 1 2 3 4 5 6 
#
# 1 0.034168 -0.010337 -0.003029 0.000028 -0.002320 0.000002
# 2 -0.010337 0.013700 -0.000323 -0.000016 -0.000031 0.000020
# 3 -0.003029 -0.000323 0.007734 -0.000011 0.003833 0.000010
# 4 0.000028 -0.000016 -0.000011 0.007929 -0.000005 0.030877
# 5 -0.002320 -0.000031 0.003833 -0.000005 0.038536 -0.000041
# 6 0.000002 0.000020 0.000010 0.030877 -0.000041 0.026753
#
#
# Mechanical properties :
#
#
# Convention : Reuss Voigt Hill
#
# Bulk Modulus (GPa) = 35.42945 45.06257 40.24601
# Shear Modulus (GPa) = 30.19178 10.53640 20.36409
#
# Velocity S-wave (km/s) = 3.67375 2.17026 3.01715
# Velocity P-wave (km/s) = 5.81662 5.14043 5.48895
#
# Compressibility (1/GPa) = 0.02822511
#
# Stress axis : x y z
#
# Youngs Moduli (GPa) = 29.26678 72.99033 129.29842
#
# Poissons Ratio (x) = 0.75448 0.39170
# Poissons Ratio (y) = 0.30252 0.04173
# Poissons Ratio (z) = 0.08866 0.02356
#
# Static dielectric constant tensor:
#      x y z
#    x 1.865230 0.000130 -0.013170 
#    y 0.000130 1.791570 -0.000160 
#    z -0.013170 -0.000160 1.909540 
# 
# From -- ./inp_files/286027.got.cif
#   From: 2010.05.17/outbox.cif.g08.bks.cpg/sg12_144_cif.got.tgz:286027.got - 2010.06.03 13:09:07.
