data_PCOD9175631
_publ_section_title
;
Structure prediction by ZEFSAII (Michael W. Deem and Ramdas Pophale) SiO2 
 PCOD9175631
Probable space group: C 2/M
;
_chemical_formula_sum "Si O2"
_cell_formula_units_Z 64
_cell_length_a 31.132353
_cell_length_b 8.448429
_cell_length_c 15.519050
_cell_angle_alpha 90.000000
_cell_angle_beta 138.156371
_cell_angle_gamma 90.000000
_cell_volume 2722.976762
_symmetry_space_group_name_H-M "C 2/M"
_symmetry_group_IT_number 12
_symmetry_cell_setting 'monoclinic'
loop_
_space_group_symop_operation_xyz
x,y,z
-x,y,-z
-x,-y,-z
x,-y,z
1/2+x,1/2+y,z
1/2-x,1/2+y,-z
1/2-x,1/2-y,-z
1/2+x,1/2-y,z
loop_
_atom_site_type_symbol
_atom_site_label
_atom_site_fract_x
_atom_site_fract_y
_atom_site_fract_z
Si Si1 0.221443 0.311516 0.634765
Si Si2 0.420375 0.188317 0.527396
Si Si3 0.119449 0.682356 0.881869
Si Si4 0.890087 0.184475 0.308885
Si Si5 0.751703 0.816659 0.874112
Si Si6 0.338440 0.694063 0.708377
Si Si7 0.424082 0.311037 0.999148
Si Si8 0.558120 0.310947 0.265333
O O1 0.213349 0.500000 0.608502
O O2 0.150604 0.247540 0.548981
O O3 0.259044 0.294588 0.781814
O O4 0.267181 0.248068 0.627539
O O5 0.433802 0.263365 0.454799
O O6 0.459861 0.230830 0.671295
O O7 0.418196 0.000000 0.512487
O O8 0.104882 0.500000 0.846705
O O9 0.088731 0.776545 0.756226
O O10 0.098953 0.737745 0.945614
O O11 0.196806 0.711817 0.998974
O O12 0.822621 0.277906 0.219510
O O13 0.877175 0.000000 0.297344
O O14 0.734962 0.500000 0.086053
O O15 0.336947 0.500000 0.703582
O O16 0.375050 0.747415 0.677062
O O17 0.384465 0.741587 0.856907
O O18 0.414480 0.500000 0.991027
O O19 0.500641 0.283032 0.111853
O O20 0.562190 0.500000 0.285239
#
# Coordination Sequence:
#
# PCOD9175631 Si02
#       8
#     8   8   8   8   8   8   8   8
#     4   8  15  29  54  83 112 148 187 227 277 331
#     4  10  21  38  57  80 116 157 194 234 283 341
#     4  12  23  35  54  84 117 151 191 234 286 346
#     4  11  22  37  58  84 114 149 191 238 284 338
#     4  10  18  33  55  83 120 156 188 228 282 342
#     4   9  16  32  59  88 114 144 189 241 289 339
#     4  10  20  37  59  84 114 150 192 242 292 338
#     4  10  21  36  59  86 111 148 198 243 286 341
#
# _framework density 23.503691
#
# number of rings (size 3 to 8) (size 9 to 14) (size 15 to 20)
#    0.000    2.000    1.250    4.500    0.000    2.500 
#    0.000    1.250    0.000    5.250    0.000    0.000 
#    0.000    0.000    0.000    0.000    0.000    0.000 
#
# Total GULP energy -178856.433907 kJ/mol
# GULP energy per Si atom -5589.263560 kJ/mol
# Density = 2.345020 g / cm^3
# Si number density = 23.503691 Si / 1000 Ang^3
#
#
#
# Elastic Constant Matrix: (Units=GPa)
#
#
# Indices 1 2 3 4 5 6 
#
# 1 92.5765 4.4458 9.0278 0.0000 -16.7945 0.0000
# 2 4.4458 7.1929 0.9734 0.0000 -0.7800 0.0000
# 3 9.0278 0.9734 75.8187 0.0000 -15.0648 0.0000
# 4 0.0000 0.0000 0.0000 17.4704 0.0000 -5.7267
# 5 -16.7945 -0.7800 -15.0648 0.0000 36.3885 0.0000
# 6 0.0000 0.0000 0.0000 -5.7267 0.0000 16.1072
#
#
#
# Elastic Compliance Matrix: (Units=1/GPa)
#
#
# Indices 1 2 3 4 5 6 
#
# 1 0.012128 -0.006878 -0.000297 0.000000 0.005327 0.000000
# 2 -0.006878 0.143369 -0.001135 0.000000 -0.000571 0.000000
# 3 -0.000297 -0.001135 0.014391 0.000000 0.005796 0.000000
# 4 0.000000 0.000000 0.000000 0.064791 0.000000 0.023035
# 5 0.005327 -0.000571 0.005796 0.000000 0.032327 0.000000
# 6 0.000000 0.000000 0.000000 0.023035 0.000000 0.070274
#
#
# Mechanical properties :
#
#
# Convention : Reuss Voigt Hill
#
# Bulk Modulus (GPa) = 6.52457 22.72022 14.62239
# Shear Modulus (GPa) = 12.34601 24.73595 18.54098
#
# Velocity S-wave (km/s) = 2.29438 3.24763 2.81170
# Velocity P-wave (km/s) = 3.13064 4.87345 4.09582
#
# Compressibility (1/GPa) = 0.15326680
#
# Stress axis : x y z
#
# Youngs Moduli (GPa) = 82.45718 6.97500 69.48774
#
# Poissons Ratio (x) = 0.04797 0.02066
# Poissons Ratio (y) = 0.56713 0.07889
# Poissons Ratio (z) = 0.02452 0.00792
#
# Static dielectric constant tensor:
#      x y z
#    x 1.943690 0.000000 0.034280 
#    y 0.000000 1.787090 0.000000 
#    z 0.034280 0.000000 1.930480 
# 
# From -- ./inp_files/250088.got.cif
#   From: 2010.05.17/outbox.cif.g08.bks.cpg/sg12_126_cif.got.tgz:250088.got - 2010.06.03 13:09:07.
