data_PCOD9175759
_publ_section_title
;
Structure prediction by ZEFSAII (Michael W. Deem and Ramdas Pophale) SiO2 
 PCOD9175759
Probable space group: C 2/M
;
_chemical_formula_sum "Si O2"
_cell_formula_units_Z 64
_cell_length_a 15.129316
_cell_length_b 7.504243
_cell_length_c 25.605245
_cell_angle_alpha 90.000000
_cell_angle_beta 117.989304
_cell_angle_gamma 90.000000
_cell_volume 2567.043000
_symmetry_space_group_name_H-M "C 2/M"
_symmetry_group_IT_number 12
_symmetry_cell_setting 'monoclinic'
loop_
_space_group_symop_operation_xyz
x,y,z
-x,y,-z
-x,-y,-z
x,-y,z
1/2+x,1/2+y,z
1/2-x,1/2+y,-z
1/2-x,1/2-y,-z
1/2+x,1/2-y,z
loop_
_atom_site_type_symbol
_atom_site_label
_atom_site_fract_x
_atom_site_fract_y
_atom_site_fract_z
Si Si1 0.466263 0.214653 0.753849
Si Si2 0.294931 0.789152 0.851270
Si Si3 0.408454 0.292125 0.626569
Si Si4 0.076049 0.219358 0.598185
Si Si5 0.201653 0.803234 0.541513
Si Si6 0.131022 0.286038 0.882943
Si Si7 0.509210 0.218178 0.943177
Si Si8 0.242995 0.216891 0.726787
O O1 0.476609 0.272980 0.696737
O O2 0.549782 0.279310 0.817548
O O3 0.354798 0.269634 0.740447
O O4 0.468579 0.000000 0.755452
O O5 0.238228 0.760760 0.889631
O O6 0.407960 0.723479 0.885833
O O7 0.234119 0.720343 0.784361
O O8 0.303274 0.000000 0.845546
O O9 0.384783 0.500000 0.613668
O O10 0.469299 0.227270 0.592588
O O11 0.302435 0.196770 0.604917
O O12 0.115823 0.284366 0.553065
O O13 0.158388 0.278161 0.663595
O O14 0.075380 0.000000 0.597218
O O15 0.250000 0.750000 0.500000
O O16 0.162609 0.000000 0.521442
O O17 0.124106 0.500000 0.881502
O O18 0.101049 0.223633 0.932316
O O19 0.510667 0.000000 0.945220
O O20 0.500000 0.279344 0.000000
O O21 0.237863 0.000000 0.724038
#
# Coordination Sequence:
#
# PCOD9175759 Si02
#       8
#     8   8   8   8   8   8   8   8
#     4  10  18  33  57  81 110 147 182 219 276 337
#     4  10  19  33  56  81 106 142 186 228 272 334
#     4  11  22  37  59  89 115 142 184 230 275 328
#     4   9  19  35  58  81 108 146 182 216 267 335
#     4  11  23  42  63  83 112 152 192 232 275 323
#     4  10  20  34  54  81 111 143 181 231 283 330
#     4   9  18  34  55  77 104 146 196 233 268 331
#     4   9  15  30  56  80 103 141 185 217 261 333
#
# _framework density 24.931408000000001
#
# number of rings (size 3 to 8) (size 9 to 14) (size 15 to 20)
#    0.000    2.125    2.500    1.500    0.000    2.500 
#    0.000    6.250    0.000    0.750    0.000    0.000 
#    0.000    0.000    0.000    0.000    0.000    0.000 
#
# Total GULP energy -178853.666426 kJ/mol
# GULP energy per Si atom -5589.177076 kJ/mol
# Density = 2.487466 g / cm^3
# Si number density = 24.931408 Si / 1000 Ang^3
#
#
#
# Elastic Constant Matrix: (Units=GPa)
#
#
# Indices 1 2 3 4 5 6 
#
# 1 125.2467 -6.6765 7.4204 0.0000 -37.5006 0.0000
# 2 -6.6765 63.8456 0.3306 0.0000 2.6061 0.0000
# 3 7.4204 0.3306 71.1433 0.0000 -40.7152 0.0000
# 4 0.0000 0.0000 0.0000 7.7638 0.0000 -6.1592
# 5 -37.5006 2.6061 -40.7152 0.0000 39.0106 0.0000
# 6 0.0000 0.0000 0.0000 -6.1592 0.0000 11.1166
#
#
#
# Elastic Compliance Matrix: (Units=1/GPa)
#
#
# Indices 1 2 3 4 5 6 
#
# 1 0.018494 0.000232 0.020452 0.000000 0.039108 0.000000
# 2 0.000232 0.015789 -0.001425 0.000000 -0.002319 0.000000
# 3 0.020452 -0.001425 0.057700 0.000000 0.079976 0.000000
# 4 0.000000 0.000000 0.000000 0.229819 0.000000 0.127332
# 5 0.039108 -0.002319 0.079976 0.000000 0.146854 0.000000
# 6 0.000000 0.000000 0.000000 0.127332 0.000000 0.160505
#
#
# Mechanical properties :
#
#
# Convention : Reuss Voigt Hill
#
# Bulk Modulus (GPa) = 7.66280 29.15387 18.40833
# Shear Modulus (GPa) = 7.88463 28.85560 18.37012
#
# Velocity S-wave (km/s) = 1.78028 3.40575 2.71740
# Velocity P-wave (km/s) = 2.70298 5.21388 4.15275
#
# Compressibility (1/GPa) = 0.13050066
#
# Stress axis : x y z
#
# Youngs Moduli (GPa) = 54.07016 63.33505 17.33106
#
# Poissons Ratio (x) = -0.01468 -0.35445
# Poissons Ratio (y) = -0.01253 0.02469
# Poissons Ratio (z) = -1.10582 0.09023
#
# Static dielectric constant tensor:
#      x y z
#    x 1.946860 0.000000 -0.026890 
#    y 0.000000 1.961070 0.000000 
#    z -0.026890 0.000000 2.012320 
# 
# From -- ./inp_files/359942.got.cif
#   From: 2010.05.17/outbox.cif.g08.bks.cpg/sg12_180_cif.got.tgz:359942.got - 2010.06.03 13:09:07.
