data_PCOD9175852
_publ_section_title
;
Structure prediction by ZEFSAII (Michael W. Deem and Ramdas Pophale) SiO2 
 PCOD9175852
Probable space group: C 2/M
;
_chemical_formula_sum "Si O2"
_cell_formula_units_Z 64
_cell_length_a 30.650120
_cell_length_b 7.515958
_cell_length_c 11.367993
_cell_angle_alpha 90.000000
_cell_angle_beta 79.413192
_cell_angle_gamma 90.000000
_cell_volume 2574.210020
_symmetry_space_group_name_H-M "C 2/M"
_symmetry_group_IT_number 12
_symmetry_cell_setting 'monoclinic'
loop_
_space_group_symop_operation_xyz
x,y,z
-x,y,-z
-x,-y,-z
x,-y,z
1/2+x,1/2+y,z
1/2-x,1/2+y,-z
1/2-x,1/2-y,-z
1/2+x,1/2-y,z
loop_
_atom_site_type_symbol
_atom_site_label
_atom_site_fract_x
_atom_site_fract_y
_atom_site_fract_z
Si Si1 0.026990 0.712778 0.779592
Si Si2 0.437249 0.782710 0.723095
Si Si3 0.231725 0.299146 0.189854
Si Si4 0.811552 0.218337 0.295321
Si Si5 0.920075 0.715155 0.475219
Si Si6 0.683708 0.292669 0.449493
Si Si7 0.606627 0.710459 0.886268
Si Si8 0.350788 0.207842 0.888362
O O1 0.024696 0.500000 0.770713
O O2 0.055192 0.780826 0.653460
O O3 0.055918 0.748948 0.880650
O O4 0.976824 0.778288 0.788380
O O5 0.445148 0.736483 0.583536
O O6 0.389102 0.715264 0.785941
O O7 0.435474 0.000000 0.730533
O O8 0.242924 0.500000 0.146925
O O9 0.277757 0.217276 0.211656
O O10 0.203012 0.301528 0.325398
O O11 0.198194 0.215634 0.111433
O O12 0.799490 0.277434 0.432436
O O13 0.861089 0.273354 0.234991
O O14 0.809928 0.000000 0.299106
O O15 0.918974 0.500000 0.470394
O O16 0.869505 0.777328 0.513670
O O17 0.695303 0.500000 0.431403
O O18 0.610898 0.500000 0.891619
O O19 0.627977 0.782710 0.994120
O O20 0.345673 0.000000 0.860436
#
# Coordination Sequence:
#
# PCOD9175852 Si02
#       8
#     8   8   8   8   8   8   8   8
#     4  10  20  35  60  87 111 142 187 232 273 326
#     4   9  18  35  58  86 114 142 179 233 283 318
#     4  10  20  38  61  83 109 145 188 229 275 327
#     4   9  20  37  57  81 113 150 181 224 279 328
#     4  10  18  33  58  86 113 146 184 223 273 331
#     4  11  20  33  55  85 120 149 177 218 276 337
#     4  11  23  40  57  77 113 151 186 228 280 331
#     4  10  21  38  59  81 107 142 189 237 278 322
#
# _framework density 24.861998
#
# number of rings (size 3 to 8) (size 9 to 14) (size 15 to 20)
#    0.000    2.000    2.500    1.500    0.000    3.000 
#    0.000    5.625    0.000    1.500    0.000    0.000 
#    0.000    0.000    0.000    0.000    0.000    0.000 
#
# Total GULP energy -178888.829783 kJ/mol
# GULP energy per Si atom -5590.275931 kJ/mol
# Density = 2.480541 g / cm^3
# Si number density = 24.861998 Si / 1000 Ang^3
#
#
#
# Elastic Constant Matrix: (Units=GPa)
#
#
# Indices 1 2 3 4 5 6 
#
# 1 125.8280 2.5685 7.0177 0.0000 47.9175 0.0000
# 2 2.5685 77.2785 0.3404 0.0000 -0.5342 0.0000
# 3 7.0177 0.3404 69.0812 0.0000 33.1819 0.0000
# 4 0.0000 0.0000 0.0000 5.4455 0.0000 -1.4127
# 5 47.9175 -0.5342 33.1819 0.0000 45.8433 0.0000
# 6 0.0000 0.0000 0.0000 -1.4127 0.0000 8.0584
#
#
#
# Elastic Compliance Matrix: (Units=1/GPa)
#
#
# Indices 1 2 3 4 5 6 
#
# 1 0.017067 -0.000789 0.010490 0.000000 -0.025442 0.000000
# 2 -0.000789 0.012980 -0.000694 0.000000 0.001479 0.000000
# 3 0.010490 -0.000694 0.028642 0.000000 -0.031705 0.000000
# 4 0.000000 0.000000 0.000000 0.192389 0.000000 0.033728
# 5 -0.025442 0.001479 -0.031705 0.000000 0.071372 0.000000
# 6 0.000000 0.000000 0.000000 0.033728 0.000000 0.130006
#
#
# Mechanical properties :
#
#
# Convention : Reuss Voigt Hill
#
# Bulk Modulus (GPa) = 13.03727 32.44899 22.74313
# Shear Modulus (GPa) = 10.86935 29.35351 20.11143
#
# Velocity S-wave (km/s) = 2.09317 3.43980 2.84724
# Velocity P-wave (km/s) = 3.33122 5.37180 4.46952
#
# Compressibility (1/GPa) = 0.07670320
#
# Stress axis : x y z
#
# Youngs Moduli (GPa) = 58.59272 77.04327 34.91341
#
# Poissons Ratio (x) = 0.06081 -0.36626
# Poissons Ratio (y) = 0.04625 0.02423
# Poissons Ratio (z) = -0.61467 0.05347
#
# Static dielectric constant tensor:
#      x y z
#    x 1.994810 0.000000 0.037730 
#    y 0.000000 1.964180 0.000000 
#    z 0.037730 0.000000 1.983700 
# 
# From -- ./inp_files/187477.got.cif
#   From: 2010.05.17/outbox.cif.g08.bks.cpg/sg12_94_cif.got.tgz:187477.got - 2010.06.03 13:09:07.
