data_PCOD9175338
_publ_section_title
;
Structure prediction by ZEFSAII (Michael W. Deem and Ramdas Pophale) SiO2 
 PCOD9175338
Probable space group: C 2/M
;
_chemical_formula_sum "Si O2"
_cell_formula_units_Z 48
_cell_length_a 10.927624
_cell_length_b 27.114721
_cell_length_c 15.571007
_cell_angle_alpha 90.000000
_cell_angle_beta 153.435615
_cell_angle_gamma 90.000000
_cell_volume 2063.252984
_symmetry_space_group_name_H-M "C 2/M"
_symmetry_group_IT_number 12
_symmetry_cell_setting 'monoclinic'
loop_
_space_group_symop_operation_xyz
x,y,z
-x,y,-z
-x,-y,-z
x,-y,z
1/2+x,1/2+y,z
1/2-x,1/2+y,-z
1/2-x,1/2-y,-z
1/2+x,1/2-y,z
loop_
_atom_site_type_symbol
_atom_site_label
_atom_site_fract_x
_atom_site_fract_y
_atom_site_fract_z
Si Si1 0.330207 0.691789 0.705606
Si Si2 0.668937 0.404669 0.191165
Si Si3 0.853149 0.135054 0.241265
Si Si4 0.884203 0.394868 0.654645
Si Si5 0.826347 0.302693 0.721836
Si Si6 0.727317 0.055419 0.021406
O O1 0.400538 0.649928 0.818733
O O2 0.459828 0.672335 0.698152
O O3 0.429004 0.747014 0.786405
O O4 0.000000 0.692185 0.500000
O O5 0.536682 0.440762 0.177178
O O6 0.976986 0.406960 0.350139
O O7 0.500000 0.414598 0.000000
O O8 0.060211 0.105733 0.435268
O O9 0.658318 0.168228 0.178902
O O10 0.735406 0.094739 0.102532
O O11 0.948915 0.338661 0.726274
O O12 0.016520 0.427900 0.813262
O O13 0.500000 0.299356 0.500000
O O14 0.666354 0.000000 0.009467
#
# Coordination Sequence:
#
# PCOD9175338 Si02
#       6
#     8   8   8   8   8   8
#     4  10  18  32  59  85 116 160 193 230 285 343
#     4   9  19  35  54  84 118 146 190 245 286 337
#     4  10  21  39  59  87 125 151 195 245 280 347
#     4  10  20  38  59  82 122 154 189 240 293 343
#     4   9  21  34  57  89 117 158 198 228 282 351
#     4  10  23  41  62  87 112 149 200 252 301 341
#
# _framework density 23.264234999999999
#
# number of rings (size 3 to 8) (size 9 to 14) (size 15 to 20)
#    0.000    2.333    1.667    0.000    2.333    6.333 
#    3.000    5.000    0.000    3.000    0.000    0.000 
#    0.000    0.000    0.000    0.000    0.000    0.000 
#
# Total GULP energy -134005.020876 kJ/mol
# GULP energy per Si atom -5583.542536 kJ/mol
# Density = 2.321128 g / cm^3
# Si number density = 23.264235 Si / 1000 Ang^3
#
#
#
# Elastic Constant Matrix: (Units=GPa)
#
#
# Indices 1 2 3 4 5 6 
#
# 1 114.9753 38.4240 27.9301 0.0003 -9.4382 0.0004
# 2 38.4240 159.2336 39.8700 0.0001 -12.0297 -0.0004
# 3 27.9301 39.8700 75.7016 0.0003 -8.9458 0.0011
# 4 0.0003 0.0001 0.0003 16.6840 0.0004 -4.8297
# 5 -9.4382 -12.0297 -8.9458 0.0004 34.0371 0.0006
# 6 0.0004 -0.0004 0.0011 -4.8297 0.0006 -18.6217
#
#
#
# Elastic Compliance Matrix: (Units=1/GPa)
#
#
# Indices 1 2 3 4 5 6 
#
# 1 0.010013 -0.001638 -0.002654 0.000000 0.001500 0.000000
# 2 -0.001638 0.007588 -0.003229 0.000000 0.001379 0.000000
# 3 -0.002654 -0.003229 0.016170 0.000000 0.002373 0.000001
# 4 0.000000 0.000000 0.000000 0.055752 0.000000 -0.014460
# 5 0.001500 0.001379 0.002373 0.000000 0.030907 0.000001
# 6 0.000000 0.000000 0.000001 -0.014460 0.000001 -0.049951
#
#
# Mechanical properties :
#
#
# Convention : Reuss Voigt Hill
#
# Bulk Modulus (GPa) = 53.39586 62.48428 57.94007
# Shear Modulus (GPa) = 54.48729 22.66565 38.57647
#
# Velocity S-wave (km/s) = 4.84478 3.12472 4.07650
# Velocity P-wave (km/s) = 7.36869 6.31944 6.86414
#
# Compressibility (1/GPa) = 0.01872804
#
# Stress axis : x y z
#
# Youngs Moduli (GPa) = 99.87104 131.78532 61.84264
#
# Poissons Ratio (x) = 0.21590 0.16414
# Poissons Ratio (y) = 0.16362 0.19969
# Poissons Ratio (z) = 0.26507 0.42554
#
# Static dielectric constant tensor:
#      x y z
#    x 1.946370 0.000000 0.058510 
#    y 0.000000 1.824560 0.000000 
#    z 0.058510 0.000000 1.978870 
# 
# From -- ./inp_files/50618.got.cif
#   From: 2010.05.17/outbox.cif.g08.bks.cpg/sg12_26_cif.got.tgz:50618.got - 2010.06.03 13:09:07.
