data_PCOD9175111
_publ_section_title
;
Structure prediction by ZEFSAII (Michael W. Deem and Ramdas Pophale) SiO2 
 PCOD9175111
Probable space group: C 2/M
;
_chemical_formula_sum "Si O2"
_cell_formula_units_Z 64
_cell_length_a 20.427901
_cell_length_b 7.434342
_cell_length_c 22.202066
_cell_angle_alpha 90.000000
_cell_angle_beta 62.085470
_cell_angle_gamma 90.000000
_cell_volume 2979.466082
_symmetry_space_group_name_H-M "C 2/M"
_symmetry_group_IT_number 12
_symmetry_cell_setting 'monoclinic'
loop_
_space_group_symop_operation_xyz
x,y,z
-x,y,-z
-x,-y,-z
x,-y,z
1/2+x,1/2+y,z
1/2-x,1/2+y,-z
1/2-x,1/2-y,-z
1/2+x,1/2-y,z
loop_
_atom_site_type_symbol
_atom_site_label
_atom_site_fract_x
_atom_site_fract_y
_atom_site_fract_z
Si Si1 0.449060 0.219931 0.653770
Si Si2 0.920820 0.780123 0.058815
Si Si3 0.713719 0.791062 0.640259
Si Si4 0.770812 0.785467 0.059444
Si Si5 0.160013 0.216318 0.788488
Si Si6 0.689064 0.219082 0.209970
Si Si7 0.885015 0.280207 0.424791
Si Si8 0.622795 0.795543 0.436104
O O1 0.387166 0.280781 0.727700
O O2 0.532822 0.270405 0.631902
O O3 0.425621 0.283342 0.596956
O O4 0.446375 0.000000 0.653496
O O5 0.851663 0.721256 0.046825
O O6 0.900423 0.725212 0.136079
O O7 0.921816 0.000000 0.057994
O O8 0.000000 0.719531 0.000000
O O9 0.657878 0.776517 0.720538
O O10 0.676926 0.717497 0.595305
O O11 0.791835 0.700782 0.621609
O O12 0.731101 0.000000 0.623917
O O13 0.709252 0.721120 0.133811
O O14 0.773751 0.000000 0.065261
O O15 0.750000 0.750000 0.000000
O O16 0.240037 0.272884 0.780501
O O17 0.158866 0.000000 0.788441
O O18 0.687041 0.000000 0.211424
O O19 0.880339 0.500000 0.426570
O O20 0.876949 0.216835 0.497002
O O21 0.595571 0.000000 0.455506
#
# Coordination Sequence:
#
# PCOD9175111 Si02
#       8
#     8   8   8   8   8   8   8   8
#     4   9  15  28  52  75  93 117 162 210 239 269
#     4   8  15  30  53  76  97 125 163 205 240 275
#     4  11  21  32  46  71 106 132 153 190 251 300
#     4   9  17  30  49  73 100 126 159 196 237 284
#     4   9  16  31  54  75  92 123 173 207 227 272
#     4   8  14  27  49  73  91 119 163 203 230 267
#     4   9  19  31  45  73 103 124 153 203 251 286
#     4  10  18  32  56  75  88 120 172 208 232 278
#
# _framework density 21.480359
#
# number of rings (size 3 to 8) (size 9 to 14) (size 15 to 20)
#    0.000    2.875    1.250    2.625    0.000    1.500 
#    2.250    3.125    0.000    3.750    0.000    0.000 
#    0.000    0.000    0.000    0.000    0.000    0.000 
#
# Total GULP energy -178575.683918 kJ/mol
# GULP energy per Si atom -5580.490122 kJ/mol
# Density = 2.143147 g / cm^3
# Si number density = 21.480359 Si / 1000 Ang^3
#
#
#
# Elastic Constant Matrix: (Units=GPa)
#
#
# Indices 1 2 3 4 5 6 
#
# 1 42.8264 -1.2428 5.3688 0.0003 3.4756 0.0009
# 2 -1.2428 67.7166 -3.6180 0.0009 -1.3745 0.0013
# 3 5.3688 -3.6180 110.1750 0.0003 -0.5470 0.0013
# 4 0.0003 0.0009 0.0003 10.1129 0.0003 5.8635
# 5 3.4756 -1.3745 -0.5470 0.0003 36.8178 0.0003
# 6 0.0009 0.0013 0.0013 5.8635 0.0003 -2.2977
#
#
#
# Elastic Compliance Matrix: (Units=1/GPa)
#
#
# Indices 1 2 3 4 5 6 
#
# 1 0.023686 0.000328 -0.001155 -0.000002 -0.002241 0.000003
# 2 0.000328 0.014809 0.000473 -0.000003 0.000529 0.000002
# 3 -0.001155 0.000473 0.009150 -0.000001 0.000263 0.000002
# 4 -0.000002 -0.000003 -0.000001 0.039879 -0.000001 0.101766
# 5 -0.002241 0.000529 0.000263 -0.000001 0.027396 0.000000
# 6 0.000003 0.000002 0.000002 0.101766 0.000000 -0.175519
#
#
# Mechanical properties :
#
#
# Convention : Reuss Voigt Hill
#
# Bulk Modulus (GPa) = 21.30509 24.63709 22.97109
# Shear Modulus (GPa) = -113.00678 23.60726 -44.69976
#
# Velocity S-wave (km/s) = -7.26110 3.31874 -4.56670
# Velocity P-wave (km/s) = 7.76905 5.11662 4.13390
#
# Compressibility (1/GPa) = 0.04693713
#
# Stress axis : x y z
#
# Youngs Moduli (GPa) = 42.21865 67.52442 109.29478
#
# Poissons Ratio (x) = -0.02212 0.12619
# Poissons Ratio (y) = -0.01383 -0.05170
# Poissons Ratio (z) = 0.04874 -0.03194
#
# Static dielectric constant tensor:
#      x y z
#    x 1.735780 0.000000 0.003600 
#    y 0.000000 1.825850 0.000000 
#    z 0.003600 0.000000 1.796970 
# 
# From -- ./inp_files/345523.got.cif
#   From: 2010.05.17/outbox.cif.g08.bks.cpg/sg12_173_cif.got.tgz:345523.got - 2010.06.03 13:09:07.
