data_PCOD9175945
_publ_section_title
;
Structure prediction by ZEFSAII (Michael W. Deem and Ramdas Pophale) SiO2 
 PCOD9175945
Probable space group: C 2/M
;
_chemical_formula_sum "Si O2"
_cell_formula_units_Z 56
_cell_length_a 16.632614
_cell_length_b 18.147323
_cell_length_c 8.487186
_cell_angle_alpha 90.000000
_cell_angle_beta 96.763723
_cell_angle_gamma 90.000000
_cell_volume 2543.921241
_symmetry_space_group_name_H-M "C 2/M"
_symmetry_group_IT_number 12
_symmetry_cell_setting 'monoclinic'
loop_
_space_group_symop_operation_xyz
x,y,z
-x,y,-z
-x,-y,-z
x,-y,z
1/2+x,1/2+y,z
1/2-x,1/2+y,-z
1/2-x,1/2-y,-z
1/2+x,1/2-y,z
loop_
_atom_site_type_symbol
_atom_site_label
_atom_site_fract_x
_atom_site_fract_y
_atom_site_fract_z
Si Si1 0.076900 0.912200 0.396976
Si Si2 0.015891 0.192889 0.836958
Si Si3 0.606612 0.910737 0.192327
Si Si4 0.678847 0.911778 0.868337
Si Si5 0.737604 0.583459 0.614988
Si Si6 0.658992 0.582644 0.944851
Si Si7 0.959304 0.340056 0.323935
O O1 0.161765 0.888128 0.496319
O O2 0.000000 0.905908 0.500000
O O3 0.054619 0.858919 0.248260
O O4 0.081632 0.000000 0.359401
O O5 0.087665 0.137934 0.897353
O O6 0.039385 0.253872 0.715965
O O7 0.000000 0.231775 0.000000
O O8 0.673978 0.882250 0.334486
O O9 0.519317 0.880999 0.216169
O O10 0.606494 0.000000 0.198904
O O11 0.635968 0.890493 0.023928
O O12 0.630200 0.872007 0.720100
O O13 0.672879 0.000000 0.850195
O O14 0.773413 0.894318 0.912872
O O15 0.751186 0.500000 0.558154
O O16 0.704437 0.578017 0.786593
O O17 0.629961 0.500000 0.975688
O O18 0.000000 0.354035 0.500000
#
# Coordination Sequence:
#
# PCOD9175945 Si02
#       7
#     8   8   8   8   8   8   8
#     4  10  18  33  60  88 119 156 194 237 289 346
#     4  12  25  39  57  82 121 160 202 241 286 342
#     4   9  18  37  65  91 116 148 191 241 290 349
#     4   9  19  39  68  93 114 148 192 239 293 352
#     4   8  15  31  60  92 116 146 187 234 287 343
#     4   9  18  36  64  93 117 148 194 240 288 347
#     4  12  26  41  57  83 119 160 199 240 294 349
#
# _framework density 22.013261
#
# number of rings (size 3 to 8) (size 9 to 14) (size 15 to 20)
#    0.000    2.143    1.429    4.286    0.000    4.000 
#    2.571    0.714    0.000    0.000    0.000    0.000 
#    0.000    0.000    0.000    0.000    0.000    0.000 
#
# Total GULP energy -156332.138953 kJ/mol
# GULP energy per Si atom -5583.290677 kJ/mol
# Density = 2.196316 g / cm^3
# Si number density = 22.013261 Si / 1000 Ang^3
#
#
#
# Elastic Constant Matrix: (Units=GPa)
#
#
# Indices 1 2 3 4 5 6 
#
# 1 59.6841 20.4951 25.5584 0.0000 42.2475 0.0000
# 2 20.4951 33.5527 27.8665 0.0000 24.6735 0.0000
# 3 25.5584 27.8665 112.5268 0.0000 42.8468 0.0000
# 4 0.0000 0.0000 0.0000 31.6244 0.0000 -2.8661
# 5 42.2475 24.6735 42.8468 0.0000 52.4692 0.0000
# 6 0.0000 0.0000 0.0000 -2.8661 0.0000 -2.9872
#
#
#
# Elastic Compliance Matrix: (Units=1/GPa)
#
#
# Indices 1 2 3 4 5 6 
#
# 1 0.040771 -0.002923 0.004992 0.000000 -0.035531 0.000000
# 2 -0.002923 0.047420 -0.005057 0.000000 -0.015816 0.000000
# 3 0.004992 -0.005057 0.013976 0.000000 -0.013055 0.000000
# 4 0.000000 0.000000 0.000000 0.029092 0.000000 -0.027912
# 5 -0.035531 -0.015816 -0.013055 0.000000 0.065766 0.000000
# 6 0.000000 0.000000 0.000000 -0.027912 0.000000 -0.307985
#
#
# Mechanical properties :
#
#
# Convention : Reuss Voigt Hill
#
# Bulk Modulus (GPa) = 10.39581 39.28930 24.84255
# Shear Modulus (GPa) = -68.56632 25.01087 -21.77773
#
# Velocity S-wave (km/s) = -5.58707 3.37437 -3.14873
# Velocity P-wave (km/s) = 6.07352 5.75053 1.38186
#
# Compressibility (1/GPa) = 0.09619263
#
# Stress axis : x y z
#
# Youngs Moduli (GPa) = 24.52717 21.08824 71.55108
#
# Poissons Ratio (x) = 0.06163 -0.35721
# Poissons Ratio (y) = 0.07168 0.36184
# Poissons Ratio (z) = -0.12245 0.10664
#
# Static dielectric constant tensor:
#      x y z
#    x 1.825600 0.000000 -0.023180 
#    y 0.000000 1.767270 0.000000 
#    z -0.023180 0.000000 1.849200 
# 
# From -- ./inp_files/75966.got.cif
#   From: 2010.05.17/outbox.cif.g08.bks.cpg/sg12_38_cif.got.tgz:75966.got - 2010.06.03 13:09:07.
