data_PCOD9175853
_publ_section_title
;
Structure prediction by ZEFSAII (Michael W. Deem and Ramdas Pophale) SiO2 
 PCOD9175853
Probable space group: C 2/M
;
_chemical_formula_sum "Si O2"
_cell_formula_units_Z 56
_cell_length_a 14.994222
_cell_length_b 13.746795
_cell_length_c 18.390789
_cell_angle_alpha 90.000000
_cell_angle_beta 52.630166
_cell_angle_gamma 90.000000
_cell_volume 3012.643253
_symmetry_space_group_name_H-M "C 2/M"
_symmetry_group_IT_number 12
_symmetry_cell_setting 'monoclinic'
loop_
_space_group_symop_operation_xyz
x,y,z
-x,y,-z
-x,-y,-z
x,-y,z
1/2+x,1/2+y,z
1/2-x,1/2+y,-z
1/2-x,1/2-y,-z
1/2+x,1/2-y,z
loop_
_atom_site_type_symbol
_atom_site_label
_atom_site_fract_x
_atom_site_fract_y
_atom_site_fract_z
Si Si1 0.621576 0.112837 0.870994
Si Si2 0.155217 0.895576 0.320884
Si Si3 0.446720 0.889012 0.315176
Si Si4 0.069303 0.708980 0.121703
Si Si5 0.733196 0.385974 0.054613
Si Si6 0.509617 0.234928 0.581978
Si Si7 0.183997 0.892704 0.473338
O O1 0.714221 0.114854 0.761279
O O2 0.520370 0.183657 0.898357
O O3 0.695980 0.134459 0.905886
O O4 0.580963 0.000000 0.896050
O O5 0.133403 0.900830 0.417464
O O6 0.087613 0.800859 0.334037
O O7 0.119884 0.000000 0.305591
O O8 0.504212 0.820938 0.226958
O O9 0.491891 0.863761 0.372679
O O10 0.314002 0.875211 0.392832
O O11 0.465946 0.000000 0.283255
O O12 0.125403 0.815762 0.099593
O O13 0.177409 0.640751 0.052498
O O14 0.705141 0.500000 0.068375
O O15 0.500000 0.219351 0.500000
O O16 0.619692 0.302670 0.540419
O O17 0.170613 0.000000 0.515219
#
# Coordination Sequence:
#
# PCOD9175853 Si02
#       7
#     8   8   8   8   8   8   8
#     4  10  18  33  58  86 114 145 188 234 274 324
#     4   9  16  29  51  78 104 131 171 222 273 319
#     4  11  21  34  52  74 102 141 184 221 265 327
#     4  11  21  36  60  84 114 148 184 226 282 335
#     4  10  22  37  58  89 117 144 184 233 280 329
#     4  10  20  32  49  74 105 139 174 223 275 325
#     4   9  17  31  51  75 101 131 172 221 268 318
#
# _framework density 18.588328000000001
#
# number of rings (size 3 to 8) (size 9 to 14) (size 15 to 20)
#    0.000    2.000    1.429    3.429    0.000    3.143 
#    0.000    0.714    0.000   12.000    0.000    0.000 
#    0.000    0.000    0.000    0.000    0.000    0.000 
#
# Total GULP energy -155905.026587 kJ/mol
# GULP energy per Si atom -5568.036664 kJ/mol
# Density = 1.854602 g / cm^3
# Si number density = 18.588328 Si / 1000 Ang^3
#
#
#
# Elastic Constant Matrix: (Units=GPa)
#
#
# Indices 1 2 3 4 5 6 
#
# 1 75.7905 51.2636 20.8553 0.0000 -9.0714 0.0000
# 2 51.2636 85.0514 23.6427 0.0000 -12.3830 0.0000
# 3 20.8553 23.6427 51.0203 0.0000 -17.2954 0.0000
# 4 0.0000 0.0000 0.0000 16.4147 0.0000 -0.7658
# 5 -9.0714 -12.3830 -17.2954 0.0000 28.0888 0.0000
# 6 0.0000 0.0000 0.0000 -0.7658 0.0000 22.5629
#
#
#
# Elastic Compliance Matrix: (Units=1/GPa)
#
#
# Indices 1 2 3 4 5 6 
#
# 1 0.022778 -0.012816 -0.003531 0.000000 -0.000467 0.000000
# 2 -0.012816 0.020865 -0.003431 0.000000 0.002947 0.000000
# 3 -0.003531 -0.003431 0.027467 0.000000 0.014260 0.000000
# 4 0.000000 0.000000 0.000000 0.061018 0.000000 0.002071
# 5 -0.000467 0.002947 0.014260 0.000000 0.045530 0.000000
# 6 0.000000 0.000000 0.000000 0.002071 0.000000 0.044391
#
#
# Mechanical properties :
#
#
# Convention : Reuss Voigt Hill
#
# Bulk Modulus (GPa) = 31.69058 44.82058 38.25558
# Shear Modulus (GPa) = 18.37405 21.15331 19.76368
#
# Velocity S-wave (km/s) = 3.14741 3.37707 3.26426
# Velocity P-wave (km/s) = 5.50399 6.27461 5.90189
#
# Compressibility (1/GPa) = 0.03155512
#
# Stress axis : x y z
#
# Youngs Moduli (GPa) = 43.90130 47.92692 36.40707
#
# Poissons Ratio (x) = 0.61423 0.12854
# Poissons Ratio (y) = 0.56264 0.12492
# Poissons Ratio (z) = 0.15500 0.16445
#
# Static dielectric constant tensor:
#      x y z
#    x 1.692800 0.000000 0.013580 
#    y 0.000000 1.666970 0.000000 
#    z 0.013580 0.000000 1.667000 
# 
# From -- ./inp_files/270170.got.cif
#   From: 2010.05.17/outbox.cif.g08.bks.cpg/sg12_136_cif.got.tgz:270170.got - 2010.06.03 13:09:07.
