data_PCOD9175946
_publ_section_title
;
Structure prediction by ZEFSAII (Michael W. Deem and Ramdas Pophale) SiO2 
 PCOD9175946
Probable space group: C 2/M
;
_chemical_formula_sum "Si O2"
_cell_formula_units_Z 48
_cell_length_a 20.777360
_cell_length_b 7.706966
_cell_length_c 24.815755
_cell_angle_alpha 90.000000
_cell_angle_beta 144.212663
_cell_angle_gamma 90.000000
_cell_volume 2323.767258
_symmetry_space_group_name_H-M "C 2/M"
_symmetry_group_IT_number 12
_symmetry_cell_setting 'monoclinic'
loop_
_space_group_symop_operation_xyz
x,y,z
-x,y,-z
-x,-y,-z
x,-y,z
1/2+x,1/2+y,z
1/2-x,1/2+y,-z
1/2-x,1/2-y,-z
1/2+x,1/2-y,z
loop_
_atom_site_type_symbol
_atom_site_label
_atom_site_fract_x
_atom_site_fract_y
_atom_site_fract_z
Si Si1 0.751860 0.289684 0.237872
Si Si2 0.113334 0.786774 0.249908
Si Si3 0.725234 0.208412 0.544861
Si Si4 0.494039 0.788170 0.433636
Si Si5 0.393427 0.203172 0.959216
Si Si6 0.371768 0.304976 0.065649
O O1 0.749585 0.500000 0.235565
O O2 0.676127 0.234923 0.237324
O O3 0.877114 0.231714 0.331125
O O4 0.704509 0.223971 0.149529
O O5 0.184178 0.730784 0.349959
O O6 0.112519 0.000000 0.248595
O O7 0.987004 0.721508 0.163780
O O8 0.750000 0.250000 0.500000
O O9 0.603742 0.272795 0.478375
O O10 0.723371 0.000000 0.549004
O O11 0.500000 0.737778 0.500000
O O12 0.493930 0.000000 0.431977
O O13 0.376510 0.295334 0.004206
O O14 0.411024 0.000000 0.983207
O O15 0.500000 0.271828 0.000000
O O16 0.379767 0.500000 0.091073
O O17 0.250000 0.250000 0.000000
#
# Coordination Sequence:
#
# PCOD9175946 Si02
#       6
#     8   8   8   8   8   8
#     4  10  18  33  60  89 111 144 193 239 282 337
#     4   9  18  34  59  83 109 148 190 230 283 342
#     4  10  20  36  56  83 115 148 183 227 280 337
#     4   9  16  30  57  86 108 136 186 238 275 323
#     4  11  23  38  57  85 118 151 190 241 289 336
#     4  11  23  40  61  86 116 154 195 239 288 344
#
# _framework density 20.656113999999999
#
# number of rings (size 3 to 8) (size 9 to 14) (size 15 to 20)
#    0.000    2.000    3.333    1.000    0.000    2.000 
#    0.000    6.667    0.000    1.000    0.000    0.000 
#    0.000    0.000    0.000    0.000    0.000    0.000 
#
# Total GULP energy -133980.031362 kJ/mol
# GULP energy per Si atom -5582.501307 kJ/mol
# Density = 2.060910 g / cm^3
# Si number density = 20.656114 Si / 1000 Ang^3
#
#
#
# Elastic Constant Matrix: (Units=GPa)
#
#
# Indices 1 2 3 4 5 6 
#
# 1 118.2522 -3.5459 64.0709 0.0000 31.7591 -0.0001
# 2 -3.5459 30.6592 -2.3607 0.0000 10.2162 0.0000
# 3 64.0709 -2.3607 183.9322 0.0000 27.2870 0.0000
# 4 0.0000 0.0000 0.0000 6.9011 0.0000 5.9260
# 5 31.7591 10.2162 27.2870 0.0000 39.1845 0.0000
# 6 -0.0001 0.0000 0.0000 5.9260 0.0000 10.4195
#
#
#
# Elastic Compliance Matrix: (Units=1/GPa)
#
#
# Indices 1 2 3 4 5 6 
#
# 1 0.012721 0.004363 -0.002985 0.000000 -0.009369 0.000000
# 2 0.004363 0.037925 0.001069 0.000000 -0.014169 0.000000
# 3 -0.002985 0.001069 0.006884 0.000000 -0.002653 0.000000
# 4 0.000000 0.000000 0.000000 0.283231 0.000000 -0.161087
# 5 -0.009369 -0.014169 -0.002653 0.000000 0.038656 0.000000
# 6 0.000000 0.000000 0.000000 -0.161087 0.000000 0.187592
#
#
# Mechanical properties :
#
#
# Convention : Reuss Voigt Hill
#
# Bulk Modulus (GPa) = 16.01954 49.90799 32.96377
# Shear Modulus (GPa) = 8.57746 29.61296 19.09521
#
# Velocity S-wave (km/s) = 2.03998 3.79042 3.04375
# Velocity P-wave (km/s) = 3.64978 6.58561 5.32405
#
# Compressibility (1/GPa) = 0.06242375
#
# Stress axis : x y z
#
# Youngs Moduli (GPa) = 78.60923 26.36794 145.26508
#
# Poissons Ratio (x) = -0.11505 0.43366
# Poissons Ratio (y) = -0.34301 -0.15526
# Poissons Ratio (z) = 0.23467 -0.02818
#
# Static dielectric constant tensor:
#      x y z
#    x 1.694050 0.000000 0.040030 
#    y 0.000000 1.780950 0.000000 
#    z 0.040030 0.000000 1.771250 
# 
# From -- ./inp_files/365576.got.cif
#   From: 2010.05.17/outbox.cif.g08.bks.cpg/sg12_183_cif.got.tgz:365576.got - 2010.06.03 13:09:07.
