data_PCOD9175910
_publ_section_title
;
Structure prediction by ZEFSAII (Michael W. Deem and Ramdas Pophale) SiO2 
 PCOD9175910
Probable space group: C 2/M
;
_chemical_formula_sum "Si O2"
_cell_formula_units_Z 64
_cell_length_a 29.499700
_cell_length_b 7.727322
_cell_length_c 15.316518
_cell_angle_alpha 90.000000
_cell_angle_beta 50.203379
_cell_angle_gamma 90.000000
_cell_volume 2682.560420
_symmetry_space_group_name_H-M "C 2/M"
_symmetry_group_IT_number 12
_symmetry_cell_setting 'monoclinic'
loop_
_space_group_symop_operation_xyz
x,y,z
-x,y,-z
-x,-y,-z
x,-y,z
1/2+x,1/2+y,z
1/2-x,1/2+y,-z
1/2-x,1/2-y,-z
1/2+x,1/2-y,z
loop_
_atom_site_type_symbol
_atom_site_label
_atom_site_fract_x
_atom_site_fract_y
_atom_site_fract_z
Si Si1 0.192570 0.795582 0.016243
Si Si2 0.642622 0.209973 0.399137
Si Si3 0.018356 0.701148 0.629038
Si Si4 0.641420 0.206984 0.906627
Si Si5 0.104266 0.797238 0.264465
Si Si6 0.983370 0.288468 0.864131
Si Si7 0.609022 0.210972 0.762458
Si Si8 0.693979 0.792545 0.510083
O O1 0.136807 0.721015 0.139134
O O2 0.186382 0.000000 0.026757
O O3 0.250000 0.750000 0.000000
O O4 0.190725 0.745738 0.917423
O O5 0.578051 0.270988 0.513405
O O6 0.646428 0.273592 0.295737
O O7 0.688637 0.269251 0.416837
O O8 0.643847 0.000000 0.392716
O O9 0.032110 0.500000 0.628235
O O10 0.959656 0.713567 0.643126
O O11 0.998461 0.773037 0.747640
O O12 0.645019 0.271336 0.802940
O O13 0.637624 0.000000 0.905874
O O14 0.579150 0.273107 0.022808
O O15 0.093339 0.000000 0.266258
O O16 0.980267 0.500000 0.866949
O O17 0.040410 0.241235 0.851202
O O18 0.638366 0.269556 0.636192
O O19 0.610808 0.000000 0.758392
O O20 0.750000 0.750000 0.500000
O O21 0.690603 0.000000 0.509096
#
# Coordination Sequence:
#
# PCOD9175910 Si02
#       8
#     8   8   8   8   8   8   8   8
#     4  11  25  43  60  79 109 148 191 237 283 334
#     4  10  21  37  59  85 114 151 192 230 273 330
#     4  10  18  33  59  87 115 148 187 228 273 331
#     4  10  19  33  60  91 115 143 180 226 281 334
#     4  11  24  39  57  84 116 147 183 232 289 338
#     4   9  15  28  55  88 116 143 179 222 269 327
#     4   9  17  32  56  87 117 144 180 227 274 326
#     4  10  21  38  57  79 111 148 188 232 275 323
#
# _framework density 23.857804000000002
#
# number of rings (size 3 to 8) (size 9 to 14) (size 15 to 20)
#    0.000    2.000    2.500    1.500    0.000    6.500 
#    0.000    4.375    0.000    3.000    0.000    0.000 
#    0.000    0.000    0.000    0.000    0.000    0.000 
#
# Total GULP energy -178783.904104 kJ/mol
# GULP energy per Si atom -5586.997003 kJ/mol
# Density = 2.380350 g / cm^3
# Si number density = 23.857804 Si / 1000 Ang^3
#
#
#
# Elastic Constant Matrix: (Units=GPa)
#
#
# Indices 1 2 3 4 5 6 
#
# 1 129.4262 -11.2692 2.7004 0.0000 26.2262 0.0006
# 2 -11.2692 38.2610 -0.7554 0.0000 2.4319 0.0011
# 3 2.7004 -0.7554 20.7362 -0.0001 21.0158 0.0002
# 4 0.0000 0.0000 -0.0001 4.1638 0.0000 4.4520
# 5 26.2262 2.4319 21.0158 0.0000 44.4882 0.0002
# 6 0.0006 0.0011 0.0002 4.4520 0.0002 18.6520
#
#
#
# Elastic Compliance Matrix: (Units=1/GPa)
#
#
# Indices 1 2 3 4 5 6 
#
# 1 0.010021 0.003821 0.009656 0.000001 -0.010678 -0.000001
# 2 0.003821 0.027917 0.008343 0.000002 -0.007720 -0.000002
# 3 0.009656 0.008343 0.102645 0.000003 -0.054637 -0.000002
# 4 0.000001 0.000002 0.000003 0.322454 -0.000001 -0.076965
# 5 -0.010678 -0.007720 -0.054637 -0.000001 0.055005 0.000001
# 6 -0.000001 -0.000002 -0.000002 -0.076965 0.000001 0.071984
#
#
# Mechanical properties :
#
#
# Convention : Reuss Voigt Hill
#
# Bulk Modulus (GPa) = 5.42816 18.86390 12.14603
# Shear Modulus (GPa) = 8.22648 26.64397 17.43523
#
# Velocity S-wave (km/s) = 1.85893 3.34545 2.70626
# Velocity P-wave (km/s) = 2.62443 4.77983 3.85580
#
# Compressibility (1/GPa) = 0.18422464
#
# Stress axis : x y z
#
# Youngs Moduli (GPa) = 99.78668 35.82031 9.74231
#
# Poissons Ratio (x) = -0.13687 -0.09407
# Poissons Ratio (y) = -0.38128 -0.08128
# Poissons Ratio (z) = -0.96356 -0.29886
#
# Static dielectric constant tensor:
#      x y z
#    x 1.937800 0.000000 0.005020 
#    y 0.000000 1.895040 0.000000 
#    z 0.005020 0.000000 1.924150 
# 
# From -- ./inp_files/249724.got.cif
#   From: 2010.05.17/outbox.cif.g08.bks.cpg/sg12_125_cif.got.tgz:249724.got - 2010.06.03 13:09:07.
