data_PCOD9175006
_publ_section_title
;
Structure prediction by ZEFSAII (Michael W. Deem and Ramdas Pophale) SiO2 
 PCOD9175006
Probable space group: C 2/M
;
_chemical_formula_sum "Si O2"
_cell_formula_units_Z 56
_cell_length_a 29.073966
_cell_length_b 7.651010
_cell_length_c 20.271918
_cell_angle_alpha 90.000000
_cell_angle_beta 143.140419
_cell_angle_gamma 90.000000
_cell_volume 2704.984958
_symmetry_space_group_name_H-M "C 2/M"
_symmetry_group_IT_number 12
_symmetry_cell_setting 'monoclinic'
loop_
_space_group_symop_operation_xyz
x,y,z
-x,y,-z
-x,-y,-z
x,-y,z
1/2+x,1/2+y,z
1/2-x,1/2+y,-z
1/2-x,1/2-y,-z
1/2+x,1/2-y,z
loop_
_atom_site_type_symbol
_atom_site_label
_atom_site_fract_x
_atom_site_fract_y
_atom_site_fract_z
Si Si1 0.948615 0.708734 0.380581
Si Si2 0.373571 0.788275 0.905602
Si Si3 0.142503 0.204312 0.264579
Si Si4 0.687076 0.796490 0.550252
Si Si5 0.200478 0.207721 0.716415
Si Si6 0.986662 0.701440 0.146533
Si Si7 0.979654 0.284130 0.674155
O O1 0.959746 0.500000 0.392009
O O2 0.861045 0.743325 0.299314
O O3 0.000000 0.779326 0.500000
O O4 0.977384 0.773252 0.342913
O O5 0.379185 0.719986 0.837627
O O6 0.288038 0.742590 0.831882
O O7 0.379818 0.000000 0.907186
O O8 0.436745 0.722102 0.029544
O O9 0.229051 0.278004 0.371008
O O10 0.075842 0.293703 0.229147
O O11 0.142925 0.000000 0.282602
O O12 0.679175 0.787187 0.620752
O O13 0.608936 0.723645 0.430616
O O14 0.690303 0.000000 0.535450
O O15 0.198780 0.000000 0.705378
O O16 0.961420 0.500000 0.122214
O O17 0.981040 0.776688 0.213343
O O18 0.978465 0.500000 0.673406
#
# Coordination Sequence:
#
# PCOD9175006 Si02
#       7
#     8   8   8   8   8   8   8
#     4  10  18  32  55  77  99 129 167 204 243 297
#     4   9  19  35  53  73  99 134 171 205 242 292
#     4  10  20  32  52  78 102 129 166 211 253 291
#     4   9  17  33  52  73 101 132 166 203 247 298
#     4  10  19  31  50  77 104 127 161 208 254 290
#     4  10  20  35  53  71  98 136 173 205 242 294
#     4   9  18  33  53  74  97 132 172 203 239 299
#
# _framework density 20.702517
#
# number of rings (size 3 to 8) (size 9 to 14) (size 15 to 20)
#    0.000    2.429    1.429    1.286    0.000    4.286 
#    0.000    2.143    0.000    0.000    0.000    0.000 
#    0.000    0.000    0.000    0.000    0.000    0.000 
#
# Total GULP energy -156268.004448 kJ/mol
# GULP energy per Si atom -5581.000159 kJ/mol
# Density = 2.065540 g / cm^3
# Si number density = 20.702517 Si / 1000 Ang^3
#
#
#
# Elastic Constant Matrix: (Units=GPa)
#
#
# Indices 1 2 3 4 5 6 
#
# 1 76.7010 -8.6827 6.3683 0.0000 1.1407 0.0000
# 2 -8.6827 38.1094 -0.9406 0.0000 -3.5611 0.0000
# 3 6.3683 -0.9406 17.1360 0.0000 4.9949 0.0000
# 4 0.0000 0.0000 0.0000 4.1281 0.0000 9.4580
# 5 1.1407 -3.5611 4.9949 0.0000 16.2812 0.0000
# 6 0.0000 0.0000 0.0000 9.4580 0.0000 17.7896
#
#
#
# Elastic Compliance Matrix: (Units=1/GPa)
#
#
# Indices 1 2 3 4 5 6 
#
# 1 0.013818 0.003143 -0.005360 0.000000 0.001364 0.000000
# 2 0.003143 0.027504 -0.001480 0.000000 0.006250 0.000000
# 3 -0.005360 -0.001480 0.066170 0.000000 -0.020249 0.000000
# 4 0.000000 0.000000 0.000000 -1.110685 0.000000 0.590504
# 5 0.001364 0.006250 -0.020249 0.000000 0.068904 0.000000
# 6 0.000000 0.000000 0.000000 0.590504 0.000000 -0.257733
#
#
# Mechanical properties :
#
#
# Convention : Reuss Voigt Hill
#
# Bulk Modulus (GPa) = 9.99025 13.93736 11.96380
# Shear Modulus (GPa) = -4.34306 16.65319 6.15507
#
# Velocity S-wave (km/s) = -1.44996 2.83928 1.72614
# Velocity P-wave (km/s) = 1.42580 4.18276 3.12477
#
# Compressibility (1/GPa) = 0.10009761
#
# Stress axis : x y z
#
# Youngs Moduli (GPa) = 72.36797 36.35843 15.11266
#
# Poissons Ratio (x) = -0.11429 0.08101
# Poissons Ratio (y) = -0.22749 0.02237
# Poissons Ratio (z) = 0.38792 0.05382
#
# Static dielectric constant tensor:
#      x y z
#    x 1.725830 0.000000 0.009520 
#    y 0.000000 1.779820 0.000000 
#    z 0.009520 0.000000 1.751840 
# 
# From -- ./inp_files/288178.got.cif
#   From: 2010.05.17/outbox.cif.g08.bks.cpg/sg12_145_cif.got.tgz:288178.got - 2010.06.03 13:09:07.
