data_PCOD9175660
_publ_section_title
;
Structure prediction by ZEFSAII (Michael W. Deem and Ramdas Pophale) SiO2 
 PCOD9175660
Probable space group: C 2/M
;
_chemical_formula_sum "Si O2"
_cell_formula_units_Z 56
_cell_length_a 25.792903
_cell_length_b 8.448500
_cell_length_c 15.602001
_cell_angle_alpha 90.000000
_cell_angle_beta 74.308968
_cell_angle_gamma 90.000000
_cell_volume 3273.154343
_symmetry_space_group_name_H-M "C 2/M"
_symmetry_group_IT_number 12
_symmetry_cell_setting 'monoclinic'
loop_
_space_group_symop_operation_xyz
x,y,z
-x,y,-z
-x,-y,-z
x,-y,z
1/2+x,1/2+y,z
1/2-x,1/2+y,-z
1/2-x,1/2-y,-z
1/2+x,1/2-y,z
loop_
_atom_site_type_symbol
_atom_site_label
_atom_site_fract_x
_atom_site_fract_y
_atom_site_fract_z
Si Si1 0.326583 0.809288 0.906159
Si Si2 0.399140 0.191641 0.718680
Si Si3 0.803191 0.808603 0.286452
Si Si4 0.374303 0.810682 0.406839
Si Si5 0.706747 0.309227 0.902225
Si Si6 0.183802 0.692774 0.394318
Si Si7 0.009036 0.189319 0.594157
O O1 0.373276 0.757399 0.820543
O O2 0.268507 0.758171 0.893642
O O3 0.326450 0.000000 0.906967
O O4 0.328494 0.749771 0.002456
O O5 0.357892 0.240548 0.661447
O O6 0.457732 0.257286 0.671929
O O7 0.401418 0.000000 0.716736
O O8 0.848448 0.750615 0.330971
O O9 0.810016 0.755911 0.184931
O O10 0.744278 0.754855 0.346001
O O11 0.802873 0.000000 0.286750
O O12 0.338271 0.753634 0.503864
O O13 0.435086 0.755589 0.395328
O O14 0.372996 0.000000 0.407673
O O15 0.706557 0.500000 0.902896
O O16 0.184418 0.500000 0.393941
O O17 0.000000 0.245474 0.500000
O O18 0.012016 0.000000 0.591741
#
# Coordination Sequence:
#
# PCOD9175660 Si02
#       7
#     8   8   8   8   8   8   8
#     4   9  17  30  51  78 105 135 172 213 256 304
#     4  10  18  33  56  78 104 139 175 212 258 308
#     4  10  19  34  53  75 108 145 175 210 257 310
#     4  11  22  35  53  76 103 141 182 217 255 304
#     4   9  17  30  50  75 106 141 171 205 257 312
#     4   9  17  31  52  76 105 140 174 207 253 310
#     4  11  23  37  53  76 104 136 175 220 263 303
#
# _framework density 17.108878000000001
#
# number of rings (size 3 to 8) (size 9 to 14) (size 15 to 20)
#    0.000    2.143    2.857    1.286    0.000    1.714 
#    0.000    1.429    0.000    0.857    0.000    6.000 
#    0.000    0.000    0.000    0.000    0.000    0.000 
#
# Total GULP energy -156245.236227 kJ/mol
# GULP energy per Si atom -5580.187008 kJ/mol
# Density = 1.706994 g / cm^3
# Si number density = 17.108878 Si / 1000 Ang^3
#
#
#
# Elastic Constant Matrix: (Units=GPa)
#
#
# Indices 1 2 3 4 5 6 
#
# 1 116.7381 18.2558 88.1782 0.0000 16.3084 0.0000
# 2 18.2558 14.9100 27.0496 0.0000 3.5204 0.0000
# 3 88.1782 27.0496 184.3669 0.0000 6.0675 0.0000
# 4 0.0000 0.0000 0.0000 24.4454 0.0000 0.2433
# 5 16.3084 3.5204 6.0675 0.0000 22.9415 0.0000
# 6 0.0000 0.0000 0.0000 0.2433 0.0000 11.7931
#
#
#
# Elastic Compliance Matrix: (Units=1/GPa)
#
#
# Indices 1 2 3 4 5 6 
#
# 1 0.015308 -0.005423 -0.006249 0.000000 -0.008397 0.000000
# 2 -0.005423 0.095931 -0.011221 0.000000 -0.007898 0.000000
# 3 -0.006249 -0.011221 0.009943 0.000000 0.003535 0.000000
# 4 0.000000 0.000000 0.000000 0.040916 0.000000 -0.000844
# 5 -0.008397 -0.007898 0.003535 0.000000 0.049835 0.000000
# 6 0.000000 0.000000 0.000000 -0.000844 0.000000 0.084813
#
#
# Mechanical properties :
#
#
# Convention : Reuss Voigt Hill
#
# Bulk Modulus (GPa) = 13.26350 64.77582 39.01966
# Shear Modulus (GPa) = 13.59941 24.00475 18.80208
#
# Velocity S-wave (km/s) = 2.82241 3.74981 3.31866
# Velocity P-wave (km/s) = 4.28842 7.52935 6.12706
#
# Compressibility (1/GPa) = 0.07539487
#
# Stress axis : x y z
#
# Youngs Moduli (GPa) = 65.32660 10.42421 100.57434
#
# Poissons Ratio (x) = 0.05653 0.62853
# Poissons Ratio (y) = 0.35424 1.12856
# Poissons Ratio (z) = 0.40825 0.11697
#
# Static dielectric constant tensor:
#      x y z
#    x 1.543510 0.000000 0.000460 
#    y 0.000000 1.590120 0.000000 
#    z 0.000460 0.000000 1.586480 
# 
# From -- ./inp_files/237460.got.cif
#   From: 2010.05.17/outbox.cif.g08.bks.cpg/sg12_119_cif.got.tgz:237460.got - 2010.06.03 13:09:07.
