data_PCOD9175280
_publ_section_title
;
Structure prediction by ZEFSAII (Michael W. Deem and Ramdas Pophale) SiO2 
 PCOD9175280
Probable space group: C 2/M
;
_chemical_formula_sum "Si O2"
_cell_formula_units_Z 48
_cell_length_a 8.945802
_cell_length_b 15.407294
_cell_length_c 29.850409
_cell_angle_alpha 90.000000
_cell_angle_beta 34.034027
_cell_angle_gamma 90.000000
_cell_volume 2302.712542
_symmetry_space_group_name_H-M "C 2/M"
_symmetry_group_IT_number 12
_symmetry_cell_setting 'monoclinic'
loop_
_space_group_symop_operation_xyz
x,y,z
-x,y,-z
-x,-y,-z
x,-y,z
1/2+x,1/2+y,z
1/2-x,1/2+y,-z
1/2-x,1/2-y,-z
1/2+x,1/2-y,z
loop_
_atom_site_type_symbol
_atom_site_label
_atom_site_fract_x
_atom_site_fract_y
_atom_site_fract_z
Si Si1 0.447774 0.762171 0.561861
Si Si2 0.808745 0.905494 0.312270
Si Si3 0.282880 0.159048 0.833594
Si Si4 0.694249 0.152271 0.994889
Si Si5 0.076187 0.400891 0.673628
Si Si6 0.109106 0.649052 0.844560
O O1 0.500000 0.798928 0.500000
O O2 0.294883 0.829175 0.630938
O O3 0.286503 0.671430 0.604980
O O4 0.750000 0.750000 0.500000
O O5 0.682225 0.892043 0.294475
O O6 0.126700 0.903515 0.232347
O O7 0.713930 0.000000 0.351576
O O8 0.477280 0.116694 0.748693
O O9 0.224758 0.256743 0.830744
O O10 0.419138 0.159265 0.848600
O O11 0.987318 0.116873 0.909982
O O12 0.500000 0.154333 0.000000
O O13 0.750000 0.250000 0.000000
O O14 0.548389 0.110595 0.073765
O O15 0.175528 0.500000 0.644913
#
# Coordination Sequence:
#
# PCOD9175280 Si02
#       6
#     8   8   8   8   8   8
#     4  12  26  46  73 100 128 169 217 271 334 395
#     4  11  25  45  68  99 135 174 218 272 331 395
#     4  11  21  36  62  94 133 176 222 272 326 384
#     4  10  18  32  57  92 129 175 225 271 321 381
#     4  11  25  45  69  98 134 176 220 268 331 398
#     4  11  21  36  62  94 134 175 222 272 326 385
#
# _framework density 20.84498
#
# number of rings (size 3 to 8) (size 9 to 14) (size 15 to 20)
#    0.000    1.000    3.333    6.500    2.333    2.000 
#    0.000    0.833    0.000    5.000    0.000    0.000 
#    0.000    0.000    0.000    0.000    0.000    0.000 
#
# Total GULP energy -134026.694873 kJ/mol
# GULP energy per Si atom -5584.445620 kJ/mol
# Density = 2.079754 g / cm^3
# Si number density = 20.844980 Si / 1000 Ang^3
#
#
#
# Elastic Constant Matrix: (Units=GPa)
#
#
# Indices 1 2 3 4 5 6 
#
# 1 170.1468 20.8198 35.7412 -0.0005 4.8800 0.0019
# 2 20.8198 89.3913 27.4484 0.0041 1.3341 -0.0001
# 3 35.7412 27.4484 109.9055 0.0097 2.6178 0.0042
# 4 -0.0005 0.0041 0.0097 -18.0335 0.0006 5.1271
# 5 4.8800 1.3341 2.6178 0.0006 46.1942 -0.0011
# 6 0.0019 -0.0001 0.0042 5.1271 -0.0011 8.0717
#
#
#
# Elastic Compliance Matrix: (Units=1/GPa)
#
#
# Indices 1 2 3 4 5 6 
#
# 1 0.006391 -0.000916 -0.001836 -0.000001 -0.000545 0.000000
# 2 -0.000916 0.012249 -0.002759 0.000002 -0.000101 0.000001
# 3 -0.001836 -0.002759 0.010392 0.000003 -0.000315 -0.000007
# 4 -0.000001 0.000002 0.000003 -0.046970 0.000001 0.029835
# 5 -0.000545 -0.000101 -0.000315 0.000001 0.021726 0.000002
# 6 0.000000 0.000001 -0.000007 0.029835 0.000002 0.104939
#
#
# Mechanical properties :
#
#
# Convention : Reuss Voigt Hill
#
# Bulk Modulus (GPa) = 55.52803 59.71806 57.62304
# Shear Modulus (GPa) = 39.76053 26.27541 33.01797
#
# Velocity S-wave (km/s) = 4.37216 3.55422 3.98424
# Velocity P-wave (km/s) = 7.22386 6.74939 6.99065
#
# Compressibility (1/GPa) = 0.01800892
#
# Stress axis : x y z
#
# Youngs Moduli (GPa) = 156.47486 81.64073 96.22412
#
# Poissons Ratio (x) = 0.07482 0.17671
# Poissons Ratio (y) = 0.14340 0.26545
# Poissons Ratio (z) = 0.28736 0.22522
#
# Static dielectric constant tensor:
#      x y z
#    x 1.705030 0.000000 -0.000540 
#    y 0.000000 1.777550 -0.000010 
#    z -0.000540 -0.000010 1.714390 
# 
# From -- ./inp_files/356306.got.cif
#   From: 2010.05.17/outbox.cif.g08.bks.cpg/sg12_179_cif.got.tgz:356306.got - 2010.06.03 13:09:07.
