data_PCOD9175637
_publ_section_title
;
Structure prediction by ZEFSAII (Michael W. Deem and Ramdas Pophale) SiO2 
 PCOD9175637
Probable space group: C 2/M
;
_chemical_formula_sum "Si O2"
_cell_formula_units_Z 56
_cell_length_a 8.881050
_cell_length_b 16.039446
_cell_length_c 20.388711
_cell_angle_alpha 90.000000
_cell_angle_beta 118.005799
_cell_angle_gamma 90.000000
_cell_volume 2564.218335
_symmetry_space_group_name_H-M "C 2/M"
_symmetry_group_IT_number 12
_symmetry_cell_setting 'monoclinic'
loop_
_space_group_symop_operation_xyz
x,y,z
-x,y,-z
-x,-y,-z
x,-y,z
1/2+x,1/2+y,z
1/2-x,1/2+y,-z
1/2-x,1/2-y,-z
1/2+x,1/2-y,z
loop_
_atom_site_type_symbol
_atom_site_label
_atom_site_fract_x
_atom_site_fract_y
_atom_site_fract_z
Si Si1 0.013595 0.838593 0.844668
Si Si2 0.313894 0.844163 0.994810
Si Si3 0.834146 0.092580 0.434352
Si Si4 0.803066 0.335329 0.475826
Si Si5 0.302425 0.399909 0.680772
Si Si6 0.834514 0.654179 0.143468
Si Si7 0.025876 0.597556 0.304489
O O1 0.949956 0.878236 0.763440
O O2 0.851384 0.838508 0.860749
O O3 0.173131 0.879392 0.915843
O O4 0.078418 0.745199 0.843400
O O5 0.250000 0.750000 0.000000
O O6 0.321656 0.884197 0.068401
O O7 0.000000 0.658808 0.000000
O O8 0.716100 0.092198 0.474285
O O9 0.713302 0.135262 0.355927
O O10 0.000000 0.133962 0.500000
O O11 0.887640 0.000000 0.422771
O O12 0.750000 0.250000 0.500000
O O13 0.692225 0.356602 0.388838
O O14 0.000000 0.331092 0.500000
O O15 0.296883 0.500000 0.671430
O O16 0.125787 0.370741 0.679843
O O17 0.956252 0.605041 0.217435
O O18 0.047305 0.500000 0.324150
#
# Coordination Sequence:
#
# PCOD9175637 Si02
#       7
#     8   8   8   8   8   8   8
#     4  10  20  34  59  86 116 153 195 245 293 351
#     4  10  18  33  55  85 119 156 192 236 293 354
#     4  10  21  40  61  85 118 158 201 243 295 357
#     4  12  25  40  62  91 120 156 198 250 304 358
#     4  10  22  40  62  87 117 157 205 247 296 357
#     4  10  19  34  58  86 119 151 194 243 295 344
#     4   9  19  37  61  86 115 154 201 244 293 351
#
# _framework density 21.839013000000001
#
# number of rings (size 3 to 8) (size 9 to 14) (size 15 to 20)
#    0.000    1.857    1.429    4.714    2.000    0.571 
#    5.143    0.714    0.000    4.286    0.000    0.000 
#    0.000    0.000    0.000    0.000    0.000    0.000 
#
# Total GULP energy -156155.935614 kJ/mol
# GULP energy per Si atom -5576.997700 kJ/mol
# Density = 2.178931 g / cm^3
# Si number density = 21.839013 Si / 1000 Ang^3
#
#
#
# Elastic Constant Matrix: (Units=GPa)
#
#
# Indices 1 2 3 4 5 6 
#
# 1 114.2609 13.8732 57.1986 0.0000 26.9148 0.0000
# 2 13.8732 49.8919 27.2764 0.0000 0.7814 0.0000
# 3 57.1986 27.2764 208.1406 0.0000 27.3058 0.0000
# 4 0.0000 0.0000 0.0000 20.6493 0.0000 2.2020
# 5 26.9148 0.7814 27.3058 0.0000 45.2536 0.0000
# 6 0.0000 0.0000 0.0000 2.2020 0.0000 8.0121
#
#
#
# Elastic Compliance Matrix: (Units=1/GPa)
#
#
# Indices 1 2 3 4 5 6 
#
# 1 0.011335 -0.001887 -0.002158 0.000000 -0.005407 0.000000
# 2 -0.001887 0.021992 -0.002672 0.000000 0.002355 0.000000
# 3 -0.002158 -0.002672 0.006052 0.000000 -0.002322 0.000000
# 4 0.000000 0.000000 0.000000 0.049890 0.000000 -0.013712
# 5 -0.005407 0.002355 -0.002322 0.000000 0.026674 0.000000
# 6 0.000000 0.000000 0.000000 -0.013712 0.000000 0.128580
#
#
# Mechanical properties :
#
#
# Convention : Reuss Voigt Hill
#
# Bulk Modulus (GPa) = 38.54485 63.22110 50.88298
# Shear Modulus (GPa) = 18.75414 33.04602 25.90008
#
# Velocity S-wave (km/s) = 2.93361 3.89416 3.44751
# Velocity P-wave (km/s) = 5.40024 7.01647 6.26073
#
# Compressibility (1/GPa) = 0.02594380
#
# Stress axis : x y z
#
# Youngs Moduli (GPa) = 88.22181 45.47060 165.22290
#
# Poissons Ratio (x) = 0.08581 0.35661
# Poissons Ratio (y) = 0.16649 0.44154
# Poissons Ratio (z) = 0.19041 0.12152
#
# Static dielectric constant tensor:
#      x y z
#    x 1.911430 0.000000 0.073830 
#    y 0.000000 1.834110 0.000000 
#    z 0.073830 0.000000 1.910850 
# 
# From -- ./inp_files/257203.got.cif
#   From: 2010.05.17/outbox.cif.g08.bks.cpg/sg12_129_cif.got.tgz:257203.got - 2010.06.03 13:09:07.
