data_PCOD9175112
_publ_section_title
;
Structure prediction by ZEFSAII (Michael W. Deem and Ramdas Pophale) SiO2 
 PCOD9175112
Probable space group: C 2/M
;
_chemical_formula_sum "Si O2"
_cell_formula_units_Z 56
_cell_length_a 18.614977
_cell_length_b 19.884357
_cell_length_c 8.710744
_cell_angle_alpha 90.000000
_cell_angle_beta 129.527586
_cell_angle_gamma 90.000000
_cell_volume 2486.926269
_symmetry_space_group_name_H-M "C 2/M"
_symmetry_group_IT_number 12
_symmetry_cell_setting 'monoclinic'
loop_
_space_group_symop_operation_xyz
x,y,z
-x,y,-z
-x,-y,-z
x,-y,z
1/2+x,1/2+y,z
1/2-x,1/2+y,-z
1/2-x,1/2-y,-z
1/2+x,1/2-y,z
loop_
_atom_site_type_symbol
_atom_site_label
_atom_site_fract_x
_atom_site_fract_y
_atom_site_fract_z
Si Si1 0.650250 0.270127 0.168104
Si Si2 0.155694 0.574716 0.260689
Si Si3 0.747483 0.625007 0.081612
Si Si4 0.099049 0.360497 0.493707
Si Si5 0.589858 0.157530 0.898272
Si Si6 0.151468 0.073092 0.657746
Si Si7 0.646371 0.710419 0.516354
O O1 0.682211 0.331577 0.103557
O O2 0.625812 0.293481 0.306409
O O3 0.741586 0.221844 0.314090
O O4 0.575280 0.225668 0.973896
O O5 0.128106 0.500000 0.271967
O O6 0.137815 0.624584 0.375665
O O7 0.261250 0.572376 0.342404
O O8 0.099409 0.599317 0.036504
O O9 0.830314 0.597169 0.303673
O O10 0.812585 0.668647 0.056079
O O11 0.690839 0.579537 0.885324
O O12 0.110382 0.280610 0.536402
O O13 0.988729 0.367030 0.324937
O O14 0.108199 0.145006 0.553002
O O15 0.104253 0.000000 0.576522
#
# Coordination Sequence:
#
# PCOD9175112 Si02
#       7
#     8   8   8   8   8   8   8
#     4  10  18  32  56  76 105 134 180 229 270 304
#     4  10  20  35  53  74 108 151 183 211 255 314
#     4  10  21  34  50  76 106 142 174 227 266 310
#     4  11  22  32  53  79 115 138 181 220 264 318
#     4  11  20  34  49  80 108 145 177 216 264 327
#     4  10  20  36  56  77 105 144 187 223 269 323
#     4  10  18  34  54  81  99 139 176 234 271 303
#
# _framework density 22.517757
#
# number of rings (size 3 to 8) (size 9 to 14) (size 15 to 20)
#    0.000    1.714    4.286    3.000    2.000    1.714 
#    0.000    0.714    0.000    4.286    0.000    4.000 
#    0.000    0.000    0.000    0.000    0.000    0.000 
#
# Total GULP energy -156124.242252 kJ/mol
# GULP energy per Si atom -5575.865795 kJ/mol
# Density = 2.246651 g / cm^3
# Si number density = 22.517757 Si / 1000 Ang^3
#
#
#
# Elastic Constant Matrix: (Units=GPa)
#
#
# Indices 1 2 3 4 5 6 
#
# 1 36.0080 -1.3245 -7.1034 0.0000 -3.4750 0.0000
# 2 -1.3245 98.1978 1.5287 0.0000 -7.6478 0.0000
# 3 -7.1034 1.5287 83.0839 0.0000 -23.1984 0.0000
# 4 0.0000 0.0000 0.0000 10.1839 0.0000 3.2408
# 5 -3.4750 -7.6478 -23.1984 0.0000 22.3818 0.0000
# 6 0.0000 0.0000 0.0000 3.2408 0.0000 1.4665
#
#
#
# Elastic Compliance Matrix: (Units=1/GPa)
#
#
# Indices 1 2 3 4 5 6 
#
# 1 0.029953 0.001159 0.005557 0.000000 0.010806 0.000000
# 2 0.001159 0.010583 0.001357 0.000000 0.005203 0.000000
# 3 0.005557 0.001357 0.018093 0.000000 0.020079 0.000000
# 4 0.000000 0.000000 0.000000 0.330889 0.000000 -0.731225
# 5 0.010806 0.005203 0.020079 0.000000 0.068946 0.000000
# 6 0.000000 0.000000 0.000000 -0.731225 0.000000 2.297817
#
#
# Mechanical properties :
#
#
# Convention : Reuss Voigt Hill
#
# Bulk Modulus (GPa) = 13.37341 22.61015 17.99178
# Shear Modulus (GPa) = 1.80828 21.75237 11.78032
#
# Velocity S-wave (km/s) = 0.89710 3.11144 2.28974
# Velocity P-wave (km/s) = 2.65047 4.79280 3.87272
#
# Compressibility (1/GPa) = 0.07477525
#
# Stress axis : x y z
#
# Youngs Moduli (GPa) = 33.38525 94.48900 55.27132
#
# Poissons Ratio (x) = -0.10952 -0.30713
# Poissons Ratio (y) = -0.03870 -0.07501
# Poissons Ratio (z) = -0.18552 -0.12823
#
# Static dielectric constant tensor:
#      x y z
#    x 1.896630 0.000000 0.030770 
#    y 0.000000 1.853620 0.000000 
#    z 0.030770 0.000000 1.913580 
# 
# From -- ./inp_files/89262.got.cif
#   From: 2010.05.17/outbox.cif.g08.bks.cpg/sg12_45_cif.got.tgz:89262.got - 2010.06.03 13:09:07.
