data_PCOD9175668
_publ_section_title
;
Structure prediction by ZEFSAII (Michael W. Deem and Ramdas Pophale) SiO2 
 PCOD9175668
Probable space group: C 2/M
;
_chemical_formula_sum "Si O2"
_cell_formula_units_Z 56
_cell_length_a 29.381532
_cell_length_b 7.434329
_cell_length_c 22.136170
_cell_angle_alpha 90.000000
_cell_angle_beta 149.568304
_cell_angle_gamma 90.000000
_cell_volume 2449.105138
_symmetry_space_group_name_H-M "C 2/M"
_symmetry_group_IT_number 12
_symmetry_cell_setting 'monoclinic'
loop_
_space_group_symop_operation_xyz
x,y,z
-x,y,-z
-x,-y,-z
x,-y,z
1/2+x,1/2+y,z
1/2-x,1/2+y,-z
1/2-x,1/2-y,-z
1/2+x,1/2-y,z
loop_
_atom_site_type_symbol
_atom_site_label
_atom_site_fract_x
_atom_site_fract_y
_atom_site_fract_z
Si Si1 0.265940 0.293620 0.753313
Si Si2 0.829580 0.283347 0.952061
Si Si3 0.476641 0.292707 0.787881
Si Si4 0.933513 0.794022 0.475389
Si Si5 0.519679 0.279223 0.339337
Si Si6 0.928708 0.779151 0.866563
Si Si7 0.181313 0.786458 0.867761
O O1 0.244247 0.500000 0.716113
O O2 0.331233 0.281893 0.885750
O O3 0.171361 0.204701 0.661439
O O4 0.328183 0.222259 0.770815
O O5 0.832732 0.500000 0.957280
O O6 0.735087 0.218808 0.871288
O O7 0.914520 0.213341 0.086339
O O8 0.446934 0.500000 0.755276
O O9 0.447589 0.216600 0.689398
O O10 0.450295 0.215775 0.823273
O O11 0.000000 0.714568 0.500000
O O12 0.935584 0.721115 0.546446
O O13 0.965897 0.000000 0.518949
O O14 0.522884 0.500000 0.339569
O O15 0.416823 0.217416 0.230536
O O16 0.931035 0.000000 0.869608
O O17 0.000000 0.721686 0.000000
O O18 0.171059 0.000000 0.848554
O O19 0.250000 0.750000 0.000000
#
# Coordination Sequence:
#
# PCOD9175668 Si02
#       7
#     8   8   8   8   8   8   8
#     4  11  22  37  58  82 109 145 194 237 276 329
#     4  11  21  32  50  81 117 146 177 225 285 333
#     4  10  18  33  56  79 107 143 188 228 269 335
#     4  10  21  40  61  80 111 150 186 228 280 338
#     4   9  18  33  55  78 104 145 187 222 271 333
#     4   9  17  32  55  82 110 145 185 232 282 326
#     4  10  19  31  49  77 109 140 177 218 268 330
#
# _framework density 22.865496
#
# number of rings (size 3 to 8) (size 9 to 14) (size 15 to 20)
#    0.000    2.000    2.857    1.714    0.000    3.143 
#    0.000    4.286    0.000    0.000    0.000    0.000 
#    0.000    0.000    0.000    0.000    0.000    0.000 
#
# Total GULP energy -156198.715165 kJ/mol
# GULP energy per Si atom -5578.525542 kJ/mol
# Density = 2.281345 g / cm^3
# Si number density = 22.865496 Si / 1000 Ang^3
#
#
#
# Elastic Constant Matrix: (Units=GPa)
#
#
# Indices 1 2 3 4 5 6 
#
# 1 173.3572 7.2317 31.5191 0.0000 -24.5471 0.0000
# 2 7.2317 75.0701 -7.8413 0.0000 -0.2186 0.0000
# 3 31.5191 -7.8413 70.6869 0.0000 -22.6656 0.0000
# 4 0.0000 0.0000 0.0000 67.2689 0.0000 21.4062
# 5 -24.5471 -0.2186 -22.6656 0.0000 41.7317 0.0000
# 6 0.0000 0.0000 0.0000 21.4062 0.0000 4.9507
#
#
#
# Elastic Compliance Matrix: (Units=1/GPa)
#
#
# Indices 1 2 3 4 5 6 
#
# 1 0.006578 -0.000852 -0.002166 0.000000 0.002689 0.000000
# 2 -0.000852 0.013627 0.002124 0.000000 0.000724 0.000000
# 3 -0.002166 0.002124 0.018094 0.000000 0.008565 0.000000
# 4 0.000000 0.000000 0.000000 -0.039544 0.000000 0.170982
# 5 0.002689 0.000724 0.008565 0.000000 0.030200 0.000000
# 6 0.000000 0.000000 0.000000 0.170982 0.000000 -0.537310
#
#
# Mechanical properties :
#
#
# Convention : Reuss Voigt Hill
#
# Bulk Modulus (GPa) = 27.38875 42.32594 34.85734
# Shear Modulus (GPa) = -10.11335 42.00391 15.94528
#
# Velocity S-wave (km/s) = -2.10537 4.29067 2.64361
# Velocity P-wave (km/s) = 2.46862 6.56487 4.95942
#
# Compressibility (1/GPa) = 0.03651134
#
# Stress axis : x y z
#
# Youngs Moduli (GPa) = 152.01094 73.38437 55.26567
#
# Poissons Ratio (x) = 0.06253 0.11969
# Poissons Ratio (y) = 0.12953 -0.11736
# Poissons Ratio (z) = 0.32921 -0.15584
#
# Static dielectric constant tensor:
#      x y z
#    x 1.912560 0.000000 -0.023050 
#    y 0.000000 1.872340 0.000000 
#    z -0.023050 0.000000 1.807240 
# 
# From -- ./inp_files/329624.got.cif
#   From: 2010.05.17/outbox.cif.g08.bks.cpg/sg12_165_cif.got.tgz:329624.got - 2010.06.03 13:09:07.
