data_PCOD9175922
_publ_section_title
;
Structure prediction by ZEFSAII (Michael W. Deem and Ramdas Pophale) SiO2 
 PCOD9175922
Probable space group: C 2/M
;
_chemical_formula_sum "Si O2"
_cell_formula_units_Z 40
_cell_length_a 14.510278
_cell_length_b 18.539121
_cell_length_c 11.881175
_cell_angle_alpha 90.000000
_cell_angle_beta 40.374665
_cell_angle_gamma 90.000000
_cell_volume 2070.398190
_symmetry_space_group_name_H-M "C 2/M"
_symmetry_group_IT_number 12
_symmetry_cell_setting 'monoclinic'
loop_
_space_group_symop_operation_xyz
x,y,z
-x,y,-z
-x,-y,-z
x,-y,z
1/2+x,1/2+y,z
1/2-x,1/2+y,-z
1/2-x,1/2-y,-z
1/2+x,1/2-y,z
loop_
_atom_site_type_symbol
_atom_site_label
_atom_site_fract_x
_atom_site_fract_y
_atom_site_fract_z
Si Si1 0.161714 0.418032 0.368957
Si Si2 0.845166 0.582078 0.357908
Si Si3 0.362236 0.311077 0.550196
Si Si4 0.521988 0.778180 0.215107
Si Si5 0.210407 0.790362 0.864451
O O1 0.161844 0.500000 0.325724
O O2 0.184841 0.418340 0.480534
O O3 0.276731 0.369039 0.201052
O O4 0.000000 0.388534 0.500000
O O5 0.881382 0.500000 0.291149
O O6 0.709563 0.614741 0.420549
O O7 0.966098 0.643156 0.231589
O O8 0.500000 0.321831 0.500000
O O9 0.408844 0.264133 0.398142
O O10 0.251300 0.265448 0.728037
O O11 0.659775 0.787497 0.166380
O O12 0.571095 0.731840 0.062194
#
# Coordination Sequence:
#
# PCOD9175922 Si02
#       5
#     8   8   8   8   8
#     4  10  18  33  59  89 120 150 186 242 302 345
#     4  11  22  37  60  88 118 154 197 242 292 345
#     4  10  21  40  58  80 117 158 200 243 287 341
#     4  10  20  35  59  89 114 150 200 239 283 348
#     4  10  19  35  59  87 117 153 192 237 291 345
#
# _framework density 19.319956000000001
#
# number of rings (size 3 to 8) (size 9 to 14) (size 15 to 20)
#    0.000    1.800    4.000    1.200    0.000    1.200 
#    0.000    3.000    0.000    9.600    0.000    0.000 
#    0.000    0.000    0.000    0.000    0.000    0.000 
#
# Total GULP energy -111686.335248 kJ/mol
# GULP energy per Si atom -5584.316762 kJ/mol
# Density = 1.927598 g / cm^3
# Si number density = 19.319956 Si / 1000 Ang^3
#
#
#
# Elastic Constant Matrix: (Units=GPa)
#
#
# Indices 1 2 3 4 5 6 
#
# 1 71.3264 37.0739 35.4025 0.0000 -4.9477 0.0001
# 2 37.0739 141.0783 57.1614 0.0001 2.1900 0.0000
# 3 35.4025 57.1614 103.0617 0.0000 10.7637 0.0001
# 4 0.0000 0.0001 0.0000 16.8939 -0.0002 4.1007
# 5 -4.9477 2.1900 10.7637 -0.0002 16.1608 -0.0001
# 6 0.0001 0.0000 0.0001 4.1007 -0.0001 31.2617
#
#
#
# Elastic Compliance Matrix: (Units=1/GPa)
#
#
# Indices 1 2 3 4 5 6 
#
# 1 0.019214 -0.002705 -0.006182 0.000000 0.010367 0.000000
# 2 -0.002705 0.009604 -0.004487 0.000000 0.000859 0.000000
# 3 -0.006182 -0.004487 0.015530 0.000000 -0.011628 0.000000
# 4 0.000000 0.000000 0.000000 0.061140 0.000001 -0.008020
# 5 0.010367 0.000859 -0.011628 0.000001 0.072680 0.000000
# 6 0.000000 0.000000 0.000000 -0.008020 0.000000 0.033040
#
#
# Mechanical properties :
#
#
# Convention : Reuss Voigt Hill
#
# Bulk Modulus (GPa) = 56.82421 63.86023 60.34222
# Shear Modulus (GPa) = 20.50672 25.25186 22.87929
#
# Velocity S-wave (km/s) = 3.26149 3.61922 3.44500
# Velocity P-wave (km/s) = 6.60750 7.11272 6.86476
#
# Compressibility (1/GPa) = 0.01759813
#
# Stress axis : x y z
#
# Youngs Moduli (GPa) = 52.04578 104.12469 64.39251
#
# Poissons Ratio (x) = 0.28167 0.39810
# Poissons Ratio (y) = 0.14079 0.28894
# Poissons Ratio (z) = 0.32177 0.46722
#
# Static dielectric constant tensor:
#      x y z
#    x 1.726130 0.000000 -0.011680 
#    y 0.000000 1.666760 0.000000 
#    z -0.011680 0.000000 1.668020 
# 
# From -- ./inp_files/145258.got.cif
#   From: 2010.05.17/outbox.cif.g08.bks.cpg/sg12_73_cif.got.tgz:145258.got - 2010.06.03 13:09:07.
