data_PCOD9175204
_publ_section_title
;
Structure prediction by ZEFSAII (Michael W. Deem and Ramdas Pophale) SiO2 
 PCOD9175204
Probable space group: C 2/M
;
_chemical_formula_sum "Si O2"
_cell_formula_units_Z 48
_cell_length_a 20.689622
_cell_length_b 14.756105
_cell_length_c 9.615656
_cell_angle_alpha 90.000000
_cell_angle_beta 135.698747
_cell_angle_gamma 90.000000
_cell_volume 2050.343752
_symmetry_space_group_name_H-M "C 2/M"
_symmetry_group_IT_number 12
_symmetry_cell_setting 'monoclinic'
loop_
_space_group_symop_operation_xyz
x,y,z
-x,y,-z
-x,-y,-z
x,-y,z
1/2+x,1/2+y,z
1/2-x,1/2+y,-z
1/2-x,1/2-y,-z
1/2+x,1/2-y,z
loop_
_atom_site_type_symbol
_atom_site_label
_atom_site_fract_x
_atom_site_fract_y
_atom_site_fract_z
Si Si1 0.583390 0.900803 0.444657
Si Si2 0.034676 0.797869 0.403205
Si Si3 0.743069 0.370334 0.113849
Si Si4 0.080776 0.142373 0.037571
Si Si5 0.392188 0.845681 0.818606
Si Si6 0.762368 0.158054 0.205404
O O1 0.523299 0.811087 0.373145
O O2 0.655696 0.898773 0.681947
O O3 0.634093 0.879030 0.375618
O O4 0.539077 0.000000 0.369135
O O5 0.141402 0.829866 0.562603
O O6 0.000000 0.826618 0.500000
O O7 0.970591 0.834437 0.185092
O O8 0.736410 0.261363 0.123735
O O9 0.672426 0.404182 0.122685
O O10 0.725277 0.390537 0.924617
O O11 0.105394 0.235666 0.159858
O O12 0.000000 0.095970 0.000000
O O13 0.320025 0.878150 0.824027
O O14 0.500000 0.874415 0.000000
#
# Coordination Sequence:
#
# PCOD9175204 Si02
#       6
#     8   8   8   8   8   8
#     4  11  24  37  52  76 117 165 197 223 267 346
#     4  11  20  35  58  89 118 142 185 238 298 349
#     4   9  19  34  54  82 112 143 188 239 291 339
#     4  10  18  32  56  91 110 138 179 246 302 337
#     4  10  20  36  51  78 111 151 191 236 278 332
#     4   9  19  33  57  83 112 140 182 250 301 331
#
# _framework density 23.410710000000002
#
# number of rings (size 3 to 8) (size 9 to 14) (size 15 to 20)
#    0.000    2.000    5.000    0.000    4.667    2.667 
#    0.000    0.833    0.000    0.500    0.000    1.167 
#    0.000    0.000    0.000    0.000    0.000    0.000 
#
# Total GULP energy -133938.600638 kJ/mol
# GULP energy per Si atom -5580.775027 kJ/mol
# Density = 2.335743 g / cm^3
# Si number density = 23.410710 Si / 1000 Ang^3
#
#
#
# Elastic Constant Matrix: (Units=GPa)
#
#
# Indices 1 2 3 4 5 6 
#
# 1 89.8873 -0.7475 -8.5059 0.0000 4.8116 0.0000
# 2 -0.7475 60.8711 18.7553 0.0000 -1.3081 0.0000
# 3 -8.5059 18.7553 84.0901 0.0000 -9.8177 0.0000
# 4 0.0000 0.0000 0.0000 -24.6254 0.0000 -0.1778
# 5 4.8116 -1.3081 -9.8177 0.0000 33.2461 0.0000
# 6 0.0000 0.0000 0.0000 -0.1778 0.0000 -36.2720
#
#
#
# Elastic Compliance Matrix: (Units=1/GPa)
#
#
# Indices 1 2 3 4 5 6 
#
# 1 0.011293 -0.000208 0.001033 0.000000 -0.001338 0.000000
# 2 -0.000208 0.017652 -0.004012 0.000000 -0.000460 0.000000
# 3 0.001033 -0.004012 0.013314 0.000000 0.003625 0.000000
# 4 0.000000 0.000000 0.000000 -0.040610 0.000000 0.000199
# 5 -0.001338 -0.000460 0.003625 0.000000 0.031325 0.000000
# 6 0.000000 0.000000 0.000000 0.000199 0.000000 -0.027570
#
#
# Mechanical properties :
#
#
# Convention : Reuss Voigt Hill
#
# Bulk Modulus (GPa) = 27.86764 28.20580 28.03672
# Shear Modulus (GPa) = 210.62153 9.49285 110.05719
#
# Velocity S-wave (km/s) = 9.49544 2.01587 6.86393
# Velocity P-wave (km/s) = 11.49554 4.18243 8.64986
#
# Compressibility (1/GPa) = 0.03588391
#
# Stress axis : x y z
#
# Youngs Moduli (GPa) = 88.55337 56.65144 75.10662
#
# Poissons Ratio (x) = 0.01180 -0.07755
# Poissons Ratio (y) = 0.01844 0.30131
# Poissons Ratio (z) = -0.09144 0.22727
#
# Static dielectric constant tensor:
#      x y z
#    x 1.959810 0.000000 0.001470 
#    y 0.000000 1.936340 0.000000 
#    z 0.001470 0.000000 1.843840 
# 
# From -- ./inp_files/88134.got.cif
#   From: 2010.05.17/outbox.cif.g08.bks.cpg/sg12_45_cif.got.tgz:88134.got - 2010.06.03 13:09:07.
