data_PCOD9175801
_publ_section_title
;
Structure prediction by ZEFSAII (Michael W. Deem and Ramdas Pophale) SiO2 
 PCOD9175801
Probable space group: C 2/M
;
_chemical_formula_sum "Si O2"
_cell_formula_units_Z 40
_cell_length_a 13.602682
_cell_length_b 22.176053
_cell_length_c 10.865829
_cell_angle_alpha 90.000000
_cell_angle_beta 38.430658
_cell_angle_gamma 90.000000
_cell_volume 2037.321808
_symmetry_space_group_name_H-M "C 2/M"
_symmetry_group_IT_number 12
_symmetry_cell_setting 'monoclinic'
loop_
_space_group_symop_operation_xyz
x,y,z
-x,y,-z
-x,-y,-z
x,-y,z
1/2+x,1/2+y,z
1/2-x,1/2+y,-z
1/2-x,1/2-y,-z
1/2+x,1/2-y,z
loop_
_atom_site_type_symbol
_atom_site_label
_atom_site_fract_x
_atom_site_fract_y
_atom_site_fract_z
Si Si1 0.901549 0.768066 0.929937
Si Si2 0.096921 0.432486 0.533564
Si Si3 0.107787 0.813010 0.517845
Si Si4 0.687953 0.814719 0.354542
Si Si5 0.445193 0.864557 0.185259
O O1 0.004472 0.811529 0.742542
O O2 0.983799 0.703468 0.875488
O O3 0.750000 0.750000 0.000000
O O4 0.822299 0.800262 0.124016
O O5 0.152872 0.500000 0.508281
O O6 0.219747 0.379139 0.383172
O O7 0.008573 0.403980 0.740016
O O8 0.000000 0.437796 0.500000
O O9 0.179777 0.745302 0.442789
O O10 0.255394 0.857550 0.369339
O O11 0.000000 0.819800 0.500000
O O12 0.500000 0.817905 0.500000
O O13 0.500000 0.889753 0.000000
#
# Coordination Sequence:
#
# PCOD9175801 Si02
#       5
#     8   8   8   8   8
#     4  12  19  32  55  87 128 157 188 242 306 366
#     4  10  22  41  61  84 120 163 207 250 288 350
#     4  11  21  35  54  91 131 156 192 251 314 366
#     4  10  18  33  57  87 120 154 193 241 296 362
#     4  12  23  36  62  95 121 155 203 248 311 362
#
# _framework density 19.633617999999998
#
# number of rings (size 3 to 8) (size 9 to 14) (size 15 to 20)
#    0.000    1.000    8.000    1.800    0.000    0.400 
#    0.000    0.000    0.000    3.000    0.000    0.000 
#    0.000    0.800    0.000    0.000    0.000    0.000 
#
# Total GULP energy -111424.768600 kJ/mol
# GULP energy per Si atom -5571.238430 kJ/mol
# Density = 1.958893 g / cm^3
# Si number density = 19.633618 Si / 1000 Ang^3
#
#
#
# Elastic Constant Matrix: (Units=GPa)
#
#
# Indices 1 2 3 4 5 6 
#
# 1 107.5770 30.6357 50.9979 0.0000 12.9772 0.0000
# 2 30.6357 78.4124 36.8311 0.0000 14.7968 0.0000
# 3 50.9979 36.8311 162.0733 0.0000 34.4224 0.0000
# 4 0.0000 0.0000 0.0000 -29.0854 0.0000 -1.1947
# 5 12.9772 14.7968 34.4224 0.0000 49.1971 0.0000
# 6 0.0000 0.0000 0.0000 -1.1947 0.0000 11.5948
#
#
#
# Elastic Compliance Matrix: (Units=1/GPa)
#
#
# Indices 1 2 3 4 5 6 
#
# 1 0.011581 -0.003142 -0.002915 0.000000 -0.000070 0.000000
# 2 -0.003142 0.015370 -0.001995 0.000000 -0.002398 0.000000
# 3 -0.002915 -0.001995 0.008515 0.000000 -0.004589 0.000000
# 4 0.000000 0.000000 0.000000 -0.034237 0.000000 -0.003528
# 5 -0.000070 -0.002398 -0.004589 0.000000 0.024277 0.000000
# 6 0.000000 0.000000 0.000000 -0.003528 0.000000 0.085882
#
#
# Mechanical properties :
#
#
# Convention : Reuss Voigt Hill
#
# Bulk Modulus (GPa) = 51.64672 64.99914 58.32293
# Shear Modulus (GPa) = 37.32806 21.64782 29.48794
#
# Velocity S-wave (km/s) = 4.36504 3.32413 3.87965
# Velocity P-wave (km/s) = 7.19494 6.92178 7.05968
#
# Compressibility (1/GPa) = 0.01936231
#
# Stress axis : x y z
#
# Youngs Moduli (GPa) = 86.34922 65.06063 117.43567
#
# Poissons Ratio (x) = 0.20443 0.34234
# Poissons Ratio (y) = 0.27132 0.23426
# Poissons Ratio (z) = 0.25172 0.12978
#
# Static dielectric constant tensor:
#      x y z
#    x 1.824950 0.000000 0.014820 
#    y 0.000000 1.681130 0.000000 
#    z 0.014820 0.000000 1.699170 
# 
# From -- ./inp_files/148786.got.cif
#   From: 2010.05.17/outbox.cif.g08.bks.cpg/sg12_75_cif.got.tgz:148786.got - 2010.06.03 13:09:07.
