data_PCOD9175259
_publ_section_title
;
Structure prediction by ZEFSAII (Michael W. Deem and Ramdas Pophale) SiO2 
 PCOD9175259
Probable space group: C 2/M
;
_chemical_formula_sum "Si O2"
_cell_formula_units_Z 64
_cell_length_a 10.354497
_cell_length_b 19.664261
_cell_length_c 14.421004
_cell_angle_alpha 90.000000
_cell_angle_beta 86.316344
_cell_angle_gamma 90.000000
_cell_volume 2930.245092
_symmetry_space_group_name_H-M "C 2/M"
_symmetry_group_IT_number 12
_symmetry_cell_setting 'monoclinic'
loop_
_space_group_symop_operation_xyz
x,y,z
-x,y,-z
-x,-y,-z
x,-y,z
1/2+x,1/2+y,z
1/2-x,1/2+y,-z
1/2-x,1/2-y,-z
1/2+x,1/2-y,z
loop_
_atom_site_type_symbol
_atom_site_label
_atom_site_fract_x
_atom_site_fract_y
_atom_site_fract_z
Si Si1 0.313995 0.074703 0.277339
Si Si2 0.558968 0.317305 0.785468
Si Si3 0.601374 0.924134 0.226987
Si Si4 0.118712 0.080838 0.122040
Si Si5 0.299903 0.809081 0.417868
Si Si6 0.666074 0.222433 0.267237
Si Si7 0.404424 0.327647 0.426846
Si Si8 0.355305 0.080466 0.985008
O O1 0.447358 0.075130 0.214394
O O2 0.193983 0.089329 0.216691
O O3 0.334902 0.126619 0.357592
O O4 0.294999 0.000000 0.317458
O O5 0.508525 0.373377 0.859933
O O6 0.448286 0.259897 0.781631
O O7 0.697040 0.281350 0.794032
O O8 0.576035 0.349914 0.679881
O O9 0.632310 0.856945 0.284134
O O10 0.633413 0.000000 0.263059
O O11 0.666150 0.915392 0.123965
O O12 0.227808 0.105673 0.044450
O O13 0.091442 0.000000 0.109049
O O14 0.197913 0.768089 0.356207
O O15 0.414039 0.754865 0.421209
O O16 0.234562 0.832164 0.516149
O O17 0.500000 0.356606 0.500000
O O18 0.361243 0.000000 0.010303
O O19 0.500000 0.108960 0.000000
#
# Coordination Sequence:
#
# PCOD9175259 Si02
#       8
#     8   8   8   8   8   8   8   8
#     4  10  18  32  57  86 117 150 189 238 284 337
#     4  11  23  38  59  87 114 149 194 238 288 346
#     4  10  20  34  57  88 118 151 193 239 292 343
#     4  10  19  34  58  86 117 150 189 235 285 340
#     4  10  20  33  55  84 112 147 196 235 282 348
#     4  11  22  37  59  83 115 152 189 240 287 342
#     4  10  18  33  55  81 108 147 191 238 281 341
#     4   9  16  31  56  87 117 151 196 239 280 339
#
# _framework density 21.841176000000001
#
# number of rings (size 3 to 8) (size 9 to 14) (size 15 to 20)
#    0.000    1.875    3.750    1.500    0.000    0.500 
#    0.000    1.875    0.000    9.375    0.000    0.000 
#    0.000    0.000    0.000    0.000    0.000    0.000 
#
# Total GULP energy -178360.740867 kJ/mol
# GULP energy per Si atom -5573.773152 kJ/mol
# Density = 2.179146 g / cm^3
# Si number density = 21.841176 Si / 1000 Ang^3
#
#
#
# Elastic Constant Matrix: (Units=GPa)
#
#
# Indices 1 2 3 4 5 6 
#
# 1 92.2676 20.4142 0.8292 0.0000 -23.1379 0.0000
# 2 20.4142 62.4113 25.7353 0.0000 -11.2487 0.0000
# 3 0.8292 25.7353 73.5041 0.0000 -34.2758 0.0000
# 4 0.0000 0.0000 0.0000 13.8380 0.0000 -10.5265
# 5 -23.1379 -11.2487 -34.2758 0.0000 34.2482 0.0000
# 6 0.0000 0.0000 0.0000 -10.5265 0.0000 23.2332
#
#
#
# Elastic Compliance Matrix: (Units=1/GPa)
#
#
# Indices 1 2 3 4 5 6 
#
# 1 0.017983 -0.007096 0.012863 0.000000 0.022692 0.000000
# 2 -0.007096 0.021537 -0.011996 0.000000 -0.009726 0.000000
# 3 0.012863 -0.011996 0.037267 0.000000 0.042047 0.000000
# 4 0.000000 0.000000 0.000000 0.110270 0.000000 0.049962
# 5 0.022692 -0.009726 0.042047 0.000000 0.083416 0.000000
# 6 0.000000 0.000000 0.000000 0.049962 0.000000 0.065679
#
#
# Mechanical properties :
#
#
# Convention : Reuss Voigt Hill
#
# Bulk Modulus (GPa) = 15.54506 35.79336 25.66921
# Shear Modulus (GPa) = 13.51158 26.34417 19.92788
#
# Velocity S-wave (km/s) = 2.48992 3.47676 3.02387
# Velocity P-wave (km/s) = 3.92416 5.70445 4.89591
#
# Compressibility (1/GPa) = 0.06432911
#
# Stress axis : x y z
#
# Youngs Moduli (GPa) = 55.60793 46.43066 26.83363
#
# Poissons Ratio (x) = 0.32949 -0.34517
# Poissons Ratio (y) = 0.39461 0.32190
# Poissons Ratio (z) = -0.71531 0.55698
#
# Static dielectric constant tensor:
#      x y z
#    x 1.882000 0.000000 -0.006580 
#    y 0.000000 1.802020 0.000000 
#    z -0.006580 0.000000 1.837660 
# 
# From -- ./inp_files/207683.got.cif
#   From: 2010.05.17/outbox.cif.g08.bks.cpg/sg12_104_cif.got.tgz:207683.got - 2010.06.03 13:09:07.
