data_PCOD9175854
_publ_section_title
;
Structure prediction by ZEFSAII (Michael W. Deem and Ramdas Pophale) SiO2 
 PCOD9175854
Probable space group: C 2/M
;
_chemical_formula_sum "Si O2"
_cell_formula_units_Z 56
_cell_length_a 22.583311
_cell_length_b 18.840866
_cell_length_c 15.951360
_cell_angle_alpha 90.000000
_cell_angle_beta 155.321994
_cell_angle_gamma 90.000000
_cell_volume 2833.751116
_symmetry_space_group_name_H-M "C 2/M"
_symmetry_group_IT_number 12
_symmetry_cell_setting 'monoclinic'
loop_
_space_group_symop_operation_xyz
x,y,z
-x,y,-z
-x,-y,-z
x,-y,z
1/2+x,1/2+y,z
1/2-x,1/2+y,-z
1/2-x,1/2-y,-z
1/2+x,1/2-y,z
loop_
_atom_site_type_symbol
_atom_site_label
_atom_site_fract_x
_atom_site_fract_y
_atom_site_fract_z
Si Si1 0.830549 0.295863 0.952703
Si Si2 0.357281 0.423606 0.872701
Si Si3 0.907977 0.769396 0.623410
Si Si4 0.830333 0.226712 0.783746
Si Si5 0.515233 0.421365 0.777381
Si Si6 0.202062 0.582263 0.963508
Si Si7 0.575470 0.799841 0.686329
O O1 0.799485 0.285397 0.814973
O O2 0.722387 0.242464 0.860463
O O3 0.810835 0.372976 0.967523
O O4 0.988195 0.267959 0.176617
O O5 0.283438 0.500000 0.765849
O O6 0.279391 0.351487 0.747937
O O7 0.500000 0.425964 0.000000
O O8 0.405177 0.417825 0.030549
O O9 0.748813 0.742853 0.404135
O O10 0.914904 0.853678 0.643770
O O11 0.982664 0.746845 0.631113
O O12 0.000000 0.222970 0.000000
O O13 0.449061 0.500000 0.686836
O O14 0.636670 0.415277 0.863180
O O15 0.160832 0.500000 0.917490
O O16 0.110812 0.626406 0.778073
O O17 0.500000 0.808321 0.500000
#
# Coordination Sequence:
#
# PCOD9175854 Si02
#       7
#     8   8   8   8   8   8   8
#     4  11  20  39  57  83 119 148 191 234 284 348
#     4   9  18  35  56  82 117 146 183 239 286 332
#     4  11  20  35  59  84 115 153 189 237 282 338
#     4  11  23  37  58  87 111 154 200 236 281 337
#     4  10  18  33  58  86 114 149 190 237 285 338
#     4  10  20  34  56  86 119 147 182 235 291 347
#     4  11  19  33  60  86 114 152 180 229 296 346
#
# _framework density 19.761792
#
# number of rings (size 3 to 8) (size 9 to 14) (size 15 to 20)
#    0.000    1.571    5.714    0.857    0.000    0.857 
#    0.000    3.571    0.000    4.286    0.000    0.000 
#    0.000    0.000    0.000    0.000    0.000    0.000 
#
# Total GULP energy -156293.053702 kJ/mol
# GULP energy per Si atom -5581.894775 kJ/mol
# Density = 1.971681 g / cm^3
# Si number density = 19.761792 Si / 1000 Ang^3
#
#
#
# Elastic Constant Matrix: (Units=GPa)
#
#
# Indices 1 2 3 4 5 6 
#
# 1 43.0933 6.6015 -1.5857 0.0000 -3.5551 0.0000
# 2 6.6015 164.7009 29.1637 0.0000 -10.6726 0.0000
# 3 -1.5857 29.1637 87.4935 0.0000 -5.4527 0.0000
# 4 0.0000 0.0000 0.0000 24.1338 0.0000 -8.5551
# 5 -3.5551 -10.6726 -5.4527 0.0000 30.1640 0.0000
# 6 0.0000 0.0000 0.0000 -8.5551 0.0000 22.0111
#
#
#
# Elastic Compliance Matrix: (Units=1/GPa)
#
#
# Indices 1 2 3 4 5 6 
#
# 1 0.023598 -0.000936 0.000903 0.000000 0.002613 0.000000
# 2 -0.000936 0.006601 -0.002102 0.000000 0.001845 0.000000
# 3 0.000903 -0.002102 0.012245 0.000000 0.001576 0.000000
# 4 0.000000 0.000000 0.000000 0.048057 0.000000 0.018678
# 5 0.002613 0.001845 0.001576 0.000000 0.034398 0.000000
# 6 0.000000 0.000000 0.000000 0.018678 0.000000 0.052691
#
#
# Mechanical properties :
#
#
# Convention : Reuss Voigt Hill
#
# Bulk Modulus (GPa) = 26.19758 40.40519 33.30138
# Shear Modulus (GPa) = 25.69568 32.66899 29.18233
#
# Velocity S-wave (km/s) = 3.60984 4.07029 3.84696
# Velocity P-wave (km/s) = 5.53715 6.52535 6.05146
#
# Compressibility (1/GPa) = 0.03817147
#
# Stress axis : x y z
#
# Youngs Moduli (GPa) = 42.37705 151.49327 81.66786
#
# Poissons Ratio (x) = 0.14185 -0.07372
# Poissons Ratio (y) = 0.03968 0.17168
# Poissons Ratio (z) = -0.03825 0.31847
#
# Static dielectric constant tensor:
#      x y z
#    x 1.738360 0.000000 0.034400 
#    y 0.000000 1.696760 0.000000 
#    z 0.034400 0.000000 1.707970 
# 
# From -- ./inp_files/145655.got.cif
#   From: 2010.05.17/outbox.cif.g08.bks.cpg/sg12_73_cif.got.tgz:145655.got - 2010.06.03 13:09:07.
