data_PCOD9175391
_publ_section_title
;
Structure prediction by ZEFSAII (Michael W. Deem and Ramdas Pophale) SiO2 
 PCOD9175391
Probable space group: C 2/M
;
_chemical_formula_sum "Si O2"
_cell_formula_units_Z 52
_cell_length_a 13.410039
_cell_length_b 9.524137
_cell_length_c 17.975111
_cell_angle_alpha 90.000000
_cell_angle_beta 108.891290
_cell_angle_gamma 90.000000
_cell_volume 2172.101801
_symmetry_space_group_name_H-M "C 2/M"
_symmetry_group_IT_number 12
_symmetry_cell_setting 'monoclinic'
loop_
_space_group_symop_operation_xyz
x,y,z
-x,y,-z
-x,-y,-z
x,-y,z
1/2+x,1/2+y,z
1/2-x,1/2+y,-z
1/2-x,1/2-y,-z
1/2+x,1/2-y,z
loop_
_atom_site_type_symbol
_atom_site_label
_atom_site_fract_x
_atom_site_fract_y
_atom_site_fract_z
Si Si1 0.790682 0.723700 0.112149
Si Si2 0.285561 0.000000 0.991978
Si Si3 0.360616 0.336962 0.443483
Si Si4 0.167900 0.163180 0.726826
Si Si5 0.449172 0.659333 0.912826
Si Si6 0.892996 0.662757 0.593258
Si Si7 0.576843 0.162043 0.235063
O O1 0.767159 0.876558 0.073158
O O2 0.849164 0.742441 0.204681
O O3 0.675550 0.657280 0.102007
O O4 0.833516 0.622524 0.059148
O O5 0.390958 0.500000 0.450971
O O6 0.374115 0.281545 0.362565
O O7 0.234181 0.336407 0.426621
O O8 0.410410 0.254698 0.524379
O O9 0.295879 0.158958 0.748757
O O10 0.134056 0.000000 0.728744
O O11 0.489274 0.500000 0.915144
O O12 0.466480 0.743881 0.842013
O O13 0.500000 0.720982 0.000000
O O14 0.925012 0.500000 0.590487
O O15 0.935582 0.714960 0.683315
O O16 0.541874 0.000000 0.222316
#
# Coordination Sequence:
#
# PCOD9175391 Si02
#       7
#     8   4   8   8   8   8   8
#     4  10  18  33  45  67  85 118 149 182 218 265
#     4  10  20  30  50  62  86 114 152 184 220 258
#     4   8  13  20  32  50  72 106 137 166 201 242
#     4   8  13  24  39  54  80 108 140 175 208 252
#     4  10  20  32  45  64  90 116 146 185 222 258
#     4   8  13  22  32  49  75 103 137 171 202 241
#     4   8  15  26  40  55  77 111 145 174 209 252
#
# _framework density 23.939945000000002
#
# number of rings (size 3 to 8) (size 9 to 14) (size 15 to 20)
#    0.000    3.231    1.538    1.846    1.077    0.923 
#    1.385    3.077    0.000    0.000    0.000    0.000 
#    0.000    0.000    0.000    8.308    0.000    4.308 
#
# Total GULP energy -144852.571522 kJ/mol
# GULP energy per Si atom -5571.252751 kJ/mol
# Density = 2.388546 g / cm^3
# Si number density = 23.939945 Si / 1000 Ang^3
#
#
#
# Elastic Constant Matrix: (Units=GPa)
#
#
# Indices 1 2 3 4 5 6 
#
# 1 70.1765 -4.0624 29.0424 0.0000 -2.0206 0.0000
# 2 -4.0624 106.5220 104.8964 0.0000 -20.1392 0.0000
# 3 29.0424 104.8964 285.5172 0.0000 11.9719 0.0000
# 4 0.0000 0.0000 0.0000 29.1572 0.0000 4.6540
# 5 -2.0206 -20.1392 11.9719 0.0000 33.5310 0.0000
# 6 0.0000 0.0000 0.0000 4.6540 0.0000 -6.5788
#
#
#
# Elastic Compliance Matrix: (Units=1/GPa)
#
#
# Indices 1 2 3 4 5 6 
#
# 1 0.016393 0.005647 -0.003985 0.000000 0.005802 0.000000
# 2 0.005647 0.022044 -0.009383 0.000000 0.016930 0.000000
# 3 -0.003985 -0.009383 0.007717 0.000000 -0.008631 0.000000
# 4 0.000000 0.000000 0.000000 0.030817 0.000000 0.021801
# 5 0.005802 0.016930 -0.008631 0.000000 0.043423 0.000000
# 6 0.000000 0.000000 0.000000 0.021801 0.000000 -0.136582
#
#
# Mechanical properties :
#
#
# Convention : Reuss Voigt Hill
#
# Bulk Modulus (GPa) = 32.56228 80.21872 56.39050
# Shear Modulus (GPa) = 526.79246 33.37783 280.08515
#
# Velocity S-wave (km/s) = 14.85009 3.73799 10.82815
# Velocity P-wave (km/s) = 17.54037 7.22573 13.41410
#
# Compressibility (1/GPa) = 0.03071038
#
# Stress axis : x y z
#
# Youngs Moduli (GPa) = 61.00156 45.36482 129.58650
#
# Poissons Ratio (x) = -0.25616 0.51644
# Poissons Ratio (y) = -0.34445 1.21589
# Poissons Ratio (z) = 0.24311 0.42565
#
# Static dielectric constant tensor:
#      x y z
#    x 2.049870 0.000000 0.002660 
#    y 0.000000 1.835490 0.000000 
#    z 0.002660 0.000000 1.893310 
# 
# From -- ./inp_files/287113.got.cif
#   From: 2010.05.17/outbox.cif.g08.bks.cpg/sg12_144_cif.got.tgz:287113.got - 2010.06.03 13:09:07.
