data_PCOD9175395
_publ_section_title
;
Structure prediction by ZEFSAII (Michael W. Deem and Ramdas Pophale) SiO2 
 PCOD9175395
Probable space group: C 2/M
;
_chemical_formula_sum "Si O2"
_cell_formula_units_Z 60
_cell_length_a 16.040795
_cell_length_b 14.391801
_cell_length_c 11.382632
_cell_angle_alpha 90.000000
_cell_angle_beta 107.827025
_cell_angle_gamma 90.000000
_cell_volume 2501.577024
_symmetry_space_group_name_H-M "C 2/M"
_symmetry_group_IT_number 12
_symmetry_cell_setting 'monoclinic'
loop_
_space_group_symop_operation_xyz
x,y,z
-x,y,-z
-x,-y,-z
x,-y,z
1/2+x,1/2+y,z
1/2-x,1/2+y,-z
1/2-x,1/2-y,-z
1/2+x,1/2-y,z
loop_
_atom_site_type_symbol
_atom_site_label
_atom_site_fract_x
_atom_site_fract_y
_atom_site_fract_z
Si Si1 0.955143 0.395491 0.340453
Si Si2 0.319027 0.108671 0.481340
Si Si3 0.265503 0.849918 0.209816
Si Si4 0.486317 0.609441 0.855337
Si Si5 0.395954 0.753581 0.662455
Si Si6 0.675235 0.646748 0.817630
Si Si7 0.104772 0.899167 0.532168
Si Si8 0.277736 0.500000 0.980168
O O1 0.991495 0.500000 0.343331
O O2 0.913521 0.381580 0.453563
O O3 0.862882 0.393996 0.229335
O O4 0.014285 0.313092 0.317295
O O5 0.258039 0.144381 0.348628
O O6 0.324530 0.165640 0.604344
O O7 0.306289 0.000000 0.493364
O O8 0.276878 0.745295 0.172918
O O9 0.204753 0.918431 0.112056
O O10 0.471426 0.500000 0.814178
O O11 0.416432 0.686134 0.780491
O O12 0.579012 0.639821 0.836980
O O13 0.500000 0.611330 0.000000
O O14 0.378788 0.685363 0.546243
O O15 0.651932 0.613917 0.676141
O O16 0.732594 0.579944 0.922279
O O17 0.000000 0.898826 0.500000
O O18 0.128302 0.000000 0.492556
#
# Coordination Sequence:
#
# PCOD9175395 Si02
#       8
#     8   8   8   8   8   8   8   4
#     4   9  16  27  46  73 110 137 161 195 260 316
#     4   9  16  27  46  73 109 133 165 201 261 315
#     4  10  18  33  47  73 111 139 172 207 251 322
#     4  11  23  38  52  73 106 142 183 213 251 314
#     4  12  18  28  51  76 104 139 159 214 271 320
#     4  12  21  34  52  76 108 144 171 212 260 313
#     4  11  18  27  46  73 107 130 153 199 278 326
#     4  12  22  34  48  73 115 146 176 203 258 315
#
# _framework density 23.984870000000001
#
# number of rings (size 3 to 8) (size 9 to 14) (size 15 to 20)
#    0.800    0.533    6.667    2.400    0.000    1.067 
#    0.000    0.000    0.000    1.600    0.000    0.933 
#    4.000    0.000    0.000    0.000    0.000    0.000 
#
# Total GULP energy -167058.288053 kJ/mol
# GULP energy per Si atom -5568.609602 kJ/mol
# Density = 2.393028 g / cm^3
# Si number density = 23.984870 Si / 1000 Ang^3
#
#
#
# Elastic Constant Matrix: (Units=GPa)
#
#
# Indices 1 2 3 4 5 6 
#
# 1 88.0828 22.4253 17.1062 0.0000 0.4219 0.0000
# 2 22.4253 236.5827 79.2660 0.0000 -10.1167 0.0000
# 3 17.1062 79.2660 115.6384 0.0000 -4.5370 0.0000
# 4 0.0000 0.0000 0.0000 51.0559 0.0000 -11.2489
# 5 0.4219 -10.1167 -4.5370 0.0000 17.4841 0.0000
# 6 0.0000 0.0000 0.0000 -11.2489 0.0000 -20.8013
#
#
#
# Elastic Compliance Matrix: (Units=1/GPa)
#
#
# Indices 1 2 3 4 5 6 
#
# 1 0.011794 -0.000732 -0.001283 0.000000 -0.001041 0.000000
# 2 -0.000732 0.005619 -0.003652 0.000000 0.002321 0.000000
# 3 -0.001283 -0.003652 0.011375 0.000000 0.000869 0.000000
# 4 0.000000 0.000000 0.000000 0.017501 0.000000 -0.009464
# 5 -0.001041 0.002321 0.000869 0.000000 0.058789 0.000000
# 6 0.000000 0.000000 0.000000 -0.009464 0.000000 -0.042956
#
#
# Mechanical properties :
#
#
# Convention : Reuss Voigt Hill
#
# Bulk Modulus (GPa) = 57.30120 75.32212 66.31166
# Shear Modulus (GPa) = 63.07078 30.98149 47.02613
#
# Velocity S-wave (km/s) = 5.13353 3.59794 4.43274
# Velocity P-wave (km/s) = 7.68635 6.98086 7.34208
#
# Compressibility (1/GPa) = 0.01745164
#
# Stress axis : x y z
#
# Youngs Moduli (GPa) = 84.79127 177.95956 87.91066
#
# Poissons Ratio (x) = 0.13034 0.11283
# Poissons Ratio (y) = 0.06210 0.32108
# Poissons Ratio (z) = 0.10882 0.64998
#
# Static dielectric constant tensor:
#      x y z
#    x 2.105990 0.000000 0.105350 
#    y 0.000000 1.896190 0.000000 
#    z 0.105350 0.000000 1.962560 
# 
# From -- ./inp_files/176193.got.cif
#   From: 2010.05.17/outbox.cif.g08.bks.cpg/sg12_89_cif.got.tgz:176193.got - 2010.06.03 13:09:07.
