data_PCOD9175283
_publ_section_title
;
Structure prediction by ZEFSAII (Michael W. Deem and Ramdas Pophale) SiO2 
 PCOD9175283
Probable space group: C 2/M
;
_chemical_formula_sum "Si O2"
_cell_formula_units_Z 36
_cell_length_a 17.188913
_cell_length_b 19.926031
_cell_length_c 11.656139
_cell_angle_alpha 90.000000
_cell_angle_beta 33.752337
_cell_angle_gamma 90.000000
_cell_volume 2218.142338
_symmetry_space_group_name_H-M "C 2/M"
_symmetry_group_IT_number 12
_symmetry_cell_setting 'monoclinic'
loop_
_space_group_symop_operation_xyz
x,y,z
-x,y,-z
-x,-y,-z
x,-y,z
1/2+x,1/2+y,z
1/2-x,1/2+y,-z
1/2-x,1/2-y,-z
1/2+x,1/2-y,z
loop_
_atom_site_type_symbol
_atom_site_label
_atom_site_fract_x
_atom_site_fract_y
_atom_site_fract_z
Si Si1 0.052256 0.213733 0.816583
Si Si2 0.821363 0.176548 0.924440
Si Si3 0.146087 0.682725 0.510518
Si Si4 0.500000 0.277437 0.500000
Si Si5 0.436758 0.922466 0.706966
O O1 0.101974 0.271903 0.671519
O O2 0.188789 0.171263 0.683864
O O3 0.930886 0.176466 0.895282
O O4 0.000000 0.243031 0.000000
O O5 0.909963 0.176337 0.697114
O O6 0.750000 0.250000 0.000000
O O7 0.701625 0.122061 0.098100
O O8 0.096422 0.727480 0.460514
O O9 0.059883 0.614709 0.623624
O O10 0.500000 0.919575 0.500000
O O11 0.412582 0.000000 0.764985
#
# Coordination Sequence:
#
# PCOD9175283 Si02
#       5
#     8   8   8   4   8
#     4  10  19  29  52  81 108 130 171 227 262 304
#     4  11  19  34  56  81 108 139 181 223 263 313
#     4  10  19  32  50  83 104 135 175 217 270 305
#     4  10  18  32  58  80 106 136 182 228 260 308
#     4  11  21  35  55  79 109 142 178 218 270 324
#
# _framework density 16.229797000000001
#
# number of rings (size 3 to 8) (size 9 to 14) (size 15 to 20)
#    0.000    1.556    5.556    2.667    0.000    0.000 
#    0.000    1.667    0.000    4.667    0.000    0.000 
#    0.000    0.000    0.000    0.000    0.000    0.000 
#
# Total GULP energy -100210.284912 kJ/mol
# GULP energy per Si atom -5567.238051 kJ/mol
# Density = 1.619286 g / cm^3
# Si number density = 16.229797 Si / 1000 Ang^3
#
#
#
# Elastic Constant Matrix: (Units=GPa)
#
#
# Indices 1 2 3 4 5 6 
#
# 1 111.3368 38.6353 61.6189 -0.0009 -11.5032 0.0006
# 2 38.6353 109.0432 47.4473 -0.0010 -15.2666 0.0007
# 3 61.6189 47.4473 92.1760 -0.0014 -2.3675 0.0011
# 4 -0.0009 -0.0010 -0.0014 22.5136 0.0012 0.8048
# 5 -11.5032 -15.2666 -2.3675 0.0012 41.8922 -0.0009
# 6 0.0006 0.0007 0.0011 0.8048 -0.0009 5.5533
#
#
#
# Elastic Compliance Matrix: (Units=1/GPa)
#
#
# Indices 1 2 3 4 5 6 
#
# 1 0.014786 -0.000664 -0.009458 0.000000 0.003284 0.000001
# 2 -0.000664 0.012545 -0.005910 0.000000 0.004056 0.000000
# 3 -0.009458 -0.005910 0.020121 0.000001 -0.003614 -0.000003
# 4 0.000000 0.000000 0.000001 0.044649 -0.000001 -0.006471
# 5 0.003284 0.004056 -0.003614 -0.000001 0.026046 0.000004
# 6 0.000001 0.000000 -0.000003 -0.006471 0.000004 0.181012
#
#
# Mechanical properties :
#
#
# Convention : Reuss Voigt Hill
#
# Bulk Modulus (GPa) = 64.98369 67.55100 66.26735
# Shear Modulus (GPa) = 14.86538 24.98210 19.92374
#
# Velocity S-wave (km/s) = 3.02972 3.92761 3.50752
# Velocity P-wave (km/s) = 7.23641 7.89178 7.57119
#
# Compressibility (1/GPa) = 0.01538848
#
# Stress axis : x y z
#
# Youngs Moduli (GPa) = 67.63148 79.71257 49.69943
#
# Poissons Ratio (x) = 0.05289 0.47008
# Poissons Ratio (y) = 0.04487 0.29371
# Poissons Ratio (z) = 0.63969 0.47109
#
# Static dielectric constant tensor:
#      x y z
#    x 1.589210 0.000000 -0.018400 
#    y 0.000000 1.510050 0.000000 
#    z -0.018400 0.000000 1.615470 
# 
# From -- ./inp_files/49859.got.cif
#   From: 2010.05.17/outbox.cif.g08.bks.cpg/sg12_25_cif.got.tgz:49859.got - 2010.06.03 13:09:07.
