data_PCOD9175380
_publ_section_title
;
Structure prediction by ZEFSAII (Michael W. Deem and Ramdas Pophale) SiO2 
 PCOD9175380
Probable space group: C 2/M
;
_chemical_formula_sum "Si O2"
_cell_formula_units_Z 40
_cell_length_a 15.167611
_cell_length_b 17.284087
_cell_length_c 8.568120
_cell_angle_alpha 90.000000
_cell_angle_beta 127.912987
_cell_angle_gamma 90.000000
_cell_volume 1772.130902
_symmetry_space_group_name_H-M "C 2/M"
_symmetry_group_IT_number 12
_symmetry_cell_setting 'monoclinic'
loop_
_space_group_symop_operation_xyz
x,y,z
-x,y,-z
-x,-y,-z
x,-y,z
1/2+x,1/2+y,z
1/2-x,1/2+y,-z
1/2-x,1/2-y,-z
1/2+x,1/2-y,z
loop_
_atom_site_type_symbol
_atom_site_label
_atom_site_fract_x
_atom_site_fract_y
_atom_site_fract_z
Si Si1 0.115928 0.269472 0.213516
Si Si2 0.108151 0.874669 0.408708
Si Si3 0.663669 0.086165 0.464131
Si Si4 0.368064 0.648103 0.206329
Si Si5 0.689572 0.189028 0.776483
O O1 0.123205 0.214281 0.372130
O O2 0.127878 0.356739 0.285738
O O3 0.212261 0.237510 0.204843
O O4 0.000000 0.258049 0.000000
O O5 0.200910 0.916753 0.407097
O O6 0.134779 0.883920 0.620756
O O7 0.976539 0.889895 0.244008
O O8 0.638297 0.129725 0.598214
O O9 0.617970 0.000000 0.405938
O O10 0.387655 0.741591 0.244705
O O11 0.254652 0.643470 0.984415
#
# Coordination Sequence:
#
# PCOD9175380 Si02
#       5
#     8   8   8   8   8
#     4  11  19  36  59  83 108 149 202 240 267 330
#     4  10  19  35  59  88 110 142 192 241 281 328
#     4  11  23  39  54  81 123 160 184 222 287 356
#     4  10  18  32  62  89 109 133 192 250 287 310
#     4  10  19  35  60  87 109 147 196 241 278 328
#
# _framework density 22.571697
#
# number of rings (size 3 to 8) (size 9 to 14) (size 15 to 20)
#    0.000    1.600    6.000    1.200    0.000    0.400 
#    0.000    5.000    0.000    2.400    0.000    0.000 
#    0.000    0.000    0.000    0.000    0.000    0.000 
#
# Total GULP energy -111689.117535 kJ/mol
# GULP energy per Si atom -5584.455877 kJ/mol
# Density = 2.252032 g / cm^3
# Si number density = 22.571697 Si / 1000 Ang^3
#
#
#
# Elastic Constant Matrix: (Units=GPa)
#
#
# Indices 1 2 3 4 5 6 
#
# 1 53.8546 -13.2406 4.2685 0.0000 -0.5941 0.0000
# 2 -13.2406 90.9446 11.6268 0.0000 -7.3002 0.0000
# 3 4.2685 11.6268 76.6783 0.0000 -5.4575 0.0000
# 4 0.0000 0.0000 0.0000 6.3752 0.0000 -0.1244
# 5 -0.5941 -7.3002 -5.4575 0.0000 25.1017 0.0000
# 6 0.0000 0.0000 0.0000 -0.1244 0.0000 6.0131
#
#
#
# Elastic Compliance Matrix: (Units=1/GPa)
#
#
# Indices 1 2 3 4 5 6 
#
# 1 0.019461 0.003106 -0.001480 0.000000 0.001042 0.000000
# 2 0.003106 0.011926 -0.001756 0.000000 0.003160 0.000000
# 3 -0.001480 -0.001756 0.013561 0.000000 0.002403 0.000000
# 4 0.000000 0.000000 0.000000 0.156922 0.000000 0.003247
# 5 0.001042 0.003160 0.002403 0.000000 0.041304 0.000000
# 6 0.000000 0.000000 0.000000 0.003247 0.000000 0.166370
#
#
# Mechanical properties :
#
#
# Convention : Reuss Voigt Hill
#
# Bulk Modulus (GPa) = 22.37751 25.19856 23.78803
# Shear Modulus (GPa) = 11.77297 22.08617 16.92957
#
# Velocity S-wave (km/s) = 2.28629 3.13148 2.74165
# Velocity P-wave (km/s) = 4.11157 4.92574 4.53695
#
# Compressibility (1/GPa) = 0.04468772
#
# Stress axis : x y z
#
# Youngs Moduli (GPa) = 51.38474 83.84942 73.73969
#
# Poissons Ratio (x) = -0.26045 0.10915
# Poissons Ratio (y) = -0.15961 0.12951
# Poissons Ratio (z) = 0.07606 0.14727
#
# Static dielectric constant tensor:
#      x y z
#    x 1.905010 0.000000 0.002280 
#    y 0.000000 1.831210 0.000000 
#    z 0.002280 0.000000 1.846220 
# 
# From -- ./inp_files/61372.got.cif
#   From: 2010.05.17/outbox.cif.g08.bks.cpg/sg12_31_cif.got.tgz:61372.got - 2010.06.03 13:09:07.
