data_PCOD9175823
_publ_section_title
;
Structure prediction by ZEFSAII (Michael W. Deem and Ramdas Pophale) SiO2 
 PCOD9175823
Probable space group: C 2/M
;
_chemical_formula_sum "Si O2"
_cell_formula_units_Z 64
_cell_length_a 20.321373
_cell_length_b 7.419329
_cell_length_c 25.012354
_cell_angle_alpha 90.000000
_cell_angle_beta 131.180354
_cell_angle_gamma 90.000000
_cell_volume 2838.310838
_symmetry_space_group_name_H-M "C 2/M"
_symmetry_group_IT_number 12
_symmetry_cell_setting 'monoclinic'
loop_
_space_group_symop_operation_xyz
x,y,z
-x,y,-z
-x,-y,-z
x,-y,z
1/2+x,1/2+y,z
1/2-x,1/2+y,-z
1/2-x,1/2-y,-z
1/2+x,1/2-y,z
loop_
_atom_site_type_symbol
_atom_site_label
_atom_site_fract_x
_atom_site_fract_y
_atom_site_fract_z
Si Si1 0.162988 0.780638 0.241367
Si Si2 0.962054 0.782680 0.125770
Si Si3 0.589709 0.707675 0.384094
Si Si4 0.052660 0.792788 0.478019
Si Si5 0.754474 0.780382 0.601920
Si Si6 0.430200 0.210033 0.228605
Si Si7 0.410950 0.719859 0.982579
Si Si8 0.748562 0.279514 0.177354
O O1 0.203015 0.724547 0.319079
O O2 0.220128 0.723937 0.221293
O O3 0.063031 0.721501 0.180345
O O4 0.161593 0.000000 0.240636
O O5 0.921099 0.729154 0.160188
O O6 0.963102 0.000000 0.124905
O O7 0.915599 0.721205 0.046639
O O8 0.609040 0.500000 0.408055
O O9 0.547707 0.788058 0.415490
O O10 0.680372 0.784405 0.410093
O O11 0.519446 0.707646 0.298774
O O12 0.155862 0.785656 0.545137
O O13 0.000000 0.711387 0.500000
O O14 0.020746 0.000000 0.457081
O O15 0.752653 0.000000 0.599566
O O16 0.344091 0.283092 0.211281
O O17 0.437625 0.000000 0.245413
O O18 0.410590 0.500000 0.982027
O O19 0.326127 0.777840 0.904380
O O20 0.500000 0.774167 0.000000
O O21 0.749518 0.500000 0.176857
#
# Coordination Sequence:
#
# PCOD9175823 Si02
#       8
#     8   8   8   8   8   8   8   8
#     4   9  16  30  53  80 108 136 178 234 274 303
#     4  10  18  33  58  82 107 141 185 231 271 319
#     4  10  21  40  61  79 107 145 186 225 263 318
#     4  10  23  40  57  83 118 148 172 214 274 330
#     4  10  20  35  59  84 106 142 187 230 265 306
#     4  11  23  35  52  80 115 147 175 221 280 329
#     4   9  15  27  53  83 105 137 187 235 272 312
#     4   9  18  31  48  79 114 139 178 234 278 314
#
# _framework density 22.548621000000001
#
# number of rings (size 3 to 8) (size 9 to 14) (size 15 to 20)
#    0.000    2.250    2.500    0.750    1.750    1.750 
#    0.000    0.000    0.000    2.625    0.000    0.000 
#    0.000    0.000    0.000    0.000    0.000    0.000 
#
# Total GULP energy -178814.210432 kJ/mol
# GULP energy per Si atom -5587.944076 kJ/mol
# Density = 2.249730 g / cm^3
# Si number density = 22.548621 Si / 1000 Ang^3
#
#
#
# Elastic Constant Matrix: (Units=GPa)
#
#
# Indices 1 2 3 4 5 6 
#
# 1 148.2322 3.5874 24.1545 0.0000 -22.1029 0.0000
# 2 3.5874 74.2003 -0.6800 0.0001 -1.8006 -0.0003
# 3 24.1545 -0.6800 85.4178 0.0000 -23.4351 0.0000
# 4 0.0000 0.0001 0.0000 -9.8108 0.0000 24.4405
# 5 -22.1029 -1.8006 -23.4351 0.0000 44.1831 0.0000
# 6 0.0000 -0.0003 0.0000 24.4405 0.0000 -31.0323
#
#
#
# Elastic Compliance Matrix: (Units=1/GPa)
#
#
# Indices 1 2 3 4 5 6 
#
# 1 0.007411 -0.000297 -0.001269 0.000000 0.003022 0.000000
# 2 -0.000297 0.013509 0.000353 0.000000 0.000589 0.000000
# 3 -0.001269 0.000353 0.013925 0.000000 0.006766 0.000000
# 4 0.000000 0.000000 0.000000 0.105954 0.000000 0.083448
# 5 0.003022 0.000589 0.006766 0.000000 0.027758 0.000000
# 6 0.000000 0.000000 0.000000 0.083448 0.000000 0.033497
#
#
# Mechanical properties :
#
#
# Convention : Reuss Voigt Hill
#
# Bulk Modulus (GPa) = 30.84505 40.21936 35.53221
# Shear Modulus (GPa) = 23.22502 19.38721 21.30611
#
# Velocity S-wave (km/s) = 3.21284 2.93541 3.07725
# Velocity P-wave (km/s) = 5.24139 5.41888 5.33087
#
# Compressibility (1/GPa) = 0.03242011
#
# Stress axis : x y z
#
# Youngs Moduli (GPa) = 134.93921 74.02522 71.81345
#
# Poissons Ratio (x) = 0.02195 0.09112
# Poissons Ratio (y) = 0.04002 -0.02536
# Poissons Ratio (z) = 0.17121 -0.02614
#
# Static dielectric constant tensor:
#      x y z
#    x 1.809620 0.000000 -0.027330 
#    y 0.000000 1.861040 0.000000 
#    z -0.027330 0.000000 1.794840 
# 
# From -- ./inp_files/346125.got.cif
#   From: 2010.05.17/outbox.cif.g08.bks.cpg/sg12_174_cif.got.tgz:346125.got - 2010.06.03 13:09:07.
