data_PCOD9175282
_publ_section_title
;
Structure prediction by ZEFSAII (Michael W. Deem and Ramdas Pophale) SiO2 
 PCOD9175282
Probable space group: C 2/M
;
_chemical_formula_sum "Si O2"
_cell_formula_units_Z 64
_cell_length_a 14.191453
_cell_length_b 19.503279
_cell_length_c 16.934026
_cell_angle_alpha 90.000000
_cell_angle_beta 37.274147
_cell_angle_gamma 90.000000
_cell_volume 2838.583489
_symmetry_space_group_name_H-M "C 2/M"
_symmetry_group_IT_number 12
_symmetry_cell_setting 'monoclinic'
loop_
_space_group_symop_operation_xyz
x,y,z
-x,y,-z
-x,-y,-z
x,-y,z
1/2+x,1/2+y,z
1/2-x,1/2+y,-z
1/2-x,1/2-y,-z
1/2+x,1/2-y,z
loop_
_atom_site_type_symbol
_atom_site_label
_atom_site_fract_x
_atom_site_fract_y
_atom_site_fract_z
Si Si1 0.144246 0.819166 0.856194
Si Si2 0.933948 0.418040 0.634100
Si Si3 0.876525 0.777646 0.305674
Si Si4 0.718327 0.424089 0.138930
Si Si5 0.360549 0.574280 0.356242
Si Si6 0.230358 0.216816 0.097551
Si Si7 0.336566 0.581583 0.642881
Si Si8 0.320082 0.127476 0.394448
O O1 0.274656 0.875726 0.750574
O O2 0.103417 0.779242 0.802347
O O3 0.202839 0.762319 0.877941
O O4 0.000000 0.852046 0.000000
O O5 0.914174 0.500000 0.656363
O O6 0.000000 0.406756 0.500000
O O7 0.042522 0.392140 0.635819
O O8 0.797290 0.851885 0.371363
O O9 0.802456 0.709472 0.392605
O O10 0.044374 0.784913 0.234192
O O11 0.788008 0.500000 0.087743
O O12 0.543932 0.428453 0.218473
O O13 0.800020 0.359457 0.046049
O O14 0.692563 0.401791 0.246566
O O15 0.294365 0.500000 0.374064
O O16 0.323612 0.583505 0.473099
O O17 0.250000 0.250000 0.000000
O O18 0.500000 0.612136 0.500000
O O19 0.350959 0.500000 0.631602
O O20 0.186954 0.602023 0.690630
#
# Coordination Sequence:
#
# PCOD9175282 Si02
#       8
#     8   8   8   8   8   8   8   8
#     4  12  25  46  72 100 132 183 236 287 345 408
#     4  11  26  47  70 101 145 189 230 285 350 412
#     4  11  24  40  66  95 127 173 232 284 337 407
#     4   9  19  36  61  94 131 171 220 272 337 417
#     4  10  20  36  60  93 136 180 218 272 341 407
#     4  11  22  44  67  91 129 168 223 287 349 402
#     4  10  18  32  57  93 135 174 211 262 333 411
#     4  12  21  38  64  97 135 181 226 275 340 413
#
# _framework density 22.546455000000002
#
# number of rings (size 3 to 8) (size 9 to 14) (size 15 to 20)
#    0.000    1.250    3.750    3.000    0.000    1.750 
#    0.000    0.625    0.000    0.375    0.000    0.000 
#    0.000    0.000    0.000    0.000    0.000    0.000 
#
# Total GULP energy -178324.708383 kJ/mol
# GULP energy per Si atom -5572.647137 kJ/mol
# Density = 2.249514 g / cm^3
# Si number density = 22.546455 Si / 1000 Ang^3
#
#
#
# Elastic Constant Matrix: (Units=GPa)
#
#
# Indices 1 2 3 4 5 6 
#
# 1 112.8720 35.8218 20.8863 -0.0017 10.0879 0.0003
# 2 35.8218 154.9229 53.4269 0.0002 28.4690 -0.0005
# 3 20.8863 53.4269 56.8756 -0.0014 0.6494 0.0006
# 4 -0.0017 0.0002 -0.0014 27.2267 0.0003 7.7926
# 5 10.0879 28.4690 0.6494 0.0003 25.9769 0.0002
# 6 0.0003 -0.0005 0.0006 7.7926 0.0002 21.5337
#
#
#
# Elastic Compliance Matrix: (Units=1/GPa)
#
#
# Indices 1 2 3 4 5 6 
#
# 1 0.009897 -0.000745 -0.002901 0.000001 -0.002954 0.000000
# 2 -0.000745 0.013416 -0.012168 -0.000001 -0.014110 0.000001
# 3 -0.002901 -0.012168 0.029921 0.000002 0.013714 -0.000002
# 4 0.000001 -0.000001 0.000002 0.040972 0.000000 -0.014827
# 5 -0.002954 -0.014110 0.013714 0.000000 0.054763 -0.000001
# 6 0.000000 0.000001 -0.000002 -0.014827 -0.000001 0.051805
#
#
# Mechanical properties :
#
#
# Convention : Reuss Voigt Hill
#
# Bulk Modulus (GPa) = 46.28246 60.54895 53.41570
# Shear Modulus (GPa) = 20.86772 29.24983 25.05877
#
# Velocity S-wave (km/s) = 3.04557 3.60573 3.33743
# Velocity P-wave (km/s) = 5.73930 6.65196 6.21241
#
# Compressibility (1/GPa) = 0.02160646
#
# Stress axis : x y z
#
# Youngs Moduli (GPa) = 101.04194 74.53650 33.42124
#
# Poissons Ratio (x) = 0.05554 0.09694
# Poissons Ratio (y) = 0.07529 0.40667
# Poissons Ratio (z) = 0.29309 0.90696
#
# Static dielectric constant tensor:
#      x y z
#    x 2.013160 0.000000 0.251190 
#    y 0.000000 1.876060 0.000000 
#    z 0.251190 0.000000 2.543460 
# 
# From -- ./inp_files/271725.got.cif
#   From: 2010.05.17/outbox.cif.g08.bks.cpg/sg12_136_cif.got.tgz:271725.got - 2010.06.03 13:09:07.
