data_PCOD9175542
_publ_section_title
;
Structure prediction by ZEFSAII (Michael W. Deem and Ramdas Pophale) SiO2 
 PCOD9175542
Probable space group: C 2/M
;
_chemical_formula_sum "Si O2"
_cell_formula_units_Z 50
_cell_length_a 29.532934
_cell_length_b 7.273161
_cell_length_c 30.279039
_cell_angle_alpha 90.000000
_cell_angle_beta 160.267360
_cell_angle_gamma 90.000000
_cell_volume 2195.911780
_symmetry_space_group_name_H-M "C 2/M"
_symmetry_group_IT_number 12
_symmetry_cell_setting 'monoclinic'
loop_
_space_group_symop_operation_xyz
x,y,z
-x,y,-z
-x,-y,-z
x,-y,z
1/2+x,1/2+y,z
1/2-x,1/2+y,-z
1/2-x,1/2-y,-z
1/2+x,1/2-y,z
loop_
_atom_site_type_symbol
_atom_site_label
_atom_site_fract_x
_atom_site_fract_y
_atom_site_fract_z
Si Si1 0.566066 0.289172 0.244532
Si Si2 0.449546 0.776659 0.405999
Si Si3 0.500000 0.000000 0.000000
Si Si4 0.718611 0.721750 0.048072
Si Si5 0.489513 0.777736 0.708793
Si Si6 0.173149 0.219701 0.108830
Si Si7 0.644528 0.775110 0.506235
O O1 0.560032 0.500000 0.223339
O O2 0.578950 0.286801 0.309243
O O3 0.702198 0.211199 0.349330
O O4 0.421322 0.207852 0.099991
O O5 0.500000 0.715147 0.500000
O O6 0.297503 0.725861 0.254643
O O7 0.549323 0.717243 0.458741
O O8 0.451280 0.000000 0.407428
O O9 0.451516 0.160911 0.990630
O O10 0.720845 0.500000 0.044923
O O11 0.855711 0.786240 0.151477
O O12 0.718462 0.758123 0.100244
O O13 0.416618 0.719597 0.596993
O O14 0.488059 0.000000 0.708287
O O15 0.149750 0.000000 0.090564
O O16 0.645483 0.000000 0.507063
#
# Coordination Sequence:
#
# PCOD9175542 Si02
#       7
#     8   8   2   8   8   8   8
#     4  10  20  32  51  85 115 146 197 249 296 357
#     4   9  17  33  63  92 111 153 214 254 305 377
#     4  12  26  40  62  98 124 156 222 254 308 378
#     4   9  18  35  58  79 112 157 196 237 302 366
#     4  10  18  33  54  76 111 154 194 235 299 369
#     4  10  21  42  65  89 125 166 203 257 317 369
#     4   9  17  31  52  78 113 149 192 248 296 359
#
# _framework density 22.769583999999998
#
# number of rings (size 3 to 8) (size 9 to 14) (size 15 to 20)
#    0.000    2.400    1.600    1.200    0.000    1.280 
#    2.880    5.200    1.760    0.000    0.000    0.000 
#    0.000    0.000    0.000    0.000    0.000    0.000 
#
# Total GULP energy -139487.076394 kJ/mol
# GULP energy per Si atom -5579.483056 kJ/mol
# Density = 2.271776 g / cm^3
# Si number density = 22.769584 Si / 1000 Ang^3
#
#
#
# Elastic Constant Matrix: (Units=GPa)
#
#
# Indices 1 2 3 4 5 6 
#
# 1 39.5117 3.5273 -9.7459 -0.0005 -7.7501 0.0002
# 2 3.5273 106.9175 -0.4119 -0.0018 6.9190 0.0002
# 3 -9.7459 -0.4119 70.7239 -0.0013 -9.4857 0.0004
# 4 -0.0005 -0.0018 -0.0013 -16.6455 -0.0006 -5.9864
# 5 -7.7501 6.9190 -9.4857 -0.0006 37.9500 0.0005
# 6 0.0002 0.0002 0.0004 -5.9864 0.0005 1.0356
#
#
#
# Elastic Compliance Matrix: (Units=1/GPa)
#
#
# Indices 1 2 3 4 5 6 
#
# 1 0.028027 -0.001371 0.004817 0.000001 0.007178 -0.000006
# 2 -0.001371 0.009534 -0.000418 0.000000 -0.002123 -0.000002
# 3 0.004817 -0.000418 0.015461 0.000001 0.004925 -0.000006
# 4 0.000001 0.000000 0.000001 -0.019512 0.000001 -0.112790
# 5 0.007178 -0.002123 0.004925 0.000001 0.029434 -0.000008
# 6 -0.000006 -0.000002 -0.000006 -0.112790 -0.000008 0.313619
#
#
# Mechanical properties :
#
#
# Convention : Reuss Voigt Hill
#
# Bulk Modulus (GPa) = 16.92643 22.65469 19.79056
# Shear Modulus (GPa) = 12.81394 19.38693 16.10044
#
# Velocity S-wave (km/s) = 2.37484 2.92111 2.66203
# Velocity P-wave (km/s) = 3.86908 4.62042 4.26134
#
# Compressibility (1/GPa) = 0.05907921
#
# Stress axis : x y z
#
# Youngs Moduli (GPa) = 35.67950 104.88810 64.67748
#
# Poissons Ratio (x) = 0.14376 -0.31155
# Poissons Ratio (y) = 0.04890 0.02704
# Poissons Ratio (z) = -0.17187 0.04385
#
# Static dielectric constant tensor:
#      x y z
#    x 1.783710 0.000000 0.008770 
#    y 0.000000 1.943770 0.000000 
#    z 0.008770 0.000000 1.856690 
# 
# From -- ./inp_files/384827.got.cif
#   From: 2010.05.17/outbox.cif.g08.bks.cpg/sg12_193_cif.got.tgz:384827.got - 2010.06.03 13:09:07.
