data_PCOD9175128
_publ_section_title
;
Structure prediction by ZEFSAII (Michael W. Deem and Ramdas Pophale) SiO2 
 PCOD9175128
Probable space group: C 2/M
;
_chemical_formula_sum "Si O2"
_cell_formula_units_Z 56
_cell_length_a 21.023142
_cell_length_b 7.994765
_cell_length_c 28.598993
_cell_angle_alpha 90.000000
_cell_angle_beta 34.292372
_cell_angle_gamma 90.000000
_cell_volume 2708.215952
_symmetry_space_group_name_H-M "C 2/M"
_symmetry_group_IT_number 12
_symmetry_cell_setting 'monoclinic'
loop_
_space_group_symop_operation_xyz
x,y,z
-x,y,-z
-x,-y,-z
x,-y,z
1/2+x,1/2+y,z
1/2-x,1/2+y,-z
1/2-x,1/2-y,-z
1/2+x,1/2-y,z
loop_
_atom_site_type_symbol
_atom_site_label
_atom_site_fract_x
_atom_site_fract_y
_atom_site_fract_z
Si Si1 0.884821 0.701031 0.787138
Si Si2 0.519640 0.704202 0.934219
Si Si3 0.363727 0.691520 0.370206
Si Si4 0.436474 0.811360 0.582256
Si Si5 0.874035 0.185468 0.476303
Si Si6 0.772948 0.705485 0.757733
Si Si7 0.210758 0.798155 0.972245
O O1 0.877750 0.500000 0.790112
O O2 0.842787 0.760200 0.761463
O O3 0.799367 0.761671 0.879078
O O4 0.013729 0.747494 0.719688
O O5 0.520172 0.500000 0.933819
O O6 0.643226 0.756970 0.842173
O O7 0.500000 0.755096 0.000000
O O8 0.414621 0.759803 0.966248
O O9 0.348254 0.500000 0.365266
O O10 0.249895 0.788938 0.426636
O O11 0.366701 0.699160 0.424947
O O12 0.500000 0.728194 0.500000
O O13 0.535912 0.815986 0.560097
O O14 0.331835 0.736039 0.674082
O O15 0.403797 0.000000 0.587234
O O16 0.915993 0.000000 0.461941
O O17 0.776901 0.500000 0.754568
O O18 0.209400 0.000000 0.970659
O O19 0.250000 0.750000 0.000000
#
# Coordination Sequence:
#
# PCOD9175128 Si02
#       7
#     8   8   8   8   8   8   8
#     4  10  18  32  56  80 104 141 183 227 279 332
#     4   9  15  29  55  84 105 134 187 236 270 320
#     4  10  20  33  53  80 105 134 178 229 272 322
#     4  10  20  34  52  76 109 145 182 229 278 328
#     4  10  20  34  53  76 105 141 178 221 276 332
#     4   9  16  29  53  79 103 134 180 234 276 316
#     4  10  21  36  56  82 115 148 181 227 284 340
#
# _framework density 20.677820000000001
#
# number of rings (size 3 to 8) (size 9 to 14) (size 15 to 20)
#    0.000    2.286    2.857    0.857    0.000    2.000 
#    2.571    0.000    0.000    2.143    0.000    0.000 
#    0.000    0.000    0.000    0.000    0.000    0.000 
#
# Total GULP energy -156145.236000 kJ/mol
# GULP energy per Si atom -5576.615571 kJ/mol
# Density = 2.063076 g / cm^3
# Si number density = 20.677820 Si / 1000 Ang^3
#
#
#
# Elastic Constant Matrix: (Units=GPa)
#
#
# Indices 1 2 3 4 5 6 
#
# 1 57.9162 1.9457 48.4170 -0.0007 2.4804 0.0011
# 2 1.9457 20.1683 1.0440 -0.0005 2.7525 0.0032
# 3 48.4170 1.0440 197.9286 -0.0003 0.0882 0.0005
# 4 -0.0007 -0.0005 -0.0003 4.3936 0.0001 -1.7410
# 5 2.4804 2.7525 0.0882 0.0001 37.7213 -0.0002
# 6 0.0011 0.0032 0.0005 -1.7410 -0.0002 17.9333
#
#
#
# Elastic Compliance Matrix: (Units=1/GPa)
#
#
# Indices 1 2 3 4 5 6 
#
# 1 0.021835 -0.001653 -0.005332 0.000002 -0.001303 -0.000001
# 2 -0.001653 0.050220 0.000141 0.000002 -0.003556 -0.000009
# 3 -0.005332 0.000141 0.006356 0.000000 0.000325 0.000000
# 4 0.000002 0.000002 0.000000 0.236708 -0.000001 0.022980
# 5 -0.001303 -0.003556 0.000325 -0.000001 0.026855 0.000001
# 6 -0.000001 -0.000009 0.000000 0.022980 0.000001 0.057993
#
#
# Mechanical properties :
#
#
# Convention : Reuss Voigt Hill
#
# Bulk Modulus (GPa) = 15.45029 42.09184 28.77106
# Shear Modulus (GPa) = 11.48821 26.98339 19.23580
#
# Velocity S-wave (km/s) = 2.35963 3.61632 3.05333
# Velocity P-wave (km/s) = 3.86160 6.15120 5.13562
#
# Compressibility (1/GPa) = 0.06472372
#
# Stress axis : x y z
#
# Youngs Moduli (GPa) = 45.79787 19.91226 157.33817
#
# Poissons Ratio (x) = 0.03291 0.83892
# Poissons Ratio (y) = 0.07569 -0.02218
# Poissons Ratio (z) = 0.24419 -0.00281
#
# Static dielectric constant tensor:
#      x y z
#    x 1.726500 0.000000 0.011690 
#    y 0.000000 1.774600 0.000000 
#    z 0.011690 0.000000 1.755670 
# 
# From -- ./inp_files/380621.got.cif
#   From: 2010.05.17/outbox.cif.g08.bks.cpg/sg12_191_cif.got.tgz:380621.got - 2010.06.03 13:09:07.
