data_PCOD9175840
_publ_section_title
;
Structure prediction by ZEFSAII (Michael W. Deem and Ramdas Pophale) SiO2 
 PCOD9175840
Probable space group: C 2/M
;
_chemical_formula_sum "Si O2"
_cell_formula_units_Z 64
_cell_length_a 33.274577
_cell_length_b 7.521459
_cell_length_c 25.360652
_cell_angle_alpha 90.000000
_cell_angle_beta 26.441562
_cell_angle_gamma 90.000000
_cell_volume 2826.265302
_symmetry_space_group_name_H-M "C 2/M"
_symmetry_group_IT_number 12
_symmetry_cell_setting 'monoclinic'
loop_
_space_group_symop_operation_xyz
x,y,z
-x,y,-z
-x,-y,-z
x,-y,z
1/2+x,1/2+y,z
1/2-x,1/2+y,-z
1/2-x,1/2-y,-z
1/2+x,1/2-y,z
loop_
_atom_site_type_symbol
_atom_site_label
_atom_site_fract_x
_atom_site_fract_y
_atom_site_fract_z
Si Si1 0.424389 0.217254 0.047923
Si Si2 0.704464 0.708215 0.190032
Si Si3 0.785969 0.210565 0.399360
Si Si4 0.995801 0.290775 0.154703
Si Si5 0.132386 0.293039 0.502201
Si Si6 0.719995 0.715464 0.290900
Si Si7 0.635271 0.782865 0.073718
Si Si8 0.070011 0.284379 0.260189
O O1 0.323325 0.269390 0.181104
O O2 0.425289 0.000000 0.046555
O O3 0.500000 0.276041 0.000000
O O4 0.452352 0.281626 0.957173
O O5 0.726818 0.500000 0.170331
O O6 0.699316 0.778123 0.255644
O O7 0.613112 0.726306 0.264475
O O8 0.783368 0.781082 0.059155
O O9 0.750000 0.250000 0.500000
O O10 0.889048 0.272254 0.274271
O O11 0.714285 0.284264 0.440966
O O12 0.790474 0.000000 0.386595
O O13 0.014619 0.500000 0.132386
O O14 0.042315 0.227282 0.153752
O O15 0.126080 0.500000 0.525470
O O16 0.157753 0.282234 0.411020
O O17 0.032177 0.219195 0.627799
O O18 0.714546 0.500000 0.298564
O O19 0.631108 0.723286 0.139058
O O20 0.640047 0.000000 0.070260
O O21 0.068885 0.500000 0.261877
#
# Coordination Sequence:
#
# PCOD9175840 Si02
#       8
#     8   8   8   8   8   8   8   8
#     4   9  16  28  51  82 109 138 181 224 267 328
#     4  10  20  36  58  86 115 142 182 236 291 336
#     4  11  23  39  58  83 115 151 192 235 281 334
#     4  10  18  33  58  84 112 147 183 227 281 334
#     4  10  23  41  57  79 114 154 193 232 281 340
#     4  10  20  36  58  85 114 146 188 236 281 334
#     4   9  17  34  59  84 113 147 183 230 287 344
#     4  10  21  37  57  79 106 148 196 233 280 344
#
# _framework density 22.644724
#
# number of rings (size 3 to 8) (size 9 to 14) (size 15 to 20)
#    0.000    2.125    1.250    2.250    0.000    5.500 
#    0.000    5.625    0.000    2.250    0.000    0.000 
#    0.000    0.000    0.000    0.000    0.000    0.000 
#
# Total GULP energy -178779.301235 kJ/mol
# GULP energy per Si atom -5586.853164 kJ/mol
# Density = 2.259318 g / cm^3
# Si number density = 22.644724 Si / 1000 Ang^3
#
#
#
# Elastic Constant Matrix: (Units=GPa)
#
#
# Indices 1 2 3 4 5 6 
#
# 1 117.2376 -9.3974 9.1330 -0.0126 1.4535 0.0023
# 2 -9.3974 50.3577 -15.8004 -0.0461 -0.6866 0.0150
# 3 9.1330 -15.8004 75.5467 -0.0429 5.1844 0.0136
# 4 -0.0126 -0.0461 -0.0429 7.6820 0.0190 -3.3303
# 5 1.4535 -0.6866 5.1844 0.0190 37.1379 -0.0006
# 6 0.0023 0.0150 0.0136 -3.3303 -0.0006 15.4028
#
#
#
# Elastic Compliance Matrix: (Units=1/GPa)
#
#
# Indices 1 2 3 4 5 6 
#
# 1 0.008702 0.001386 -0.000748 0.000020 -0.000211 0.000002
# 2 0.001386 0.021476 0.004342 0.000160 -0.000263 0.000010
# 3 -0.000748 0.004342 0.014366 0.000113 -0.001896 0.000008
# 4 0.000020 0.000160 0.000113 0.143639 -0.000086 0.031056
# 5 -0.000211 -0.000263 -0.001896 -0.000086 0.027195 -0.000016
# 6 0.000002 0.000010 0.000008 0.031056 -0.000016 0.071638
#
#
# Mechanical properties :
#
#
# Convention : Reuss Voigt Hill
#
# Bulk Modulus (GPa) = 18.34698 23.44582 20.89640
# Shear Modulus (GPa) = 16.93648 29.32501 23.13074
#
# Velocity S-wave (km/s) = 2.73778 3.60252 3.19950
# Velocity P-wave (km/s) = 4.25601 5.26122 4.78508
#
# Compressibility (1/GPa) = 0.05450489
#
# Stress axis : x y z
#
# Youngs Moduli (GPa) = 114.92055 46.56447 69.61103
#
# Poissons Ratio (x) = -0.06456 0.05204
# Poissons Ratio (y) = -0.15933 -0.30226
# Poissons Ratio (z) = 0.08591 -0.20219
#
# Static dielectric constant tensor:
#      x y z
#    x 1.839940 -0.000010 -0.008000 
#    y -0.000010 1.880360 0.000020 
#    z -0.008000 0.000020 1.808300 
# 
# From -- ./inp_files/353317.got.cif
#   From: 2010.05.17/outbox.cif.g08.bks.cpg/sg12_177_cif.got.tgz:353317.got - 2010.06.03 13:09:07.
