data_PCOD9175141
_publ_section_title
;
Structure prediction by ZEFSAII (Michael W. Deem and Ramdas Pophale) SiO2 
 PCOD9175141
Probable space group: C 2/M
;
_chemical_formula_sum "Si O2"
_cell_formula_units_Z 40
_cell_length_a 8.404897
_cell_length_b 23.420817
_cell_length_c 14.231081
_cell_angle_alpha 90.000000
_cell_angle_beta 36.805153
_cell_angle_gamma 90.000000
_cell_volume 1678.295635
_symmetry_space_group_name_H-M "C 2/M"
_symmetry_group_IT_number 12
_symmetry_cell_setting 'monoclinic'
loop_
_space_group_symop_operation_xyz
x,y,z
-x,y,-z
-x,-y,-z
x,-y,z
1/2+x,1/2+y,z
1/2-x,1/2+y,-z
1/2-x,1/2-y,-z
1/2+x,1/2-y,z
loop_
_atom_site_type_symbol
_atom_site_label
_atom_site_fract_x
_atom_site_fract_y
_atom_site_fract_z
Si Si1 0.504932 0.935709 0.383155
Si Si2 0.524431 0.630062 0.151809
Si Si3 0.718150 0.732595 0.811809
Si Si4 0.083305 0.069031 0.320241
Si Si5 0.052003 0.660275 0.787565
O O1 0.500000 0.937604 0.500000
O O2 0.209781 0.912741 0.508262
O O3 0.775220 0.904672 0.225943
O O4 0.516270 0.000000 0.341589
O O5 0.397546 0.693369 0.218297
O O6 0.610704 0.594541 0.202034
O O7 0.778489 0.642953 0.968539
O O8 0.965329 0.697754 0.738258
O O9 0.729216 0.796203 0.766614
O O10 0.500000 0.735284 0.000000
O O11 0.296665 0.100544 0.282961
O O12 0.100000 0.000000 0.312324
#
# Coordination Sequence:
#
# PCOD9175141 Si02
#       5
#     8   8   8   8   8
#     4   8  16  32  53  77 109 146 181 219 267 323
#     4  10  18  32  56  82 105 141 181 220 271 326
#     4  10  20  35  55  81 110 142 181 226 277 324
#     4  10  20  35  56  83 113 144 182 226 270 320
#     4  11  21  35  57  82 110 143 185 228 270 324
#
# _framework density 23.833705999999999
#
# number of rings (size 3 to 8) (size 9 to 14) (size 15 to 20)
#    0.000    2.200    0.000    7.200    0.000    2.400 
#    0.000    4.000    0.000   18.600    0.000    0.000 
#    0.000    0.000    0.000    0.000    0.000    0.000 
#
# Total GULP energy -111560.618583 kJ/mol
# GULP energy per Si atom -5578.030929 kJ/mol
# Density = 2.377946 g / cm^3
# Si number density = 23.833706 Si / 1000 Ang^3
#
#
#
# Elastic Constant Matrix: (Units=GPa)
#
#
# Indices 1 2 3 4 5 6 
#
# 1 80.5136 39.7621 46.7723 0.0000 -6.1670 0.0000
# 2 39.7621 87.2189 31.7561 0.0000 -0.7109 0.0000
# 3 46.7723 31.7561 40.4252 -0.0005 -6.0596 -0.0002
# 4 0.0000 0.0000 -0.0005 446.7915 0.0002 142.4457
# 5 -6.1670 -0.7109 -6.0596 0.0002 43.6045 0.0001
# 6 0.0000 0.0000 -0.0002 142.4457 0.0001 99.7761
#
#
#
# Elastic Compliance Matrix: (Units=1/GPa)
#
#
# Indices 1 2 3 4 5 6 
#
# 1 0.038108 -0.001810 -0.042756 0.000000 -0.000582 0.000000
# 2 -0.001810 0.016244 -0.010892 0.000000 -0.001505 0.000000
# 3 -0.042756 -0.010892 0.083570 0.000000 0.005389 0.000000
# 4 0.000000 0.000000 0.000000 0.004108 0.000000 -0.005865
# 5 -0.000582 -0.001505 0.005389 0.000000 0.023575 0.000000
# 6 0.000000 0.000000 0.000000 -0.005865 0.000000 0.018395
#
#
# Mechanical properties :
#
#
# Convention : Reuss Voigt Hill
#
# Bulk Modulus (GPa) = 37.02918 49.41542 43.22230
# Shear Modulus (GPa) = 16.45175 124.02557 70.23866
#
# Velocity S-wave (km/s) = 2.63015 7.22156 5.43455
# Velocity P-wave (km/s) = 4.97934 9.50331 7.58639
#
# Compressibility (1/GPa) = 0.02700573
#
# Stress axis : x y z
#
# Youngs Moduli (GPa) = 26.24124 61.56118 11.96600
#
# Poissons Ratio (x) = 0.11144 0.51162
# Poissons Ratio (y) = 0.04750 0.13033
# Poissons Ratio (z) = 1.12198 0.67050
#
# Static dielectric constant tensor:
#      x y z
#    x 2.021470 0.000000 0.047470 
#    y 0.000000 1.907910 0.000000 
#    z 0.047470 0.000000 1.892500 
# 
# From -- ./inp_files/197880.got.cif
#   From: 2010.05.17/outbox.cif.g08.bks.cpg/sg12_99_cif.got.tgz:197880.got - 2010.06.03 13:09:07.
