data_PCOD9175720
_publ_section_title
;
Structure prediction by ZEFSAII (Michael W. Deem and Ramdas Pophale) SiO2 
 PCOD9175720
Probable space group: C 2/M
;
_chemical_formula_sum "Si O2"
_cell_formula_units_Z 64
_cell_length_a 12.521844
_cell_length_b 25.318226
_cell_length_c 14.766299
_cell_angle_alpha 90.000000
_cell_angle_beta 46.169146
_cell_angle_gamma 90.000000
_cell_volume 3377.083297
_symmetry_space_group_name_H-M "C 2/M"
_symmetry_group_IT_number 12
_symmetry_cell_setting 'monoclinic'
loop_
_space_group_symop_operation_xyz
x,y,z
-x,y,-z
-x,-y,-z
x,-y,z
1/2+x,1/2+y,z
1/2-x,1/2+y,-z
1/2-x,1/2-y,-z
1/2+x,1/2-y,z
loop_
_atom_site_type_symbol
_atom_site_label
_atom_site_fract_x
_atom_site_fract_y
_atom_site_fract_z
Si Si1 0.083930 0.837862 0.546295
Si Si2 0.359106 0.098098 0.641430
Si Si3 0.964364 0.556760 0.297716
Si Si4 0.107942 0.668400 0.724569
Si Si5 0.333489 0.558317 0.412444
Si Si6 0.666179 0.795280 0.880583
Si Si7 0.121279 0.174513 0.857972
Si Si8 0.459872 0.720716 0.782706
O O1 0.259569 0.828351 0.426689
O O2 0.068321 0.892869 0.611015
O O3 0.000000 0.840625 0.500000
O O4 0.020239 0.792121 0.647343
O O5 0.500000 0.118913 0.500000
O O6 0.430188 0.061212 0.676350
O O7 0.247861 0.071313 0.634873
O O8 0.265396 0.140862 0.751628
O O9 0.991367 0.500000 0.235723
O O10 0.970154 0.611549 0.239145
O O11 0.798914 0.555833 0.436228
O O12 0.192891 0.675963 0.769969
O O13 0.995631 0.717882 0.782094
O O14 0.403386 0.500000 0.367078
O O15 0.665051 0.732168 0.868054
O O16 0.792174 0.800490 0.880935
O O17 0.500000 0.811633 0.000000
O O18 0.045826 0.186924 0.806406
O O19 0.000000 0.152094 0.000000
#
# Coordination Sequence:
#
# PCOD9175720 Si02
#       8
#     8   8   8   8   8   8   8   8
#     4  11  20  35  55  82 119 149 185 234 290 335
#     4  10  18  33  56  86 117 149 191 238 291 333
#     4   9  18  32  54  82 113 147 191 239 281 337
#     4  10  21  35  55  84 113 151 189 227 292 341
#     4   9  18  32  52  81 113 150 192 235 284 340
#     4  10  22  38  56  80 111 152 194 231 276 342
#     4  10  22  37  57  85 117 157 192 229 285 348
#     4  11  21  38  56  82 120 148 184 236 284 341
#
# _framework density 18.951264999999999
#
# number of rings (size 3 to 8) (size 9 to 14) (size 15 to 20)
#    0.000    2.000    2.500    1.500    0.000    7.250 
#    4.500    0.000    0.000    1.875    0.000    0.000 
#    0.000    0.000    0.000    0.000    0.000    0.000 
#
# Total GULP energy -178287.024744 kJ/mol
# GULP energy per Si atom -5571.469523 kJ/mol
# Density = 1.890813 g / cm^3
# Si number density = 18.951265 Si / 1000 Ang^3
#
#
#
# Elastic Constant Matrix: (Units=GPa)
#
#
# Indices 1 2 3 4 5 6 
#
# 1 66.7368 18.5865 -7.0982 0.0000 -7.9128 0.0000
# 2 18.5865 86.7592 22.6773 0.0000 0.4981 0.0000
# 3 -7.0982 22.6773 57.7293 0.0000 -5.1811 0.0000
# 4 0.0000 0.0000 0.0000 8.6597 0.0000 2.2630
# 5 -7.9128 0.4981 -5.1811 0.0000 17.4959 0.0000
# 6 0.0000 0.0000 0.0000 2.2630 0.0000 8.3112
#
#
#
# Elastic Compliance Matrix: (Units=1/GPa)
#
#
# Indices 1 2 3 4 5 6 
#
# 1 0.018198 -0.005319 0.005218 0.000000 0.009927 0.000000
# 2 -0.005319 0.014462 -0.006768 0.000000 -0.004822 0.000000
# 3 0.005218 -0.006768 0.021421 0.000000 0.008896 0.000000
# 4 0.000000 0.000000 0.000000 0.124325 0.000000 -0.033852
# 5 0.009927 -0.004822 0.008896 0.000000 0.064417 0.000000
# 6 0.000000 0.000000 0.000000 -0.033852 0.000000 0.129538
#
#
# Mechanical properties :
#
#
# Convention : Reuss Voigt Hill
#
# Bulk Modulus (GPa) = 24.78787 31.06184 27.92485
# Shear Modulus (GPa) = 12.51418 18.69733 15.60575
#
# Velocity S-wave (km/s) = 2.57249 3.14443 2.87273
# Velocity P-wave (km/s) = 4.68314 5.44143 5.07646
#
# Compressibility (1/GPa) = 0.04034232
#
# Stress axis : x y z
#
# Youngs Moduli (GPa) = 54.95199 69.14461 46.68350
#
# Poissons Ratio (x) = 0.36781 -0.24360
# Poissons Ratio (y) = 0.29231 0.31595
# Poissons Ratio (z) = -0.28674 0.46797
#
# Static dielectric constant tensor:
#      x y z
#    x 1.674510 0.000000 -0.011510 
#    y 0.000000 1.679600 0.000000 
#    z -0.011510 0.000000 1.697770 
# 
# From -- ./inp_files/209384.got.cif
#   From: 2010.05.17/outbox.cif.g08.bks.cpg/sg12_105_cif.got.tgz:209384.got - 2010.06.03 13:09:07.
