data_PCOD9175627
_publ_section_title
;
Structure prediction by ZEFSAII (Michael W. Deem and Ramdas Pophale) SiO2 
 PCOD9175627
Probable space group: C 2/M
;
_chemical_formula_sum "Si O2"
_cell_formula_units_Z 64
_cell_length_a 18.228439
_cell_length_b 18.454238
_cell_length_c 20.194535
_cell_angle_alpha 90.000000
_cell_angle_beta 154.830266
_cell_angle_gamma 90.000000
_cell_volume 2889.190171
_symmetry_space_group_name_H-M "C 2/M"
_symmetry_group_IT_number 12
_symmetry_cell_setting 'monoclinic'
loop_
_space_group_symop_operation_xyz
x,y,z
-x,y,-z
-x,-y,-z
x,-y,z
1/2+x,1/2+y,z
1/2-x,1/2+y,-z
1/2-x,1/2-y,-z
1/2+x,1/2-y,z
loop_
_atom_site_type_symbol
_atom_site_label
_atom_site_fract_x
_atom_site_fract_y
_atom_site_fract_z
Si Si1 0.289175 0.912786 0.114928
Si Si2 0.897683 0.196754 0.530403
Si Si3 0.657587 0.807697 0.207309
Si Si4 0.301827 0.340531 0.825818
Si Si5 0.132552 0.079773 0.671166
Si Si6 0.621309 0.582311 0.237565
Si Si7 0.434474 0.213420 0.146697
Si Si8 0.732166 0.672537 0.439402
O O1 0.298819 0.878557 0.196873
O O2 0.406241 0.862996 0.162206
O O3 0.323862 0.000000 0.142059
O O4 0.085063 0.902465 0.929081
O O5 0.807795 0.199193 0.385662
O O6 0.898492 0.280398 0.553657
O O7 0.783859 0.161273 0.495895
O O8 0.057431 0.143463 0.655437
O O9 0.690888 0.746085 0.179582
O O10 0.684769 0.888244 0.202649
O O11 0.489618 0.796859 0.114972
O O12 0.272559 0.370113 0.728242
O O13 0.500000 0.363360 0.000000
O O14 0.000000 0.075099 0.500000
O O15 0.140862 0.000000 0.707438
O O16 0.639776 0.500000 0.232547
O O17 0.702621 0.600838 0.374473
O O18 0.573200 0.272716 0.288193
O O19 0.250000 0.250000 0.000000
#
# Coordination Sequence:
#
# PCOD9175627 Si02
#       8
#     8   8   8   8   8   8   8   8
#     4  10  21  33  53  85 119 158 193 233 291 351
#     4   9  19  35  57  81 109 145 195 242 288 347
#     4  10  20  36  58  85 109 153 195 246 294 344
#     4  10  18  34  54  83 112 148 198 236 286 350
#     4   9  19  36  57  83 109 144 195 246 298 348
#     4  10  18  33  55  82 119 151 187 239 290 345
#     4  11  19  35  56  83 119 152 192 241 292 354
#     4  10  19  34  55  86 113 148 194 239 291 351
#
# _framework density 22.151536
#
# number of rings (size 3 to 8) (size 9 to 14) (size 15 to 20)
#    0.000    2.125    3.750    1.125    1.750    2.500 
#    0.000    1.875    0.000    1.125    0.000    1.750 
#    0.000    0.000    0.000    0.000    0.000    0.000 
#
# Total GULP energy -178228.710820 kJ/mol
# GULP energy per Si atom -5569.647213 kJ/mol
# Density = 2.210112 g / cm^3
# Si number density = 22.151536 Si / 1000 Ang^3
#
#
#
# Elastic Constant Matrix: (Units=GPa)
#
#
# Indices 1 2 3 4 5 6 
#
# 1 70.9265 48.9537 15.5622 0.0054 10.5696 0.0047
# 2 48.9537 118.5478 30.9193 -0.0101 29.2090 -0.0040
# 3 15.5622 30.9193 23.8427 -0.0131 7.9938 -0.0075
# 4 0.0054 -0.0101 -0.0131 28.1121 -0.0131 2.7565
# 5 10.5696 29.2090 7.9938 -0.0131 29.7317 -0.0031
# 6 0.0047 -0.0040 -0.0075 2.7565 -0.0031 24.9322
#
#
#
# Elastic Compliance Matrix: (Units=1/GPa)
#
#
# Indices 1 2 3 4 5 6 
#
# 1 0.019957 -0.007651 -0.003567 -0.000007 0.001381 -0.000005
# 2 -0.007651 0.018241 -0.014909 -0.000004 -0.011192 -0.000001
# 3 -0.003567 -0.014909 0.064040 0.000023 -0.001304 0.000015
# 4 -0.000007 -0.000004 0.000023 0.035962 0.000016 -0.003976
# 5 0.001381 -0.011192 -0.001304 0.000016 0.044489 0.000001
# 6 -0.000005 -0.000001 0.000015 -0.003976 0.000001 0.040548
#
#
# Mechanical properties :
#
#
# Convention : Reuss Voigt Hill
#
# Bulk Modulus (GPa) = 20.00610 44.90970 32.45790
# Shear Modulus (GPa) = 17.11442 24.41399 20.76421
#
# Velocity S-wave (km/s) = 2.78260 3.32344 3.06497
# Velocity P-wave (km/s) = 4.40169 5.91987 5.21631
#
# Compressibility (1/GPa) = 0.04998475
#
# Stress axis : x y z
#
# Youngs Moduli (GPa) = 50.10867 54.82235 15.61514
#
# Poissons Ratio (x) = 0.41944 0.05570
# Poissons Ratio (y) = 0.38337 0.23280
# Poissons Ratio (z) = 0.17874 0.81732
#
# Static dielectric constant tensor:
#      x y z
#    x 1.856520 -0.000010 0.011040 
#    y -0.000010 1.797990 -0.000030 
#    z 0.011040 -0.000030 1.926770 
# 
# From -- ./inp_files/317370.got.cif
#   From: 2010.05.17/outbox.cif.g08.bks.cpg/sg12_159_cif.got.tgz:317370.got - 2010.06.03 13:09:07.
