data_PCOD9175223
_publ_section_title
;
Structure prediction by ZEFSAII (Michael W. Deem and Ramdas Pophale) SiO2 
 PCOD9175223
Probable space group: C 2/M
;
_chemical_formula_sum "Si O2"
_cell_formula_units_Z 64
_cell_length_a 11.201731
_cell_length_b 18.872275
_cell_length_c 14.637028
_cell_angle_alpha 90.000000
_cell_angle_beta 94.006785
_cell_angle_gamma 90.000000
_cell_volume 3086.736019
_symmetry_space_group_name_H-M "C 2/M"
_symmetry_group_IT_number 12
_symmetry_cell_setting 'monoclinic'
loop_
_space_group_symop_operation_xyz
x,y,z
-x,y,-z
-x,-y,-z
x,-y,z
1/2+x,1/2+y,z
1/2-x,1/2+y,-z
1/2-x,1/2-y,-z
1/2+x,1/2-y,z
loop_
_atom_site_type_symbol
_atom_site_label
_atom_site_fract_x
_atom_site_fract_y
_atom_site_fract_z
Si Si1 0.299659 0.334570 0.944176
Si Si2 0.259996 0.779233 0.601825
Si Si3 0.607213 0.690312 0.739984
Si Si4 0.865684 0.581612 0.531615
Si Si5 0.764538 0.623748 0.334254
Si Si6 0.438904 0.578604 0.810339
Si Si7 0.560944 0.839007 0.807782
Si Si8 0.178305 0.677839 0.116307
O O1 0.394444 0.383166 0.899141
O O2 0.174916 0.339126 0.881220
O O3 0.347017 0.253917 0.933988
O O4 0.264652 0.356208 0.044573
O O5 0.250000 0.750000 0.500000
O O6 0.130890 0.802174 0.634477
O O7 0.337488 0.851906 0.597990
O O8 0.283635 0.705391 0.658771
O O9 0.542996 0.620805 0.767260
O O10 0.538652 0.757883 0.776201
O O11 0.739366 0.690716 0.791478
O O12 0.849702 0.500000 0.565128
O O13 0.784946 0.593255 0.436078
O O14 0.000000 0.588241 0.500000
O O15 0.671007 0.582428 0.267125
O O16 0.888589 0.624668 0.281868
O O17 0.474668 0.500000 0.832757
O O18 0.442145 0.860347 0.856572
#
# Coordination Sequence:
#
# PCOD9175223 Si02
#       8
#     8   8   8   8   8   8   8   8
#     4   9  19  33  53  86 111 148 194 230 296 341
#     4   9  20  37  57  85 114 147 187 249 285 338
#     4  10  21  33  54  85 112 149 193 230 296 350
#     4  10  21  36  56  83 115 148 183 231 296 358
#     4   9  20  36  60  85 105 151 200 237 282 338
#     4  11  22  39  58  78 121 161 194 236 281 358
#     4   9  17  32  57  84 112 139 184 249 290 331
#     4  10  18  32  57  82 115 142 185 257 289 336
#
# _framework density 20.733875000000001
#
# number of rings (size 3 to 8) (size 9 to 14) (size 15 to 20)
#    0.000    2.375    1.250    1.500    1.750    3.000 
#    0.000    3.125    0.000   11.250    0.000    0.000 
#    0.000    0.000    0.000    0.000    0.000    0.000 
#
# Total GULP energy -178349.324703 kJ/mol
# GULP energy per Si atom -5573.416397 kJ/mol
# Density = 2.068668 g / cm^3
# Si number density = 20.733875 Si / 1000 Ang^3
#
#
#
# Elastic Constant Matrix: (Units=GPa)
#
#
# Indices 1 2 3 4 5 6 
#
# 1 42.3921 15.0176 11.3255 0.0000 -20.3813 0.0000
# 2 15.0176 96.9949 6.4943 0.0000 -23.2631 0.0000
# 3 11.3255 6.4943 78.3612 0.0000 -28.0588 0.0000
# 4 0.0000 0.0000 0.0000 9.6654 0.0000 4.1299
# 5 -20.3813 -23.2631 -28.0588 0.0000 33.2928 0.0000
# 6 0.0000 0.0000 0.0000 4.1299 0.0000 9.6632
#
#
#
# Elastic Compliance Matrix: (Units=1/GPa)
#
#
# Indices 1 2 3 4 5 6 
#
# 1 0.034148 0.000275 0.003718 0.000000 0.024231 0.000000
# 2 0.000275 0.012889 0.003118 0.000000 0.011803 0.000000
# 3 0.003718 0.003118 0.019422 0.000000 0.020824 0.000000
# 4 0.000000 0.000000 0.000000 0.126577 0.000000 -0.054096
# 5 0.024231 0.011803 0.020824 0.000000 0.070668 0.000000
# 6 0.000000 0.000000 0.000000 -0.054096 0.000000 0.126606
#
#
# Mechanical properties :
#
#
# Convention : Reuss Voigt Hill
#
# Bulk Modulus (GPa) = 12.39417 31.49143 21.94280
# Shear Modulus (GPa) = 12.40757 22.85166 17.62962
#
# Velocity S-wave (km/s) = 2.44892 3.32345 2.91912
# Velocity P-wave (km/s) = 3.73992 5.47252 4.68697
#
# Compressibility (1/GPa) = 0.08068313
#
# Stress axis : x y z
#
# Youngs Moduli (GPa) = 29.28413 77.58448 51.48812
#
# Poissons Ratio (x) = -0.02137 -0.19144
# Poissons Ratio (y) = -0.00807 -0.16055
# Poissons Ratio (z) = -0.10888 -0.24193
#
# Static dielectric constant tensor:
#      x y z
#    x 1.762490 0.000000 0.007530 
#    y 0.000000 1.764490 0.000000 
#    z 0.007530 0.000000 1.840960 
# 
# From -- ./inp_files/206684.got.cif
#   From: 2010.05.17/outbox.cif.g08.bks.cpg/sg12_104_cif.got.tgz:206684.got - 2010.06.03 13:09:07.
