data_PCOD9175277
_publ_section_title
;
Structure prediction by ZEFSAII (Michael W. Deem and Ramdas Pophale) SiO2 
 PCOD9175277
Probable space group: C 2/M
;
_chemical_formula_sum "Si O2"
_cell_formula_units_Z 64
_cell_length_a 32.587934
_cell_length_b 12.829297
_cell_length_c 9.252226
_cell_angle_alpha 90.000000
_cell_angle_beta 49.041746
_cell_angle_gamma 90.000000
_cell_volume 2921.195670
_symmetry_space_group_name_H-M "C 2/M"
_symmetry_group_IT_number 12
_symmetry_cell_setting 'monoclinic'
loop_
_space_group_symop_operation_xyz
x,y,z
-x,y,-z
-x,-y,-z
x,-y,z
1/2+x,1/2+y,z
1/2-x,1/2+y,-z
1/2-x,1/2-y,-z
1/2+x,1/2-y,z
loop_
_atom_site_type_symbol
_atom_site_label
_atom_site_fract_x
_atom_site_fract_y
_atom_site_fract_z
Si Si1 0.282609 0.619526 0.754141
Si Si2 0.371177 0.622851 0.000089
Si Si3 0.153369 0.376125 0.715772
Si Si4 0.554418 0.118054 0.468939
Si Si5 0.770342 0.118130 0.438819
Si Si6 0.157200 0.673308 0.048783
Si Si7 0.612690 0.738528 0.554422
Si Si8 0.056165 0.122964 0.915467
O O1 0.293905 0.500000 0.780984
O O2 0.278618 0.613573 0.589485
O O3 0.331371 0.704337 0.656008
O O4 0.220438 0.650627 0.942794
O O5 0.374147 0.500000 0.956347
O O6 0.357060 0.703624 0.909159
O O7 0.322764 0.641591 0.226309
O O8 0.422350 0.658161 0.978279
O O9 0.148221 0.500000 0.707690
O O10 0.213258 0.328537 0.539610
O O11 0.118245 0.318937 0.676386
O O12 0.148570 0.357758 0.899106
O O13 0.500000 0.139685 0.500000
O O14 0.610090 0.116803 0.246251
O O15 0.568839 0.208522 0.550375
O O16 0.547477 0.000000 0.545812
O O17 0.758549 0.000000 0.418343
O O18 0.593951 0.637893 0.688526
O O19 0.049996 0.000000 0.951499
O O20 0.000000 0.173843 0.000000
#
# Coordination Sequence:
#
# PCOD9175277 Si02
#       8
#     8   8   8   8   8   8   8   8
#     4  10  19  34  61  95 130 163 201 249 310 380
#     4  10  18  32  57  90 127 159 198 247 302 364
#     4  10  19  32  58  94 123 150 202 257 295 361
#     4  11  28  50  65  81 119 169 212 262 320 371
#     4   8  14  27  49  86 130 159 176 225 304 361
#     4  11  21  40  64  90 126 171 205 244 316 378
#     4  12  22  37  65  93 122 158 211 255 311 365
#     4  10  21  36  57  90 128 161 197 252 314 363
#
# _framework density 21.908836999999998
#
# number of rings (size 3 to 8) (size 9 to 14) (size 15 to 20)
#    0.000    1.750    2.500    3.375    1.750    2.500 
#    0.000    1.875    0.000    4.875    0.000    0.000 
#    0.000    0.000    0.000    0.000    0.000    0.000 
#
# Total GULP energy -178233.962794 kJ/mol
# GULP energy per Si atom -5569.811337 kJ/mol
# Density = 2.185897 g / cm^3
# Si number density = 21.908837 Si / 1000 Ang^3
#
#
#
# Elastic Constant Matrix: (Units=GPa)
#
#
# Indices 1 2 3 4 5 6 
#
# 1 64.9833 10.9558 3.1256 0.0000 -5.3216 0.0000
# 2 10.9558 86.5878 -15.5310 0.0000 0.1241 0.0000
# 3 3.1256 -15.5310 39.0315 0.0000 -4.6650 0.0000
# 4 0.0000 0.0000 0.0000 12.2471 0.0000 -3.4345
# 5 -5.3216 0.1241 -4.6650 0.0000 24.3718 0.0000
# 6 0.0000 0.0000 0.0000 -3.4345 0.0000 21.4985
#
#
#
# Elastic Compliance Matrix: (Units=1/GPa)
#
#
# Indices 1 2 3 4 5 6 
#
# 1 0.016140 -0.002380 -0.001859 0.000000 0.003180 0.000000
# 2 -0.002380 0.012807 0.005339 0.000000 0.000437 0.000000
# 3 -0.001859 0.005339 0.028494 0.000000 0.005021 0.000000
# 4 0.000000 0.000000 0.000000 0.085481 0.000000 0.013656
# 5 0.003180 0.000437 0.005021 0.000000 0.042684 0.000000
# 6 0.000000 0.000000 0.000000 0.013656 0.000000 0.048696
#
#
# Mechanical properties :
#
#
# Convention : Reuss Voigt Hill
#
# Bulk Modulus (GPa) = 16.76754 20.85593 18.81174
# Shear Modulus (GPa) = 19.84254 24.42697 22.13475
#
# Velocity S-wave (km/s) = 3.01273 3.34269 3.18199
# Velocity P-wave (km/s) = 4.44657 4.94350 4.70160
#
# Compressibility (1/GPa) = 0.05963905
#
# Stress axis : x y z
#
# Youngs Moduli (GPa) = 61.95882 78.08148 35.09548
#
# Poissons Ratio (x) = 0.18585 0.06526
# Poissons Ratio (y) = 0.14748 -0.18737
# Poissons Ratio (z) = 0.11521 -0.41687
#
# Static dielectric constant tensor:
#      x y z
#    x 1.877710 0.000000 -0.055420 
#    y 0.000000 1.923400 0.000000 
#    z -0.055420 0.000000 1.835520 
# 
# From -- ./inp_files/111972.got.cif
#   From: 2010.05.17/outbox.cif.g08.bks.cpg/sg12_56_cif.got.tgz:111972.got - 2010.06.03 13:09:07.
