data_PCOD9175103
_publ_section_title
;
Structure prediction by ZEFSAII (Michael W. Deem and Ramdas Pophale) SiO2 
 PCOD9175103
Probable space group: C 2/M
;
_chemical_formula_sum "Si O2"
_cell_formula_units_Z 42
_cell_length_a 26.515082
_cell_length_b 13.506319
_cell_length_c 19.573242
_cell_angle_alpha 90.000000
_cell_angle_beta 164.633640
_cell_angle_gamma 90.000000
_cell_volume 1857.471962
_symmetry_space_group_name_H-M "C 2/M"
_symmetry_group_IT_number 12
_symmetry_cell_setting 'monoclinic'
loop_
_space_group_symop_operation_xyz
x,y,z
-x,y,-z
-x,-y,-z
x,-y,z
1/2+x,1/2+y,z
1/2-x,1/2+y,-z
1/2-x,1/2-y,-z
1/2+x,1/2-y,z
loop_
_atom_site_type_symbol
_atom_site_label
_atom_site_fract_x
_atom_site_fract_y
_atom_site_fract_z
Si Si1 0.500000 0.000000 0.000000
Si Si2 0.686628 0.611105 0.793572
Si Si3 0.015017 0.284440 0.648231
Si Si4 0.134188 0.688846 0.100391
Si Si5 0.526602 0.000000 0.617404
Si Si6 0.807213 0.000000 0.706345
Si Si7 0.746032 0.208682 0.570171
O O1 0.639807 0.912322 0.151127
O O2 0.500000 0.607271 0.500000
O O3 0.725497 0.500000 0.869509
O O4 0.640924 0.691070 0.791348
O O5 0.850138 0.650290 0.957259
O O6 0.810309 0.263901 0.342258
O O7 0.102612 0.389461 0.737640
O O8 0.943240 0.276127 0.632249
O O9 0.930719 0.739521 0.844259
O O10 0.500000 0.000000 0.500000
O O11 0.345408 0.000000 0.431746
O O12 0.784552 0.093408 0.628338
O O13 0.000000 0.000000 0.000000
O O14 0.750000 0.250000 0.500000
#
# Coordination Sequence:
#
# PCOD9175103 Si02
#       7
#     2   8   8   8   4   4   8
#     4  12  20  30  58  88 116 140 192 244 302 342
#     4   9  18  31  53  85 117 146 189 244 298 352
#     4  10  20  35  57  85 116 153 199 251 299 357
#     4  11  20  35  56  87 116 154 195 246 298 358
#     4  10  18  32  55  86 110 144 201 253 292 342
#     4  10  22  41  65  85 119 162 205 255 299 360
#     4  11  23  39  58  88 123 158 201 249 306 364
#
# _framework density 22.611377000000001
#
# number of rings (size 3 to 8) (size 9 to 14) (size 15 to 20)
#    0.000    1.714    2.857    4.000    1.333    0.762 
#    1.714    0.952    0.000    0.000    0.000    0.000 
#    0.000    0.000    0.000    0.000    0.000    0.000 
#
# Total GULP energy -116948.353636 kJ/mol
# GULP energy per Si atom -5568.969221 kJ/mol
# Density = 2.255991 g / cm^3
# Si number density = 22.611377 Si / 1000 Ang^3
#
#
#
# Elastic Constant Matrix: (Units=GPa)
#
#
# Indices 1 2 3 4 5 6 
#
# 1 151.8669 89.5600 10.6500 -0.0032 -2.8919 -0.0037
# 2 89.5600 210.8825 26.6523 -0.0002 11.2357 -0.0005
# 3 10.6500 26.6523 55.9429 -0.0007 -0.2243 -0.0041
# 4 -0.0032 -0.0002 -0.0007 13.9618 -0.0036 8.3752
# 5 -2.8919 11.2357 -0.2243 -0.0036 28.1802 -0.0042
# 6 -0.0037 -0.0005 -0.0041 8.3752 -0.0042 40.7145
#
#
#
# Elastic Compliance Matrix: (Units=1/GPa)
#
#
# Indices 1 2 3 4 5 6 
#
# 1 0.008954 -0.003960 0.000192 0.000002 0.002499 0.000001
# 2 -0.003960 0.006916 -0.002554 -0.000001 -0.003184 -0.000001
# 3 0.000192 -0.002554 0.019060 0.000000 0.001190 0.000002
# 4 0.000002 -0.000001 0.000000 0.081706 0.000009 -0.016807
# 5 0.002499 -0.003184 0.001190 0.000009 0.037022 0.000002
# 6 0.000001 -0.000001 0.000002 -0.016807 0.000002 0.028019
#
#
# Mechanical properties :
#
#
# Convention : Reuss Voigt Hill
#
# Bulk Modulus (GPa) = 44.86959 74.71298 59.79129
# Shear Modulus (GPa) = 24.78314 36.02663 30.40489
#
# Velocity S-wave (km/s) = 3.31425 3.99594 3.67096
# Velocity P-wave (km/s) = 5.87644 7.37591 6.66846
#
# Compressibility (1/GPa) = 0.02228681
#
# Stress axis : x y z
#
# Youngs Moduli (GPa) = 111.67804 144.58593 52.46506
#
# Poissons Ratio (x) = 0.57260 -0.01008
# Poissons Ratio (y) = 0.44228 0.13399
# Poissons Ratio (z) = -0.02145 0.36926
#
# Static dielectric constant tensor:
#      x y z
#    x 1.915750 0.000000 -0.041740 
#    y 0.000000 1.833860 0.000000 
#    z -0.041740 0.000000 1.864280 
# 
# From -- ./inp_files/327916.got.cif
#   From: 2010.05.17/outbox.cif.g08.bks.cpg/sg12_164_cif.got.tgz:327916.got - 2010.06.03 13:09:07.
