data_PCOD9175743
_publ_section_title
;
Structure prediction by ZEFSAII (Michael W. Deem and Ramdas Pophale) SiO2 
 PCOD9175743
Probable space group: C 2/M
;
_chemical_formula_sum "Si O2"
_cell_formula_units_Z 60
_cell_length_a 23.501505
_cell_length_b 14.815904
_cell_length_c 28.402804
_cell_angle_alpha 90.000000
_cell_angle_beta 159.267493
_cell_angle_gamma 90.000000
_cell_volume 3501.023894
_symmetry_space_group_name_H-M "C 2/M"
_symmetry_group_IT_number 12
_symmetry_cell_setting 'monoclinic'
loop_
_space_group_symop_operation_xyz
x,y,z
-x,y,-z
-x,-y,-z
x,-y,z
1/2+x,1/2+y,z
1/2-x,1/2+y,-z
1/2-x,1/2-y,-z
1/2+x,1/2-y,z
loop_
_atom_site_type_symbol
_atom_site_label
_atom_site_fract_x
_atom_site_fract_y
_atom_site_fract_z
Si Si1 0.000000 0.649739 0.500000
Si Si2 0.191208 0.220818 0.211337
Si Si3 0.109101 0.109139 0.988945
Si Si4 0.997101 0.891577 0.196486
Si Si5 0.146918 0.896481 0.813969
Si Si6 0.369934 0.785077 0.250469
Si Si7 0.985164 0.401347 0.931808
Si Si8 0.139686 0.397633 0.509458
O O1 0.156526 0.703660 0.637794
O O2 0.056946 0.599127 0.496997
O O3 0.256245 0.222345 0.208425
O O4 0.053682 0.145135 0.111758
O O5 0.114229 0.317043 0.162670
O O6 0.084263 0.137504 0.915162
O O7 0.121928 0.000000 0.002899
O O8 0.262794 0.159022 0.130195
O O9 0.898139 0.874286 0.167185
O O10 0.180575 0.859384 0.344916
O O11 0.010632 0.000000 0.202096
O O12 0.086875 0.814410 0.735091
O O13 0.089857 0.000000 0.759743
O O14 0.337679 0.897223 0.952916
O O15 0.527400 0.838490 0.389027
O O16 0.914129 0.500000 0.866521
O O17 0.000000 0.394099 0.000000
O O18 0.150171 0.500000 0.499245
#
# Coordination Sequence:
#
# PCOD9175743 Si02
#       8
#     4   8   8   8   8   8   8   8
#     4  10  21  32  55  78 112 148 185 216 263 330
#     4  11  20  35  52  83 111 139 182 229 272 328
#     4  11  21  35  53  80 115 146 178 224 271 321
#     4   9  20  37  56  78 109 150 188 217 263 329
#     4  10  20  36  58  82 106 140 187 232 270 321
#     4  11  22  33  54  85 112 139 182 229 276 319
#     4  10  18  33  57  80 104 137 179 232 283 318
#     4  10  20  36  54  79 113 150 182 216 266 329
#
# _framework density 17.137841999999999
#
# number of rings (size 3 to 8) (size 9 to 14) (size 15 to 20)
#    0.000    1.733    4.000    1.000    0.000    4.267 
#    0.000    0.333    0.000    0.800    0.000    0.000 
#    0.000    0.000    0.000    0.000    0.000    0.000 
#
# Total GULP energy -167224.173044 kJ/mol
# GULP energy per Si atom -5574.139101 kJ/mol
# Density = 1.709884 g / cm^3
# Si number density = 17.137842 Si / 1000 Ang^3
#
#
#
# Elastic Constant Matrix: (Units=GPa)
#
#
# Indices 1 2 3 4 5 6 
#
# 1 93.4447 24.3039 39.6138 -0.0019 -7.3630 0.0044
# 2 24.3039 108.1163 50.4161 0.0022 -14.8792 0.0005
# 3 39.6138 50.4161 113.1124 0.0075 -14.8682 -0.0046
# 4 -0.0019 0.0022 0.0075 28.8936 0.0006 -29.7348
# 5 -7.3630 -14.8792 -14.8682 0.0006 22.0368 -0.0006
# 6 0.0044 0.0005 -0.0046 -29.7348 -0.0006 78.9712
#
#
#
# Elastic Compliance Matrix: (Units=1/GPa)
#
#
# Indices 1 2 3 4 5 6 
#
# 1 0.012668 -0.000887 -0.003910 0.000002 0.000995 0.000000
# 2 -0.000887 0.012220 -0.004488 0.000000 0.004926 0.000000
# 3 -0.003910 -0.004488 0.012773 -0.000004 0.004281 0.000000
# 4 0.000002 0.000000 -0.000004 0.056505 -0.000003 0.021275
# 5 0.000995 0.004926 0.004281 -0.000003 0.051926 -0.000001
# 6 0.000000 0.000000 0.000000 0.021275 -0.000001 0.020674
#
#
# Mechanical properties :
#
#
# Convention : Reuss Voigt Hill
#
# Bulk Modulus (GPa) = 52.38438 60.37124 56.37781
# Shear Modulus (GPa) = 26.08234 39.33629 32.70931
#
# Velocity S-wave (km/s) = 3.90541 4.79611 4.37349
# Velocity P-wave (km/s) = 7.13926 8.12241 7.64666
#
# Compressibility (1/GPa) = 0.01908966
#
# Stress axis : x y z
#
# Youngs Moduli (GPa) = 78.93627 81.83556 78.28732
#
# Poissons Ratio (x) = 0.07262 0.30613
# Poissons Ratio (y) = 0.07004 0.35137
# Poissons Ratio (z) = 0.30867 0.36730
#
# Static dielectric constant tensor:
#      x y z
#    x 1.587230 0.000000 0.000070 
#    y 0.000000 1.595650 0.000000 
#    z 0.000070 0.000000 1.563850 
# 
# From -- ./inp_files/368171.got.cif
#   From: 2010.05.17/outbox.cif.g08.bks.cpg/sg12_185_cif.got.tgz:368171.got - 2010.06.03 13:09:07.
