data_PCOD9175516
_publ_section_title
;
Structure prediction by ZEFSAII (Michael W. Deem and Ramdas Pophale) SiO2 
 PCOD9175516
Probable space group: C 2/M
;
_chemical_formula_sum "Si O2"
_cell_formula_units_Z 58
_cell_length_a 29.908649
_cell_length_b 7.595778
_cell_length_c 26.648685
_cell_angle_alpha 90.000000
_cell_angle_beta 150.266702
_cell_angle_gamma 90.000000
_cell_volume 3002.579186
_symmetry_space_group_name_H-M "C 2/M"
_symmetry_group_IT_number 12
_symmetry_cell_setting 'monoclinic'
loop_
_space_group_symop_operation_xyz
x,y,z
-x,y,-z
-x,-y,-z
x,-y,z
1/2+x,1/2+y,z
1/2-x,1/2+y,-z
1/2-x,1/2-y,-z
1/2+x,1/2-y,z
loop_
_atom_site_type_symbol
_atom_site_label
_atom_site_fract_x
_atom_site_fract_y
_atom_site_fract_z
Si Si1 0.558848 0.804293 0.980539
Si Si2 0.938653 0.786876 0.779236
Si Si3 0.219777 0.784821 0.299840
Si Si4 0.945370 0.285185 0.396668
Si Si5 0.095989 0.291876 0.470474
Si Si6 0.238890 0.214447 0.204322
Si Si7 0.855837 0.209231 0.595534
Si Si8 0.500000 0.500000 0.000000
O O1 0.529290 0.775462 0.894266
O O2 0.530665 0.000000 0.968220
O O3 0.665250 0.783716 0.094085
O O4 0.512694 0.653798 0.969147
O O5 0.858996 0.729565 0.739625
O O6 0.912514 0.722918 0.698373
O O7 0.938825 0.000000 0.778199
O O8 0.315436 0.722075 0.414760
O O9 0.209560 0.732954 0.232116
O O10 0.219657 0.000000 0.299959
O O11 0.941277 0.500000 0.393467
O O12 0.841626 0.228290 0.296059
O O13 0.000000 0.233305 0.500000
O O14 0.004483 0.225166 0.406783
O O15 0.096313 0.500000 0.481223
O O16 0.109114 0.270276 0.424193
O O17 0.234369 0.000000 0.198597
O O18 0.750000 0.250000 0.500000
O O19 0.863491 0.000000 0.603094
#
# Coordination Sequence:
#
# PCOD9175516 Si02
#       8
#     8   8   8   8   8   8   8   2
#     4  12  25  39  59  87 119 163 207 247 299 362
#     4  10  20  37  57  78 113 158 202 247 296 353
#     4   9  16  27  52  79 111 153 189 231 286 343
#     4   9  16  29  56  90 113 154 204 240 293 359
#     4  10  18  33  53  84 120 148 194 243 286 355
#     4  10  18  33  58  82 118 158 199 250 294 350
#     4  11  22  36  57  82 114 156 196 242 304 360
#     4  12  22  44  60  86 130 160 198 252 298 362
#
# _framework density 19.316725999999999
#
# number of rings (size 3 to 8) (size 9 to 14) (size 15 to 20)
#    0.000    1.793    4.138    1.448    1.931    1.103 
#    0.000    1.379    0.000    1.655    0.000    0.000 
#    0.000    0.000    0.000    0.000    0.000    0.000 
#
# Total GULP energy -161706.461423 kJ/mol
# GULP energy per Si atom -5576.084877 kJ/mol
# Density = 1.927276 g / cm^3
# Si number density = 19.316726 Si / 1000 Ang^3
#
#
#
# Elastic Constant Matrix: (Units=GPa)
#
#
# Indices 1 2 3 4 5 6 
#
# 1 104.8486 -4.8108 58.4099 0.0000 -3.4245 0.0000
# 2 -4.8108 71.7638 5.5703 -0.0006 2.8168 -0.0005
# 3 58.4099 5.5703 149.1551 0.0000 -22.6362 0.0000
# 4 0.0000 -0.0006 0.0000 5.1019 0.0000 -8.1588
# 5 -3.4245 2.8168 -22.6362 0.0000 18.4421 0.0000
# 6 0.0000 -0.0005 0.0000 -8.1588 0.0000 13.4728
#
#
#
# Elastic Compliance Matrix: (Units=1/GPa)
#
#
# Indices 1 2 3 4 5 6 
#
# 1 0.012654 0.001490 -0.005763 0.000010 -0.004951 0.000006
# 2 0.001490 0.014327 -0.001731 0.000080 -0.004036 0.000049
# 3 -0.005763 -0.001731 0.010942 -0.000006 0.012624 -0.000004
# 4 0.000010 0.000080 -0.000006 6.206985 -0.000008 3.758805
# 5 -0.004951 -0.004036 0.012624 -0.000008 0.069417 -0.000005
# 6 0.000006 0.000049 -0.000004 3.758805 -0.000005 2.350468
#
#
# Mechanical properties :
#
#
# Convention : Reuss Voigt Hill
#
# Bulk Modulus (GPa) = 38.58634 49.34516 43.96575
# Shear Modulus (GPa) = 0.57568 25.17657 12.87612
#
# Velocity S-wave (km/s) = 0.54650 3.61412 2.58462
# Velocity P-wave (km/s) = 4.51854 6.55870 5.63177
#
# Compressibility (1/GPa) = 0.02591591
#
# Stress axis : x y z
#
# Youngs Moduli (GPa) = 79.02335 69.79696 91.39388
#
# Poissons Ratio (x) = -0.10399 0.52666
# Poissons Ratio (y) = -0.11774 0.15821
# Poissons Ratio (z) = 0.45538 0.12083
#
# Static dielectric constant tensor:
#      x y z
#    x 1.634290 0.000000 0.009280 
#    y 0.000000 1.721830 0.000000 
#    z 0.009280 0.000000 1.710590 
# 
# From -- ./inp_files/370446.got.cif
#   From: 2010.05.17/outbox.cif.g08.bks.cpg/sg12_186_cif.got.tgz:370446.got - 2010.06.03 13:09:07.
