data_PCOD9175175
_publ_section_title
;
Structure prediction by ZEFSAII (Michael W. Deem and Ramdas Pophale) SiO2 
 PCOD9175175
Probable space group: C 2/M
;
_chemical_formula_sum "Si O2"
_cell_formula_units_Z 64
_cell_length_a 14.098971
_cell_length_b 11.930576
_cell_length_c 28.468972
_cell_angle_alpha 90.000000
_cell_angle_beta 33.114703
_cell_angle_gamma 90.000000
_cell_volume 2616.165784
_symmetry_space_group_name_H-M "C 2/M"
_symmetry_group_IT_number 12
_symmetry_cell_setting 'monoclinic'
loop_
_space_group_symop_operation_xyz
x,y,z
-x,y,-z
-x,-y,-z
x,-y,z
1/2+x,1/2+y,z
1/2-x,1/2+y,-z
1/2-x,1/2-y,-z
1/2+x,1/2-y,z
loop_
_atom_site_type_symbol
_atom_site_label
_atom_site_fract_x
_atom_site_fract_y
_atom_site_fract_z
Si Si1 0.931065 0.873975 0.882380
Si Si2 0.400475 0.370910 0.085746
Si Si3 0.967629 0.377860 0.750769
Si Si4 0.289436 0.702375 0.391948
Si Si5 0.487203 0.876995 0.853146
Si Si6 0.209027 0.376761 0.322497
Si Si7 0.381654 0.663876 0.691012
Si Si8 0.919357 0.880317 0.481672
O O1 0.996395 0.879152 0.909000
O O2 0.878039 0.739591 0.903828
O O3 0.089574 0.873570 0.778880
O O4 0.846001 0.000000 0.909354
O O5 0.357076 0.500000 0.088600
O O6 0.217126 0.315263 0.173832
O O7 0.500000 0.320187 0.000000
O O8 0.946613 0.500000 0.738037
O O9 0.122050 0.314389 0.663786
O O10 0.006944 0.385506 0.789275
O O11 0.205610 0.650361 0.379786
O O12 0.454367 0.635503 0.344200
O O13 0.169485 0.756537 0.482053
O O14 0.686900 0.865733 0.788204
O O15 0.416675 0.000000 0.898290
O O16 0.138251 0.500000 0.345989
O O17 0.121064 0.295010 0.321523
O O18 0.430577 0.616931 0.619592
O O19 0.000000 0.882469 0.500000
O O20 0.821683 0.000000 0.515560
#
# Coordination Sequence:
#
# PCOD9175175 Si02
#       8
#     8   8   8   8   8   8   8   8
#     4   9  17  34  57  81 116 152 188 236 292 352
#     4   9  18  33  57  89 119 150 195 246 292 350
#     4  10  18  32  56  84 113 146 192 243 293 345
#     4  12  22  37  59  84 114 153 198 243 303 366
#     4  10  19  34  57  85 117 153 197 246 293 345
#     4  10  21  38  57  83 119 156 197 247 300 360
#     4  11  22  38  57  83 117 154 199 251 303 361
#     4  11  22  39  60  80 110 147 193 251 306 355
#
# _framework density 24.463280000000001
#
# number of rings (size 3 to 8) (size 9 to 14) (size 15 to 20)
#    0.000    1.750    3.750    2.625    0.000    5.000 
#    0.000    1.875    0.000    0.375    0.000    0.000 
#    0.000    0.000    0.000    0.000    0.000    0.000 
#
# Total GULP energy -178177.060039 kJ/mol
# GULP energy per Si atom -5568.033126 kJ/mol
# Density = 2.440760 g / cm^3
# Si number density = 24.463280 Si / 1000 Ang^3
#
#
#
# Elastic Constant Matrix: (Units=GPa)
#
#
# Indices 1 2 3 4 5 6 
#
# 1 74.7522 5.2746 -0.5096 0.0000 9.0455 0.0000
# 2 5.2746 152.6759 6.4246 -0.0001 -2.9077 0.0000
# 3 -0.5096 6.4246 75.8202 -0.0003 5.6128 0.0002
# 4 0.0000 -0.0001 -0.0003 -0.1702 0.0000 -4.1918
# 5 9.0455 -2.9077 5.6128 0.0000 24.5314 0.0000
# 6 0.0000 0.0000 0.0002 -4.1918 0.0000 26.9756
#
#
#
# Elastic Compliance Matrix: (Units=1/GPa)
#
#
# Indices 1 2 3 4 5 6 
#
# 1 0.014076 -0.000612 0.000545 0.000000 -0.005388 0.000000
# 2 -0.000612 0.006620 -0.000651 0.000000 0.001159 0.000000
# 3 0.000545 -0.000651 0.013497 -0.000004 -0.003366 -0.000001
# 4 0.000000 0.000000 -0.000004 -1.217117 0.000001 -0.189131
# 5 -0.005388 0.001159 -0.003366 0.000001 0.043658 0.000000
# 6 0.000000 0.000000 -0.000001 -0.189131 0.000000 0.007681
#
#
# Mechanical properties :
#
#
# Convention : Reuss Voigt Hill
#
# Bulk Modulus (GPa) = 30.52599 36.18084 33.35342
# Shear Modulus (GPa) = -4.46736 29.73793 12.63529
#
# Velocity S-wave (km/s) = -1.35282 3.49035 2.27513
# Velocity P-wave (km/s) = 3.17257 5.57363 4.53490
#
# Compressibility (1/GPa) = 0.03275897
#
# Stress axis : x y z
#
# Youngs Moduli (GPa) = 71.04101 151.04762 74.08983
#
# Poissons Ratio (x) = 0.09242 -0.04040
# Poissons Ratio (y) = 0.04347 0.04823
# Poissons Ratio (z) = -0.03874 0.09832
#
# Static dielectric constant tensor:
#      x y z
#    x 1.929810 0.000000 -0.056470 
#    y 0.000000 2.110620 0.000000 
#    z -0.056470 0.000000 2.011970 
# 
# From -- ./inp_files/361023.got.cif
#   From: 2010.05.17/outbox.cif.g08.bks.cpg/sg12_181_cif.got.tgz:361023.got - 2010.06.03 13:09:07.
