data_PCOD9175903
_publ_section_title
;
Structure prediction by ZEFSAII (Michael W. Deem and Ramdas Pophale) SiO2 
 PCOD9175903
Probable space group: C 2/M
;
_chemical_formula_sum "Si O2"
_cell_formula_units_Z 56
_cell_length_a 23.415276
_cell_length_b 13.916868
_cell_length_c 9.628356
_cell_angle_alpha 90.000000
_cell_angle_beta 124.192794
_cell_angle_gamma 90.000000
_cell_volume 2595.242021
_symmetry_space_group_name_H-M "C 2/M"
_symmetry_group_IT_number 12
_symmetry_cell_setting 'monoclinic'
loop_
_space_group_symop_operation_xyz
x,y,z
-x,y,-z
-x,-y,-z
x,-y,z
1/2+x,1/2+y,z
1/2-x,1/2+y,-z
1/2-x,1/2-y,-z
1/2+x,1/2-y,z
loop_
_atom_site_type_symbol
_atom_site_label
_atom_site_fract_x
_atom_site_fract_y
_atom_site_fract_z
Si Si1 0.572244 0.395070 0.683861
Si Si2 0.465040 0.190303 0.299188
Si Si3 0.800095 0.700341 0.765962
Si Si4 0.155586 0.890102 0.519816
Si Si5 0.320258 0.106282 0.074426
Si Si6 0.773681 0.609209 0.324281
Si Si7 0.399103 0.195086 0.668950
O O1 0.500000 0.400040 0.500000
O O2 0.581751 0.500000 0.765572
O O3 0.565561 0.298374 0.762937
O O4 0.631450 0.382511 0.648442
O O5 0.500000 0.189150 0.500000
O O6 0.401708 0.118169 0.210712
O O7 0.523680 0.169302 0.266813
O O8 0.735935 0.637983 0.620563
O O9 0.781360 0.810562 0.710313
O O10 0.870656 0.675702 0.783783
O O11 0.801436 0.681044 0.930462
O O12 0.111860 0.808026 0.382736
O O13 0.142654 0.000000 0.459526
O O14 0.284385 0.117346 0.173451
O O15 0.303838 0.000000 0.997203
O O16 0.755800 0.500000 0.334762
O O17 0.845452 0.639624 0.494815
#
# Coordination Sequence:
#
# PCOD9175903 Si02
#       7
#     8   8   8   8   8   8   8
#     4   9  16  29  55  89 116 141 186 238 279 325
#     4  11  19  38  62  83 116 150 196 242 285 328
#     4  11  24  39  55  86 127 152 188 235 294 346
#     4  10  18  33  59  86 116 155 190 231 284 337
#     4  11  24  41  62  85 112 152 198 243 288 344
#     4  10  21  39  63  87 114 153 197 237 282 342
#     4  11  22  36  59  90 118 155 191 239 286 339
#
# _framework density 21.577950000000001
#
# number of rings (size 3 to 8) (size 9 to 14) (size 15 to 20)
#    0.000    1.571    4.286    3.429    0.000    4.286 
#    0.000    2.857    0.000    0.000    0.000    3.000 
#    0.000    0.000    0.000    0.000    0.000    0.000 
#
# Total GULP energy -156455.836329 kJ/mol
# GULP energy per Si atom -5587.708440 kJ/mol
# Density = 2.152884 g / cm^3
# Si number density = 21.577950 Si / 1000 Ang^3
#
#
#
# Elastic Constant Matrix: (Units=GPa)
#
#
# Indices 1 2 3 4 5 6 
#
# 1 108.7692 -0.6298 -10.6520 0.0000 -11.0615 0.0000
# 2 -0.6298 76.0712 14.3260 0.0000 -4.6060 0.0000
# 3 -10.6520 14.3260 31.7649 0.0000 -6.8032 0.0000
# 4 0.0000 0.0000 0.0000 9.6604 0.0000 -1.7381
# 5 -11.0615 -4.6060 -6.8032 0.0000 17.7719 0.0000
# 6 0.0000 0.0000 0.0000 -1.7381 0.0000 10.0369
#
#
#
# Elastic Compliance Matrix: (Units=1/GPa)
#
#
# Indices 1 2 3 4 5 6 
#
# 1 0.010620 -0.000446 0.005614 0.000000 0.008643 0.000000
# 2 -0.000446 0.014414 -0.006438 0.000000 0.000994 0.000000
# 3 0.005614 -0.006438 0.039932 0.000000 0.017112 0.000000
# 4 0.000000 0.000000 0.000000 0.106845 0.000000 0.018502
# 5 0.008643 0.000994 0.017112 0.000000 0.068456 0.000000
# 6 0.000000 0.000000 0.000000 0.018502 0.000000 0.102837
#
#
# Mechanical properties :
#
#
# Convention : Reuss Voigt Hill
#
# Bulk Modulus (GPa) = 16.01886 24.74375 20.38130
# Shear Modulus (GPa) = 13.64434 21.73125 17.68779
#
# Velocity S-wave (km/s) = 2.51734 3.17693 2.86617
# Velocity P-wave (km/s) = 3.98612 4.99492 4.51876
#
# Compressibility (1/GPa) = 0.06242642
#
# Stress axis : x y z
#
# Youngs Moduli (GPa) = 94.16246 69.37502 25.04267
#
# Poissons Ratio (x) = 0.03093 -0.14058
# Poissons Ratio (y) = 0.04199 0.16121
# Poissons Ratio (z) = -0.52858 0.44660
#
# Static dielectric constant tensor:
#      x y z
#    x 1.781180 0.000000 -0.011600 
#    y 0.000000 1.799470 0.000000 
#    z -0.011600 0.000000 1.780560 
# 
# From -- ./inp_files/96964.got.cif
#   From: 2010.05.17/outbox.cif.g08.bks.cpg/sg12_49_cif.got.tgz:96964.got - 2010.06.03 13:09:07.
