data_PCOD9175953
_publ_section_title
;
Structure prediction by ZEFSAII (Michael W. Deem and Ramdas Pophale) SiO2 
 PCOD9175953
Probable space group: C 2/M
;
_chemical_formula_sum "Si O2"
_cell_formula_units_Z 56
_cell_length_a 35.000447
_cell_length_b 14.445393
_cell_length_c 12.772982
_cell_angle_alpha 90.000000
_cell_angle_beta 25.795639
_cell_angle_gamma 90.000000
_cell_volume 2810.261846
_symmetry_space_group_name_H-M "C 2/M"
_symmetry_group_IT_number 12
_symmetry_cell_setting 'monoclinic'
loop_
_space_group_symop_operation_xyz
x,y,z
-x,y,-z
-x,-y,-z
x,-y,z
1/2+x,1/2+y,z
1/2-x,1/2+y,-z
1/2-x,1/2-y,-z
1/2+x,1/2-y,z
loop_
_atom_site_type_symbol
_atom_site_label
_atom_site_fract_x
_atom_site_fract_y
_atom_site_fract_z
Si Si1 0.119195 0.601725 0.969131
Si Si2 0.402567 0.892074 0.733290
Si Si3 0.815602 0.892279 0.402063
Si Si4 0.726968 0.613111 0.076682
Si Si5 0.096973 0.109938 0.211040
Si Si6 0.394129 0.388326 0.430905
Si Si7 0.577860 0.299475 0.036474
O O1 0.080503 0.500000 0.044260
O O2 0.212547 0.608769 0.681511
O O3 0.063584 0.689631 0.072709
O O4 0.133840 0.607448 0.058373
O O5 0.500000 0.849160 0.500000
O O6 0.415480 0.000000 0.669638
O O7 0.327284 0.853578 0.842951
O O8 0.863032 0.861453 0.392050
O O9 0.846568 0.829880 0.230206
O O10 0.840247 0.000000 0.320141
O O11 0.730032 0.500000 0.071841
O O12 0.671801 0.636690 0.109769
O O13 0.672004 0.642301 0.314482
O O14 0.000000 0.121689 0.500000
O O15 0.105833 0.000000 0.165865
O O16 0.102998 0.167766 0.090557
O O17 0.395382 0.500000 0.430237
O O18 0.489850 0.351050 0.219837
#
# Coordination Sequence:
#
# PCOD9175953 Si02
#       7
#     8   8   8   8   8   8   8
#     4  10  22  40  58  78 111 158 205 252 294 334
#     4   9  17  34  60  82 105 148 206 252 284 333
#     4  10  20  37  62  88 117 152 196 250 303 350
#     4   9  16  31  56  85 118 154 189 234 300 363
#     4  10  19  32  52  84 130 167 184 224 304 379
#     4  10  18  33  60  91 122 151 186 242 306 358
#     4  12  22  33  55  91 124 154 201 237 292 367
#
# _framework density 19.926967999999999
#
# number of rings (size 3 to 8) (size 9 to 14) (size 15 to 20)
#    0.000    2.000    2.857    2.143    0.000    1.714 
#    0.000    2.143    0.000    1.714    0.000    4.000 
#    0.000    0.000    0.000    0.000    0.000    0.143 
#
# Total GULP energy -156391.520485 kJ/mol
# GULP energy per Si atom -5585.411446 kJ/mol
# Density = 1.988161 g / cm^3
# Si number density = 19.926968 Si / 1000 Ang^3
#
#
#
# Elastic Constant Matrix: (Units=GPa)
#
#
# Indices 1 2 3 4 5 6 
#
# 1 76.1133 31.0414 38.0431 0.0000 12.2132 0.0000
# 2 31.0414 71.4930 12.6225 0.0000 14.9131 0.0000
# 3 38.0431 12.6225 82.7576 0.0000 -1.7761 0.0000
# 4 0.0000 0.0000 0.0000 -3.5819 0.0000 0.5154
# 5 12.2132 14.9131 -1.7761 0.0000 27.5834 0.0000
# 6 0.0000 0.0000 0.0000 0.5154 0.0000 0.7845
#
#
#
# Elastic Compliance Matrix: (Units=1/GPa)
#
#
# Indices 1 2 3 4 5 6 
#
# 1 0.021216 -0.006260 -0.008939 0.000000 -0.006585 0.000000
# 2 -0.006260 0.018187 -0.000048 0.000000 -0.007065 0.000000
# 3 -0.008939 -0.000048 0.016308 0.000000 0.005034 0.000000
# 4 0.000000 0.000000 0.000000 -0.255074 0.000000 0.167567
# 5 -0.006585 -0.007065 0.005034 0.000000 0.043313 0.000000
# 6 0.000000 0.000000 0.000000 0.167567 0.000000 1.164621
#
#
# Mechanical properties :
#
#
# Convention : Reuss Voigt Hill
#
# Bulk Modulus (GPa) = 39.65554 43.75310 41.70432
# Shear Modulus (GPa) = 4.77340 14.86765 9.82052
#
# Velocity S-wave (km/s) = 1.54940 2.73446 2.22238
# Velocity P-wave (km/s) = 4.81087 5.65456 5.24969
#
# Compressibility (1/GPa) = 0.02521716
#
# Stress axis : x y z
#
# Youngs Moduli (GPa) = 47.13417 54.98297 61.31874
#
# Poissons Ratio (x) = 0.34418 0.54815
# Poissons Ratio (y) = 0.29505 0.00295
# Poissons Ratio (z) = 0.42135 0.00264
#
# Static dielectric constant tensor:
#      x y z
#    x 1.668870 0.000000 -0.009520 
#    y 0.000000 1.726980 0.000000 
#    z -0.009520 0.000000 1.703660 
# 
# From -- ./inp_files/189594.got.cif
#   From: 2010.05.17/outbox.cif.g08.bks.cpg/sg12_95_cif.got.tgz:189594.got - 2010.06.03 13:09:07.
