data_PCOD9175607
_publ_section_title
;
Structure prediction by ZEFSAII (Michael W. Deem and Ramdas Pophale) SiO2 
 PCOD9175607
Probable space group: C 2/M
;
_chemical_formula_sum "Si O2"
_cell_formula_units_Z 64
_cell_length_a 23.141074
_cell_length_b 16.550721
_cell_length_c 14.575804
_cell_angle_alpha 90.000000
_cell_angle_beta 42.375557
_cell_angle_gamma 90.000000
_cell_volume 3762.570597
_symmetry_space_group_name_H-M "C 2/M"
_symmetry_group_IT_number 12
_symmetry_cell_setting 'monoclinic'
loop_
_space_group_symop_operation_xyz
x,y,z
-x,y,-z
-x,-y,-z
x,-y,z
1/2+x,1/2+y,z
1/2-x,1/2+y,-z
1/2-x,1/2-y,-z
1/2+x,1/2-y,z
loop_
_atom_site_type_symbol
_atom_site_label
_atom_site_fract_x
_atom_site_fract_y
_atom_site_fract_z
Si Si1 0.593073 0.404006 0.916769
Si Si2 0.761985 0.098005 0.392196
Si Si3 0.402126 0.086833 0.727439
Si Si4 0.593507 0.870375 0.484426
Si Si5 0.433479 0.593545 0.840189
Si Si6 0.091932 0.809777 0.427181
Si Si7 0.160017 0.761893 0.155830
Si Si8 0.867588 0.094976 0.440950
O O1 0.589414 0.500000 0.899634
O O2 0.671192 0.372522 0.764295
O O3 0.500000 0.369291 0.000000
O O4 0.601778 0.397487 0.015347
O O5 0.667422 0.122725 0.472468
O O6 0.798583 0.125429 0.447542
O O7 0.762945 0.000000 0.391993
O O8 0.376475 0.095938 0.649949
O O9 0.505159 0.085998 0.610670
O O10 0.377061 0.170816 0.803524
O O11 0.368357 0.000000 0.801140
O O12 0.569946 0.777162 0.496102
O O13 0.415331 0.500000 0.831260
O O14 0.392829 0.666420 0.830891
O O15 0.536833 0.602433 0.714975
O O16 0.154786 0.790389 0.268498
O O17 0.131216 0.862220 0.462335
O O18 0.000000 0.844276 0.500000
O O19 0.250000 0.750000 0.000000
O O20 0.852592 0.000000 0.472357
#
# Coordination Sequence:
#
# PCOD9175607 Si02
#       8
#     8   8   8   8   8   8   8   8
#     4   9  16  28  46  74 112 146 174 212 268 329
#     4  10  19  30  49  82 114 141 181 231 275 328
#     4  10  19  35  56  78 104 142 181 224 283 334
#     4  10  18  33  55  80 106 136 176 230 280 329
#     4  10  19  33  54  78 109 149 184 217 274 338
#     4  11  20  38  55  75 108 146 181 227 279 324
#     4  11  24  38  53  79 111 141 183 239 274 327
#     4  10  20  34  54  80 110 147 188 220 264 336
#
# _framework density 17.009647999999999
#
# number of rings (size 3 to 8) (size 9 to 14) (size 15 to 20)
#    0.000    1.875    5.000    1.500    3.500    1.750 
#    0.000    0.000    0.000    0.000    0.000    0.000 
#    0.000    3.500    0.000    0.000    0.000    0.000 
#
# Total GULP energy -178242.759876 kJ/mol
# GULP energy per Si atom -5570.086246 kJ/mol
# Density = 1.697093 g / cm^3
# Si number density = 17.009648 Si / 1000 Ang^3
#
#
#
# Elastic Constant Matrix: (Units=GPa)
#
#
# Indices 1 2 3 4 5 6 
#
# 1 121.4703 45.5336 35.5799 0.0000 -1.8080 0.0000
# 2 45.5336 85.1178 18.1223 0.0000 1.4913 0.0000
# 3 35.5799 18.1223 68.6533 0.0000 4.0216 0.0000
# 4 0.0000 0.0000 0.0000 39.4093 0.0000 -11.6226
# 5 -1.8080 1.4913 4.0216 0.0000 10.5858 0.0000
# 6 0.0000 0.0000 0.0000 -11.6226 0.0000 24.6181
#
#
#
# Elastic Compliance Matrix: (Units=1/GPa)
#
#
# Indices 1 2 3 4 5 6 
#
# 1 0.011743 -0.005308 -0.004956 0.000000 0.004636 0.000000
# 2 -0.005308 0.014850 -0.001016 0.000000 -0.002613 0.000000
# 3 -0.004956 -0.001016 0.017841 0.000000 -0.007481 0.000000
# 4 0.000000 0.000000 0.000000 0.029479 0.000000 0.013918
# 5 0.004636 -0.002613 -0.007481 0.000000 0.098468 0.000000
# 6 0.000000 0.000000 0.000000 0.013918 0.000000 0.047191
#
#
# Mechanical properties :
#
#
# Convention : Reuss Voigt Hill
#
# Bulk Modulus (GPa) = 45.71750 52.63477 49.17614
# Shear Modulus (GPa) = 20.04621 26.65636 23.35128
#
# Velocity S-wave (km/s) = 3.43668 3.96300 3.70919
# Velocity P-wave (km/s) = 6.53326 7.20775 6.87878
#
# Compressibility (1/GPa) = 0.02187346
#
# Stress axis : x y z
#
# Youngs Moduli (GPa) = 85.15793 67.34037 56.05066
#
# Poissons Ratio (x) = 0.35743 0.27780
# Poissons Ratio (y) = 0.45200 0.05695
# Poissons Ratio (z) = 0.42207 0.06842
#
# Static dielectric constant tensor:
#      x y z
#    x 1.596020 0.000000 -0.006020 
#    y 0.000000 1.594340 0.000000 
#    z -0.006020 0.000000 1.591250 
# 
# From -- ./inp_files/240692.got.cif
#   From: 2010.05.17/outbox.cif.g08.bks.cpg/sg12_121_cif.got.tgz:240692.got - 2010.06.03 13:09:07.
