data_PCOD9175837
_publ_section_title
;
Structure prediction by ZEFSAII (Michael W. Deem and Ramdas Pophale) SiO2 
 PCOD9175837
Probable space group: C 2/M
;
_chemical_formula_sum "Si O2"
_cell_formula_units_Z 56
_cell_length_a 20.509416
_cell_length_b 7.871882
_cell_length_c 21.972645
_cell_angle_alpha 90.000000
_cell_angle_beta 127.417279
_cell_angle_gamma 90.000000
_cell_volume 2817.482775
_symmetry_space_group_name_H-M "C 2/M"
_symmetry_group_IT_number 12
_symmetry_cell_setting 'monoclinic'
loop_
_space_group_symop_operation_xyz
x,y,z
-x,y,-z
-x,-y,-z
x,-y,z
1/2+x,1/2+y,z
1/2-x,1/2+y,-z
1/2-x,1/2-y,-z
1/2+x,1/2-y,z
loop_
_atom_site_type_symbol
_atom_site_label
_atom_site_fract_x
_atom_site_fract_y
_atom_site_fract_z
Si Si1 0.499731 0.800838 0.199753
Si Si2 0.248438 0.802496 0.617675
Si Si3 0.156416 0.202389 0.955154
Si Si4 0.432171 0.199022 0.508433
Si Si5 0.094590 0.792105 0.050859
Si Si6 0.597873 0.207425 0.373027
Si Si7 0.850509 0.196111 0.790164
O O1 0.405401 0.773923 0.130385
O O2 0.530318 0.747128 0.283835
O O3 0.556605 0.705399 0.183150
O O4 0.519743 0.000000 0.205176
O O5 0.160642 0.713457 0.568815
O O6 0.313827 0.735645 0.604286
O O7 0.294495 0.786763 0.708443
O O8 0.233476 0.000000 0.595957
O O9 0.147163 0.000000 0.948776
O O10 0.250000 0.250000 0.000000
O O11 0.129560 0.264885 0.006493
O O12 0.500000 0.271394 0.500000
O O13 0.425808 0.270884 0.573557
O O14 0.453310 0.000000 0.527694
O O15 0.144471 0.734490 0.138639
O O16 0.095969 0.000000 0.053702
O O17 0.000000 0.739107 0.000000
O O18 0.602363 0.000000 0.377906
O O19 0.824176 0.000000 0.776779
#
# Coordination Sequence:
#
# PCOD9175837 Si02
#       7
#     8   8   8   8   8   8   8
#     4  10  19  34  55  81 112 143 177 223 278 323
#     4  10  20  35  55  80 112 141 173 220 273 321
#     4  11  22  38  56  78 110 146 187 226 268 321
#     4  10  20  36  57  80 106 139 182 220 259 320
#     4   9  17  33  57  81 105 139 182 227 268 313
#     4   8  17  34  56  80 105 137 177 220 264 315
#     4  10  18  33  58  84 107 138 184 228 268 315
#
# _framework density 19.875899
#
# number of rings (size 3 to 8) (size 9 to 14) (size 15 to 20)
#    0.000    2.286    1.429    3.000    0.000    0.286 
#    2.571    7.143    0.000    0.000    0.000    0.000 
#    0.000    0.000    0.000    0.000    0.000    0.000 
#
# Total GULP energy -156230.710965 kJ/mol
# GULP energy per Si atom -5579.668249 kJ/mol
# Density = 1.983066 g / cm^3
# Si number density = 19.875899 Si / 1000 Ang^3
#
#
#
# Elastic Constant Matrix: (Units=GPa)
#
#
# Indices 1 2 3 4 5 6 
#
# 1 148.2839 0.8293 76.8291 0.0000 -2.6187 0.0000
# 2 0.8293 29.2052 -2.7984 0.0000 -7.1392 0.0000
# 3 76.8291 -2.7984 118.3720 0.0000 -1.4567 0.0000
# 4 0.0000 0.0000 0.0000 17.3389 0.0000 4.6227
# 5 -2.6187 -7.1392 -1.4567 0.0000 24.7858 0.0000
# 6 0.0000 0.0000 0.0000 4.6227 0.0000 15.4385
#
#
#
# Elastic Compliance Matrix: (Units=1/GPa)
#
#
# Indices 1 2 3 4 5 6 
#
# 1 0.010190 -0.000814 -0.006628 0.000000 0.000453 0.000000
# 2 -0.000814 0.037018 0.001535 0.000000 0.010667 0.000000
# 3 -0.006628 0.001535 0.012792 0.000000 0.000494 0.000000
# 4 0.000000 0.000000 0.000000 0.062677 0.000000 -0.018767
# 5 0.000453 0.010667 0.000494 0.000000 0.043495 0.000000
# 6 0.000000 0.000000 0.000000 -0.018767 0.000000 0.070392
#
#
# Mechanical properties :
#
#
# Convention : Reuss Voigt Hill
#
# Bulk Modulus (GPa) = 20.75260 49.50903 35.13081
# Shear Modulus (GPa) = 18.90780 26.24604 22.57692
#
# Velocity S-wave (km/s) = 3.08765 3.63780 3.37396
# Velocity P-wave (km/s) = 4.81406 6.52748 5.73512
#
# Compressibility (1/GPa) = 0.04818674
#
# Stress axis : x y z
#
# Youngs Moduli (GPa) = 98.13254 27.01376 78.17407
#
# Poissons Ratio (x) = 0.02198 0.51811
# Poissons Ratio (y) = 0.07986 -0.11996
# Poissons Ratio (z) = 0.65039 -0.04145
#
# Static dielectric constant tensor:
#      x y z
#    x 1.678640 0.000000 -0.032510 
#    y 0.000000 1.746430 0.000000 
#    z -0.032510 0.000000 1.684640 
# 
# From -- ./inp_files/275020.got.cif
#   From: 2010.05.17/outbox.cif.g08.bks.cpg/sg12_138_cif.got.tgz:275020.got - 2010.06.03 13:09:07.
