data_PCOD9175615
_publ_section_title
;
Structure prediction by ZEFSAII (Michael W. Deem and Ramdas Pophale) SiO2 
 PCOD9175615
Probable space group: C 2/M
;
_chemical_formula_sum "Si O2"
_cell_formula_units_Z 50
_cell_length_a 18.894397
_cell_length_b 7.658209
_cell_length_c 21.589679
_cell_angle_alpha 90.000000
_cell_angle_beta 137.070780
_cell_angle_gamma 90.000000
_cell_volume 2127.716317
_symmetry_space_group_name_H-M "C 2/M"
_symmetry_group_IT_number 12
_symmetry_cell_setting 'monoclinic'
loop_
_space_group_symop_operation_xyz
x,y,z
-x,y,-z
-x,-y,-z
x,-y,z
1/2+x,1/2+y,z
1/2-x,1/2+y,-z
1/2-x,1/2-y,-z
1/2+x,1/2-y,z
loop_
_atom_site_type_symbol
_atom_site_label
_atom_site_fract_x
_atom_site_fract_y
_atom_site_fract_z
Si Si1 0.874499 0.198373 0.976039
Si Si2 0.707597 0.792612 0.208048
Si Si3 0.350218 0.792039 0.139567
Si Si4 0.132672 0.789469 0.407521
Si Si5 0.927367 0.800176 0.325421
Si Si6 0.062519 0.207541 0.228051
Si Si7 0.000000 0.500000 0.000000
O O1 0.832077 0.192322 0.877495
O O2 0.770149 0.258137 0.945524
O O3 0.039744 0.346453 0.976646
O O4 0.907140 0.000000 0.013451
O O5 0.826109 0.732417 0.296169
O O6 0.635227 0.773779 0.220405
O O7 0.704376 0.000000 0.187345
O O8 0.390198 0.705660 0.229439
O O9 0.439503 0.748530 0.147329
O O10 0.349585 0.000000 0.148072
O O11 0.250000 0.750000 0.500000
O O12 0.104780 0.723239 0.321025
O O13 0.042579 0.721471 0.396306
O O14 0.121179 0.000000 0.399245
O O15 0.937511 0.000000 0.352814
O O16 0.072255 0.000000 0.234779
#
# Coordination Sequence:
#
# PCOD9175615 Si02
#       7
#     8   8   8   8   8   8   2
#     4  10  21  36  57  86 113 142 181 226 265 320
#     4  10  18  33  55  81 106 136 178 228 277 317
#     4   9  17  30  51  79 102 131 179 223 263 307
#     4   9  18  32  48  70 101 140 180 221 274 327
#     4   8  16  30  49  70 101 133 171 223 267 313
#     4  10  20  32  51  77 106 139 177 227 273 323
#     4  12  22  36  60  86 112 152 180 210 274 334
#
# _framework density 23.499372999999999
#
# number of rings (size 3 to 8) (size 9 to 14) (size 15 to 20)
#    0.000    2.560    0.800    2.640    2.240    3.840 
#    0.000    0.800    0.000    5.760    0.000    0.000 
#    0.000    0.000    0.000    0.000    0.000    0.000 
#
# Total GULP energy -139386.193135 kJ/mol
# GULP energy per Si atom -5575.447725 kJ/mol
# Density = 2.344589 g / cm^3
# Si number density = 23.499373 Si / 1000 Ang^3
#
#
#
# Elastic Constant Matrix: (Units=GPa)
#
#
# Indices 1 2 3 4 5 6 
#
# 1 185.3970 18.2631 51.9727 0.0000 51.3692 0.0000
# 2 18.2631 97.2178 12.0447 0.0000 14.9040 0.0000
# 3 51.9727 12.0447 116.2466 0.0000 37.7926 0.0000
# 4 0.0000 0.0000 0.0000 22.3822 0.0000 9.9841
# 5 51.3692 14.9040 37.7926 0.0000 36.0972 0.0000
# 6 0.0000 0.0000 0.0000 9.9841 0.0000 28.2544
#
#
#
# Elastic Compliance Matrix: (Units=1/GPa)
#
#
# Indices 1 2 3 4 5 6 
#
# 1 0.008917 0.000297 0.000224 0.000000 -0.013046 0.000000
# 2 0.000297 0.011011 0.000518 0.000000 -0.005512 0.000000
# 3 0.000224 0.000518 0.013071 0.000000 -0.014218 0.000000
# 4 0.000000 0.000000 0.000000 0.053039 0.000000 -0.018742
# 5 -0.013046 -0.005512 -0.014218 0.000000 0.063430 0.000000
# 6 0.000000 0.000000 0.000000 -0.018742 0.000000 0.042015
#
#
# Mechanical properties :
#
#
# Convention : Reuss Voigt Hill
#
# Bulk Modulus (GPa) = 28.50824 62.60249 45.55537
# Shear Modulus (GPa) = 24.86374 38.45215 31.65794
#
# Velocity S-wave (km/s) = 3.25631 4.04952 3.67438
# Velocity P-wave (km/s) = 5.12795 6.96869 6.11795
#
# Compressibility (1/GPa) = 0.03507758
#
# Stress axis : x y z
#
# Youngs Moduli (GPa) = 112.15080 90.81710 76.50693
#
# Poissons Ratio (x) = -0.02700 -0.01715
# Poissons Ratio (y) = -0.03334 -0.03964
# Poissons Ratio (z) = -0.02514 -0.04706
#
# Static dielectric constant tensor:
#      x y z
#    x 1.937780 0.000000 0.063650 
#    y 0.000000 1.817820 0.000000 
#    z 0.063650 0.000000 2.013980 
# 
# From -- ./inp_files/362810.got.cif
#   From: 2010.05.17/outbox.cif.g08.bks.cpg/sg12_182_cif.got.tgz:362810.got - 2010.06.03 13:09:07.
