data_PCOD9175085
_publ_section_title
;
Structure prediction by ZEFSAII (Michael W. Deem and Ramdas Pophale) SiO2 
 PCOD9175085
Probable space group: C 2/M
;
_chemical_formula_sum "Si O2"
_cell_formula_units_Z 56
_cell_length_a 26.235036
_cell_length_b 7.484228
_cell_length_c 15.103605
_cell_angle_alpha 90.000000
_cell_angle_beta 56.951273
_cell_angle_gamma 90.000000
_cell_volume 2485.768138
_symmetry_space_group_name_H-M "C 2/M"
_symmetry_group_IT_number 12
_symmetry_cell_setting 'monoclinic'
loop_
_space_group_symop_operation_xyz
x,y,z
-x,y,-z
-x,-y,-z
x,-y,z
1/2+x,1/2+y,z
1/2-x,1/2+y,-z
1/2-x,1/2-y,-z
1/2+x,1/2-y,z
loop_
_atom_site_type_symbol
_atom_site_label
_atom_site_fract_x
_atom_site_fract_y
_atom_site_fract_z
Si Si1 0.570793 0.211769 0.693761
Si Si2 0.761777 0.292865 0.754257
Si Si3 0.524831 0.218400 0.071284
Si Si4 0.502691 0.781878 0.396881
Si Si5 0.793031 0.788993 0.376189
Si Si6 0.839215 0.283516 0.005806
Si Si7 0.862809 0.281626 0.786438
O O1 0.521587 0.282542 0.809970
O O2 0.552793 0.277810 0.613133
O O3 0.638764 0.234518 0.663692
O O4 0.560718 0.000000 0.699905
O O5 0.776358 0.500000 0.720773
O O6 0.734545 0.213332 0.689482
O O7 0.711260 0.285685 0.879216
O O8 0.822290 0.216818 0.742648
O O9 0.524722 0.000000 0.072549
O O10 0.500000 0.275190 0.000000
O O11 0.593897 0.271206 0.024181
O O12 0.500000 0.718202 0.500000
O O13 0.566863 0.731276 0.291343
O O14 0.502026 0.000000 0.401432
O O15 0.750000 0.750000 0.500000
O O16 0.796138 0.000000 0.360920
O O17 0.835817 0.500000 0.011058
O O18 0.835099 0.225695 0.907222
O O19 0.861347 0.500000 0.788181
#
# Coordination Sequence:
#
# PCOD9175085 Si02
#       7
#     8   8   8   8   8   8   8
#     4  10  19  35  59  86 111 140 184 233 280 328
#     4  10  22  37  55  80 113 149 185 228 280 333
#     4   9  16  27  48  78 109 140 175 218 264 316
#     4   9  17  29  54  87 112 140 185 233 277 328
#     4  11  25  42  59  81 110 148 191 233 280 334
#     4  10  18  32  55  83 113 144 184 230 275 327
#     4   9  17  32  53  82 114 143 183 232 274 327
#
# _framework density 22.528248999999999
#
# number of rings (size 3 to 8) (size 9 to 14) (size 15 to 20)
#    0.000    2.286    1.429    1.714    2.000    2.286 
#    0.000    0.714    0.000    3.857    0.000    0.000 
#    0.000    0.000    0.000    0.000    0.000    0.000 
#
# Total GULP energy -156433.446813 kJ/mol
# GULP energy per Si atom -5586.908815 kJ/mol
# Density = 2.247697 g / cm^3
# Si number density = 22.528249 Si / 1000 Ang^3
#
#
#
# Elastic Constant Matrix: (Units=GPa)
#
#
# Indices 1 2 3 4 5 6 
#
# 1 169.3510 -0.0180 31.9896 0.0000 34.8129 0.0000
# 2 -0.0180 58.5261 -6.5631 -0.0001 8.4873 0.0002
# 3 31.9896 -6.5631 66.9994 0.0000 31.0091 0.0000
# 4 0.0000 -0.0001 0.0000 6.0179 0.0000 -2.0948
# 5 34.8129 8.4873 31.0091 0.0000 45.7156 0.0000
# 6 0.0000 0.0002 0.0000 -2.0948 0.0000 9.2272
#
#
#
# Elastic Compliance Matrix: (Units=1/GPa)
#
#
# Indices 1 2 3 4 5 6 
#
# 1 0.007093 0.000560 -0.001142 0.000000 -0.004731 0.000000
# 2 0.000560 0.018684 0.004906 0.000000 -0.007223 0.000000
# 3 -0.001142 0.004906 0.023278 0.000000 -0.015831 0.000000
# 4 0.000000 0.000000 0.000000 0.180431 0.000000 0.040962
# 5 -0.004731 -0.007223 -0.015831 0.000000 0.037556 0.000000
# 6 0.000000 0.000000 0.000000 0.040962 0.000000 0.117674
#
#
# Mechanical properties :
#
#
# Convention : Reuss Voigt Hill
#
# Bulk Modulus (GPa) = 17.33020 38.41037 27.87028
# Shear Modulus (GPa) = 12.64850 30.15667 21.40259
#
# Velocity S-wave (km/s) = 2.37207 3.66268 3.08560
# Velocity P-wave (km/s) = 3.90021 5.91387 5.00926
#
# Compressibility (1/GPa) = 0.05770274
#
# Stress axis : x y z
#
# Youngs Moduli (GPa) = 140.97989 53.52127 42.95835
#
# Poissons Ratio (x) = -0.02998 0.04908
# Poissons Ratio (y) = -0.07896 -0.21074
# Poissons Ratio (z) = 0.16105 -0.26256
#
# Static dielectric constant tensor:
#      x y z
#    x 1.830800 0.000000 0.035650 
#    y 0.000000 1.867190 0.000000 
#    z 0.035650 0.000000 1.783720 
# 
# From -- ./inp_files/238416.got.cif
#   From: 2010.05.17/outbox.cif.g08.bks.cpg/sg12_120_cif.got.tgz:238416.got - 2010.06.03 13:09:07.
