data_PCOD9175539
_publ_section_title
;
Structure prediction by ZEFSAII (Michael W. Deem and Ramdas Pophale) SiO2 
 PCOD9175539
Probable space group: C 2/M
;
_chemical_formula_sum "Si O2"
_cell_formula_units_Z 56
_cell_length_a 21.113848
_cell_length_b 7.528967
_cell_length_c 17.993424
_cell_angle_alpha 90.000000
_cell_angle_beta 74.632924
_cell_angle_gamma 90.000000
_cell_volume 2758.069933
_symmetry_space_group_name_H-M "C 2/M"
_symmetry_group_IT_number 12
_symmetry_cell_setting 'monoclinic'
loop_
_space_group_symop_operation_xyz
x,y,z
-x,y,-z
-x,-y,-z
x,-y,z
1/2+x,1/2+y,z
1/2-x,1/2+y,-z
1/2-x,1/2-y,-z
1/2+x,1/2-y,z
loop_
_atom_site_type_symbol
_atom_site_label
_atom_site_fract_x
_atom_site_fract_y
_atom_site_fract_z
Si Si1 0.933991 0.785933 0.765323
Si Si2 0.193275 0.703748 0.909734
Si Si3 0.922969 0.213818 0.326611
Si Si4 0.840731 0.217145 0.658328
Si Si5 0.803874 0.712071 0.254127
Si Si6 0.665616 0.209703 0.079389
Si Si7 0.927676 0.783135 0.494289
O O1 0.887286 0.726656 0.712041
O O2 0.899694 0.734607 0.852882
O O3 0.007960 0.722082 0.729017
O O4 0.934966 0.000000 0.762525
O O5 0.169892 0.500000 0.914563
O O6 0.180092 0.784872 0.833191
O O7 0.272184 0.706496 0.897474
O O8 0.164463 0.780990 0.995330
O O9 0.861644 0.258423 0.294249
O O10 0.916098 0.277009 0.413690
O O11 0.927049 0.000000 0.328834
O O12 0.766529 0.278651 0.695012
O O13 0.873433 0.274241 0.570819
O O14 0.840803 0.000000 0.657902
O O15 0.795697 0.500000 0.247324
O O16 0.680458 0.000000 0.070512
O O17 0.000000 0.730032 0.500000
O O18 0.927399 0.000000 0.494056
#
# Coordination Sequence:
#
# PCOD9175539 Si02
#       7
#     8   8   8   8   8   8   8
#     4  10  18  33  54  76 103 138 176 212 255 310
#     4   9  18  34  53  75 105 141 174 206 254 314
#     4  10  21  34  53  79 106 135 173 221 262 300
#     4   9  16  29  53  77  98 134 178 210 247 307
#     4  10  20  35  53  73 105 144 172 202 257 324
#     4  10  19  30  52  83 106 128 170 224 262 294
#     4   9  15  28  52  80 102 127 173 222 256 297
#
# _framework density 20.304053
#
# number of rings (size 3 to 8) (size 9 to 14) (size 15 to 20)
#    0.000    2.429    2.857    0.429    0.000    2.286 
#    0.000    0.714    0.000    5.571    0.000    0.000 
#    0.000    0.000    0.000    0.000    0.000    0.000 
#
# Total GULP energy -156282.263020 kJ/mol
# GULP energy per Si atom -5581.509394 kJ/mol
# Density = 2.025784 g / cm^3
# Si number density = 20.304053 Si / 1000 Ang^3
#
#
#
# Elastic Constant Matrix: (Units=GPa)
#
#
# Indices 1 2 3 4 5 6 
#
# 1 142.4081 -3.5537 100.5565 0.0000 2.3036 0.0000
# 2 -3.5537 51.7288 2.3246 0.0000 -0.9505 0.0000
# 3 100.5565 2.3246 206.5264 0.0000 0.8578 0.0000
# 4 0.0000 0.0000 0.0000 4.8926 0.0000 3.0982
# 5 2.3036 -0.9505 0.8578 0.0000 34.6382 0.0000
# 6 0.0000 0.0000 0.0000 3.0982 0.0000 18.0758
#
#
#
# Elastic Compliance Matrix: (Units=1/GPa)
#
#
# Indices 1 2 3 4 5 6 
#
# 1 0.010761 0.000965 -0.005248 0.000000 -0.000559 0.000000
# 2 0.000965 0.019438 -0.000691 0.000000 0.000486 0.000000
# 3 -0.005248 -0.000691 0.007404 0.000000 0.000147 0.000000
# 4 0.000000 0.000000 0.000000 0.229274 0.000000 -0.039298
# 5 -0.000559 0.000486 0.000147 0.000000 0.028917 0.000000
# 6 0.000000 0.000000 0.000000 -0.039298 0.000000 0.062058
#
#
# Mechanical properties :
#
#
# Convention : Reuss Voigt Hill
#
# Bulk Modulus (GPa) = 36.15899 66.59091 51.37495
# Shear Modulus (GPa) = 13.26197 31.61039 22.43618
#
# Velocity S-wave (km/s) = 2.55849 3.94998 3.32778
# Velocity P-wave (km/s) = 5.15512 7.32606 6.33429
#
# Compressibility (1/GPa) = 0.02765564
#
# Stress axis : x y z
#
# Youngs Moduli (GPa) = 92.92954 51.44608 135.05582
#
# Poissons Ratio (x) = -0.04964 0.70876
# Poissons Ratio (y) = -0.08966 0.09326
# Poissons Ratio (z) = 0.48769 0.03553
#
# Static dielectric constant tensor:
#      x y z
#    x 1.665420 0.000000 -0.008350 
#    y 0.000000 1.811490 0.000000 
#    z -0.008350 0.000000 1.735690 
# 
# From -- ./inp_files/280221.got.cif
#   From: 2010.05.17/outbox.cif.g08.bks.cpg/sg12_141_cif.got.tgz:280221.got - 2010.06.03 13:09:07.
