data_PCOD9175220
_publ_section_title
;
Structure prediction by ZEFSAII (Michael W. Deem and Ramdas Pophale) SiO2 
 PCOD9175220
Probable space group: C 2/M
;
_chemical_formula_sum "Si O2"
_cell_formula_units_Z 64
_cell_length_a 20.401696
_cell_length_b 7.496933
_cell_length_c 24.074347
_cell_angle_alpha 90.000000
_cell_angle_beta 127.034646
_cell_angle_gamma 90.000000
_cell_volume 2939.375142
_symmetry_space_group_name_H-M "C 2/M"
_symmetry_group_IT_number 12
_symmetry_cell_setting 'monoclinic'
loop_
_space_group_symop_operation_xyz
x,y,z
-x,y,-z
-x,-y,-z
x,-y,z
1/2+x,1/2+y,z
1/2-x,1/2+y,-z
1/2-x,1/2-y,-z
1/2+x,1/2-y,z
loop_
_atom_site_type_symbol
_atom_site_label
_atom_site_fract_x
_atom_site_fract_y
_atom_site_fract_z
Si Si1 0.585542 0.208102 0.773138
Si Si2 0.012930 0.718417 0.171239
Si Si3 0.987366 0.207356 0.381135
Si Si4 0.694932 0.782738 0.236189
Si Si5 0.063977 0.282252 0.984495
Si Si6 0.652196 0.718815 0.610609
Si Si7 0.226442 0.715422 0.126248
Si Si8 0.166871 0.213499 0.491158
O O1 0.530772 0.281536 0.795244
O O2 0.563777 0.285905 0.701999
O O3 0.680741 0.228381 0.837319
O O4 0.566779 0.000000 0.757976
O O5 0.010852 0.500000 0.170383
O O6 0.966462 0.775402 0.091431
O O7 0.107512 0.773157 0.215629
O O8 0.931402 0.282198 0.402329
O O9 0.079840 0.279460 0.421410
O O10 0.997578 0.000000 0.400886
O O11 0.771703 0.725414 0.312105
O O12 0.703687 0.725170 0.176942
O O13 0.695391 0.000000 0.235866
O O14 0.063261 0.500000 0.983996
O O15 0.155366 0.224412 0.048110
O O16 0.000000 0.228104 0.000000
O O17 0.650871 0.500000 0.609937
O O18 0.666164 0.776896 0.554658
O O19 0.225418 0.500000 0.125626
O O20 0.250000 0.250000 0.500000
O O21 0.164235 0.000000 0.491486
#
# Coordination Sequence:
#
# PCOD9175220 Si02
#       8
#     8   8   8   8   8   8   8   8
#     4  11  23  35  51  78 114 147 172 213 274 332
#     4   9  18  30  46  77 111 137 175 225 273 315
#     4  10  20  38  60  80 104 139 186 228 257 303
#     4   9  15  27  52  81 102 129 177 229 261 295
#     4   9  15  27  51  81 106 131 177 235 272 300
#     4   9  17  32  57  82 104 137 182 225 260 301
#     4  10  18  32  57  82 104 135 181 230 266 307
#     4  10  22  37  57  85 115 142 172 216 269 321
#
# _framework density 21.773333999999998
#
# number of rings (size 3 to 8) (size 9 to 14) (size 15 to 20)
#    0.000    2.375    2.500    0.750    1.750    2.500 
#    0.000    0.625    0.000    4.125    0.000    0.000 
#    0.000    0.000    0.000    0.000    0.000    0.000 
#
# Total GULP energy -178722.704364 kJ/mol
# GULP energy per Si atom -5585.084511 kJ/mol
# Density = 2.172378 g / cm^3
# Si number density = 21.773334 Si / 1000 Ang^3
#
#
#
# Elastic Constant Matrix: (Units=GPa)
#
#
# Indices 1 2 3 4 5 6 
#
# 1 184.9364 7.4914 58.1609 0.0000 11.8489 0.0000
# 2 7.4914 56.6628 4.9168 0.0000 -1.0491 0.0000
# 3 58.1609 4.9168 101.1738 0.0000 19.5302 0.0000
# 4 0.0000 0.0000 0.0000 -1.9544 0.0000 3.5053
# 5 11.8489 -1.0491 19.5302 0.0000 39.6633 0.0000
# 6 0.0000 0.0000 0.0000 3.5053 0.0000 9.3620
#
#
#
# Elastic Compliance Matrix: (Units=1/GPa)
#
#
# Indices 1 2 3 4 5 6 
#
# 1 0.006618 -0.000552 -0.003750 0.000000 -0.000145 0.000000
# 2 -0.000552 0.017804 -0.000741 0.000000 0.001001 0.000000
# 3 -0.003750 -0.000741 0.013109 0.000000 -0.005354 0.000000
# 4 0.000000 0.000000 0.000000 -0.306103 0.000000 0.114610
# 5 -0.000145 0.001001 -0.005354 0.000000 0.027919 0.000000
# 6 0.000000 0.000000 0.000000 0.114610 0.000000 0.063903
#
#
# Mechanical properties :
#
#
# Convention : Reuss Voigt Hill
#
# Bulk Modulus (GPa) = 36.43564 53.76791 45.10177
# Shear Modulus (GPa) = -31.74277 27.56112 -2.09083
#
# Velocity S-wave (km/s) = -3.82235 3.56170 -0.98100
# Velocity P-wave (km/s) = 1.64625 6.45463 4.41317
#
# Compressibility (1/GPa) = 0.02744566
#
# Stress axis : x y z
#
# Youngs Moduli (GPa) = 151.09905 56.16686 76.28298
#
# Poissons Ratio (x) = 0.03102 0.28603
# Poissons Ratio (y) = 0.08345 0.05652
# Poissons Ratio (z) = 0.56656 0.04161
#
# Static dielectric constant tensor:
#      x y z
#    x 1.767480 0.000000 0.011460 
#    y 0.000000 1.844330 0.000000 
#    z 0.011460 0.000000 1.761320 
# 
# From -- ./inp_files/346164.got.cif
#   From: 2010.05.17/outbox.cif.g08.bks.cpg/sg12_174_cif.got.tgz:346164.got - 2010.06.03 13:09:07.
