data_PCOD9175478
_publ_section_title
;
Structure prediction by ZEFSAII (Michael W. Deem and Ramdas Pophale) SiO2 
 PCOD9175478
Probable space group: C 2/M
;
_chemical_formula_sum "Si O2"
_cell_formula_units_Z 64
_cell_length_a 24.905741
_cell_length_b 19.938261
_cell_length_c 9.888552
_cell_angle_alpha 90.000000
_cell_angle_beta 48.133281
_cell_angle_gamma 90.000000
_cell_volume 3656.793319
_symmetry_space_group_name_H-M "C 2/M"
_symmetry_group_IT_number 12
_symmetry_cell_setting 'monoclinic'
loop_
_space_group_symop_operation_xyz
x,y,z
-x,y,-z
-x,-y,-z
x,-y,z
1/2+x,1/2+y,z
1/2-x,1/2+y,-z
1/2-x,1/2-y,-z
1/2+x,1/2-y,z
loop_
_atom_site_type_symbol
_atom_site_label
_atom_site_fract_x
_atom_site_fract_y
_atom_site_fract_z
Si Si1 0.537775 0.326440 0.698403
Si Si2 0.600589 0.425702 0.377690
Si Si3 0.876741 0.923582 0.252898
Si Si4 0.113482 0.873740 0.059935
Si Si5 0.233393 0.318547 0.107365
Si Si6 0.662177 0.774226 0.492650
Si Si7 0.227039 0.577385 0.884024
Si Si8 0.763603 0.648621 0.398099
O O1 0.561446 0.366399 0.522985
O O2 0.566291 0.375495 0.768890
O O3 0.451998 0.321309 0.845717
O O4 0.583654 0.258912 0.632221
O O5 0.574015 0.500000 0.459248
O O6 0.597178 0.415450 0.222806
O O7 0.685215 0.421615 0.272997
O O8 0.797703 0.897416 0.429336
O O9 0.886826 0.000000 0.279060
O O10 0.884439 0.916618 0.079522
O O11 0.191155 0.840828 0.951793
O O12 0.177327 0.305968 0.321493
O O13 0.250000 0.250000 0.000000
O O14 0.209840 0.375310 0.040124
O O15 0.719392 0.712681 0.413836
O O16 0.681515 0.824425 0.581607
O O17 0.205372 0.500000 0.937765
O O18 0.201746 0.609639 0.785805
#
# Coordination Sequence:
#
# PCOD9175478 Si02
#       8
#     8   8   8   8   8   8   8   8
#     4  11  22  35  50  72 105 142 181 218 261 319
#     4  10  19  32  47  66  99 142 181 211 249 307
#     4  11  21  34  50  73 107 147 182 212 254 312
#     4  11  23  34  47  75 106 139 179 221 259 311
#     4  11  20  36  55  76 102 142 179 227 275 316
#     4  10  19  34  53  73  97 140 185 225 275 304
#     4  10  19  33  52  77 106 138 176 222 267 319
#     4  10  18  33  53  72  98 140 186 224 259 312
#
# _framework density 17.501673
#
# number of rings (size 3 to 8) (size 9 to 14) (size 15 to 20)
#    0.000    1.500    5.000    2.625    0.000    3.500 
#    0.000    0.000    0.000    0.000    0.000    0.000 
#    0.000    5.000    0.000    0.125    0.000    0.000 
#
# Total GULP energy -178699.893568 kJ/mol
# GULP energy per Si atom -5584.371674 kJ/mol
# Density = 1.746184 g / cm^3
# Si number density = 17.501673 Si / 1000 Ang^3
#
#
#
# Elastic Constant Matrix: (Units=GPa)
#
#
# Indices 1 2 3 4 5 6 
#
# 1 57.7629 29.8387 36.0918 0.0000 17.7253 0.0000
# 2 29.8387 80.6297 37.3027 0.0000 17.4082 0.0000
# 3 36.0918 37.3027 73.3722 0.0000 28.4024 0.0000
# 4 0.0000 0.0000 0.0000 5.9013 0.0000 5.6849
# 5 17.7253 17.4082 28.4024 0.0000 30.7500 0.0000
# 6 0.0000 0.0000 0.0000 5.6849 0.0000 13.2671
#
#
#
# Elastic Compliance Matrix: (Units=1/GPa)
#
#
# Indices 1 2 3 4 5 6 
#
# 1 0.026777 -0.004779 -0.009050 0.000000 -0.004370 0.000000
# 2 -0.004779 0.017188 -0.005739 0.000000 -0.001674 0.000000
# 3 -0.009050 -0.005739 0.027584 0.000000 -0.017012 0.000000
# 4 0.000000 0.000000 0.000000 0.288573 0.000000 -0.123653
# 5 -0.004370 -0.001674 -0.017012 0.000000 0.051701 0.000000
# 6 0.000000 0.000000 0.000000 -0.123653 0.000000 0.128359
#
#
# Mechanical properties :
#
#
# Convention : Reuss Voigt Hill
#
# Bulk Modulus (GPa) = 30.85271 46.47013 38.66142
# Shear Modulus (GPa) = 8.47281 17.21912 12.84597
#
# Velocity S-wave (km/s) = 2.20265 3.14005 2.71215
# Velocity P-wave (km/s) = 4.91280 6.30524 5.65206
#
# Compressibility (1/GPa) = 0.03241206
#
# Stress axis : x y z
#
# Youngs Moduli (GPa) = 37.34608 58.18131 36.25240
#
# Poissons Ratio (x) = 0.27803 0.32809
# Poissons Ratio (y) = 0.17846 0.20807
# Poissons Ratio (z) = 0.33799 0.33393
#
# Static dielectric constant tensor:
#      x y z
#    x 1.610450 0.000000 0.024800 
#    y 0.000000 1.593430 0.000000 
#    z 0.024800 0.000000 1.608600 
# 
# From -- ./inp_files/106391.got.cif
#   From: 2010.05.17/outbox.cif.g08.bks.cpg/sg12_54_cif.got.tgz:106391.got - 2010.06.03 13:09:07.
