data_PCOD9175915
_publ_section_title
;
Structure prediction by ZEFSAII (Michael W. Deem and Ramdas Pophale) SiO2 
 PCOD9175915
Probable space group: C 2/M
;
_chemical_formula_sum "Si O2"
_cell_formula_units_Z 56
_cell_length_a 26.159113
_cell_length_b 8.874544
_cell_length_c 17.586748
_cell_angle_alpha 90.000000
_cell_angle_beta 43.768875
_cell_angle_gamma 90.000000
_cell_volume 2824.258140
_symmetry_space_group_name_H-M "C 2/M"
_symmetry_group_IT_number 12
_symmetry_cell_setting 'monoclinic'
loop_
_space_group_symop_operation_xyz
x,y,z
-x,y,-z
-x,-y,-z
x,-y,z
1/2+x,1/2+y,z
1/2-x,1/2+y,-z
1/2-x,1/2-y,-z
1/2+x,1/2-y,z
loop_
_atom_site_type_symbol
_atom_site_label
_atom_site_fract_x
_atom_site_fract_y
_atom_site_fract_z
Si Si1 0.930945 0.181132 0.769698
Si Si2 0.884377 0.323931 0.973003
Si Si3 0.418495 0.682932 0.612722
Si Si4 0.555352 0.827210 0.839773
Si Si5 0.194544 0.180766 0.398357
Si Si6 0.908831 0.678579 0.369758
Si Si7 0.335592 0.676703 0.174211
O O1 0.885669 0.250497 0.888355
O O2 0.902943 0.227596 0.716216
O O3 0.015545 0.239084 0.685871
O O4 0.930892 0.000000 0.775270
O O5 0.865468 0.500000 0.988802
O O6 0.969275 0.312220 0.911470
O O7 0.836080 0.242147 0.088506
O O8 0.500000 0.735211 0.500000
O O9 0.420268 0.500000 0.610335
O O10 0.358877 0.727811 0.614294
O O11 0.596555 0.802536 0.715209
O O12 0.586814 0.716454 0.868778
O O13 0.567806 0.000000 0.852300
O O14 0.159199 0.252781 0.511341
O O15 0.274677 0.239820 0.290384
O O16 0.194257 0.000000 0.405050
O O17 0.916219 0.500000 0.376482
O O18 0.322703 0.500000 0.187168
#
# Coordination Sequence:
#
# PCOD9175915 Si02
#       7
#     8   8   8   8   8   8   8
#     4  10  18  33  59  88 116 145 186 234 280 328
#     4  10  21  39  61  85 114 147 189 233 279 333
#     4   9  17  33  58  88 114 144 187 230 275 332
#     4   9  20  38  60  83 111 148 188 230 279 333
#     4  11  22  38  59  81 114 155 190 229 283 337
#     4  10  20  35  55  85 119 148 185 232 280 334
#     4  12  25  39  56  82 114 148 191 236 281 336
#
# _framework density 19.828215
#
# number of rings (size 3 to 8) (size 9 to 14) (size 15 to 20)
#    0.000    1.857    1.429    4.286    0.000    5.714 
#    0.000    4.286    0.000    0.000    0.000    0.000 
#    0.000    0.000    0.000    0.000    0.000    0.000 
#
# Total GULP energy -156439.476883 kJ/mol
# GULP energy per Si atom -5587.124174 kJ/mol
# Density = 1.978309 g / cm^3
# Si number density = 19.828215 Si / 1000 Ang^3
#
#
#
# Elastic Constant Matrix: (Units=GPa)
#
#
# Indices 1 2 3 4 5 6 
#
# 1 30.4663 18.1904 -0.0615 0.0120 11.9143 0.0159
# 2 18.1904 78.1887 32.0849 0.0069 18.7008 0.0174
# 3 -0.0615 32.0849 93.0652 0.0239 27.8774 0.0369
# 4 0.0120 0.0069 0.0239 -4.1279 -0.0112 -25.4104
# 5 11.9143 18.7008 27.8774 -0.0112 26.7862 -0.0148
# 6 0.0159 0.0174 0.0369 -25.4104 -0.0148 -8.6303
#
#
#
# Elastic Compliance Matrix: (Units=1/GPa)
#
#
# Indices 1 2 3 4 5 6 
#
# 1 0.049221 -0.009686 0.011485 0.000044 -0.027083 0.000036
# 2 -0.009686 0.017869 -0.005406 0.000001 -0.002541 -0.000004
# 3 0.011485 -0.005406 0.018912 0.000035 -0.021016 0.000025
# 4 0.000044 0.000001 0.000035 0.014147 -0.000074 -0.041652
# 5 -0.027083 -0.002541 -0.021016 -0.000074 0.073026 -0.000053
# 6 0.000036 -0.000004 0.000025 -0.041652 -0.000053 0.006766
#
#
# Mechanical properties :
#
#
# Convention : Reuss Voigt Hill
#
# Bulk Modulus (GPa) = 12.69246 33.57198 23.13222
# Shear Modulus (GPa) = 23.42828 12.90604 18.16716
#
# Velocity S-wave (km/s) = 3.44112 2.55403 3.03021
# Velocity P-wave (km/s) = 4.71206 5.06612 4.89229
#
# Compressibility (1/GPa) = 0.07878692
#
# Stress axis : x y z
#
# Youngs Moduli (GPa) = 20.31660 55.96272 52.87698
#
# Poissons Ratio (x) = 0.54207 -0.60727
# Poissons Ratio (y) = 0.19679 0.28584
# Poissons Ratio (z) = -0.23333 0.30252
#
# Static dielectric constant tensor:
#      x y z
#    x 1.699760 0.000000 -0.001100 
#    y 0.000000 1.662540 0.000000 
#    z -0.001100 0.000000 1.709480 
# 
# From -- ./inp_files/288420.got.cif
#   From: 2010.05.17/outbox.cif.g08.bks.cpg/sg12_145_cif.got.tgz:288420.got - 2010.06.03 13:09:07.
