data_PCOD9175721
_publ_section_title
;
Structure prediction by ZEFSAII (Michael W. Deem and Ramdas Pophale) SiO2 
 PCOD9175721
Probable space group: C 2/M
;
_chemical_formula_sum "Si O2"
_cell_formula_units_Z 48
_cell_length_a 15.141965
_cell_length_b 18.915849
_cell_length_c 13.070970
_cell_angle_alpha 90.000000
_cell_angle_beta 30.674393
_cell_angle_gamma 90.000000
_cell_volume 1909.945990
_symmetry_space_group_name_H-M "C 2/M"
_symmetry_group_IT_number 12
_symmetry_cell_setting 'monoclinic'
loop_
_space_group_symop_operation_xyz
x,y,z
-x,y,-z
-x,-y,-z
x,-y,z
1/2+x,1/2+y,z
1/2-x,1/2+y,-z
1/2-x,1/2-y,-z
1/2+x,1/2-y,z
loop_
_atom_site_type_symbol
_atom_site_label
_atom_site_fract_x
_atom_site_fract_y
_atom_site_fract_z
Si Si1 0.179980 0.000000 0.729897
Si Si2 0.583269 0.658545 0.580247
Si Si3 0.964763 0.500000 0.740688
Si Si4 0.272686 0.845259 0.197630
Si Si5 0.101768 0.234827 0.064326
Si Si6 0.680774 0.117418 0.263189
Si Si7 0.688676 0.000000 0.894712
Si Si8 0.456151 0.500000 0.330322
O O1 0.339499 0.000000 0.492057
O O2 0.212746 0.067792 0.766102
O O3 0.015042 0.000000 0.821312
O O4 0.400960 0.658316 0.700126
O O5 0.717706 0.685639 0.361960
O O6 0.623431 0.576744 0.565952
O O7 0.554139 0.702372 0.713537
O O8 0.877643 0.568984 0.775074
O O9 0.949204 0.500000 0.876889
O O10 0.413755 0.804640 0.989010
O O11 0.313699 0.928051 0.165621
O O12 0.193151 0.178380 0.899104
O O13 0.250000 0.250000 0.000000
O O14 0.500000 0.139288 0.500000
O O15 0.867849 0.000000 0.780306
#
# Coordination Sequence:
#
# PCOD9175721 Si02
#       8
#     4   8   4   8   8   8   4   4
#     4   9  20  35  52  81 113 155 181 223 283 329
#     4   9  18  31  49  81 110 142 184 226 275 332
#     4   9  16  33  51  78 111 138 191 229 269 324
#     4   9  18  31  51  82 114 139 178 238 285 315
#     4  10  19  29  49  82 109 141 180 226 285 327
#     4   9  18  31  51  76 110 143 185 231 269 327
#     4  10  18  33  56  87 111 140 187 239 271 332
#     4  10  18  33  57  82 115 148 183 223 285 331
#
# _framework density 25.131601
#
# number of rings (size 3 to 8) (size 9 to 14) (size 15 to 20)
#    0.000    2.667    0.000    4.500    4.667    2.667 
#    0.000    6.667    0.000    3.000   13.000    0.000 
#    0.000    0.000    0.000    0.000    0.000    0.000 
#
# Total GULP energy -134256.697432 kJ/mol
# GULP energy per Si atom -5594.029060 kJ/mol
# Density = 2.507440 g / cm^3
# Si number density = 25.131601 Si / 1000 Ang^3
#
#
#
# Elastic Constant Matrix: (Units=GPa)
#
#
# Indices 1 2 3 4 5 6 
#
# 1 81.9669 14.8512 21.7579 -0.0157 7.8415 0.0153
# 2 14.8512 116.1292 62.6166 -0.0181 30.0800 0.0211
# 3 21.7579 62.6166 147.3485 -0.0172 41.4846 0.0260
# 4 -0.0157 -0.0181 -0.0172 12.9984 0.0078 12.2228
# 5 7.8415 30.0800 41.4846 0.0078 44.5945 -0.0114
# 6 0.0153 0.0211 0.0260 12.2228 -0.0114 5.9962
#
#
#
# Elastic Compliance Matrix: (Units=1/GPa)
#
#
# Indices 1 2 3 4 5 6 
#
# 1 0.012759 -0.000746 -0.001459 -0.000039 -0.000383 0.000055
# 2 -0.000746 0.011835 -0.003670 -0.000048 -0.004438 0.000065
# 3 -0.001459 -0.003670 0.010557 -0.000056 -0.007089 0.000072
# 4 -0.000039 -0.000048 -0.000056 -0.083912 0.000150 0.171050
# 5 -0.000383 -0.004438 -0.007089 0.000150 0.032080 -0.000197
# 6 0.000055 0.000065 0.000072 0.171050 -0.000197 -0.181903
#
#
# Mechanical properties :
#
#
# Convention : Reuss Voigt Hill
#
# Bulk Modulus (GPa) = 42.73160 60.43290 51.58225
# Shear Modulus (GPa) = -27.92757 29.13241 0.60242
#
# Velocity S-wave (km/s) = -3.33716 3.40839 0.49013
# Velocity P-wave (km/s) = 1.48026 6.29192 4.57053
#
# Compressibility (1/GPa) = 0.02340188
#
# Stress axis : x y z
#
# Youngs Moduli (GPa) = 78.37511 84.49800 94.71952
#
# Poissons Ratio (x) = 0.06300 0.13823
# Poissons Ratio (y) = 0.05844 0.34759
# Poissons Ratio (z) = 0.11438 0.31008
#
# Static dielectric constant tensor:
#      x y z
#    x 2.053630 0.000000 0.020860 
#    y 0.000000 1.981540 -0.000010 
#    z 0.020860 -0.000010 2.022290 
# 
# From -- ./inp_files/147980.got.cif
#   From: 2010.05.17/outbox.cif.g08.bks.cpg/sg12_74_cif.got.tgz:147980.got - 2010.06.03 13:09:07.
