data_PCOD9175303
_publ_section_title
;
Structure prediction by ZEFSAII (Michael W. Deem and Ramdas Pophale) SiO2 
 PCOD9175303
Probable space group: C 2/M
;
_chemical_formula_sum "Si O2"
_cell_formula_units_Z 40
_cell_length_a 13.433774
_cell_length_b 19.582884
_cell_length_c 15.715131
_cell_angle_alpha 90.000000
_cell_angle_beta 26.697990
_cell_angle_gamma 90.000000
_cell_volume 1857.450219
_symmetry_space_group_name_H-M "C 2/M"
_symmetry_group_IT_number 12
_symmetry_cell_setting 'monoclinic'
loop_
_space_group_symop_operation_xyz
x,y,z
-x,y,-z
-x,-y,-z
x,-y,z
1/2+x,1/2+y,z
1/2-x,1/2+y,-z
1/2-x,1/2-y,-z
1/2+x,1/2-y,z
loop_
_atom_site_type_symbol
_atom_site_label
_atom_site_fract_x
_atom_site_fract_y
_atom_site_fract_z
Si Si1 0.384102 0.678803 0.390178
Si Si2 0.941602 0.422261 0.280286
Si Si3 0.353094 0.805162 0.986787
Si Si4 0.738040 0.704573 0.704717
Si Si5 0.328258 0.072834 0.711143
O O1 0.250000 0.750000 0.500000
O O2 0.339902 0.666873 0.323465
O O3 0.276425 0.622002 0.531903
O O4 0.644879 0.684955 0.207749
O O5 0.905034 0.500000 0.278628
O O6 0.086269 0.375744 0.106393
O O7 0.057385 0.426888 0.284396
O O8 0.579211 0.768501 0.841645
O O9 0.250000 0.750000 0.000000
O O10 0.711745 0.645310 0.793553
O O11 0.000000 0.723304 0.500000
O O12 0.500000 0.074403 0.500000
O O13 0.208198 0.000000 0.792345
#
# Coordination Sequence:
#
# PCOD9175303 Si02
#       5
#     8   8   8   8   8
#     4  11  20  38  60  82 117 160 202 243 287 350
#     4  11  21  37  62  88 121 159 196 245 300 353
#     4  10  22  37  58  86 117 155 208 243 286 356
#     4  10  18  32  58  86 118 154 198 245 295 342
#     4   9  17  30  53  87 123 157 187 228 295 362
#
# _framework density 21.534897999999998
#
# number of rings (size 3 to 8) (size 9 to 14) (size 15 to 20)
#    0.000    1.800    8.000    0.000    0.000    0.800 
#    0.000   12.000    0.000   10.200    0.000    1.400 
#    0.000    0.000    0.000    0.000    0.000    0.000 
#
# Total GULP energy -111531.744165 kJ/mol
# GULP energy per Si atom -5576.587208 kJ/mol
# Density = 2.148588 g / cm^3
# Si number density = 21.534898 Si / 1000 Ang^3
#
#
#
# Elastic Constant Matrix: (Units=GPa)
#
#
# Indices 1 2 3 4 5 6 
#
# 1 37.4539 22.0318 29.5847 0.0271 -16.7994 -0.0253
# 2 22.0318 201.2388 89.9176 0.0384 -6.9412 -0.0355
# 3 29.5847 89.9176 178.1118 0.0243 -13.5482 -0.0277
# 4 0.0271 0.0384 0.0243 -12.0938 -0.0422 11.4605
# 5 -16.7994 -6.9412 -13.5482 -0.0422 22.9667 0.0255
# 6 -0.0253 -0.0355 -0.0277 11.4605 0.0255 19.7987
#
#
#
# Elastic Compliance Matrix: (Units=1/GPa)
#
#
# Indices 1 2 3 4 5 6 
#
# 1 0.044300 -0.001998 -0.004115 -0.000006 0.029372 0.000013
# 2 -0.001998 0.006507 -0.003051 0.000013 -0.001295 -0.000001
# 3 -0.004115 -0.003051 0.007894 -0.000004 0.000724 0.000002
# 4 -0.000006 0.000013 -0.000004 -0.053396 -0.000135 0.030909
# 5 0.029372 -0.001295 0.000724 -0.000135 0.065062 0.000031
# 6 0.000013 -0.000001 0.000002 0.030909 0.000031 0.032617
#
#
# Mechanical properties :
#
#
# Convention : Reuss Voigt Hill
#
# Bulk Modulus (GPa) = 24.77048 77.76365 51.26707
# Shear Modulus (GPa) = 37.10038 24.48567 30.79302
#
# Velocity S-wave (km/s) = 4.15517 3.37563 3.78552
# Velocity P-wave (km/s) = 5.87776 7.16813 6.55478
#
# Compressibility (1/GPa) = 0.04037063
#
# Stress axis : x y z
#
# Youngs Moduli (GPa) = 22.57328 153.68607 126.68470
#
# Poissons Ratio (x) = 0.30707 0.52136
# Poissons Ratio (y) = 0.04510 0.38658
# Poissons Ratio (z) = 0.09290 0.46897
#
# Static dielectric constant tensor:
#      x y z
#    x 1.852780 0.000000 0.005490 
#    y 0.000000 1.826480 0.000060 
#    z 0.005490 0.000060 1.863640 
# 
# From -- ./inp_files/317098.got.cif
#   From: 2010.05.17/outbox.cif.g08.bks.cpg/sg12_159_cif.got.tgz:317098.got - 2010.06.03 13:09:07.
