data_PCOD9175983
_publ_section_title
;
Structure prediction by ZEFSAII (Michael W. Deem and Ramdas Pophale) SiO2 
 PCOD9175983
Probable space group: C 2/M
;
_chemical_formula_sum "Si O2"
_cell_formula_units_Z 64
_cell_length_a 26.756494
_cell_length_b 15.320693
_cell_length_c 19.012942
_cell_angle_alpha 90.000000
_cell_angle_beta 22.899687
_cell_angle_gamma 90.000000
_cell_volume 3032.768667
_symmetry_space_group_name_H-M "C 2/M"
_symmetry_group_IT_number 12
_symmetry_cell_setting 'monoclinic'
loop_
_space_group_symop_operation_xyz
x,y,z
-x,y,-z
-x,-y,-z
x,-y,z
1/2+x,1/2+y,z
1/2-x,1/2+y,-z
1/2-x,1/2-y,-z
1/2+x,1/2-y,z
loop_
_atom_site_type_symbol
_atom_site_label
_atom_site_fract_x
_atom_site_fract_y
_atom_site_fract_z
Si Si1 0.449242 0.403072 0.880587
Si Si2 0.823259 0.601903 0.823756
Si Si3 0.346374 0.600905 0.271623
Si Si4 0.899526 0.662659 0.330259
Si Si5 0.133707 0.712767 0.790422
Si Si6 0.081941 0.784348 0.327626
Si Si7 0.593644 0.670226 0.574186
Si Si8 0.820980 0.401469 0.996406
O O1 0.413721 0.500000 0.947248
O O2 0.529099 0.372077 0.843755
O O3 0.546514 0.402907 0.688923
O O4 0.315364 0.366726 0.026385
O O5 0.850097 0.500000 0.769501
O O6 0.915512 0.678983 0.679383
O O7 0.822959 0.604073 0.908809
O O8 0.357213 0.500000 0.232612
O O9 0.220936 0.607456 0.484286
O O10 0.338251 0.683888 0.230485
O O11 0.875884 0.693206 0.281073
O O12 0.906265 0.745507 0.373991
O O13 0.035807 0.615268 0.160886
O O14 0.264247 0.662707 0.642007
O O15 0.000000 0.688129 0.000000
O O16 0.221339 0.828614 0.150671
O O17 0.000000 0.812760 0.500000
O O18 0.011645 0.817093 0.348719
O O19 0.779443 0.500000 0.068806
#
# Coordination Sequence:
#
# PCOD9175983 Si02
#       8
#     8   8   8   8   8   8   8   8
#     4  10  18  33  62  87 110 146 202 259 292 334
#     4  10  21  39  63  92 119 156 206 252 296 355
#     4  10  20  36  60  89 116 152 199 247 294 352
#     4  11  20  39  63  85 115 156 201 248 290 348
#     4  11  24  37  59  89 123 156 191 242 304 360
#     4  12  26  39  61  90 128 164 194 245 309 363
#     4  11  20  40  60  86 114 159 208 239 287 356
#     4  11  23  39  64  90 117 157 208 253 295 353
#
# _framework density 21.102830000000001
#
# number of rings (size 3 to 8) (size 9 to 14) (size 15 to 20)
#    0.000    1.250    5.000    2.250    1.750    0.750 
#    0.000    0.000    0.000    1.875    0.000    0.000 
#    0.000    0.000    0.000    0.000    0.000    0.000 
#
# Total GULP energy -178459.884006 kJ/mol
# GULP energy per Si atom -5576.871375 kJ/mol
# Density = 2.105480 g / cm^3
# Si number density = 21.102830 Si / 1000 Ang^3
#
#
#
# Elastic Constant Matrix: (Units=GPa)
#
#
# Indices 1 2 3 4 5 6 
#
# 1 29.9264 -0.3425 -0.1345 0.0000 -14.3121 0.0000
# 2 -0.3425 60.6444 -7.5803 0.0000 0.7988 0.0000
# 3 -0.1345 -7.5803 56.1491 0.0000 -1.2535 0.0000
# 4 0.0000 0.0000 0.0000 0.6620 0.0000 -3.3703
# 5 -14.3121 0.7988 -1.2535 0.0000 31.6090 0.0000
# 6 0.0000 0.0000 0.0000 -3.3703 0.0000 11.0687
#
#
#
# Elastic Compliance Matrix: (Units=1/GPa)
#
#
# Indices 1 2 3 4 5 6 
#
# 1 0.042667 0.000054 0.000541 0.000000 0.019339 0.000000
# 2 0.000054 0.016776 0.002258 0.000000 -0.000310 0.000000
# 3 0.000541 0.002258 0.018136 0.000000 0.000907 0.000000
# 4 0.000000 0.000000 0.000000 -2.745690 0.000000 -0.836032
# 5 0.019339 -0.000310 0.000907 0.000000 0.040437 0.000000
# 6 0.000000 0.000000 0.000000 -0.836032 0.000000 -0.164217
#
#
# Mechanical properties :
#
#
# Convention : Reuss Voigt Hill
#
# Bulk Modulus (GPa) = 12.00683 14.51168 13.25925
# Shear Modulus (GPa) = -1.80516 18.98642 8.59063
#
# Velocity S-wave (km/s) = -0.92589 3.00277 2.01982
# Velocity P-wave (km/s) = 2.13518 4.34899 3.42584
#
# Compressibility (1/GPa) = 0.08328594
#
# Stress axis : x y z
#
# Youngs Moduli (GPa) = 23.43718 59.60821 55.13858
#
# Poissons Ratio (x) = -0.00321 -0.02984
# Poissons Ratio (y) = -0.00126 -0.12451
# Poissons Ratio (z) = -0.01269 -0.13460
#
# Static dielectric constant tensor:
#      x y z
#    x 1.774740 0.000000 -0.030210 
#    y 0.000000 1.790640 0.000000 
#    z -0.030210 0.000000 1.794540 
# 
# From -- ./inp_files/330358.got.cif
#   From: 2010.05.17/outbox.cif.g08.bks.cpg/sg12_166_cif.got.tgz:330358.got - 2010.06.03 13:09:07.
