data_PCOD9175651
_publ_section_title
;
Structure prediction by ZEFSAII (Michael W. Deem and Ramdas Pophale) SiO2 
 PCOD9175651
Probable space group: C 2/M
;
_chemical_formula_sum "Si O2"
_cell_formula_units_Z 52
_cell_length_a 14.716646
_cell_length_b 27.099535
_cell_length_c 21.374860
_cell_angle_alpha 90.000000
_cell_angle_beta 161.710677
_cell_angle_gamma 90.000000
_cell_volume 2675.151535
_symmetry_space_group_name_H-M "C 2/M"
_symmetry_group_IT_number 12
_symmetry_cell_setting 'monoclinic'
loop_
_space_group_symop_operation_xyz
x,y,z
-x,y,-z
-x,-y,-z
x,-y,z
1/2+x,1/2+y,z
1/2-x,1/2+y,-z
1/2-x,1/2-y,-z
1/2+x,1/2-y,z
loop_
_atom_site_type_symbol
_atom_site_label
_atom_site_fract_x
_atom_site_fract_y
_atom_site_fract_z
Si Si1 0.260937 0.607272 0.958576
Si Si2 0.500000 0.756712 0.000000
Si Si3 0.553936 0.108338 0.607358
Si Si4 0.216902 0.686633 0.023657
Si Si5 0.585367 0.000000 0.668325
Si Si6 0.289704 0.241245 0.649672
Si Si7 0.720443 0.000000 0.899873
Si Si8 0.516328 0.178343 0.326767
O O1 0.596778 0.610141 0.157087
O O2 0.232421 0.631246 0.008631
O O3 0.152578 0.551386 0.888267
O O4 0.097069 0.638037 0.797594
O O5 0.449475 0.792847 0.025136
O O6 0.231124 0.718785 0.819103
O O7 0.500000 0.120318 0.500000
O O8 0.463084 0.051453 0.561634
O O9 0.422646 0.146400 0.571726
O O10 0.541308 0.707284 0.244270
O O11 0.036595 0.711460 0.849157
O O12 0.575184 0.000000 0.736671
O O13 0.929877 0.000000 0.879011
O O14 0.250582 0.211406 0.559181
O O15 0.000000 0.244507 0.500000
#
# Coordination Sequence:
#
# PCOD9175651 Si02
#       8
#     8   4   8   8   4   8   4   8
#     4  10  18  34  54  78 108 146 188 226 278 338
#     4  10  18  36  54  76 108 146 192 226 268 336
#     4  11  20  30  48  81 118 141 177 228 288 339
#     4   9  20  35  56  79 109 150 185 239 284 319
#     4   9  17  30  48  78 104 148 172 230 281 341
#     4   9  19  36  55  79 109 147 194 235 273 332
#     4   9  16  28  56  79 102 136 198 223 267 342
#     4  10  18  33  56  76 108 151 183 227 272 330
#
# _framework density 19.438151999999999
#
# number of rings (size 3 to 8) (size 9 to 14) (size 15 to 20)
#    0.000    2.308    3.077    1.154    0.000    0.615 
#    2.769    1.538    0.000    0.462    0.000   13.462 
#    0.000    0.000    0.000    0.000    0.000    0.000 
#
# Total GULP energy -144944.415615 kJ/mol
# GULP energy per Si atom -5574.785216 kJ/mol
# Density = 1.939391 g / cm^3
# Si number density = 19.438152 Si / 1000 Ang^3
#
#
#
# Elastic Constant Matrix: (Units=GPa)
#
#
# Indices 1 2 3 4 5 6 
#
# 1 121.1089 98.4513 19.1986 -0.0067 -18.9740 0.0090
# 2 98.4513 153.5265 30.1694 -0.0301 -23.3664 -0.0025
# 3 19.1986 30.1694 38.9201 -0.0592 -5.8088 0.0414
# 4 -0.0067 -0.0301 -0.0592 13.1539 -0.0700 -9.6884
# 5 -18.9740 -23.3664 -5.8088 -0.0700 28.5712 -0.0299
# 6 0.0090 -0.0025 0.0414 -9.6884 -0.0299 36.9550
#
#
#
# Elastic Compliance Matrix: (Units=1/GPa)
#
#
# Indices 1 2 3 4 5 6 
#
# 1 0.017441 -0.010795 0.000181 -0.000003 0.002791 -0.000004
# 2 -0.010795 0.015207 -0.005854 0.000043 0.004078 0.000025
# 3 0.000181 -0.005854 0.030367 0.000133 0.001507 0.000002
# 4 -0.000003 0.000043 0.000133 0.094219 0.000317 0.024701
# 5 0.002791 0.004078 0.001507 0.000317 0.040496 0.000114
# 6 -0.000004 0.000025 0.000002 0.024701 0.000114 0.033536
#
#
# Mechanical properties :
#
#
# Convention : Reuss Voigt Hill
#
# Bulk Modulus (GPa) = 33.24580 67.68825 50.46702
# Shear Modulus (GPa) = 18.23288 26.78510 22.50899
#
# Velocity S-wave (km/s) = 3.06599 3.71612 3.40660
# Velocity P-wave (km/s) = 5.44741 7.30142 6.44147
#
# Compressibility (1/GPa) = 0.03007899
#
# Stress axis : x y z
#
# Youngs Moduli (GPa) = 57.33543 65.75796 32.93005
#
# Poissons Ratio (x) = 0.70988 -0.00597
# Poissons Ratio (y) = 0.61896 0.19278
# Poissons Ratio (z) = -0.01039 0.38497
#
# Static dielectric constant tensor:
#      x y z
#    x 1.720100 0.000030 -0.037200 
#    y 0.000030 1.719240 -0.000100 
#    z -0.037200 -0.000100 1.707440 
# 
# From -- ./inp_files/312690.got.cif
#   From: 2010.05.17/outbox.cif.g08.bks.cpg/sg12_157_cif.got.tgz:312690.got - 2010.06.03 13:09:07.
