data_PCOD9175555
_publ_section_title
;
Structure prediction by ZEFSAII (Michael W. Deem and Ramdas Pophale) SiO2 
 PCOD9175555
Probable space group: C 2/M
;
_chemical_formula_sum "Si O2"
_cell_formula_units_Z 56
_cell_length_a 18.983708
_cell_length_b 17.937737
_cell_length_c 11.292418
_cell_angle_alpha 90.000000
_cell_angle_beta 128.911305
_cell_angle_gamma 90.000000
_cell_volume 2992.139183
_symmetry_space_group_name_H-M "C 2/M"
_symmetry_group_IT_number 12
_symmetry_cell_setting 'monoclinic'
loop_
_space_group_symop_operation_xyz
x,y,z
-x,y,-z
-x,-y,-z
x,-y,z
1/2+x,1/2+y,z
1/2-x,1/2+y,-z
1/2-x,1/2-y,-z
1/2+x,1/2-y,z
loop_
_atom_site_type_symbol
_atom_site_label
_atom_site_fract_x
_atom_site_fract_y
_atom_site_fract_z
Si Si1 0.606735 0.834078 0.623124
Si Si2 0.697665 0.414971 0.595105
Si Si3 0.505015 0.585861 0.255691
Si Si4 0.653171 0.674475 0.783099
Si Si5 0.755808 0.086012 0.925548
Si Si6 0.121281 0.088095 0.165632
Si Si7 0.725880 0.170033 0.526071
O O1 0.500000 0.847223 0.500000
O O2 0.630916 0.758768 0.721915
O O3 0.667127 0.896653 0.753166
O O4 0.641665 0.826475 0.524937
O O5 0.714536 0.500000 0.646320
O O6 0.602161 0.411277 0.424106
O O7 0.684188 0.365179 0.695487
O O8 0.773974 0.385139 0.585840
O O9 0.473111 0.500000 0.229590
O O10 0.437426 0.638269 0.256153
O O11 0.529311 0.603763 0.143723
O O12 0.728907 0.649050 0.958678
O O13 0.843994 0.092913 0.932859
O O14 0.752553 0.000000 0.965656
O O15 0.193281 0.141119 0.305621
O O16 0.135978 0.000000 0.209707
O O17 0.750000 0.250000 0.500000
#
# Coordination Sequence:
#
# PCOD9175555 Si02
#       7
#     8   8   8   8   8   8   8
#     4  11  24  40  61  86 115 151 197 245 284 334
#     4  10  19  32  53  83 115 152 191 231 288 352
#     4   9  17  29  50  81 118 151 185 227 278 343
#     4  12  21  33  55  88 122 148 181 236 301 354
#     4  10  22  40  59  82 115 158 202 237 283 340
#     4   8  17  33  52  76 110 152 193 231 275 339
#     4  10  18  33  54  79 109 146 188 238 280 328
#
# _framework density 18.715706000000001
#
# number of rings (size 3 to 8) (size 9 to 14) (size 15 to 20)
#    0.000    2.000    1.429    4.286    2.000    2.571 
#    0.000    2.143    0.000    0.857    0.000    2.000 
#    0.000    0.000    0.000    0.000    0.000    0.000 
#
# Total GULP energy -156020.505497 kJ/mol
# GULP energy per Si atom -5572.160911 kJ/mol
# Density = 1.867311 g / cm^3
# Si number density = 18.715706 Si / 1000 Ang^3
#
#
#
# Elastic Constant Matrix: (Units=GPa)
#
#
# Indices 1 2 3 4 5 6 
#
# 1 117.4752 24.8052 32.8318 0.0000 3.2153 0.0000
# 2 24.8052 44.4368 7.1559 0.0000 3.1740 0.0000
# 3 32.8318 7.1559 69.3465 0.0000 -5.0243 0.0000
# 4 0.0000 0.0000 0.0000 20.8131 0.0000 -6.6672
# 5 3.2153 3.1740 -5.0243 0.0000 29.0432 0.0000
# 6 0.0000 0.0000 0.0000 -6.6672 0.0000 22.9138
#
#
#
# Elastic Compliance Matrix: (Units=1/GPa)
#
#
# Indices 1 2 3 4 5 6 
#
# 1 0.010998 -0.005266 -0.004770 0.000000 -0.001467 0.000000
# 2 -0.005266 0.025657 -0.000319 0.000000 -0.002276 0.000000
# 3 -0.004770 -0.000319 0.016965 0.000000 0.003498 0.000000
# 4 0.000000 0.000000 0.000000 0.052985 0.000000 0.015417
# 5 -0.001467 -0.002276 0.003498 0.000000 0.035448 0.000000
# 6 0.000000 0.000000 0.000000 0.015417 0.000000 0.048128
#
#
# Mechanical properties :
#
#
# Convention : Reuss Voigt Hill
#
# Bulk Modulus (GPa) = 30.38606 40.09379 35.23993
# Shear Modulus (GPa) = 22.53667 25.65173 24.09420
#
# Velocity S-wave (km/s) = 3.47386 3.70618 3.59190
# Velocity P-wave (km/s) = 5.68868 6.30741 6.00602
#
# Compressibility (1/GPa) = 0.03290983
#
# Stress axis : x y z
#
# Youngs Moduli (GPa) = 90.92938 38.97500 58.94538
#
# Poissons Ratio (x) = 0.20525 0.28115
# Poissons Ratio (y) = 0.47884 0.01882
# Poissons Ratio (z) = 0.43370 0.01244
#
# Static dielectric constant tensor:
#      x y z
#    x 1.510340 0.000000 -0.343350 
#    y 0.000000 1.637040 0.000000 
#    z -0.343350 0.000000 0.956750 
# 
# From -- ./inp_files/157955.got.cif
#   From: 2010.05.17/outbox.cif.g08.bks.cpg/sg12_79_cif.got.tgz:157955.got - 2010.06.03 13:09:07.
