data_PCOD9175242
_publ_section_title
;
Structure prediction by ZEFSAII (Michael W. Deem and Ramdas Pophale) SiO2 
 PCOD9175242
Probable space group: C 2/M
;
_chemical_formula_sum "Si O2"
_cell_formula_units_Z 64
_cell_length_a 16.050672
_cell_length_b 23.537984
_cell_length_c 18.687669
_cell_angle_alpha 90.000000
_cell_angle_beta 29.420527
_cell_angle_gamma 90.000000
_cell_volume 3468.087010
_symmetry_space_group_name_H-M "C 2/M"
_symmetry_group_IT_number 12
_symmetry_cell_setting 'monoclinic'
loop_
_space_group_symop_operation_xyz
x,y,z
-x,y,-z
-x,-y,-z
x,-y,z
1/2+x,1/2+y,z
1/2-x,1/2+y,-z
1/2-x,1/2-y,-z
1/2+x,1/2-y,z
loop_
_atom_site_type_symbol
_atom_site_label
_atom_site_fract_x
_atom_site_fract_y
_atom_site_fract_z
Si Si1 0.697844 0.795765 0.322164
Si Si2 0.055144 0.434885 0.875640
Si Si3 0.426732 0.063641 0.482320
Si Si4 0.199946 0.832719 0.348303
Si Si5 0.363742 0.139239 0.775960
Si Si6 0.200923 0.311471 0.563672
Si Si7 0.264726 0.431033 0.993556
Si Si8 0.114054 0.873517 0.701455
O O1 0.500000 0.796252 0.500000
O O2 0.733438 0.728549 0.285803
O O3 0.718702 0.829008 0.230889
O O4 0.821581 0.826248 0.288164
O O5 0.116560 0.500000 0.816601
O O6 0.193383 0.385848 0.760184
O O7 0.897641 0.425750 0.938146
O O8 0.000000 0.432263 0.000000
O O9 0.500000 0.089098 0.500000
O O10 0.508446 0.094745 0.355534
O O11 0.227719 0.071550 0.634795
O O12 0.483097 0.000000 0.436525
O O13 0.252176 0.822351 0.390700
O O14 0.000000 0.844670 0.500000
O O15 0.497698 0.182631 0.709928
O O16 0.265023 0.102877 0.909112
O O17 0.250000 0.250000 0.500000
O O18 0.312990 0.351752 0.428419
O O19 0.293106 0.500000 0.981527
O O20 0.423704 0.395856 0.842733
#
# Coordination Sequence:
#
# PCOD9175242 Si02
#       8
#     8   8   8   8   8   8   8   8
#     4  11  19  40  61  92 133 167 198 257 313 368
#     4  10  24  49  68  86 125 165 201 261 328 373
#     4  10  18  32  57  84 115 162 214 250 292 356
#     4  11  23  40  68  99 120 155 212 260 316 377
#     4  11  20  39  61  85 127 170 204 252 317 367
#     4  11  20  38  64  92 124 161 207 263 312 370
#     4  11  25  43  62  90 129 170 214 260 311 371
#     4  11  21  37  59  87 128 166 211 252 308 362
#
# _framework density 18.453977999999999
#
# number of rings (size 3 to 8) (size 9 to 14) (size 15 to 20)
#    0.000    1.250    6.250    1.500    1.750    0.750 
#    2.250    2.500    0.000    0.000    0.000    0.000 
#    0.000    0.000    0.000    0.000    0.000    0.000 
#
# Total GULP energy -178138.131692 kJ/mol
# GULP energy per Si atom -5566.816615 kJ/mol
# Density = 1.841198 g / cm^3
# Si number density = 18.453978 Si / 1000 Ang^3
#
#
#
# Elastic Constant Matrix: (Units=GPa)
#
#
# Indices 1 2 3 4 5 6 
#
# 1 64.8184 28.9340 8.1672 0.0135 10.2841 -0.0096
# 2 28.9340 133.3773 46.2786 0.0082 1.5528 -0.0109
# 3 8.1672 46.2786 55.5855 -0.1014 5.0318 0.0370
# 4 0.0135 0.0082 -0.1014 -11.5102 -0.0085 26.0624
# 5 10.2841 1.5528 5.0318 -0.0085 24.3144 0.0120
# 6 -0.0096 -0.0109 0.0370 26.0624 0.0120 5.5411
#
#
#
# Elastic Compliance Matrix: (Units=1/GPa)
#
#
# Indices 1 2 3 4 5 6 
#
# 1 0.018480 -0.004532 0.001773 0.000006 -0.007894 -0.000001
# 2 -0.004532 0.011687 -0.009345 0.000021 0.003105 -0.000027
# 3 0.001773 -0.009345 0.026011 -0.000054 -0.005536 0.000078
# 4 0.000006 0.000021 -0.000054 -0.007457 -0.000013 0.035076
# 5 -0.007894 0.003105 -0.005536 -0.000013 0.045414 -0.000009
# 6 -0.000001 -0.000027 0.000078 0.035076 -0.000009 0.015491
#
#
# Mechanical properties :
#
#
# Convention : Reuss Voigt Hill
#
# Bulk Modulus (GPa) = 31.28062 46.72674 39.00368
# Shear Modulus (GPa) = 34.60391 15.02915 24.81653
#
# Velocity S-wave (km/s) = 4.33499 2.85689 3.67110
# Velocity P-wave (km/s) = 6.48411 6.02147 6.25706
#
# Compressibility (1/GPa) = 0.03196867
#
# Stress axis : x y z
#
# Youngs Moduli (GPa) = 54.11310 85.56408 38.44456
#
# Poissons Ratio (x) = 0.38778 -0.06814
# Poissons Ratio (y) = 0.24524 0.35928
# Poissons Ratio (z) = -0.09592 0.79963
#
# Static dielectric constant tensor:
#      x y z
#    x 1.484850 0.000040 -0.189410 
#    y 0.000040 1.685000 0.000040 
#    z -0.189410 0.000040 1.509300 
# 
# From -- ./inp_files/272814.got.cif
#   From: 2010.05.17/outbox.cif.g08.bks.cpg/sg12_137_cif.got.tgz:272814.got - 2010.06.03 13:09:07.
