data_PCOD9175254
_publ_section_title
;
Structure prediction by ZEFSAII (Michael W. Deem and Ramdas Pophale) SiO2 
 PCOD9175254
Probable space group: C 2/M
;
_chemical_formula_sum "Si O2"
_cell_formula_units_Z 52
_cell_length_a 21.620870
_cell_length_b 20.239567
_cell_length_c 13.222902
_cell_angle_alpha 90.000000
_cell_angle_beta 151.937386
_cell_angle_gamma 90.000000
_cell_volume 2722.086249
_symmetry_space_group_name_H-M "C 2/M"
_symmetry_group_IT_number 12
_symmetry_cell_setting 'monoclinic'
loop_
_space_group_symop_operation_xyz
x,y,z
-x,y,-z
-x,-y,-z
x,-y,z
1/2+x,1/2+y,z
1/2-x,1/2+y,-z
1/2-x,1/2-y,-z
1/2+x,1/2-y,z
loop_
_atom_site_type_symbol
_atom_site_label
_atom_site_fract_x
_atom_site_fract_y
_atom_site_fract_z
Si Si1 0.651386 0.576408 0.526397
Si Si2 0.390656 0.924755 0.642405
Si Si3 0.565092 0.075645 0.700277
Si Si4 0.000000 0.877997 0.500000
Si Si5 0.095878 0.080081 0.226104
Si Si6 0.765773 0.688697 0.949494
Si Si7 0.095325 0.334890 0.053765
O O1 0.696585 0.500000 0.584256
O O2 0.559146 0.582101 0.491085
O O3 0.569533 0.593104 0.306501
O O4 0.777025 0.625478 0.718761
O O5 0.449166 0.925468 0.614984
O O6 0.245142 0.895581 0.428421
O O7 0.381171 0.000000 0.664580
O O8 0.493712 0.887802 0.860988
O O9 0.500000 0.094112 0.500000
O O10 0.618163 0.000000 0.769475
O O11 0.667240 0.128031 0.892687
O O12 0.878634 0.833986 0.289904
O O13 0.097448 0.000000 0.217383
O O14 0.000000 0.105467 0.000000
O O15 0.848794 0.702217 0.965709
O O16 0.750000 0.750000 0.000000
O O17 0.000000 0.300266 0.000000
#
# Coordination Sequence:
#
# PCOD9175254 Si02
#       7
#     8   8   8   4   8   8   8
#     4  10  19  31  52  84 123 159 188 235 296 357
#     4   9  16  27  46  77 115 150 187 236 293 347
#     4   9  19  35  58  89 120 156 205 255 301 352
#     4  10  23  38  56  84 115 156 208 250 298 368
#     4   9  17  27  42  70 113 163 194 218 276 354
#     4  10  23  40  62  87 119 163 204 250 309 375
#     4  10  18  32  57  86 113 142 197 252 295 347
#
# _framework density 19.102996000000001
#
# number of rings (size 3 to 8) (size 9 to 14) (size 15 to 20)
#    0.000    2.462    1.538    0.692    1.077    6.154 
#    0.000    3.077    0.000    6.462    0.000    0.000 
#    0.000    0.615    0.000    0.000    0.000    0.000 
#
# Total GULP energy -144796.642282 kJ/mol
# GULP energy per Si atom -5569.101626 kJ/mol
# Density = 1.905952 g / cm^3
# Si number density = 19.102996 Si / 1000 Ang^3
#
#
#
# Elastic Constant Matrix: (Units=GPa)
#
#
# Indices 1 2 3 4 5 6 
#
# 1 142.5441 43.1598 63.7947 0.0000 -4.2960 0.0000
# 2 43.1598 39.9723 23.4060 0.0000 -5.0311 0.0000
# 3 63.7947 23.4060 123.2087 0.0000 -14.4026 0.0000
# 4 0.0000 0.0000 0.0000 401.2836 0.0000 251.7197
# 5 -4.2960 -5.0311 -14.4026 0.0000 31.3277 0.0000
# 6 0.0000 0.0000 0.0000 251.7197 0.0000 184.4717
#
#
#
# Elastic Compliance Matrix: (Units=1/GPa)
#
#
# Indices 1 2 3 4 5 6 
#
# 1 0.012272 -0.010862 -0.004542 0.000000 -0.002150 0.000000
# 2 -0.010862 0.037903 -0.001098 0.000000 0.004093 0.000000
# 3 -0.004542 -0.001098 0.011184 0.000000 0.004343 0.000000
# 4 0.000000 0.000000 0.000000 0.017301 0.000000 -0.023608
# 5 -0.002150 0.004093 0.004343 0.000000 0.034280 0.000000
# 6 0.000000 0.000000 0.000000 -0.023608 0.000000 0.037635
#
#
# Mechanical properties :
#
#
# Convention : Reuss Voigt Hill
#
# Bulk Modulus (GPa) = 35.26600 62.93846 49.10223
# Shear Modulus (GPa) = 25.90266 135.10756 80.50511
#
# Velocity S-wave (km/s) = 3.68631 8.41899 6.49878
# Velocity P-wave (km/s) = 6.05141 11.29266 9.05936
#
# Compressibility (1/GPa) = 0.02835593
#
# Stress axis : x y z
#
# Youngs Moduli (GPa) = 81.48578 26.38298 89.41038
#
# Poissons Ratio (x) = 0.28656 0.40611
# Poissons Ratio (y) = 0.88507 0.09819
# Poissons Ratio (z) = 0.37012 0.02897
#
# Static dielectric constant tensor:
#      x y z
#    x 1.722170 0.000000 -0.021950 
#    y 0.000000 1.669550 0.000000 
#    z -0.021950 0.000000 1.646150 
# 
# From -- ./inp_files/169881.got.cif
#   From: 2010.05.17/outbox.cif.g08.bks.cpg/sg12_85_cif.got.tgz:169881.got - 2010.06.03 13:09:07.
