data_PCOD9175037
_publ_section_title
;
Structure prediction by ZEFSAII (Michael W. Deem and Ramdas Pophale) SiO2 
 PCOD9175037
Probable space group: C 2/M
;
_chemical_formula_sum "Si O2"
_cell_formula_units_Z 40
_cell_length_a 9.535835
_cell_length_b 13.618173
_cell_length_c 16.311998
_cell_angle_alpha 90.000000
_cell_angle_beta 132.633354
_cell_angle_gamma 90.000000
_cell_volume 1558.429709
_symmetry_space_group_name_H-M "C 2/M"
_symmetry_group_IT_number 12
_symmetry_cell_setting 'monoclinic'
loop_
_space_group_symop_operation_xyz
x,y,z
-x,y,-z
-x,-y,-z
x,-y,z
1/2+x,1/2+y,z
1/2-x,1/2+y,-z
1/2-x,1/2-y,-z
1/2+x,1/2-y,z
loop_
_atom_site_type_symbol
_atom_site_label
_atom_site_fract_x
_atom_site_fract_y
_atom_site_fract_z
Si Si1 0.121700 0.391011 0.159094
Si Si2 0.277460 0.889536 0.438835
Si Si3 0.292389 0.312366 0.832488
Si Si4 0.876459 0.327020 0.651134
Si Si5 0.678572 0.610273 0.973618
O O1 0.189140 0.500000 0.167368
O O2 0.232859 0.302913 0.161683
O O3 0.142397 0.371763 0.265290
O O4 0.902097 0.382575 0.042707
O O5 0.500000 0.884996 0.500000
O O6 0.179023 0.788640 0.368584
O O7 0.261823 0.877181 0.531884
O O8 0.207605 0.000000 0.388141
O O9 0.306732 0.369636 0.922968
O O10 0.098116 0.343810 0.713991
O O11 0.500389 0.324146 0.874549
O O12 0.616596 0.500000 0.932745
#
# Coordination Sequence:
#
# PCOD9175037 Si02
#       5
#     8   8   8   8   8
#     4  10  20  34  53  78 109 145 178 211 259 315
#     4  10  21  38  58  79 104 135 175 223 270 316
#     4  10  18  32  55  79 107 138 177 218 254 304
#     4  10  21  36  55  80 107 137 175 219 267 319
#     4   9  19  35  55  80 109 143 181 214 254 309
#
# _framework density 25.666861000000001
#
# number of rings (size 3 to 8) (size 9 to 14) (size 15 to 20)
#    0.000    2.200    0.000    3.600    0.000    3.200 
#    0.000    4.000    0.000   10.200    0.000    0.000 
#    0.000    0.000    0.000    0.000    0.000    0.000 
#
# Total GULP energy -111755.290770 kJ/mol
# GULP energy per Si atom -5587.764538 kJ/mol
# Density = 2.560844 g / cm^3
# Si number density = 25.666861 Si / 1000 Ang^3
#
#
#
# Elastic Constant Matrix: (Units=GPa)
#
#
# Indices 1 2 3 4 5 6 
#
# 1 96.0132 14.4412 21.1479 0.0000 -7.6491 0.0000
# 2 14.4412 144.1780 19.4513 0.0000 1.9008 0.0000
# 3 21.1479 19.4513 74.1793 0.0000 -14.6888 0.0000
# 4 0.0000 0.0000 0.0000 -29.4119 0.0000 -90.0032
# 5 -7.6491 1.9008 -14.6888 0.0000 41.0416 0.0000
# 6 0.0000 0.0000 0.0000 -90.0032 0.0000 -122.3617
#
#
#
# Elastic Compliance Matrix: (Units=1/GPa)
#
#
# Indices 1 2 3 4 5 6 
#
# 1 0.011232 -0.000765 -0.002777 0.000000 0.001135 0.000000
# 2 -0.000765 0.007288 -0.001924 0.000000 -0.001169 0.000000
# 3 -0.002777 -0.001924 0.015813 0.000000 0.005231 0.000000
# 4 0.000000 0.000000 0.000000 0.027181 0.000000 -0.019993
# 5 0.001135 -0.001169 0.005231 0.000000 0.026503 0.000000
# 6 0.000000 0.000000 0.000000 -0.019993 0.000000 0.006534
#
#
# Mechanical properties :
#
#
# Convention : Reuss Voigt Hill
#
# Bulk Modulus (GPa) = 42.73489 47.16122 44.94806
# Shear Modulus (GPa) = 44.13691 -4.85774 19.63959
#
# Velocity S-wave (km/s) = 4.15131 -1.37721 2.76918
# Velocity P-wave (km/s) = 6.29792 3.98564 5.27016
#
# Compressibility (1/GPa) = 0.02340008
#
# Stress axis : x y z
#
# Youngs Moduli (GPa) = 89.02812 137.22053 63.23955
#
# Poissons Ratio (x) = 0.10503 0.17560
# Poissons Ratio (y) = 0.06814 0.12168
# Poissons Ratio (z) = 0.24721 0.26404
#
# Static dielectric constant tensor:
#      x y z
#    x 2.135160 0.000000 -0.071220 
#    y 0.000000 1.970320 0.000000 
#    z -0.071220 0.000000 2.003310 
# 
# From -- ./inp_files/304907.got.cif
#   From: 2010.05.17/outbox.cif.g08.bks.cpg/sg12_153_cif.got.tgz:304907.got - 2010.06.03 13:09:07.
