data_PCOD9175052
_publ_section_title
;
Structure prediction by ZEFSAII (Michael W. Deem and Ramdas Pophale) SiO2 
 PCOD9175052
Probable space group: C 2/M
;
_chemical_formula_sum "Si O2"
_cell_formula_units_Z 64
_cell_length_a 25.161420
_cell_length_b 8.588568
_cell_length_c 21.197483
_cell_angle_alpha 90.000000
_cell_angle_beta 127.835498
_cell_angle_gamma 90.000000
_cell_volume 3617.792507
_symmetry_space_group_name_H-M "C 2/M"
_symmetry_group_IT_number 12
_symmetry_cell_setting 'monoclinic'
loop_
_space_group_symop_operation_xyz
x,y,z
-x,y,-z
-x,-y,-z
x,-y,z
1/2+x,1/2+y,z
1/2-x,1/2+y,-z
1/2-x,1/2-y,-z
1/2+x,1/2-y,z
loop_
_atom_site_type_symbol
_atom_site_label
_atom_site_fract_x
_atom_site_fract_y
_atom_site_fract_z
Si Si1 0.429620 0.314430 0.623139
Si Si2 0.073820 0.687287 0.735229
Si Si3 0.717418 0.810321 0.790656
Si Si4 0.066367 0.812992 0.871751
Si Si5 0.214376 0.188467 0.289688
Si Si6 0.207403 0.812030 0.027966
Si Si7 0.077209 0.314701 0.239578
Si Si8 0.205815 0.313280 0.525866
O O1 0.429885 0.500000 0.623518
O O2 0.503076 0.250901 0.658337
O O3 0.416627 0.256153 0.685378
O O4 0.369257 0.251164 0.536688
O O5 0.070856 0.500000 0.735972
O O6 0.139764 0.735271 0.744344
O O7 0.080810 0.751243 0.811591
O O8 0.750328 0.759537 0.749175
O O9 0.760051 0.758617 0.882687
O O10 0.718357 0.000000 0.791230
O O11 0.994511 0.743461 0.838595
O O12 0.061225 0.000000 0.865779
O O13 0.129545 0.768129 0.961054
O O14 0.140335 0.257205 0.245381
O O15 0.258967 0.232489 0.382993
O O16 0.209342 0.000000 0.285462
O O17 0.210869 0.000000 0.029188
O O18 0.250000 0.750000 0.000000
O O19 0.076957 0.500000 0.244788
O O20 0.204406 0.500000 0.521330
O O21 0.250000 0.250000 0.500000
#
# Coordination Sequence:
#
# PCOD9175052 Si02
#       8
#     8   8   8   8   8   8   8   8
#     4  11  21  34  54  80 111 142 178 225 272 324
#     4  10  18  32  55  80 109 142 179 224 269 317
#     4   9  19  36  57  81 110 145 183 222 269 325
#     4  10  19  31  52  81 111 141 178 223 271 321
#     4  10  21  38  58  79 108 145 182 222 271 328
#     4  10  19  33  55  83 111 141 182 227 268 316
#     4  11  21  34  54  79 109 142 180 225 273 323
#     4  11  21  34  56  83 109 139 182 230 276 322
#
# _framework density 17.690346999999999
#
# number of rings (size 3 to 8) (size 9 to 14) (size 15 to 20)
#    0.000    1.750    2.500    4.875    0.000    1.000 
#    0.000    3.125    0.000    7.500    0.000    0.000 
#    0.000    0.000    0.000    0.000    0.000    0.000 
#
# Total GULP energy -178672.618504 kJ/mol
# GULP energy per Si atom -5583.519328 kJ/mol
# Density = 1.765008 g / cm^3
# Si number density = 17.690347 Si / 1000 Ang^3
#
#
#
# Elastic Constant Matrix: (Units=GPa)
#
#
# Indices 1 2 3 4 5 6 
#
# 1 171.3104 39.7085 98.1668 0.0000 19.5449 0.0000
# 2 39.7085 57.8252 36.6118 0.0000 7.5003 0.0000
# 3 98.1668 36.6118 130.7340 0.0000 18.3805 0.0000
# 4 0.0000 0.0000 0.0000 20.9159 0.0000 4.9575
# 5 19.5449 7.5003 18.3805 0.0000 32.7117 0.0000
# 6 0.0000 0.0000 0.0000 4.9575 0.0000 25.9736
#
#
#
# Elastic Compliance Matrix: (Units=1/GPa)
#
#
# Indices 1 2 3 4 5 6 
#
# 1 0.010686 -0.002654 -0.007024 0.000000 -0.001830 0.000000
# 2 -0.002654 0.021761 -0.003934 0.000000 -0.001194 0.000000
# 3 -0.007024 -0.003934 0.014449 0.000000 -0.003021 0.000000
# 4 0.000000 0.000000 0.000000 0.050076 0.000000 -0.009558
# 5 -0.001830 -0.001194 -0.003021 0.000000 0.033634 0.000000
# 6 0.000000 0.000000 0.000000 -0.009558 0.000000 0.040325
#
#
# Mechanical properties :
#
#
# Convention : Reuss Voigt Hill
#
# Bulk Modulus (GPa) = 50.82710 78.76045 64.79378
# Shear Modulus (GPa) = 24.42458 28.27907 26.35183
#
# Velocity S-wave (km/s) = 3.71977 4.00254 3.86374
# Velocity P-wave (km/s) = 6.87334 8.12273 7.52402
#
# Compressibility (1/GPa) = 0.01967454
#
# Stress axis : x y z
#
# Youngs Moduli (GPa) = 93.58053 45.95315 69.20740
#
# Poissons Ratio (x) = 0.12195 0.48608
# Poissons Ratio (y) = 0.24834 0.27224
# Poissons Ratio (z) = 0.65727 0.18077
#
# Static dielectric constant tensor:
#      x y z
#    x 1.589480 0.000000 0.019200 
#    y 0.000000 1.601580 0.000000 
#    z 0.019200 0.000000 1.602630 
# 
# From -- ./inp_files/324223.got.cif
#   From: 2010.05.17/outbox.cif.g08.bks.cpg/sg12_163_cif.got.tgz:324223.got - 2010.06.03 13:09:07.
