data_PCOD9175096
_publ_section_title
;
Structure prediction by ZEFSAII (Michael W. Deem and Ramdas Pophale) SiO2 
 PCOD9175096
Probable space group: C 2/M
;
_chemical_formula_sum "Si O2"
_cell_formula_units_Z 64
_cell_length_a 8.567147
_cell_length_b 20.298575
_cell_length_c 21.527512
_cell_angle_alpha 90.000000
_cell_angle_beta 58.412116
_cell_angle_gamma 90.000000
_cell_volume 3188.984998
_symmetry_space_group_name_H-M "C 2/M"
_symmetry_group_IT_number 12
_symmetry_cell_setting 'monoclinic'
loop_
_space_group_symop_operation_xyz
x,y,z
-x,y,-z
-x,-y,-z
x,-y,z
1/2+x,1/2+y,z
1/2-x,1/2+y,-z
1/2-x,1/2-y,-z
1/2+x,1/2-y,z
loop_
_atom_site_type_symbol
_atom_site_label
_atom_site_fract_x
_atom_site_fract_y
_atom_site_fract_z
Si Si1 0.508733 0.172617 0.637456
Si Si2 0.206243 0.924703 0.485119
Si Si3 0.175986 0.282920 0.844154
Si Si4 0.789636 0.206113 0.678590
Si Si5 0.006677 0.073334 0.647225
Si Si6 0.688756 0.574482 0.742636
Si Si7 0.150480 0.321114 0.023205
Si Si8 0.962016 0.845635 0.883577
O O1 0.654288 0.129735 0.568555
O O2 0.609680 0.203580 0.675410
O O3 0.416254 0.235876 0.624829
O O4 0.351768 0.124368 0.694624
O O5 0.179966 0.920899 0.564956
O O6 0.000000 0.915867 0.500000
O O7 0.263634 0.000000 0.457577
O O8 0.243091 0.280149 0.759893
O O9 0.105972 0.209698 0.876764
O O10 0.333159 0.311079 0.856846
O O11 0.986286 0.325589 0.889942
O O12 0.878621 0.134098 0.657813
O O13 0.063425 0.077112 0.706911
O O14 0.927606 0.000000 0.651657
O O15 0.755112 0.500000 0.736124
O O16 0.572028 0.597814 0.825883
O O17 0.250000 0.250000 0.000000
O O18 0.320609 0.366544 0.967447
O O19 0.000000 0.324100 0.000000
#
# Coordination Sequence:
#
# PCOD9175096 Si02
#       8
#     8   8   8   8   8   8   8   8
#     4  12  25  39  60  89 117 152 196 243 297 349
#     4  10  21  42  65  85 114 153 196 240 287 351
#     4  10  18  32  55  84 117 148 186 233 283 339
#     4  12  22  37  61  87 121 151 186 246 291 341
#     4  10  22  41  63  85 112 154 194 234 291 348
#     4  11  23  39  59  85 116 154 198 243 291 347
#     4   8  16  28  49  80 113 145 186 226 276 337
#     4  10  18  33  55  83 118 149 186 236 286 338
#
# _framework density 20.069081000000001
#
# number of rings (size 3 to 8) (size 9 to 14) (size 15 to 20)
#    0.000    1.625    3.750    1.875    0.000    1.500 
#    0.000    1.875    0.000    4.125    0.000    0.875 
#    0.000    0.000    0.000    0.000    0.000    0.000 
#
# Total GULP energy -178488.196317 kJ/mol
# GULP energy per Si atom -5577.756135 kJ/mol
# Density = 2.002340 g / cm^3
# Si number density = 20.069081 Si / 1000 Ang^3
#
#
#
# Elastic Constant Matrix: (Units=GPa)
#
#
# Indices 1 2 3 4 5 6 
#
# 1 35.9515 29.6564 -12.7982 0.0000 -13.0761 0.0000
# 2 29.6564 101.7350 20.7179 0.0000 -19.3187 0.0000
# 3 -12.7982 20.7179 69.7353 0.0000 -15.6356 0.0000
# 4 0.0000 0.0000 0.0000 23.3736 0.0000 -1.3993
# 5 -13.0761 -19.3187 -15.6356 0.0000 19.8063 0.0000
# 6 0.0000 0.0000 0.0000 -1.3993 0.0000 17.7458
#
#
#
# Elastic Compliance Matrix: (Units=1/GPa)
#
#
# Indices 1 2 3 4 5 6 
#
# 1 0.073674 -0.017088 0.031308 0.000000 0.056688 0.000000
# 2 -0.017088 0.016103 -0.008418 0.000000 -0.002220 0.000000
# 3 0.031308 -0.008418 0.030838 0.000000 0.036803 0.000000
# 4 0.000000 0.000000 0.000000 0.042986 0.000000 0.003389
# 5 0.056688 -0.002220 0.036803 0.000000 0.114803 0.000000
# 6 0.000000 0.000000 0.000000 0.003389 0.000000 0.056619
#
#
# Mechanical properties :
#
#
# Convention : Reuss Voigt Hill
#
# Bulk Modulus (GPa) = 7.56309 31.39710 19.48009
# Shear Modulus (GPa) = 13.60571 23.50819 18.55695
#
# Velocity S-wave (km/s) = 2.60656 3.42623 3.04411
# Velocity P-wave (km/s) = 3.58268 5.59737 4.69926
#
# Compressibility (1/GPa) = 0.13222113
#
# Stress axis : x y z
#
# Youngs Moduli (GPa) = 13.57323 62.09874 32.42705
#
# Poissons Ratio (x) = 1.06112 -1.01522
# Poissons Ratio (y) = 0.23193 0.27297
# Poissons Ratio (z) = -0.42495 0.52274
#
# Static dielectric constant tensor:
#      x y z
#    x 1.727660 0.000000 0.010080 
#    y 0.000000 1.709690 0.000000 
#    z 0.010080 0.000000 1.771440 
# 
# From -- ./inp_files/333590.got.cif
#   From: 2010.05.17/outbox.cif.g08.bks.cpg/sg12_167_cif.got.tgz:333590.got - 2010.06.03 13:09:07.
