data_PCOD9175530
_publ_section_title
;
Structure prediction by ZEFSAII (Michael W. Deem and Ramdas Pophale) SiO2 
 PCOD9175530
Probable space group: C 2/M
;
_chemical_formula_sum "Si O2"
_cell_formula_units_Z 48
_cell_length_a 18.043579
_cell_length_b 32.240415
_cell_length_c 7.998501
_cell_angle_alpha 90.000000
_cell_angle_beta 32.301044
_cell_angle_gamma 90.000000
_cell_volume 2486.406617
_symmetry_space_group_name_H-M "C 2/M"
_symmetry_group_IT_number 12
_symmetry_cell_setting 'monoclinic'
loop_
_space_group_symop_operation_xyz
x,y,z
-x,y,-z
-x,-y,-z
x,-y,z
1/2+x,1/2+y,z
1/2-x,1/2+y,-z
1/2-x,1/2-y,-z
1/2+x,1/2-y,z
loop_
_atom_site_type_symbol
_atom_site_label
_atom_site_fract_x
_atom_site_fract_y
_atom_site_fract_z
Si Si1 0.171794 0.385885 0.450844
Si Si2 0.230383 0.113090 0.354700
Si Si3 0.548860 0.952673 0.103526
Si Si4 0.051395 0.323526 0.207400
Si Si5 0.439800 0.644488 0.800376
Si Si6 0.381247 0.263900 0.863158
O O1 0.230609 0.388694 0.524834
O O2 0.068800 0.422888 0.595208
O O3 0.075936 0.345195 0.640201
O O4 0.301024 0.382071 0.082058
O O5 0.068466 0.124457 0.654027
O O6 0.302770 0.070124 0.155725
O O7 0.314274 0.148866 0.093006
O O8 0.549912 0.000000 0.159091
O O9 0.500000 0.952911 0.000000
O O10 0.082676 0.276408 0.097234
O O11 0.000000 0.324220 0.500000
O O12 0.500000 0.644862 0.500000
O O13 0.387316 0.691573 0.941924
O O14 0.500000 0.267803 0.500000
O O15 0.250000 0.250000 0.000000
#
# Coordination Sequence:
#
# PCOD9175530 Si02
#       6
#     8   8   8   8   8   8
#     4  10  20  34  53  79 108 133 169 220 264 306
#     4  10  20  34  53  80 109 132 168 219 269 308
#     4   8  16  34  59  80  99 131 172 209 251 316
#     4  10  18  33  54  74  99 139 184 217 250 302
#     4  11  21  35  53  74 104 144 179 211 257 310
#     4  10  19  32  50  74 100 137 187 221 241 295
#
# _framework density 19.304966
#
# number of rings (size 3 to 8) (size 9 to 14) (size 15 to 20)
#    0.000    2.167    0.000    7.000    0.000    0.000 
#    0.000    5.833    0.000   23.000    0.000    0.000 
#    0.000    0.000    0.000    0.000    0.000    0.000 
#
# Total GULP energy -133619.954012 kJ/mol
# GULP energy per Si atom -5567.498084 kJ/mol
# Density = 1.926103 g / cm^3
# Si number density = 19.304966 Si / 1000 Ang^3
#
#
#
# Elastic Constant Matrix: (Units=GPa)
#
#
# Indices 1 2 3 4 5 6 
#
# 1 34.9948 29.7889 8.8225 0.0000 -24.7057 0.0000
# 2 29.7889 154.0905 52.6859 0.0000 -22.4930 0.0000
# 3 8.8225 52.6859 120.5713 0.0000 -27.5441 0.0000
# 4 0.0000 0.0000 0.0000 13.8864 0.0000 4.4060
# 5 -24.7057 -22.4930 -27.5441 0.0000 39.5812 0.0000
# 6 0.0000 0.0000 0.0000 4.4060 0.0000 16.8051
#
#
#
# Elastic Compliance Matrix: (Units=1/GPa)
#
#
# Indices 1 2 3 4 5 6 
#
# 1 0.062052 -0.009132 0.008457 0.000000 0.039427 0.000000
# 2 -0.009132 0.009170 -0.004103 0.000000 -0.003344 0.000000
# 3 0.008457 -0.004103 0.012058 0.000000 0.011338 0.000000
# 4 0.000000 0.000000 0.000000 0.078547 0.000000 -0.020594
# 5 0.039427 -0.003344 0.011338 0.000000 0.055864 0.000000
# 6 0.000000 0.000000 0.000000 -0.020594 0.000000 0.064905
#
#
# Mechanical properties :
#
#
# Convention : Reuss Voigt Hill
#
# Bulk Modulus (GPa) = 13.56414 54.69457 34.12936
# Shear Modulus (GPa) = 15.78654 28.61184 22.19919
#
# Velocity S-wave (km/s) = 2.86273 3.85398 3.39473
# Velocity P-wave (km/s) = 4.23892 6.94245 5.75178
#
# Compressibility (1/GPa) = 0.07372378
#
# Stress axis : x y z
#
# Youngs Moduli (GPa) = 16.11554 109.05449 82.93301
#
# Poissons Ratio (x) = 0.99591 -0.70136
# Poissons Ratio (y) = 0.14717 0.34024
# Poissons Ratio (z) = -0.13629 0.44741
#
# Static dielectric constant tensor:
#      x y z
#    x 1.856550 0.000000 -0.005340 
#    y 0.000000 1.725050 0.000000 
#    z -0.005340 0.000000 1.690260 
# 
# From -- ./inp_files/80624.got.cif
#   From: 2010.05.17/outbox.cif.g08.bks.cpg/sg12_41_cif.got.tgz:80624.got - 2010.06.03 13:09:07.
