data_PCOD9175738
_publ_section_title
;
Structure prediction by ZEFSAII (Michael W. Deem and Ramdas Pophale) SiO2 
 PCOD9175738
Probable space group: C 2/M
;
_chemical_formula_sum "Si O2"
_cell_formula_units_Z 64
_cell_length_a 20.705634
_cell_length_b 7.598614
_cell_length_c 22.466409
_cell_angle_alpha 90.000000
_cell_angle_beta 59.718584
_cell_angle_gamma 90.000000
_cell_volume 3052.450764
_symmetry_space_group_name_H-M "C 2/M"
_symmetry_group_IT_number 12
_symmetry_cell_setting 'monoclinic'
loop_
_space_group_symop_operation_xyz
x,y,z
-x,y,-z
-x,-y,-z
x,-y,z
1/2+x,1/2+y,z
1/2-x,1/2+y,-z
1/2-x,1/2-y,-z
1/2+x,1/2-y,z
loop_
_atom_site_type_symbol
_atom_site_label
_atom_site_fract_x
_atom_site_fract_y
_atom_site_fract_z
Si Si1 0.197814 0.284833 0.311658
Si Si2 0.583085 0.716064 0.945713
Si Si3 0.640715 0.294576 0.595728
Si Si4 0.231060 0.210629 0.940727
Si Si5 0.136738 0.796092 0.793304
Si Si6 0.024002 0.298158 0.744356
Si Si7 0.140080 0.715815 0.210485
Si Si8 0.692714 0.213070 0.445160
O O1 0.196223 0.500000 0.313510
O O2 0.283963 0.223802 0.265309
O O3 0.156086 0.229594 0.271008
O O4 0.169683 0.229115 0.389835
O O5 0.581070 0.500000 0.947058
O O6 0.648627 0.772742 0.960036
O O7 0.606879 0.777836 0.869024
O O8 0.500000 0.775637 0.000000
O O9 0.637242 0.500000 0.612880
O O10 0.571677 0.208379 0.661416
O O11 0.643155 0.273720 0.523607
O O12 0.721574 0.227649 0.581506
O O13 0.294135 0.274108 0.864780
O O14 0.230380 0.000000 0.934579
O O15 0.250000 0.250000 0.000000
O O16 0.074912 0.787963 0.771084
O O17 0.153089 0.000000 0.798795
O O18 0.015368 0.500000 0.767007
O O19 0.941318 0.224002 0.773295
O O20 0.139789 0.500000 0.210679
O O21 0.693516 0.000000 0.446641
#
# Coordination Sequence:
#
# PCOD9175738 Si02
#       8
#     8   8   8   8   8   8   8   8
#     4   9  15  31  56  78  97 133 184 223 254 302
#     4   9  18  32  54  83 108 135 177 224 265 311
#     4  10  19  33  52  78 109 140 174 214 264 315
#     4  10  20  36  56  78 108 143 178 217 263 317
#     4  10  18  33  57  79 103 136 180 228 267 306
#     4  11  22  34  51  78 110 141 176 218 266 314
#     4   9  19  35  54  75 105 144 180 215 258 314
#     4   9  17  30  53  81 104 130 172 222 268 310
#
# _framework density 20.966760000000001
#
# number of rings (size 3 to 8) (size 9 to 14) (size 15 to 20)
#    0.000    2.375    2.500    0.750    1.750    0.500 
#    0.000    1.875    0.000    8.250    0.000    0.000 
#    0.000    0.000    0.000    0.000    0.000    0.000 
#
# Total GULP energy -178624.229628 kJ/mol
# GULP energy per Si atom -5582.007176 kJ/mol
# Density = 2.091904 g / cm^3
# Si number density = 20.966760 Si / 1000 Ang^3
#
#
#
# Elastic Constant Matrix: (Units=GPa)
#
#
# Indices 1 2 3 4 5 6 
#
# 1 119.0464 -7.8333 49.4470 0.0001 4.6893 -0.0012
# 2 -7.8333 40.3352 -8.3124 0.0021 -2.4598 -0.0041
# 3 49.4470 -8.3124 108.0857 0.0000 19.7059 -0.0002
# 4 0.0001 0.0021 0.0000 11.5396 0.0001 6.7680
# 5 4.6893 -2.4598 19.7059 0.0001 33.8382 0.0006
# 6 -0.0012 -0.0041 -0.0002 6.7680 0.0006 14.9981
#
#
#
# Elastic Compliance Matrix: (Units=1/GPa)
#
#
# Indices 1 2 3 4 5 6 
#
# 1 0.010486 0.001101 -0.004992 -0.000001 0.001534 0.000002
# 2 0.001101 0.025326 0.001271 -0.000012 0.000948 0.000012
# 3 -0.004992 0.001271 0.012855 0.000000 -0.006702 0.000001
# 4 -0.000001 -0.000012 0.000000 0.117848 0.000000 -0.053180
# 5 0.001534 0.000948 -0.006702 0.000000 0.033312 -0.000001
# 6 0.000002 0.000012 0.000001 -0.053180 -0.000001 0.090673
#
#
# Mechanical properties :
#
#
# Convention : Reuss Voigt Hill
#
# Bulk Modulus (GPa) = 23.02699 37.11887 30.07293
# Shear Modulus (GPa) = 16.11788 27.68625 21.90206
#
# Velocity S-wave (km/s) = 2.77561 3.63779 3.23555
# Velocity P-wave (km/s) = 4.61286 5.94868 5.32284
#
# Compressibility (1/GPa) = 0.04342730
#
# Stress axis : x y z
#
# Youngs Moduli (GPa) = 95.36927 39.48537 77.78897
#
# Poissons Ratio (x) = -0.04348 0.38832
# Poissons Ratio (y) = -0.10502 -0.09888
# Poissons Ratio (z) = 0.47608 -0.05019
#
# Static dielectric constant tensor:
#      x y z
#    x 1.727620 0.000000 0.002600 
#    y 0.000000 1.803300 0.000000 
#    z 0.002600 0.000000 1.737650 
# 
# From -- ./inp_files/319946.got.cif
#   From: 2010.05.17/outbox.cif.g08.bks.cpg/sg12_160_cif.got.tgz:319946.got - 2010.06.03 13:09:07.
