data_PCOD9175020
_publ_section_title
;
Structure prediction by ZEFSAII (Michael W. Deem and Ramdas Pophale) SiO2 
 PCOD9175020
Probable space group: C 2/M
;
_chemical_formula_sum "Si O2"
_cell_formula_units_Z 64
_cell_length_a 14.980642
_cell_length_b 8.361389
_cell_length_c 29.413010
_cell_angle_alpha 90.000000
_cell_angle_beta 63.702326
_cell_angle_gamma 90.000000
_cell_volume 3302.940562
_symmetry_space_group_name_H-M "C 2/M"
_symmetry_group_IT_number 12
_symmetry_cell_setting 'monoclinic'
loop_
_space_group_symop_operation_xyz
x,y,z
-x,y,-z
-x,-y,-z
x,-y,z
1/2+x,1/2+y,z
1/2-x,1/2+y,-z
1/2-x,1/2-y,-z
1/2+x,1/2-y,z
loop_
_atom_site_type_symbol
_atom_site_label
_atom_site_fract_x
_atom_site_fract_y
_atom_site_fract_z
Si Si1 0.485606 0.805260 0.903302
Si Si2 0.305279 0.308561 0.442685
Si Si3 0.199236 0.307002 0.876516
Si Si4 0.773046 0.305075 0.637997
Si Si5 0.839378 0.306778 0.011651
Si Si6 0.518441 0.808481 0.365468
Si Si7 0.444254 0.308973 0.285427
Si Si8 0.088480 0.690493 0.175840
O O1 0.599979 0.758324 0.872565
O O2 0.437715 0.753660 0.961945
O O3 0.425422 0.749666 0.872891
O O4 0.482450 0.000000 0.904777
O O5 0.307235 0.500000 0.441640
O O6 0.250000 0.250000 0.500000
O O7 0.246978 0.256086 0.409866
O O8 0.419163 0.249147 0.413895
O O9 0.205696 0.500000 0.875265
O O10 0.301269 0.239803 0.834365
O O11 0.179670 0.251144 0.932891
O O12 0.775840 0.500000 0.638102
O O13 0.671428 0.254838 0.686766
O O14 0.877172 0.249590 0.636359
O O15 0.842182 0.500000 0.013029
O O16 0.750000 0.250000 0.000000
O O17 0.500707 0.754827 0.317510
O O18 0.520231 0.000000 0.366305
O O19 0.443497 0.500000 0.288657
O O20 0.503914 0.256779 0.227668
O O21 0.080836 0.500000 0.177205
#
# Coordination Sequence:
#
# PCOD9175020 Si02
#       8
#     8   8   8   8   8   8   8   8
#     4   9  19  35  54  77 106 138 174 215 262 319
#     4  10  20  36  55  83 120 157 191 228 271 317
#     4  10  20  35  56  79 103 138 177 213 262 323
#     4   8  18  36  58  80 109 147 185 224 272 324
#     4  10  18  32  55  78 104 137 172 212 261 317
#     4  10  19  36  60  85 110 144 187 230 276 323
#     4  10  21  39  58  79 108 142 180 224 272 328
#     4  11  22  37  55  78 108 138 173 223 273 317
#
# _framework density 19.376673
#
# number of rings (size 3 to 8) (size 9 to 14) (size 15 to 20)
#    0.000    2.250    1.250    2.625    0.000    3.000 
#    0.000   14.375    0.000    1.500    0.000    0.000 
#    0.000    0.000    0.000    0.000    0.000    0.000 
#
# Total GULP energy -178525.365796 kJ/mol
# GULP energy per Si atom -5578.917681 kJ/mol
# Density = 1.933257 g / cm^3
# Si number density = 19.376673 Si / 1000 Ang^3
#
#
#
# Elastic Constant Matrix: (Units=GPa)
#
#
# Indices 1 2 3 4 5 6 
#
# 1 126.2091 14.4193 32.6942 0.0000 -21.6039 0.0000
# 2 14.4193 29.2701 15.6746 0.0000 -3.4010 0.0000
# 3 32.6942 15.6746 101.4851 0.0000 -19.7531 0.0000
# 4 0.0000 0.0000 0.0000 23.8752 0.0000 -1.7881
# 5 -21.6039 -3.4010 -19.7531 0.0000 16.2407 0.0000
# 6 0.0000 0.0000 0.0000 -1.7881 0.0000 23.9839
#
#
#
# Elastic Compliance Matrix: (Units=1/GPa)
#
#
# Indices 1 2 3 4 5 6 
#
# 1 0.010643 -0.003545 -0.000354 0.000000 0.012985 0.000000
# 2 -0.003545 0.038439 -0.005432 0.000000 -0.003272 0.000000
# 3 -0.000354 -0.005432 0.013748 0.000000 0.015114 0.000000
# 4 0.000000 0.000000 0.000000 0.042120 0.000000 0.003140
# 5 0.012985 -0.003272 0.015114 0.000000 0.096543 0.000000
# 6 0.000000 0.000000 0.000000 0.003140 0.000000 0.041929
#
#
# Mechanical properties :
#
#
# Convention : Reuss Voigt Hill
#
# Bulk Modulus (GPa) = 22.64011 42.50449 32.57230
# Shear Modulus (GPa) = 18.06320 25.76506 21.91413
#
# Velocity S-wave (km/s) = 3.05653 3.65045 3.36661
# Velocity P-wave (km/s) = 4.91590 6.30486 5.65320
#
# Compressibility (1/GPa) = 0.04416941
#
# Stress axis : x y z
#
# Youngs Moduli (GPa) = 93.96192 26.01495 72.73605
#
# Poissons Ratio (x) = 0.09221 0.02573
# Poissons Ratio (y) = 0.33306 0.39510
# Poissons Ratio (z) = 0.03324 0.14131
#
# Static dielectric constant tensor:
#      x y z
#    x 1.684030 0.000000 -0.013110 
#    y 0.000000 1.676500 0.000000 
#    z -0.013110 0.000000 1.679320 
# 
# From -- ./inp_files/375053.got.cif
#   From: 2010.05.17/outbox.cif.g08.bks.cpg/sg12_188_cif.got.tgz:375053.got - 2010.06.03 13:09:07.
