data_PCOD9175948
_publ_section_title
;
Structure prediction by ZEFSAII (Michael W. Deem and Ramdas Pophale) SiO2 
 PCOD9175948
Probable space group: C 2/M
;
_chemical_formula_sum "Si O2"
_cell_formula_units_Z 48
_cell_length_a 14.257951
_cell_length_b 20.551044
_cell_length_c 12.334217
_cell_angle_alpha 90.000000
_cell_angle_beta 43.880796
_cell_angle_gamma 90.000000
_cell_volume 2505.164566
_symmetry_space_group_name_H-M "C 2/M"
_symmetry_group_IT_number 12
_symmetry_cell_setting 'monoclinic'
loop_
_space_group_symop_operation_xyz
x,y,z
-x,y,-z
-x,-y,-z
x,-y,z
1/2+x,1/2+y,z
1/2-x,1/2+y,-z
1/2-x,1/2-y,-z
1/2+x,1/2-y,z
loop_
_atom_site_type_symbol
_atom_site_label
_atom_site_fract_x
_atom_site_fract_y
_atom_site_fract_z
Si Si1 0.377501 0.283388 0.328114
Si Si2 0.170439 0.763623 0.178305
Si Si3 0.584849 0.928079 0.688431
Si Si4 0.863370 0.330324 0.173346
Si Si5 0.806948 0.071117 0.315361
Si Si6 0.616441 0.873803 0.310525
O O1 0.250000 0.250000 0.500000
O O2 0.513490 0.277188 0.285091
O O3 0.392076 0.237224 0.211647
O O4 0.368714 0.358637 0.296931
O O5 0.244551 0.818721 0.186752
O O6 0.173644 0.697737 0.245205
O O7 0.250000 0.750000 0.000000
O O8 0.656636 0.883483 0.717181
O O9 0.687724 0.933732 0.503045
O O10 0.452187 0.896207 0.744543
O O11 0.554043 0.000000 0.756088
O O12 0.000000 0.350170 0.000000
O O13 0.733674 0.080745 0.260469
O O14 0.879069 0.000000 0.257562
O O15 0.500000 0.871382 0.500000
#
# Coordination Sequence:
#
# PCOD9175948 Si02
#       6
#     8   8   8   8   8   8
#     4  12  22  40  63  92 124 159 206 254 306 368
#     4  12  24  38  61  91 124 159 207 261 308 363
#     4  10  20  36  57  88 126 159 202 253 306 366
#     4  12  23  39  62  89 122 163 204 253 310 363
#     4  10  20  35  59  91 126 159 200 257 312 364
#     4  10  18  33  60  90 119 157 205 253 308 358
#
# _framework density 19.160418
#
# number of rings (size 3 to 8) (size 9 to 14) (size 15 to 20)
#    0.000    1.000    6.667    1.500    0.000    2.333 
#    0.000    0.833    0.000    7.500    0.000    0.000 
#    0.000    0.000    0.000    0.000    0.000    0.000 
#
# Total GULP energy -133788.968821 kJ/mol
# GULP energy per Si atom -5574.540368 kJ/mol
# Density = 1.911681 g / cm^3
# Si number density = 19.160418 Si / 1000 Ang^3
#
#
#
# Elastic Constant Matrix: (Units=GPa)
#
#
# Indices 1 2 3 4 5 6 
#
# 1 139.3752 36.8781 22.3837 -0.0005 0.3001 -0.0003
# 2 36.8781 115.7318 1.4988 -0.0002 3.7633 -0.0002
# 3 22.3837 1.4988 19.1981 -0.0006 -1.3459 -0.0006
# 4 -0.0005 -0.0002 -0.0006 -10.2400 0.0004 -17.1523
# 5 0.3001 3.7633 -1.3459 0.0004 23.1075 0.0002
# 6 -0.0003 -0.0002 -0.0006 -17.1523 0.0002 11.0142
#
#
#
# Elastic Compliance Matrix: (Units=1/GPa)
#
#
# Indices 1 2 3 4 5 6 
#
# 1 0.009748 -0.002952 -0.011156 0.000000 -0.000296 0.000000
# 2 -0.002952 0.009592 0.002597 0.000000 -0.001373 0.000000
# 3 -0.011156 0.002597 0.065139 -0.000002 0.003516 -0.000001
# 4 0.000000 0.000000 -0.000002 -0.027063 0.000001 -0.042145
# 5 -0.000296 -0.001373 0.003516 0.000001 0.043708 0.000000
# 6 0.000000 0.000000 -0.000001 -0.042145 0.000000 0.025160
#
#
# Mechanical properties :
#
#
# Convention : Reuss Voigt Hill
#
# Bulk Modulus (GPa) = 16.27144 43.98071 30.12607
# Shear Modulus (GPa) = 29.44739 19.01266 24.23002
#
# Velocity S-wave (km/s) = 3.92457 3.15348 3.55996
# Velocity P-wave (km/s) = 5.38952 6.02188 5.71445
#
# Compressibility (1/GPa) = 0.06145739
#
# Stress axis : x y z
#
# Youngs Moduli (GPa) = 102.58158 104.24916 15.35169
#
# Poissons Ratio (x) = 0.30777 0.17127
# Poissons Ratio (y) = 0.30284 -0.03987
# Poissons Ratio (z) = 1.14441 -0.27073
#
# Static dielectric constant tensor:
#      x y z
#    x 1.685880 0.000000 0.004750 
#    y 0.000000 1.723270 0.000000 
#    z 0.004750 0.000000 1.707040 
# 
# From -- ./inp_files/147923.got.cif
#   From: 2010.05.17/outbox.cif.g08.bks.cpg/sg12_74_cif.got.tgz:147923.got - 2010.06.03 13:09:07.
