data_PCOD9175100
_publ_section_title
;
Structure prediction by ZEFSAII (Michael W. Deem and Ramdas Pophale) SiO2 
 PCOD9175100
Probable space group: C 2/M
;
_chemical_formula_sum "Si O2"
_cell_formula_units_Z 56
_cell_length_a 8.376309
_cell_length_b 20.971851
_cell_length_c 17.095190
_cell_angle_alpha 90.000000
_cell_angle_beta 68.536743
_cell_angle_gamma 90.000000
_cell_volume 2794.801008
_symmetry_space_group_name_H-M "C 2/M"
_symmetry_group_IT_number 12
_symmetry_cell_setting 'monoclinic'
loop_
_space_group_symop_operation_xyz
x,y,z
-x,y,-z
-x,-y,-z
x,-y,z
1/2+x,1/2+y,z
1/2-x,1/2+y,-z
1/2-x,1/2-y,-z
1/2+x,1/2-y,z
loop_
_atom_site_type_symbol
_atom_site_label
_atom_site_fract_x
_atom_site_fract_y
_atom_site_fract_z
Si Si1 0.384755 0.843109 0.837056
Si Si2 0.522371 0.305575 0.355362
Si Si3 0.461420 0.292131 0.184113
Si Si4 0.819968 0.822155 0.986979
Si Si5 0.352692 0.429498 0.592853
Si Si6 0.459492 0.926400 0.675786
Si Si7 0.343323 0.819194 0.586520
O O1 0.512638 0.784116 0.829697
O O2 0.312305 0.862460 0.936241
O O3 0.456564 0.895186 0.763503
O O4 0.217692 0.813570 0.822046
O O5 0.478762 0.302605 0.272402
O O6 0.620432 0.369648 0.356751
O O7 0.619430 0.243458 0.368015
O O8 0.333836 0.310086 0.427703
O O9 0.616058 0.330611 0.113124
O O10 0.750000 0.750000 0.000000
O O11 0.000000 0.823708 0.000000
O O12 0.500000 0.425555 0.500000
O O13 0.373008 0.500000 0.625693
O O14 0.152500 0.425247 0.605390
O O15 0.344708 0.881709 0.640942
O O16 0.403788 0.000000 0.688723
O O17 0.500000 0.824921 0.500000
#
# Coordination Sequence:
#
# PCOD9175100 Si02
#       7
#     8   8   8   8   8   8   8
#     4  10  19  35  54  85 114 142 181 229 279 334
#     4  12  21  36  58  85 114 144 183 232 283 335
#     4  10  18  32  55  85 112 143 178 227 280 331
#     4   8  16  29  51  78 114 138 174 221 273 332
#     4  10  23  42  60  79 108 150 194 234 281 337
#     4  11  23  39  58  79 110 153 194 235 284 337
#     4  12  24  37  56  84 114 147 186 236 286 334
#
# _framework density 20.037203999999999
#
# number of rings (size 3 to 8) (size 9 to 14) (size 15 to 20)
#    0.000    1.571    2.857    2.571    2.000    0.857 
#    0.000    0.000    0.000    4.714    0.000    2.000 
#    0.000    0.000    0.000    0.000    0.000    0.000 
#
# Total GULP energy -156145.726454 kJ/mol
# GULP energy per Si atom -5576.633088 kJ/mol
# Density = 1.999160 g / cm^3
# Si number density = 20.037204 Si / 1000 Ang^3
#
#
#
# Elastic Constant Matrix: (Units=GPa)
#
#
# Indices 1 2 3 4 5 6 
#
# 1 49.4547 37.5249 -12.5228 0.0000 -6.2495 0.0000
# 2 37.5249 122.8472 24.5271 0.0000 -0.8157 0.0000
# 3 -12.5228 24.5271 59.0424 0.0000 -11.0490 0.0000
# 4 0.0000 0.0000 0.0000 18.1894 0.0000 -0.3279
# 5 -6.2495 -0.8157 -11.0490 0.0000 20.7196 0.0000
# 6 0.0000 0.0000 0.0000 -0.3279 0.0000 23.7833
#
#
#
# Elastic Compliance Matrix: (Units=1/GPa)
#
#
# Indices 1 2 3 4 5 6 
#
# 1 0.039731 -0.015789 0.019009 0.000000 0.021499 0.000000
# 2 -0.015789 0.015211 -0.011605 0.000000 -0.010352 0.000000
# 3 0.019009 -0.011605 0.029745 0.000000 0.021139 0.000000
# 4 0.000000 0.000000 0.000000 0.054991 0.000000 0.000758
# 5 0.021499 -0.010352 0.021139 0.000000 0.065613 0.000000
# 6 0.000000 0.000000 0.000000 0.000758 0.000000 0.042057
#
#
# Mechanical properties :
#
#
# Convention : Reuss Voigt Hill
#
# Bulk Modulus (GPa) = 14.72363 36.71140 25.71751
# Shear Modulus (GPa) = 17.43639 24.65946 21.04793
#
# Velocity S-wave (km/s) = 2.95312 3.51192 3.24457
# Velocity P-wave (km/s) = 4.35798 5.89967 5.18643
#
# Compressibility (1/GPa) = 0.06791802
#
# Stress axis : x y z
#
# Youngs Moduli (GPa) = 25.16951 65.74100 33.61859
#
# Poissons Ratio (x) = 1.03796 -0.63905
# Poissons Ratio (y) = 0.39739 0.39014
# Poissons Ratio (z) = -0.47844 0.76292
#
# Static dielectric constant tensor:
#      x y z
#    x 1.740170 0.000000 -0.047380 
#    y 0.000000 1.671010 0.000000 
#    z -0.047380 0.000000 1.829820 
# 
# From -- ./inp_files/257018.got.cif
#   From: 2010.05.17/outbox.cif.g08.bks.cpg/sg12_129_cif.got.tgz:257018.got - 2010.06.03 13:09:07.
