data_PCOD9175396
_publ_section_title
;
Structure prediction by ZEFSAII (Michael W. Deem and Ramdas Pophale) SiO2 
 PCOD9175396
Probable space group: C 2/M
;
_chemical_formula_sum "Si O2"
_cell_formula_units_Z 64
_cell_length_a 25.462876
_cell_length_b 24.191788
_cell_length_c 13.646809
_cell_angle_alpha 90.000000
_cell_angle_beta 152.269366
_cell_angle_gamma 90.000000
_cell_volume 3911.595448
_symmetry_space_group_name_H-M "C 2/M"
_symmetry_group_IT_number 12
_symmetry_cell_setting 'monoclinic'
loop_
_space_group_symop_operation_xyz
x,y,z
-x,y,-z
-x,-y,-z
x,-y,z
1/2+x,1/2+y,z
1/2-x,1/2+y,-z
1/2-x,1/2-y,-z
1/2+x,1/2-y,z
loop_
_atom_site_type_symbol
_atom_site_label
_atom_site_fract_x
_atom_site_fract_y
_atom_site_fract_z
Si Si1 0.663992 0.638254 0.169923
Si Si2 0.048323 0.064281 0.835443
Si Si3 0.128095 0.377415 0.224872
Si Si4 0.635793 0.204375 0.418935
Si Si5 0.765763 0.195952 0.316212
Si Si6 0.907148 0.764816 0.076152
Si Si7 0.153328 0.935745 0.340747
Si Si8 0.497352 0.657895 0.379889
O O1 0.789334 0.662817 0.391209
O O2 0.631474 0.608125 0.217591
O O3 0.649690 0.592084 0.063508
O O4 0.587413 0.689350 0.003404
O O5 0.937926 0.072339 0.723378
O O6 0.033459 0.097517 0.710910
O O7 0.064309 0.000000 0.847291
O O8 0.125358 0.327240 0.299267
O O9 0.180612 0.350154 0.214473
O O10 0.220392 0.421819 0.413499
O O11 0.000000 0.397467 0.000000
O O12 0.703334 0.262318 0.542844
O O13 0.511241 0.222535 0.245303
O O14 0.880933 0.171695 0.465492
O O15 0.705689 0.231717 0.133278
O O16 0.913963 0.799149 0.187422
O O17 0.144132 0.000000 0.292939
O O18 0.500000 0.662726 0.500000
#
# Coordination Sequence:
#
# PCOD9175396 Si02
#       8
#     8   8   8   8   8   8   8   8
#     4   9  18  30  49  74 102 131 161 197 234 294
#     4  10  19  34  52  70  95 127 165 208 253 290
#     4  11  19  30  48  72 100 135 163 197 234 291
#     4   9  18  30  44  73 105 133 161 190 233 289
#     4  10  18  33  48  70 102 132 164 199 235 292
#     4   9  18  33  50  74 101 134 165 194 238 292
#     4  10  20  33  48  70 100 133 164 200 246 291
#     4  10  21  35  51  73  99 127 166 211 251 285
#
# _framework density 16.361611
#
# number of rings (size 3 to 8) (size 9 to 14) (size 15 to 20)
#    0.000    2.250    2.500    1.125    0.000    2.000 
#    6.750    0.000    0.000    0.000    0.000    0.000 
#    0.000    1.000    0.000    0.000    0.000    0.000 
#
# Total GULP energy -178199.410886 kJ/mol
# GULP energy per Si atom -5568.731590 kJ/mol
# Density = 1.632437 g / cm^3
# Si number density = 16.361611 Si / 1000 Ang^3
#
#
#
# Elastic Constant Matrix: (Units=GPa)
#
#
# Indices 1 2 3 4 5 6 
#
# 1 32.6658 19.9904 17.0383 0.0000 -18.3322 0.0000
# 2 19.9904 71.1235 25.9235 0.0000 -5.9300 0.0000
# 3 17.0383 25.9235 88.4063 0.0000 -5.9526 0.0000
# 4 0.0000 0.0000 0.0000 13.8786 0.0000 4.2433
# 5 -18.3322 -5.9300 -5.9526 0.0000 20.8684 0.0000
# 6 0.0000 0.0000 0.0000 4.2433 0.0000 12.4449
#
#
#
# Elastic Compliance Matrix: (Units=1/GPa)
#
#
# Indices 1 2 3 4 5 6 
#
# 1 0.077822 -0.014257 -0.006614 0.000000 0.062426 0.000000
# 2 -0.014257 0.018570 -0.003248 0.000000 -0.008174 0.000000
# 3 -0.006614 -0.003248 0.013341 0.000000 -0.002928 0.000000
# 4 0.000000 0.000000 0.000000 0.080439 0.000000 -0.027427
# 5 0.062426 -0.008174 -0.002928 0.000000 0.099601 0.000000
# 6 0.000000 0.000000 0.000000 -0.027427 0.000000 0.089706
#
#
# Mechanical properties :
#
#
# Convention : Reuss Voigt Hill
#
# Bulk Modulus (GPa) = 16.26183 35.34445 25.80314
# Shear Modulus (GPa) = 11.15536 18.05462 14.60499
#
# Velocity S-wave (km/s) = 2.61396 3.32546 2.99095
# Velocity P-wave (km/s) = 4.36704 6.03273 5.26616
#
# Compressibility (1/GPa) = 0.06149369
#
# Stress axis : x y z
#
# Youngs Moduli (GPa) = 12.84986 53.85164 74.95474
#
# Poissons Ratio (x) = 0.76778 0.49578
# Poissons Ratio (y) = 0.18321 0.24344
# Poissons Ratio (z) = 0.08499 0.17490
#
# Static dielectric constant tensor:
#      x y z
#    x 1.516800 0.000000 -0.008610 
#    y 0.000000 1.561780 0.000000 
#    z -0.008610 0.000000 1.581300 
# 
# From -- ./inp_files/178445.got.cif
#   From: 2010.05.17/outbox.cif.g08.bks.cpg/sg12_90_cif.got.tgz:178445.got - 2010.06.03 13:09:07.
