data_PCOD9175197
_publ_section_title
;
Structure prediction by ZEFSAII (Michael W. Deem and Ramdas Pophale) SiO2 
 PCOD9175197
Probable space group: C 2/M
;
_chemical_formula_sum "Si O2"
_cell_formula_units_Z 56
_cell_length_a 13.476878
_cell_length_b 22.246903
_cell_length_c 12.069010
_cell_angle_alpha 90.000000
_cell_angle_beta 134.665912
_cell_angle_gamma 90.000000
_cell_volume 2573.553149
_symmetry_space_group_name_H-M "C 2/M"
_symmetry_group_IT_number 12
_symmetry_cell_setting 'monoclinic'
loop_
_space_group_symop_operation_xyz
x,y,z
-x,y,-z
-x,-y,-z
x,-y,z
1/2+x,1/2+y,z
1/2-x,1/2+y,-z
1/2-x,1/2-y,-z
1/2+x,1/2-y,z
loop_
_atom_site_type_symbol
_atom_site_label
_atom_site_fract_x
_atom_site_fract_y
_atom_site_fract_z
Si Si1 0.868096 0.859145 0.460665
Si Si2 0.684656 0.069251 0.184042
Si Si3 0.495790 0.887094 0.761986
Si Si4 0.208727 0.927951 0.973486
Si Si5 0.641935 0.230934 0.317608
Si Si6 0.924110 0.138616 0.766855
Si Si7 0.353664 0.929181 0.437609
O O1 0.815142 0.921535 0.369654
O O2 0.742870 0.813719 0.330508
O O3 0.903931 0.863593 0.617326
O O4 0.000000 0.836057 0.500000
O O5 0.552552 0.093739 0.151942
O O6 0.747591 0.093048 0.117054
O O7 0.656268 0.000000 0.141252
O O8 0.477829 0.815112 0.736424
O O9 0.384265 0.916812 0.591408
O O10 0.647798 0.911733 0.851442
O O11 0.070540 0.893660 0.905820
O O12 0.185351 0.000000 0.957002
O O13 0.750000 0.250000 0.500000
O O14 0.584681 0.290298 0.214926
O O15 0.787051 0.105289 0.705827
O O16 0.500000 0.907632 0.500000
O O17 0.337907 0.000000 0.403902
#
# Coordination Sequence:
#
# PCOD9175197 Si02
#       7
#     8   8   8   8   8   8   8
#     4  10  18  32  56  88 119 153 190 240 293 345
#     4  10  19  32  55  88 124 160 193 223 282 369
#     4  11  21  39  59  84 122 157 191 243 293 353
#     4  11  23  35  58  93 126 159 188 231 304 370
#     4   9  19  37  57  83 111 154 199 238 286 343
#     4  11  21  39  58  86 120 152 197 255 294 342
#     4  11  23  39  61  84 106 152 210 252 294 341
#
# _framework density 21.759799000000001
#
# number of rings (size 3 to 8) (size 9 to 14) (size 15 to 20)
#    0.000    1.571    5.714    2.143    0.000    3.143 
#    0.000    0.714    0.000    6.000    0.000    0.000 
#    0.000    0.000    0.000    0.000    0.000    0.000 
#
# Total GULP energy -156059.582223 kJ/mol
# GULP energy per Si atom -5573.556508 kJ/mol
# Density = 2.171027 g / cm^3
# Si number density = 21.759799 Si / 1000 Ang^3
#
#
#
# Elastic Constant Matrix: (Units=GPa)
#
#
# Indices 1 2 3 4 5 6 
#
# 1 78.8875 17.3286 13.0003 0.0000 30.4086 0.0000
# 2 17.3286 93.0847 10.4286 0.0000 34.0266 0.0000
# 3 13.0003 10.4286 52.6789 0.0000 29.8281 0.0000
# 4 0.0000 0.0000 0.0000 26.9993 0.0000 15.8659
# 5 30.4086 34.0266 29.8281 0.0000 47.5531 0.0000
# 6 0.0000 0.0000 0.0000 15.8659 0.0000 7.3103
#
#
#
# Elastic Compliance Matrix: (Units=1/GPa)
#
#
# Indices 1 2 3 4 5 6 
#
# 1 0.017321 0.001695 0.003642 0.000000 -0.014573 0.000000
# 2 0.001695 0.015496 0.005282 0.000000 -0.015485 0.000000
# 3 0.003642 0.005282 0.031787 0.000000 -0.026047 0.000000
# 4 0.000000 0.000000 0.000000 -0.134493 0.000000 0.291897
# 5 -0.014573 -0.015485 -0.026047 0.000000 0.057767 0.000000
# 6 0.000000 0.000000 0.000000 0.291897 0.000000 -0.496727
#
#
# Mechanical properties :
#
#
# Convention : Reuss Voigt Hill
#
# Bulk Modulus (GPa) = 11.64935 34.01846 22.83391
# Shear Modulus (GPa) = -9.97067 28.63209 9.33071
#
# Velocity S-wave (km/s) = -2.14292 3.63137 2.07301
# Velocity P-wave (km/s) = 0.87038 5.76628 4.03066
#
# Compressibility (1/GPa) = 0.08584167
#
# Stress axis : x y z
#
# Youngs Moduli (GPa) = 57.73190 64.53192 31.45940
#
# Poissons Ratio (x) = -0.10936 -0.11456
# Poissons Ratio (y) = -0.09784 -0.16618
# Poissons Ratio (z) = -0.21024 -0.34087
#
# Static dielectric constant tensor:
#      x y z
#    x 1.865260 0.000000 -0.008270 
#    y 0.000000 1.852170 0.000000 
#    z -0.008270 0.000000 1.852740 
# 
# From -- ./inp_files/217754.got.cif
#   From: 2010.05.17/outbox.cif.g08.bks.cpg/sg12_109_cif.got.tgz:217754.got - 2010.06.03 13:09:07.
