data_PCOD9175120
_publ_section_title
;
Structure prediction by ZEFSAII (Michael W. Deem and Ramdas Pophale) SiO2 
 PCOD9175120
Probable space group: C 2/M
;
_chemical_formula_sum "Si O2"
_cell_formula_units_Z 56
_cell_length_a 24.076396
_cell_length_b 17.739769
_cell_length_c 19.081264
_cell_angle_alpha 90.000000
_cell_angle_beta 22.052204
_cell_angle_gamma 90.000000
_cell_volume 3059.849763
_symmetry_space_group_name_H-M "C 2/M"
_symmetry_group_IT_number 12
_symmetry_cell_setting 'monoclinic'
loop_
_space_group_symop_operation_xyz
x,y,z
-x,y,-z
-x,-y,-z
x,-y,z
1/2+x,1/2+y,z
1/2-x,1/2+y,-z
1/2-x,1/2-y,-z
1/2+x,1/2-y,z
loop_
_atom_site_type_symbol
_atom_site_label
_atom_site_fract_x
_atom_site_fract_y
_atom_site_fract_z
Si Si1 0.579923 0.410372 0.104574
Si Si2 0.089569 0.588393 0.462683
Si Si3 0.770429 0.586233 0.096255
Si Si4 0.395777 0.909280 0.810544
Si Si5 0.441419 0.413504 0.412475
Si Si6 0.869524 0.834546 0.098612
Si Si7 0.335891 0.688033 0.658059
O O1 0.568970 0.500000 0.100153
O O2 0.466307 0.395554 0.301338
O O3 0.744595 0.397957 0.943752
O O4 0.569192 0.358348 0.049055
O O5 0.053536 0.500000 0.508168
O O6 0.262062 0.598397 0.249574
O O7 0.000000 0.618267 0.500000
O O8 0.026505 0.621340 0.608940
O O9 0.812129 0.500000 0.062708
O O10 0.607383 0.584460 0.251219
O O11 0.753142 0.632330 0.186661
O O12 0.875117 0.620587 0.913341
O O13 0.409664 0.000000 0.803647
O O14 0.384209 0.500000 0.485984
O O15 0.355672 0.352707 0.559702
O O16 0.756316 0.764582 0.233058
O O17 0.000000 0.821396 0.000000
O O18 0.500000 0.697748 0.500000
#
# Coordination Sequence:
#
# PCOD9175120 Si02
#       7
#     8   8   8   8   8   8   8
#     4   9  17  33  56  80 105 135 174 219 267 313
#     4  10  18  32  56  79 101 134 176 222 263 308
#     4   8  14  28  54  86 110 126 161 222 274 311
#     4   8  14  27  52  84 106 124 159 215 273 312
#     4   8  15  31  58  86 106 128 170 226 271 310
#     4  12  25  37  48  72 110 152 180 212 259 314
#     4  10  20  35  54  82 107 138 178 214 260 314
#
# _framework density 18.301551
#
# number of rings (size 3 to 8) (size 9 to 14) (size 15 to 20)
#    0.000    2.714    1.429    3.000    0.000    2.857 
#    2.571    2.857    0.000    1.714    0.000    0.000 
#    0.000    0.000    0.000    0.000    0.000    0.000 
#
# Total GULP energy -155915.847527 kJ/mol
# GULP energy per Si atom -5568.423126 kJ/mol
# Density = 1.825990 g / cm^3
# Si number density = 18.301551 Si / 1000 Ang^3
#
#
#
# Elastic Constant Matrix: (Units=GPa)
#
#
# Indices 1 2 3 4 5 6 
#
# 1 72.7382 39.9177 58.2464 -0.0017 32.9378 -0.0031
# 2 39.9177 50.8260 32.7151 -0.0009 23.1006 0.0001
# 3 58.2464 32.7151 72.1485 0.0012 33.4237 0.0038
# 4 -0.0017 -0.0009 0.0012 -8.6629 -0.0010 -12.1594
# 5 32.9378 23.1006 33.4237 -0.0010 36.9735 -0.0024
# 6 -0.0031 0.0001 0.0038 -12.1594 -0.0024 -17.7085
#
#
#
# Elastic Compliance Matrix: (Units=1/GPa)
#
#
# Indices 1 2 3 4 5 6 
#
# 1 0.049508 -0.016932 -0.028836 0.000241 -0.007458 -0.000179
# 2 -0.016932 0.036044 0.001326 -0.000161 -0.008634 0.000115
# 3 -0.028836 0.001326 0.043051 -0.000267 -0.014058 0.000200
# 4 0.000241 -0.000161 -0.000267 -3.187006 0.000181 2.188332
# 5 -0.007458 -0.008634 -0.014058 0.000181 0.051793 -0.000133
# 6 -0.000179 0.000115 0.000200 2.188332 -0.000133 -1.559070
#
#
# Mechanical properties :
#
#
# Convention : Reuss Voigt Hill
#
# Bulk Modulus (GPa) = 25.17706 50.83011 38.00359
# Shear Modulus (GPa) = -1.12018 6.44265 2.66123
#
# Velocity S-wave (km/s) = -0.78320 1.87828 1.20717
# Velocity P-wave (km/s) = 3.60122 5.70420 4.77004
#
# Compressibility (1/GPa) = 0.03971869
#
# Stress axis : x y z
#
# Youngs Moduli (GPa) = 20.19885 27.74360 23.22828
#
# Poissons Ratio (x) = 0.46976 0.66980
# Poissons Ratio (y) = 0.34201 -0.03079
# Poissons Ratio (z) = 0.58244 -0.03678
#
# Static dielectric constant tensor:
#      x y z
#    x 1.633890 0.000000 0.041640 
#    y 0.000000 1.673180 0.000000 
#    z 0.041640 0.000000 1.656400 
# 
# From -- ./inp_files/328536.got.cif
#   From: 2010.05.17/outbox.cif.g08.bks.cpg/sg12_165_cif.got.tgz:328536.got - 2010.06.03 13:09:07.
