data_PCOD9175635
_publ_section_title
;
Structure prediction by ZEFSAII (Michael W. Deem and Ramdas Pophale) SiO2 
 PCOD9175635
Probable space group: C 2/M
;
_chemical_formula_sum "Si O2"
_cell_formula_units_Z 64
_cell_length_a 21.486566
_cell_length_b 28.695973
_cell_length_c 15.025082
_cell_angle_alpha 90.000000
_cell_angle_beta 160.215267
_cell_angle_gamma 90.000000
_cell_volume 3135.790717
_symmetry_space_group_name_H-M "C 2/M"
_symmetry_group_IT_number 12
_symmetry_cell_setting 'monoclinic'
loop_
_space_group_symop_operation_xyz
x,y,z
-x,y,-z
-x,-y,-z
x,-y,z
1/2+x,1/2+y,z
1/2-x,1/2+y,-z
1/2-x,1/2-y,-z
1/2+x,1/2-y,z
loop_
_atom_site_type_symbol
_atom_site_label
_atom_site_fract_x
_atom_site_fract_y
_atom_site_fract_z
Si Si1 0.498707 0.247211 0.248595
Si Si2 0.812609 0.087071 0.209198
Si Si3 0.944152 0.555212 0.643243
Si Si4 0.159499 0.899130 0.397934
Si Si5 0.878959 0.196831 0.750807
Si Si6 0.354611 0.446715 0.887100
Si Si7 0.291972 0.054260 0.750760
Si Si8 0.881896 0.192721 0.255011
O O1 0.687393 0.220015 0.522447
O O2 0.515429 0.267130 0.171205
O O3 0.470756 0.287905 0.283993
O O4 0.322795 0.213727 0.017050
O O5 0.704368 0.085881 0.156527
O O6 0.867216 0.136948 0.243758
O O7 0.000000 0.063683 0.500000
O O8 0.660927 0.064865 0.940427
O O9 0.917228 0.500000 0.612814
O O10 0.820953 0.576279 0.557083
O O11 0.838290 0.570982 0.411394
O O12 0.168116 0.846020 0.377961
O O13 0.185333 0.916805 0.532470
O O14 0.957480 0.916246 0.097224
O O15 0.000000 0.183268 0.000000
O O16 0.335232 0.500000 0.891832
O O17 0.500000 0.447086 0.000000
O O18 0.227269 0.000000 0.675773
O O19 0.500000 0.049894 0.000000
O O20 0.000000 0.208419 0.500000
#
# Coordination Sequence:
#
# PCOD9175635 Si02
#       8
#     8   8   8   8   8   8   8   8
#     4  10  23  42  64  91 122 164 201 263 329 389
#     4  11  24  38  60  89 123 170 213 264 311 380
#     4  10  18  33  55  84 120 161 208 250 306 370
#     4  11  20  33  59  90 128 159 201 259 315 380
#     4  11  23  39  63  98 130 154 204 267 333 383
#     4   8  15  28  51  81 114 157 197 242 302 365
#     4  11  23  39  60  93 132 170 217 269 322 375
#     4  10  22  42  65  85 120 165 217 249 311 388
#
# _framework density 20.409526
#
# number of rings (size 3 to 8) (size 9 to 14) (size 15 to 20)
#    0.000    1.750    1.250    4.875    3.500    1.000 
#    0.000    0.000    0.000    0.750    0.000    2.625 
#    0.000    0.000    0.000    0.000    0.000    0.000 
#
# Total GULP energy -178399.817240 kJ/mol
# GULP energy per Si atom -5574.994289 kJ/mol
# Density = 2.036307 g / cm^3
# Si number density = 20.409526 Si / 1000 Ang^3
#
#
#
# Elastic Constant Matrix: (Units=GPa)
#
#
# Indices 1 2 3 4 5 6 
#
# 1 46.2249 24.3228 28.9410 0.0000 -1.9027 0.0000
# 2 24.3228 69.1501 29.1036 0.0000 -1.9021 0.0000
# 3 28.9410 29.1036 131.5629 0.0000 -3.1144 -0.0002
# 4 0.0000 0.0000 0.0000 31.5136 0.0001 5.1398
# 5 -1.9027 -1.9021 -3.1144 0.0001 25.6080 -0.0001
# 6 0.0000 0.0000 -0.0002 5.1398 -0.0001 43.9021
#
#
#
# Elastic Compliance Matrix: (Units=1/GPa)
#
#
# Indices 1 2 3 4 5 6 
#
# 1 0.028812 -0.008214 -0.004498 0.000000 0.000984 0.000000
# 2 -0.008214 0.018302 -0.002230 0.000000 0.000478 0.000000
# 3 -0.004498 -0.002230 0.009098 0.000000 0.000607 0.000000
# 4 0.000000 0.000000 0.000000 0.032350 0.000000 -0.003787
# 5 0.000984 0.000478 0.000607 0.000000 0.039233 0.000000
# 6 0.000000 0.000000 0.000000 -0.003787 0.000000 0.023221
#
#
# Mechanical properties :
#
#
# Convention : Reuss Voigt Hill
#
# Bulk Modulus (GPa) = 37.98275 45.74142 41.86209
# Shear Modulus (GPa) = 26.36055 31.17612 28.76833
#
# Velocity S-wave (km/s) = 3.59776 3.91260 3.75848
# Velocity P-wave (km/s) = 5.99243 6.54765 6.27618
#
# Compressibility (1/GPa) = 0.02632774
#
# Stress axis : x y z
#
# Youngs Moduli (GPa) = 34.70774 54.63735 109.91331
#
# Poissons Ratio (x) = 0.44881 0.49435
# Poissons Ratio (y) = 0.28510 0.24516
# Poissons Ratio (z) = 0.15610 0.12187
#
# Static dielectric constant tensor:
#      x y z
#    x 1.785630 0.000000 -0.002280 
#    y 0.000000 1.724480 0.000000 
#    z -0.002280 0.000000 1.800960 
# 
# From -- ./inp_files/236013.got.cif
#   From: 2010.05.17/outbox.cif.g08.bks.cpg/sg12_119_cif.got.tgz:236013.got - 2010.06.03 13:09:07.
