data_PCOD9175596
_publ_section_title
;
Structure prediction by ZEFSAII (Michael W. Deem and Ramdas Pophale) SiO2 
 PCOD9175596
Probable space group: C 2/M
;
_chemical_formula_sum "Si O2"
_cell_formula_units_Z 56
_cell_length_a 18.992504
_cell_length_b 19.446039
_cell_length_c 9.742422
_cell_angle_alpha 90.000000
_cell_angle_beta 60.687444
_cell_angle_gamma 90.000000
_cell_volume 3137.457694
_symmetry_space_group_name_H-M "C 2/M"
_symmetry_group_IT_number 12
_symmetry_cell_setting 'monoclinic'
loop_
_space_group_symop_operation_xyz
x,y,z
-x,y,-z
-x,-y,-z
x,-y,z
1/2+x,1/2+y,z
1/2-x,1/2+y,-z
1/2-x,1/2-y,-z
1/2+x,1/2-y,z
loop_
_atom_site_type_symbol
_atom_site_label
_atom_site_fract_x
_atom_site_fract_y
_atom_site_fract_z
Si Si1 0.471560 0.295657 0.368137
Si Si2 0.214810 0.825773 0.503420
Si Si3 0.691290 0.082365 0.396436
Si Si4 0.256789 0.419190 0.777205
Si Si5 0.356797 0.081878 0.864188
Si Si6 0.523165 0.139707 0.640265
Si Si7 0.943394 0.924934 0.691097
O O1 0.500000 0.289013 0.500000
O O2 0.379395 0.318361 0.440426
O O3 0.476221 0.218213 0.309509
O O4 0.526927 0.357244 0.257680
O O5 0.250000 0.750000 0.500000
O O6 0.234820 0.875324 0.611692
O O7 0.252632 0.866587 0.338560
O O8 0.675960 0.104886 0.253483
O O9 0.610817 0.104492 0.558052
O O10 0.701446 0.000000 0.393353
O O11 0.240194 0.500000 0.756352
O O12 0.350311 0.417607 0.736486
O O13 0.199190 0.396761 0.956611
O O14 0.450124 0.102473 0.786333
O O15 0.352695 0.000000 0.863913
O O16 0.500000 0.137778 0.500000
O O17 0.000000 0.927127 0.500000
O O18 0.953195 0.000000 0.749662
#
# Coordination Sequence:
#
# PCOD9175596 Si02
#       7
#     8   8   8   8   8   8   8
#     4  10  18  33  55  78 108 144 193 235 274 329
#     4  12  22  35  55  86 117 147 188 240 291 339
#     4  10  20  35  57  84 115 152 194 240 291 342
#     4  10  20  36  59  88 117 147 191 244 288 335
#     4   9  19  36  59  86 115 149 195 241 284 344
#     4   9  17  32  56  80 109 154 198 232 276 346
#     4   9  16  29  53  81 103 136 191 238 271 324
#
# _framework density 17.848845000000001
#
# number of rings (size 3 to 8) (size 9 to 14) (size 15 to 20)
#    0.000    2.143    4.286    0.857    0.000    2.286 
#    0.000    3.571    0.000    5.143    0.000    4.000 
#    0.000    0.000    0.000    0.000    0.000    0.000 
#
# Total GULP energy -155898.087823 kJ/mol
# GULP energy per Si atom -5567.788851 kJ/mol
# Density = 1.780822 g / cm^3
# Si number density = 17.848845 Si / 1000 Ang^3
#
#
#
# Elastic Constant Matrix: (Units=GPa)
#
#
# Indices 1 2 3 4 5 6 
#
# 1 78.0046 12.1789 17.5260 0.0000 1.7385 0.0000
# 2 12.1789 60.6513 10.5538 0.0000 16.6078 0.0000
# 3 17.5260 10.5538 70.0592 0.0000 -5.5514 0.0000
# 4 0.0000 0.0000 0.0000 13.3450 0.0000 -0.6070
# 5 1.7385 16.6078 -5.5514 0.0000 13.7364 0.0000
# 6 0.0000 0.0000 0.0000 -0.6070 0.0000 29.9093
#
#
#
# Elastic Compliance Matrix: (Units=1/GPa)
#
#
# Indices 1 2 3 4 5 6 
#
# 1 0.013876 -0.002085 -0.003199 0.000000 -0.000528 0.000000
# 2 -0.002085 0.027956 -0.006557 0.000000 -0.036186 0.000000
# 3 -0.003199 -0.006557 0.017275 0.000000 0.015314 0.000000
# 4 0.000000 0.000000 0.000000 0.075003 0.000000 0.001522
# 5 -0.000528 -0.036186 0.015314 0.000000 0.122805 0.000000
# 6 0.000000 0.000000 0.000000 0.001522 0.000000 0.033465
#
#
# Mechanical properties :
#
#
# Convention : Reuss Voigt Hill
#
# Bulk Modulus (GPa) = 28.22882 32.13696 30.18289
# Shear Modulus (GPa) = 15.34351 22.62856 18.98604
#
# Velocity S-wave (km/s) = 2.93514 3.56446 3.26500
# Velocity P-wave (km/s) = 5.22843 5.91479 5.58217
#
# Compressibility (1/GPa) = 0.03542479
#
# Stress axis : x y z
#
# Youngs Moduli (GPa) = 72.06795 35.77069 57.88677
#
# Poissons Ratio (x) = 0.07458 0.18518
# Poissons Ratio (y) = 0.15027 0.37956
# Poissons Ratio (z) = 0.23054 0.23455
#
# Static dielectric constant tensor:
#      x y z
#    x 1.622650 0.000000 0.014110 
#    y 0.000000 1.651770 0.000000 
#    z 0.014110 0.000000 1.612890 
# 
# From -- ./inp_files/77350.got.cif
#   From: 2010.05.17/outbox.cif.g08.bks.cpg/sg12_39_cif.got.tgz:77350.got - 2010.06.03 13:09:07.
