data_PCOD9175775
_publ_section_title
;
Structure prediction by ZEFSAII (Michael W. Deem and Ramdas Pophale) SiO2 
 PCOD9175775
Probable space group: C 2/M
;
_chemical_formula_sum "Si O2"
_cell_formula_units_Z 56
_cell_length_a 9.006961
_cell_length_b 18.698800
_cell_length_c 21.205479
_cell_angle_alpha 90.000000
_cell_angle_beta 60.708180
_cell_angle_gamma 90.000000
_cell_volume 3114.769252
_symmetry_space_group_name_H-M "C 2/M"
_symmetry_group_IT_number 12
_symmetry_cell_setting 'monoclinic'
loop_
_space_group_symop_operation_xyz
x,y,z
-x,y,-z
-x,-y,-z
x,-y,z
1/2+x,1/2+y,z
1/2-x,1/2+y,-z
1/2-x,1/2-y,-z
1/2+x,1/2-y,z
loop_
_atom_site_type_symbol
_atom_site_label
_atom_site_fract_x
_atom_site_fract_y
_atom_site_fract_z
Si Si1 0.425103 0.917164 0.857563
Si Si2 0.820001 0.701984 0.785764
Si Si3 0.558647 0.295929 0.351795
Si Si4 0.064893 0.837519 0.159636
Si Si5 0.317199 0.579568 0.754655
Si Si6 0.181025 0.670722 0.998500
Si Si7 0.181339 0.283596 0.448926
O O1 0.392056 0.869462 0.802485
O O2 0.628786 0.917216 0.823159
O O3 0.369606 0.000000 0.863909
O O4 0.342750 0.876059 0.933731
O O5 0.906799 0.729177 0.702889
O O6 0.844332 0.768537 0.828039
O O7 0.621331 0.688843 0.818412
O O8 0.666295 0.361560 0.302760
O O9 0.358942 0.317646 0.388602
O O10 0.622896 0.273024 0.407513
O O11 0.058586 0.897085 0.214947
O O12 0.176995 0.861774 0.077463
O O13 0.349457 0.500000 0.724772
O O14 0.250000 0.750000 0.000000
O O15 0.000000 0.674943 0.000000
O O16 0.250000 0.250000 0.500000
O O17 0.000000 0.323194 0.500000
#
# Coordination Sequence:
#
# PCOD9175775 Si02
#       7
#     8   8   8   8   8   8   8
#     4  11  24  39  54  78 112 149 191 243 294 342
#     4  11  21  36  57  84 111 141 191 237 284 336
#     4  10  18  33  57  84 111 148 180 224 277 326
#     4  11  21  35  57  80 107 144 192 244 286 339
#     4  10  21  37  56  81 112 148 191 233 282 341
#     4  12  23  37  58  79 105 147 194 240 295 346
#     4   9  18  32  55  87 117 139 174 223 266 318
#
# _framework density 17.978859
#
# number of rings (size 3 to 8) (size 9 to 14) (size 15 to 20)
#    0.000    1.429    2.857    5.143    0.000    1.429 
#    0.000    0.714    0.000    4.286    0.000    4.000 
#    0.000    0.000    0.000    0.000    0.000    0.000 
#
# Total GULP energy -156089.263162 kJ/mol
# GULP energy per Si atom -5574.616542 kJ/mol
# Density = 1.793794 g / cm^3
# Si number density = 17.978859 Si / 1000 Ang^3
#
#
#
# Elastic Constant Matrix: (Units=GPa)
#
#
# Indices 1 2 3 4 5 6 
#
# 1 96.2342 17.0966 26.2656 0.0000 -4.5262 0.0000
# 2 17.0966 99.2984 34.1780 0.0000 14.9945 0.0000
# 3 26.2656 34.1780 81.3497 0.0000 -3.3566 0.0000
# 4 0.0000 0.0000 0.0000 5.2383 0.0000 -9.4443
# 5 -4.5262 14.9945 -3.3566 0.0000 32.0655 0.0000
# 6 0.0000 0.0000 0.0000 -9.4443 0.0000 12.9869
#
#
#
# Elastic Compliance Matrix: (Units=1/GPa)
#
#
# Indices 1 2 3 4 5 6 
#
# 1 0.011550 -0.001182 -0.003156 0.000000 0.001853 0.000000
# 2 -0.001182 0.013191 -0.005445 0.000000 -0.006905 0.000000
# 3 -0.003156 -0.005445 0.015754 0.000000 0.003750 0.000000
# 4 0.000000 0.000000 0.000000 -0.613579 0.000000 -0.446208
# 5 0.001853 -0.006905 0.003750 0.000000 0.035069 0.000000
# 6 0.000000 0.000000 0.000000 -0.446208 0.000000 -0.247491
#
#
# Mechanical properties :
#
#
# Convention : Reuss Voigt Hill
#
# Bulk Modulus (GPa) = 47.78240 47.99585 47.88912
# Shear Modulus (GPa) = -6.58794 23.34763 8.37984
#
# Velocity S-wave (km/s) = -1.91631 3.60754 2.16126
# Velocity P-wave (km/s) = 4.66244 6.64124 5.73779
#
# Compressibility (1/GPa) = 0.02092821
#
# Stress axis : x y z
#
# Youngs Moduli (GPa) = 86.58113 75.80830 63.47532
#
# Poissons Ratio (x) = 0.08961 0.20033
# Poissons Ratio (y) = 0.10234 0.34565
# Poissons Ratio (z) = 0.27326 0.41280
#
# Static dielectric constant tensor:
#      x y z
#    x 1.645020 0.000000 -0.010280 
#    y 0.000000 1.600090 0.000000 
#    z -0.010280 0.000000 1.676740 
# 
# From -- ./inp_files/300674.got.cif
#   From: 2010.05.17/outbox.cif.g08.bks.cpg/sg12_151_cif.got.tgz:300674.got - 2010.06.03 13:09:07.
