data_PCOD9175107
_publ_section_title
;
Structure prediction by ZEFSAII (Michael W. Deem and Ramdas Pophale) SiO2 
 PCOD9175107
Probable space group: C 2/M
;
_chemical_formula_sum "Si O2"
_cell_formula_units_Z 40
_cell_length_a 7.698104
_cell_length_b 20.674235
_cell_length_c 12.731616
_cell_angle_alpha 90.000000
_cell_angle_beta 71.826406
_cell_angle_gamma 90.000000
_cell_volume 1925.188853
_symmetry_space_group_name_H-M "C 2/M"
_symmetry_group_IT_number 12
_symmetry_cell_setting 'monoclinic'
loop_
_space_group_symop_operation_xyz
x,y,z
-x,y,-z
-x,-y,-z
x,-y,z
1/2+x,1/2+y,z
1/2-x,1/2+y,-z
1/2-x,1/2-y,-z
1/2+x,1/2-y,z
loop_
_atom_site_type_symbol
_atom_site_label
_atom_site_fract_x
_atom_site_fract_y
_atom_site_fract_z
Si Si1 0.282450 0.423939 0.023803
Si Si2 0.547712 0.113140 0.257431
Si Si3 0.837822 0.317044 0.449866
Si Si4 0.197966 0.926844 0.211783
Si Si5 0.671307 0.423791 0.610681
O O1 0.223101 0.500000 0.045662
O O2 0.180113 0.383892 0.132772
O O3 0.500000 0.422269 0.000000
O O4 0.247621 0.399368 0.912170
O O5 0.439410 0.176716 0.319289
O O6 0.373931 0.071921 0.252205
O O7 0.670259 0.084768 0.329804
O O8 0.750000 0.250000 0.500000
O O9 0.713334 0.378856 0.502505
O O10 0.000000 0.324738 0.500000
O O11 0.018129 0.899302 0.301349
O O12 0.139232 0.000000 0.196523
O O13 0.659709 0.500000 0.585461
#
# Coordination Sequence:
#
# PCOD9175107 Si02
#       5
#     8   8   8   8   8
#     4  10  18  32  55  86 130 164 192 240 304 366
#     4  11  21  35  58  88 120 159 202 247 293 362
#     4  10  25  43  64  87 117 165 206 252 308 366
#     4  10  20  32  56  91 125 161 192 239 304 363
#     4  10  21  38  59  91 124 155 200 256 305 355
#
# _framework density 20.777182
#
# number of rings (size 3 to 8) (size 9 to 14) (size 15 to 20)
#    0.000    1.800    2.000    2.400    2.800    6.800 
#    0.000    2.000    0.000    1.200    5.200    0.000 
#    0.000    0.000    0.000    0.000    0.000    0.000 
#
# Total GULP energy -111439.825269 kJ/mol
# GULP energy per Si atom -5571.991263 kJ/mol
# Density = 2.072989 g / cm^3
# Si number density = 20.777182 Si / 1000 Ang^3
#
#
#
# Elastic Constant Matrix: (Units=GPa)
#
#
# Indices 1 2 3 4 5 6 
#
# 1 100.8085 13.9353 43.3906 0.0000 -11.4860 0.0000
# 2 13.9353 62.6853 49.5407 0.0000 -26.7034 0.0000
# 3 43.3906 49.5407 151.2415 0.0000 -34.5744 0.0000
# 4 0.0000 0.0000 0.0000 21.0151 0.0000 -13.5346
# 5 -11.4860 -26.7034 -34.5744 0.0000 37.9137 0.0000
# 6 0.0000 0.0000 0.0000 -13.5346 0.0000 17.7241
#
#
#
# Elastic Compliance Matrix: (Units=1/GPa)
#
#
# Indices 1 2 3 4 5 6 
#
# 1 0.011332 0.000317 -0.003183 0.000000 0.000754 0.000000
# 2 0.000317 0.025931 -0.005544 0.000000 0.013305 0.000000
# 3 -0.003183 -0.005544 0.010395 0.000000 0.004611 0.000000
# 4 0.000000 0.000000 0.000000 0.093636 0.000000 0.071503
# 5 0.000754 0.013305 0.004611 0.000000 0.040180 0.000000
# 6 0.000000 0.000000 0.000000 0.071503 0.000000 0.111022
#
#
# Mechanical properties :
#
#
# Convention : Reuss Voigt Hill
#
# Bulk Modulus (GPa) = 32.42529 58.71873 45.57201
# Shear Modulus (GPa) = 15.64494 29.18847 22.41671
#
# Velocity S-wave (km/s) = 2.74704 3.75218 3.28824
# Velocity P-wave (km/s) = 5.06968 6.86253 6.03307
#
# Compressibility (1/GPa) = 0.03084013
#
# Stress axis : x y z
#
# Youngs Moduli (GPa) = 88.24780 38.56410 96.20117
#
# Poissons Ratio (x) = -0.01224 0.30617
# Poissons Ratio (y) = -0.02801 0.53329
# Poissons Ratio (z) = 0.28086 0.21378
#
# Static dielectric constant tensor:
#      x y z
#    x 1.796090 0.000000 -0.036990 
#    y 0.000000 1.536310 0.000000 
#    z -0.036990 0.000000 1.860340 
# 
# From -- ./inp_files/120076.got.cif
#   From: 2010.05.17/outbox.cif.g08.bks.cpg/sg12_61_cif.got.tgz:120076.got - 2010.06.03 13:09:07.
