data_PCOD9175419
_publ_section_title
;
Structure prediction by ZEFSAII (Michael W. Deem and Ramdas Pophale) SiO2 
 PCOD9175419
Probable space group: C 2/M
;
_chemical_formula_sum "Si O2"
_cell_formula_units_Z 58
_cell_length_a 15.464465
_cell_length_b 32.885921
_cell_length_c 5.442375
_cell_angle_alpha 90.000000
_cell_angle_beta 121.495486
_cell_angle_gamma 90.000000
_cell_volume 2360.044132
_symmetry_space_group_name_H-M "C 2/M"
_symmetry_group_IT_number 12
_symmetry_cell_setting 'monoclinic'
loop_
_space_group_symop_operation_xyz
x,y,z
-x,y,-z
-x,-y,-z
x,-y,z
1/2+x,1/2+y,z
1/2-x,1/2+y,-z
1/2-x,1/2-y,-z
1/2+x,1/2-y,z
loop_
_atom_site_type_symbol
_atom_site_label
_atom_site_fract_x
_atom_site_fract_y
_atom_site_fract_z
Si Si1 0.348121 0.872999 0.879935
Si Si2 0.566608 0.545385 0.847584
Si Si3 0.369862 0.840589 0.416961
Si Si4 0.113873 0.543315 0.280445
Si Si5 0.139912 0.871213 0.074484
Si Si6 0.817916 0.250655 0.351221
Si Si7 0.500000 0.000000 0.500000
Si Si8 0.120491 0.838000 0.550739
O O1 0.406648 0.854878 0.735056
O O2 0.329456 0.918914 0.754252
O O3 0.241756 0.849211 0.749608
O O4 0.400246 0.865273 0.219259
O O5 0.500000 0.552235 0.500000
O O6 0.389363 0.500000 0.107618
O O7 0.500000 0.546112 0.000000
O O8 0.645313 0.581787 0.004020
O O9 0.249344 0.850537 0.256544
O O10 0.380016 0.792329 0.418321
O O11 0.160329 0.500000 0.266608
O O12 0.081609 0.535232 0.515820
O O13 0.000000 0.544707 0.000000
O O14 0.092944 0.864201 0.271283
O O15 0.083375 0.849595 0.765893
O O16 0.750000 0.250000 0.500000
O O17 0.884995 0.210291 0.480557
O O18 0.750000 0.250000 0.000000
#
# Coordination Sequence:
#
# PCOD9175419 Si02
#       8
#     8   8   8   8   8   8   2   8
#     4  10  19  31  49  74 108 130 170 220 256 314
#     4  10  21  37  56  76  98 138 185 225 261 310
#     4  10  20  31  49  82 107 136 164 206 269 314
#     4   9  20  34  52  72  94 135 183 226 260 302
#     4  10  18  33  50  76 109 129 170 216 260 313
#     4  12  16  31  50  77 112 136 172 200 246 323
#     4   8  18  36  52  74  88 136 190 224 266 302
#     4  10  19  31  50  82 106 139 162 209 265 318
#
# _framework density 24.575813
#
# number of rings (size 3 to 8) (size 9 to 14) (size 15 to 20)
#    0.414    1.517    5.517    0.828    1.931    0.000 
#    0.000    5.517    0.000    0.000    0.000   16.414 
#    0.000    0.000    0.000    0.000    0.000    0.000 
#
# Total GULP energy -161481.393174 kJ/mol
# GULP energy per Si atom -5568.323903 kJ/mol
# Density = 2.451988 g / cm^3
# Si number density = 24.575813 Si / 1000 Ang^3
#
#
#
# Elastic Constant Matrix: (Units=GPa)
#
#
# Indices 1 2 3 4 5 6 
#
# 1 77.2666 3.9358 21.2569 0.0000 -29.7017 0.0000
# 2 3.9358 209.0049 21.2389 0.0000 -15.3972 0.0000
# 3 21.2569 21.2389 177.9927 0.0000 -36.9114 0.0000
# 4 0.0000 0.0000 0.0000 11.9098 0.0000 -87.1370
# 5 -29.7017 -15.3972 -36.9114 0.0000 48.2251 0.0000
# 6 0.0000 0.0000 0.0000 -87.1370 0.0000 -160.1980
#
#
#
# Elastic Compliance Matrix: (Units=1/GPa)
#
#
# Indices 1 2 3 4 5 6 
#
# 1 0.017003 0.000456 0.000139 0.000000 0.010724 0.000000
# 2 0.000456 0.004926 -0.000307 0.000000 0.001619 0.000000
# 3 0.000139 -0.000307 0.006699 0.000000 0.005115 0.000000
# 4 0.000000 0.000000 0.000000 0.016862 0.000000 -0.009172
# 5 0.010724 0.001619 0.005115 0.000000 0.031773 0.000000
# 6 0.000000 0.000000 0.000000 -0.009172 0.000000 -0.001254
#
#
# Mechanical properties :
#
#
# Convention : Reuss Voigt Hill
#
# Bulk Modulus (GPa) = 34.24106 61.90305 48.07205
# Shear Modulus (GPa) = 58.70743 7.84289 33.27516
#
# Velocity S-wave (km/s) = 4.89287 1.78836 3.68364
# Velocity P-wave (km/s) = 6.77372 5.43209 6.13966
#
# Compressibility (1/GPa) = 0.02920471
#
# Stress axis : x y z
#
# Youngs Moduli (GPa) = 58.81264 202.98747 149.27756
#
# Poissons Ratio (x) = -0.09251 -0.02074
# Poissons Ratio (y) = -0.02680 0.04576
# Poissons Ratio (z) = -0.00817 0.06222
#
# Static dielectric constant tensor:
#      x y z
#    x 1.838860 0.000000 -0.047970 
#    y 0.000000 1.962530 0.000000 
#    z -0.047970 0.000000 2.028850 
# 
# From -- ./inp_files/22350.got.cif
#   From: 2010.05.17/outbox.cif.g08.bks.cpg/sg12_12_cif.got.tgz:22350.got - 2010.06.03 13:09:07.
