data_PCOD9175765
_publ_section_title
;
Structure prediction by ZEFSAII (Michael W. Deem and Ramdas Pophale) SiO2 
 PCOD9175765
Probable space group: C 2/M
;
_chemical_formula_sum "Si O2"
_cell_formula_units_Z 58
_cell_length_a 28.997972
_cell_length_b 7.255508
_cell_length_c 12.171130
_cell_angle_alpha 90.000000
_cell_angle_beta 100.752278
_cell_angle_gamma 90.000000
_cell_volume 2515.786063
_symmetry_space_group_name_H-M "C 2/M"
_symmetry_group_IT_number 12
_symmetry_cell_setting 'monoclinic'
loop_
_space_group_symop_operation_xyz
x,y,z
-x,y,-z
-x,-y,-z
x,-y,z
1/2+x,1/2+y,z
1/2-x,1/2+y,-z
1/2-x,1/2-y,-z
1/2+x,1/2-y,z
loop_
_atom_site_type_symbol
_atom_site_label
_atom_site_fract_x
_atom_site_fract_y
_atom_site_fract_z
Si Si1 0.500000 0.000000 0.000000
Si Si2 0.051966 0.221920 0.858500
Si Si3 0.999821 0.776637 0.625414
Si Si4 0.767229 0.219539 0.885539
Si Si5 0.779823 0.291101 0.342610
Si Si6 0.084038 0.212106 0.259643
Si Si7 0.182142 0.277333 0.419227
Si Si8 0.126698 0.776726 0.059337
O O1 0.483387 0.838461 0.082148
O O2 0.043037 0.265614 0.726476
O O3 0.044941 0.000000 0.868902
O O4 0.102911 0.267110 0.932747
O O5 0.954480 0.711259 0.674519
O O6 0.000000 0.710282 0.500000
O O7 0.997284 0.000000 0.617479
O O8 0.730621 0.294759 0.779923
O O9 0.820458 0.289897 0.899222
O O10 0.769550 0.000000 0.866539
O O11 0.750000 0.250000 0.000000
O O12 0.796493 0.500000 0.333375
O O13 0.812576 0.211852 0.452544
O O14 0.727765 0.291823 0.374333
O O15 0.134466 0.218250 0.340981
O O16 0.093265 0.293553 0.142925
O O17 0.070184 0.000000 0.234950
O O18 0.184501 0.500000 0.419024
O O19 0.128257 0.000000 0.068311
#
# Coordination Sequence:
#
# PCOD9175765 Si02
#       8
#     2   8   8   8   8   8   8   8
#     4  12  22  36  62 102 124 152 218 242 308 374
#     4  10  21  40  62  88 127 163 196 257 307 356
#     4   9  19  38  63  86 114 156 201 237 297 364
#     4  10  20  37  56  79 110 149 191 234 292 351
#     4   9  18  35  54  71 107 146 176 221 277 337
#     4  10  18  33  57  82 108 146 187 231 285 342
#     4  10  19  31  52  82 107 137 182 226 276 327
#     4   9  18  36  61  82 109 152 197 237 294 356
#
# _framework density 23.054424999999998
#
# number of rings (size 3 to 8) (size 9 to 14) (size 15 to 20)
#    0.000    2.345    1.379    1.448    0.000    3.310 
#    8.690    0.345    0.000    0.000    0.000    0.000 
#    0.000    0.000    0.000    0.000    0.000    0.000 
#
# Total GULP energy -161654.597085 kJ/mol
# GULP energy per Si atom -5574.296451 kJ/mol
# Density = 2.300195 g / cm^3
# Si number density = 23.054425 Si / 1000 Ang^3
#
#
#
# Elastic Constant Matrix: (Units=GPa)
#
#
# Indices 1 2 3 4 5 6 
#
# 1 34.0238 -15.2949 18.7381 0.0000 6.6081 0.0000
# 2 -15.2949 124.5658 -1.5281 0.0000 -4.9077 0.0000
# 3 18.7381 -1.5281 196.2775 0.0000 8.8576 0.0000
# 4 0.0000 0.0000 0.0000 5.6840 0.0000 -7.5447
# 5 6.6081 -4.9077 8.8576 0.0000 36.9078 0.0000
# 6 0.0000 0.0000 0.0000 -7.5447 0.0000 -1.5292
#
#
#
# Elastic Compliance Matrix: (Units=1/GPa)
#
#
# Indices 1 2 3 4 5 6 
#
# 1 0.033721 0.003915 -0.002972 0.000000 -0.004804 0.000000
# 2 0.003915 0.008525 -0.000330 0.000000 0.000512 0.000000
# 3 -0.002972 -0.000330 0.005413 0.000000 -0.000811 0.000000
# 4 0.000000 0.000000 0.000000 0.023306 0.000000 -0.114985
# 5 -0.004804 0.000512 -0.000811 0.000000 0.028217 0.000000
# 6 0.000000 0.000000 0.000000 -0.114985 0.000000 -0.086627
#
#
# Mechanical properties :
#
#
# Convention : Reuss Voigt Hill
#
# Bulk Modulus (GPa) = 20.45722 39.85528 30.15625
# Shear Modulus (GPa) = 181.00644 31.74265 106.37455
#
# Velocity S-wave (km/s) = 8.87035 3.71463 6.80006
# Velocity P-wave (km/s) = 10.66787 5.97687 8.64657
#
# Compressibility (1/GPa) = 0.04888250
#
# Stress axis : x y z
#
# Youngs Moduli (GPa) = 29.65535 117.30658 184.75504
#
# Poissons Ratio (x) = -0.45922 0.54909
# Poissons Ratio (y) = -0.11609 0.06106
# Poissons Ratio (z) = 0.08814 0.03877
#
# Static dielectric constant tensor:
#      x y z
#    x 1.838690 0.000000 0.046550 
#    y 0.000000 1.907520 0.000000 
#    z 0.046550 0.000000 1.906090 
# 
# From -- ./inp_files/186747.got.cif
#   From: 2010.05.17/outbox.cif.g08.bks.cpg/sg12_94_cif.got.tgz:186747.got - 2010.06.03 13:09:07.
