data_PCOD9175452
_publ_section_title
;
Structure prediction by ZEFSAII (Michael W. Deem and Ramdas Pophale) SiO2 
 PCOD9175452
Probable space group: C 2/M
;
_chemical_formula_sum "Si O2"
_cell_formula_units_Z 40
_cell_length_a 20.804195
_cell_length_b 7.975879
_cell_length_c 14.540774
_cell_angle_alpha 90.000000
_cell_angle_beta 75.986560
_cell_angle_gamma 90.000000
_cell_volume 2340.969217
_symmetry_space_group_name_H-M "C 2/M"
_symmetry_group_IT_number 12
_symmetry_cell_setting 'monoclinic'
loop_
_space_group_symop_operation_xyz
x,y,z
-x,y,-z
-x,-y,-z
x,-y,z
1/2+x,1/2+y,z
1/2-x,1/2+y,-z
1/2-x,1/2-y,-z
1/2+x,1/2-y,z
loop_
_atom_site_type_symbol
_atom_site_label
_atom_site_fract_x
_atom_site_fract_y
_atom_site_fract_z
Si Si1 0.556290 0.305085 0.729789
Si Si2 0.898936 0.186480 0.747524
Si Si3 0.910015 0.500000 0.620021
Si Si4 0.571450 0.297938 0.936808
Si Si5 0.676222 0.805340 0.049909
Si Si6 0.069646 0.500000 0.595671
O O1 0.574423 0.500000 0.704552
O O2 0.475940 0.297012 0.751787
O O3 0.576168 0.260986 0.827090
O O4 0.583529 0.167805 0.649419
O O5 0.884918 0.333838 0.680302
O O6 0.854477 0.206711 0.853388
O O7 0.890714 0.000000 0.710975
O O8 0.897234 0.500000 0.515830
O O9 0.990013 0.500000 0.605798
O O10 0.574064 0.500000 0.945835
O O11 0.500000 0.241922 0.000000
O O12 0.629037 0.222639 0.978719
O O13 0.675641 0.000000 0.075597
O O14 0.750000 0.750000 0.000000
#
# Coordination Sequence:
#
# PCOD9175452 Si02
#       6
#     8   8   4   8   8   4
#     4   9  18  30  50  77 108 142 176 221 269 319
#     4  10  18  33  52  74 106 143 180 218 267 324
#     4   9  18  32  47  76 103 144 177 225 276 318
#     4  10  19  33  53  78 109 147 182 218 269 329
#     4  12  24  36  52  78 114 146 185 224 268 325
#     4   9  18  30  48  73 112 133 182 229 268 320
#
# _framework density 17.086939999999998
#
# number of rings (size 3 to 8) (size 9 to 14) (size 15 to 20)
#    0.000    2.000    3.000    1.800    1.400    1.200 
#    0.000    4.000    0.000    0.000    0.000    1.400 
#    0.000    0.000    0.000    0.000    0.000    0.000 
#
# Total GULP energy -111586.198786 kJ/mol
# GULP energy per Si atom -5579.309939 kJ/mol
# Density = 1.704805 g / cm^3
# Si number density = 17.086940 Si / 1000 Ang^3
#
#
#
# Elastic Constant Matrix: (Units=GPa)
#
#
# Indices 1 2 3 4 5 6 
#
# 1 60.1111 25.8622 29.7677 0.0000 3.0436 0.0000
# 2 25.8622 113.0984 73.9758 0.0000 6.9897 0.0000
# 3 29.7677 73.9758 127.3647 0.0000 11.5480 0.0000
# 4 0.0000 0.0000 0.0000 19.0525 0.0000 0.3244
# 5 3.0436 6.9897 11.5480 0.0000 10.5566 0.0000
# 6 0.0000 0.0000 0.0000 0.3244 0.0000 18.0152
#
#
#
# Elastic Compliance Matrix: (Units=1/GPa)
#
#
# Indices 1 2 3 4 5 6 
#
# 1 0.019195 -0.002344 -0.003068 0.000000 -0.000626 0.000000
# 2 -0.002344 0.014547 -0.007870 0.000000 -0.000347 0.000000
# 3 -0.003068 -0.007870 0.013973 0.000000 -0.009190 0.000000
# 4 0.000000 0.000000 0.000000 0.052503 0.000000 -0.000945
# 5 -0.000626 -0.000347 -0.009190 0.000000 0.105190 0.000000
# 6 0.000000 0.000000 0.000000 -0.000945 0.000000 0.055526
#
#
# Mechanical properties :
#
#
# Convention : Reuss Voigt Hill
#
# Bulk Modulus (GPa) = 47.27869 62.19838 54.73853
# Shear Modulus (GPa) = 16.97518 20.92277 18.94898
#
# Velocity S-wave (km/s) = 3.15534 3.50307 3.33374
# Velocity P-wave (km/s) = 6.40347 7.26926 6.85006
#
# Compressibility (1/GPa) = 0.02115118
#
# Stress axis : x y z
#
# Youngs Moduli (GPa) = 52.09583 68.74392 71.56813
#
# Poissons Ratio (x) = 0.16112 0.21959
# Poissons Ratio (y) = 0.12210 0.56322
# Poissons Ratio (z) = 0.15984 0.54100
#
# Static dielectric constant tensor:
#      x y z
#    x 1.547780 0.000000 -0.004740 
#    y 0.000000 1.603740 0.000000 
#    z -0.004740 0.000000 1.586030 
# 
# From -- ./inp_files/162449.got.cif
#   From: 2010.05.17/outbox.cif.g08.bks.cpg/sg12_82_cif.got.tgz:162449.got - 2010.06.03 13:09:07.
