data_PCOD9175057
_publ_section_title
;
Structure prediction by ZEFSAII (Michael W. Deem and Ramdas Pophale) SiO2 
 PCOD9175057
Probable space group: C 2/M
;
_chemical_formula_sum "Si O2"
_cell_formula_units_Z 34
_cell_length_a 24.391280
_cell_length_b 15.097578
_cell_length_c 12.189826
_cell_angle_alpha 90.000000
_cell_angle_beta 163.976178
_cell_angle_gamma 90.000000
_cell_volume 1239.100910
_symmetry_space_group_name_H-M "C 2/M"
_symmetry_group_IT_number 12
_symmetry_cell_setting 'monoclinic'
loop_
_space_group_symop_operation_xyz
x,y,z
-x,y,-z
-x,-y,-z
x,-y,z
1/2+x,1/2+y,z
1/2-x,1/2+y,-z
1/2-x,1/2-y,-z
1/2+x,1/2-y,z
loop_
_atom_site_type_symbol
_atom_site_label
_atom_site_fract_x
_atom_site_fract_y
_atom_site_fract_z
Si Si1 0.969707 0.365699 0.611557
Si Si2 0.500000 0.000000 0.500000
Si Si3 0.473894 0.658221 0.320759
Si Si4 0.857010 0.147259 0.576336
Si Si5 0.304674 0.139691 0.513782
O O1 0.952323 0.394856 0.704534
O O2 0.082445 0.424847 0.743366
O O3 0.030247 0.264247 0.708945
O O4 0.739760 0.377464 0.127900
O O5 0.500000 0.642720 0.500000
O O6 0.635612 0.628225 0.539636
O O7 0.704775 0.113661 0.376604
O O8 0.837149 0.253861 0.558531
O O9 0.078991 0.121688 0.040948
#
# Coordination Sequence:
#
# PCOD9175057 Si02
#       5
#     8   2   8   8   8
#     4  10  21  34  55  76 109 137 179 212 266 304
#     4  12  24  36  50  78 110 146 168 216 268 324
#     4  10  18  32  55  81 105 136 174 221 254 310
#     4   8  14  24  45  73 102 121 164 210 258 284
#     4   8  14  27  44  71  99 128 161 211 251 301
#
# _framework density 27.439253000000001
#
# number of rings (size 3 to 8) (size 9 to 14) (size 15 to 20)
#    0.000    2.824    1.176    0.706    0.000    0.000 
#    0.000    0.588    0.000   11.294    0.000    1.647 
#    0.000    0.000    0.000    0.000    0.000    0.000 
#
# Total GULP energy -94727.807311 kJ/mol
# GULP energy per Si atom -5572.223959 kJ/mol
# Density = 2.737680 g / cm^3
# Si number density = 27.439253 Si / 1000 Ang^3
#
#
#
# Elastic Constant Matrix: (Units=GPa)
#
#
# Indices 1 2 3 4 5 6 
#
# 1 349.0047 37.2826 72.3920 0.0000 -28.1326 0.0000
# 2 37.2826 29.3731 7.6773 0.0000 4.8663 0.0000
# 3 72.3920 7.6773 83.7595 0.0000 -2.3849 0.0000
# 4 0.0000 0.0000 0.0000 43.5468 0.0000 -45.6366
# 5 -28.1326 4.8663 -2.3849 0.0000 74.8333 0.0000
# 6 0.0000 0.0000 0.0000 -45.6366 0.0000 -57.2473
#
#
#
# Elastic Compliance Matrix: (Units=1/GPa)
#
#
# Indices 1 2 3 4 5 6 
#
# 1 0.004163 -0.004765 -0.003110 0.000000 0.001776 0.000000
# 2 -0.004765 0.040760 0.000256 0.000000 -0.004434 0.000000
# 3 -0.003110 0.000256 0.014583 0.000000 -0.000721 0.000000
# 4 0.000000 0.000000 0.000000 0.012511 0.000000 -0.009974
# 5 0.001776 -0.004434 -0.000721 0.000000 0.014296 0.000000
# 6 0.000000 0.000000 0.000000 -0.009974 0.000000 -0.009517
#
#
# Mechanical properties :
#
#
# Convention : Reuss Voigt Hill
#
# Bulk Modulus (GPa) = 22.59003 77.42680 50.00842
# Shear Modulus (GPa) = 46.82075 35.21226 41.01651
#
# Velocity S-wave (km/s) = 4.13527 3.58618 3.87047
# Velocity P-wave (km/s) = 5.57236 6.73991 6.18375
#
# Compressibility (1/GPa) = 0.04426732
#
# Stress axis : x y z
#
# Youngs Moduli (GPa) = 240.23628 24.53381 68.57201
#
# Poissons Ratio (x) = 0.11690 0.21328
# Poissons Ratio (y) = 1.14464 -0.01754
# Poissons Ratio (z) = 0.74722 -0.00627
#
# Static dielectric constant tensor:
#      x y z
#    x 2.228970 0.000000 -0.058600 
#    y 0.000000 2.133130 0.000000 
#    z -0.058600 0.000000 2.400450 
# 
# From -- ./inp_files/177665.got.cif
#   From: 2010.05.17/outbox.cif.g08.bks.cpg/sg12_89_cif.got.tgz:177665.got - 2010.06.03 13:09:07.
