data_PCOD9175556
_publ_section_title
;
Structure prediction by ZEFSAII (Michael W. Deem and Ramdas Pophale) SiO2 
 PCOD9175556
Probable space group: C 2/M
;
_chemical_formula_sum "Si O2"
_cell_formula_units_Z 32
_cell_length_a 13.784691
_cell_length_b 11.360095
_cell_length_c 9.699593
_cell_angle_alpha 90.000000
_cell_angle_beta 115.064028
_cell_angle_gamma 90.000000
_cell_volume 1375.883242
_symmetry_space_group_name_H-M "C 2/M"
_symmetry_group_IT_number 12
_symmetry_cell_setting 'monoclinic'
loop_
_space_group_symop_operation_xyz
x,y,z
-x,y,-z
-x,-y,-z
x,-y,z
1/2+x,1/2+y,z
1/2-x,1/2+y,-z
1/2-x,1/2-y,-z
1/2+x,1/2-y,z
loop_
_atom_site_type_symbol
_atom_site_label
_atom_site_fract_x
_atom_site_fract_y
_atom_site_fract_z
Si Si1 0.398436 0.628860 0.111837
Si Si2 0.082964 0.263769 0.321248
Si Si3 0.087409 0.625350 0.932181
Si Si4 0.309399 0.364693 0.369110
O O1 0.381215 0.500000 0.041286
O O2 0.525891 0.655853 0.205573
O O3 0.357501 0.748313 0.015381
O O4 0.350768 0.632837 0.237904
O O5 0.985376 0.356962 0.248933
O O6 0.188651 0.317693 0.315548
O O7 0.117112 0.216787 0.490260
O O8 0.146134 0.500000 0.966176
O O9 0.000000 0.619063 0.000000
O O10 0.313394 0.500000 0.421610
#
# Coordination Sequence:
#
# PCOD9175556 Si02
#       4
#     8   8   8   8
#     4   9  19  34  55  80 105 137 175 216 259 309
#     4   9  19  31  54  78 104 140 174 208 255 311
#     4   9  19  36  54  73 104 143 176 213 262 309
#     4  10  18  33  54  80 110 139 170 210 267 318
#
# _framework density 23.257788000000001
#
# number of rings (size 3 to 8) (size 9 to 14) (size 15 to 20)
#    1.500    1.250    0.000    2.250    0.000    2.500 
#    0.000   10.000    0.000    0.000    0.000    0.000 
#    0.000    0.000    0.000    0.000    0.000    0.000 
#
# Total GULP energy -89098.172658 kJ/mol
# GULP energy per Si atom -5568.635791 kJ/mol
# Density = 2.320485 g / cm^3
# Si number density = 23.257788 Si / 1000 Ang^3
#
#
#
# Elastic Constant Matrix: (Units=GPa)
#
#
# Indices 1 2 3 4 5 6 
#
# 1 54.2095 23.9876 -7.8269 0.0000 -3.0671 0.0000
# 2 23.9876 214.3312 19.5213 0.0000 -21.7487 0.0000
# 3 -7.8269 19.5213 53.8996 0.0000 -0.7762 0.0000
# 4 0.0000 0.0000 0.0000 13.2364 0.0000 -14.3355
# 5 -3.0671 -21.7487 -0.7762 0.0000 28.2565 0.0000
# 6 0.0000 0.0000 0.0000 -14.3355 0.0000 3.6808
#
#
#
# Elastic Compliance Matrix: (Units=1/GPa)
#
#
# Indices 1 2 3 4 5 6 
#
# 1 0.020163 -0.002577 0.003866 0.000000 0.000311 0.000000
# 2 -0.002577 0.005567 -0.002334 0.000000 0.003941 0.000000
# 3 0.003866 -0.002334 0.019948 0.000000 -0.000829 0.000000
# 4 0.000000 0.000000 0.000000 -0.023476 0.000000 -0.091433
# 5 0.000311 0.003941 -0.000829 0.000000 0.038434 0.000000
# 6 0.000000 0.000000 0.000000 -0.091433 0.000000 -0.084423
#
#
# Mechanical properties :
#
#
# Convention : Reuss Voigt Hill
#
# Bulk Modulus (GPa) = 22.94240 43.75602 33.34921
# Shear Modulus (GPa) = -697.49169 28.15195 -334.66987
#
# Velocity S-wave (km/s) = -17.33629 3.48290 -12.00867
# Velocity P-wave (km/s) = 19.76976 5.91848 13.33820
#
# Compressibility (1/GPa) = 0.04358741
#
# Stress axis : x y z
#
# Youngs Moduli (GPa) = 49.59555 179.64572 50.13135
#
# Poissons Ratio (x) = 0.46297 -0.19380
# Poissons Ratio (y) = 0.12781 0.11698
# Poissons Ratio (z) = -0.19173 0.41921
#
# Static dielectric constant tensor:
#      x y z
#    x 1.879080 0.000000 0.011460 
#    y 0.000000 1.926030 0.000000 
#    z 0.011460 0.000000 1.868610 
# 
# From -- ./inp_files/56994.got.cif
#   From: 2010.05.17/outbox.cif.g08.bks.cpg/sg12_29_cif.got.tgz:56994.got - 2010.06.03 13:09:07.
