data_PCOD9175017
_publ_section_title
;
Structure prediction by ZEFSAII (Michael W. Deem and Ramdas Pophale) SiO2 
 PCOD9175017
Probable space group: C 2/M
;
_chemical_formula_sum "Si O2"
_cell_formula_units_Z 40
_cell_length_a 13.708069
_cell_length_b 18.635245
_cell_length_c 12.930014
_cell_angle_alpha 90.000000
_cell_angle_beta 135.858107
_cell_angle_gamma 90.000000
_cell_volume 2300.343256
_symmetry_space_group_name_H-M "C 2/M"
_symmetry_group_IT_number 12
_symmetry_cell_setting 'monoclinic'
loop_
_space_group_symop_operation_xyz
x,y,z
-x,y,-z
-x,-y,-z
x,-y,z
1/2+x,1/2+y,z
1/2-x,1/2+y,-z
1/2-x,1/2-y,-z
1/2+x,1/2-y,z
loop_
_atom_site_type_symbol
_atom_site_label
_atom_site_fract_x
_atom_site_fract_y
_atom_site_fract_z
Si Si1 0.667522 0.171877 0.122925
Si Si2 0.168749 0.163028 0.144571
Si Si3 0.793945 0.916823 0.032153
Si Si4 0.130242 0.083470 0.319717
Si Si5 0.842457 0.914355 0.420926
O O1 0.713701 0.254961 0.163252
O O2 0.718708 0.133268 0.057829
O O3 0.735039 0.129137 0.269453
O O4 0.500000 0.169955 0.000000
O O5 0.193904 0.132547 0.278229
O O6 0.229682 0.112444 0.101330
O O7 0.000000 0.161142 0.000000
O O8 0.960941 0.912871 0.181707
O O9 0.752178 0.000000 0.010970
O O10 0.168289 0.103285 0.465855
O O11 0.168232 0.000000 0.330853
O O12 0.000000 0.899722 0.500000
O O13 0.820099 0.000000 0.391912
#
# Coordination Sequence:
#
# PCOD9175017 Si02
#       5
#     8   8   8   8   8
#     4  11  22  34  51  80 111 141 167 210 265 319
#     4   9  19  33  51  78 109 137 171 216 263 309
#     4  10  18  32  55  78 103 137 178 218 256 303
#     4   9  17  32  56  80 101 132 179 224 257 297
#     4  10  19  34  55  79 104 136 177 218 255 299
#
# _framework density 17.388708000000001
#
# number of rings (size 3 to 8) (size 9 to 14) (size 15 to 20)
#    0.000    2.200    2.000    1.800    0.000    4.800 
#    0.000    0.000    0.000    0.000    0.000    4.200 
#    0.000    0.000    0.000    0.000    0.000    0.000 
#
# Total GULP energy -111577.145209 kJ/mol
# GULP energy per Si atom -5578.857260 kJ/mol
# Density = 1.734913 g / cm^3
# Si number density = 17.388708 Si / 1000 Ang^3
#
#
#
# Elastic Constant Matrix: (Units=GPa)
#
#
# Indices 1 2 3 4 5 6 
#
# 1 72.2075 64.9099 31.6489 0.0000 -36.3799 0.0000
# 2 64.9099 102.7525 34.5437 0.0000 -27.2565 0.0000
# 3 31.6489 34.5437 73.7073 0.0000 -24.4491 0.0000
# 4 0.0000 0.0000 0.0000 1.3635 0.0000 0.2241
# 5 -36.3799 -27.2565 -24.4491 0.0000 34.5154 0.0000
# 6 0.0000 0.0000 0.0000 0.2241 0.0000 26.7378
#
#
#
# Elastic Compliance Matrix: (Units=1/GPa)
#
#
# Indices 1 2 3 4 5 6 
#
# 1 0.056398 -0.025300 0.000956 0.000000 0.040142 0.000000
# 2 -0.025300 0.024318 -0.003933 0.000000 -0.010249 0.000000
# 3 0.000956 -0.003933 0.018697 0.000000 0.011146 0.000000
# 4 0.000000 0.000000 0.000000 0.734398 0.000000 -0.006154
# 5 0.040142 -0.010249 0.011146 0.000000 0.071085 0.000000
# 6 0.000000 0.000000 0.000000 -0.006154 0.000000 0.037452
#
#
# Mechanical properties :
#
#
# Convention : Reuss Voigt Hill
#
# Bulk Modulus (GPa) = 23.33248 56.76357 40.04803
# Shear Modulus (GPa) = 4.93492 20.36102 12.64797
#
# Velocity S-wave (km/s) = 1.68647 3.42560 2.69990
# Velocity P-wave (km/s) = 4.15205 6.95422 5.72716
#
# Compressibility (1/GPa) = 0.04285870
#
# Stress axis : x y z
#
# Youngs Moduli (GPa) = 17.73124 41.12171 53.48429
#
# Poissons Ratio (x) = 1.04039 -0.05114
# Poissons Ratio (y) = 0.44860 0.21036
# Poissons Ratio (z) = -0.01696 0.16173
#
# Static dielectric constant tensor:
#      x y z
#    x 1.580120 0.000000 -0.010360 
#    y 0.000000 1.583500 0.000000 
#    z -0.010360 0.000000 1.575050 
# 
# From -- ./inp_files/46940.got.cif
#   From: 2010.05.17/outbox.cif.g08.bks.cpg/sg12_24_cif.got.tgz:46940.got - 2010.06.03 13:09:07.
