data_PCOD9175341
_publ_section_title
;
Structure prediction by ZEFSAII (Michael W. Deem and Ramdas Pophale) SiO2 
 PCOD9175341
Probable space group: C 2/M
;
_chemical_formula_sum "Si O2"
_cell_formula_units_Z 50
_cell_length_a 9.791918
_cell_length_b 25.140067
_cell_length_c 20.029782
_cell_angle_alpha 90.000000
_cell_angle_beta 146.962326
_cell_angle_gamma 90.000000
_cell_volume 2688.181571
_symmetry_space_group_name_H-M "C 2/M"
_symmetry_group_IT_number 12
_symmetry_cell_setting 'monoclinic'
loop_
_space_group_symop_operation_xyz
x,y,z
-x,y,-z
-x,-y,-z
x,-y,z
1/2+x,1/2+y,z
1/2-x,1/2+y,-z
1/2-x,1/2-y,-z
1/2+x,1/2-y,z
loop_
_atom_site_type_symbol
_atom_site_label
_atom_site_fract_x
_atom_site_fract_y
_atom_site_fract_z
Si Si1 0.692697 0.291697 0.636399
Si Si2 0.680540 0.739917 0.777384
Si Si3 0.232396 0.585182 0.302302
Si Si4 0.570844 0.130451 0.101075
Si Si5 0.968440 0.163502 0.066768
Si Si6 0.500000 0.500000 0.500000
Si Si7 0.307138 0.557842 0.858603
O O1 0.500000 0.277232 0.500000
O O2 0.593435 0.272218 0.666823
O O3 0.724251 0.355002 0.654655
O O4 0.963859 0.267267 0.731143
O O5 0.910571 0.781013 0.862732
O O6 0.763503 0.683508 0.842176
O O7 0.437635 0.546402 0.417594
O O8 0.197121 0.591762 0.207609
O O9 0.969000 0.564770 0.224664
O O10 0.500000 0.106841 0.000000
O O11 0.316886 0.153009 0.030845
O O12 0.120185 0.110721 0.152266
O O13 0.000000 0.164738 0.000000
O O14 0.323156 0.500000 0.830862
O O15 0.500000 0.556084 0.000000
#
# Coordination Sequence:
#
# PCOD9175341 Si02
#       7
#     8   8   8   8   8   2   8
#     4  11  22  37  54  84 116 161 203 244 282 346
#     4  11  21  34  56  83 123 159 194 238 297 358
#     4  11  21  38  61  88 117 151 206 250 289 343
#     4  11  22  36  55  91 131 153 181 239 317 373
#     4  11  18  34  58  88 116 154 195 241 292 364
#     4  12  24  40  68  84 114 160 216 254 284 324
#     4  10  18  32  59  86 113 134 197 259 298 332
#
# _framework density 18.599934999999999
#
# number of rings (size 3 to 8) (size 9 to 14) (size 15 to 20)
#    0.000    1.120    6.400    3.360    0.000    0.000 
#    0.000    0.400    0.000    0.000    0.000    1.120 
#    0.000    0.000    0.000    0.000    0.000    0.000 
#
# Total GULP energy -139186.569284 kJ/mol
# GULP energy per Si atom -5567.462771 kJ/mol
# Density = 1.855760 g / cm^3
# Si number density = 18.599935 Si / 1000 Ang^3
#
#
#
# Elastic Constant Matrix: (Units=GPa)
#
#
# Indices 1 2 3 4 5 6 
#
# 1 50.2146 7.5415 15.2301 0.0008 -8.6576 0.0003
# 2 7.5415 106.9961 20.9700 0.0009 -15.1672 -0.0002
# 3 15.2301 20.9700 63.8411 0.0011 -26.8029 0.0015
# 4 0.0008 0.0009 0.0011 13.7635 0.0014 5.6051
# 5 -8.6576 -15.1672 -26.8029 0.0014 26.1161 0.0003
# 6 0.0003 -0.0002 0.0015 5.6051 0.0003 5.2808
#
#
#
# Elastic Compliance Matrix: (Units=1/GPa)
#
#
# Indices 1 2 3 4 5 6 
#
# 1 0.021640 -0.000349 -0.003727 -0.000002 0.003146 0.000002
# 2 -0.000349 0.010274 -0.001467 -0.000002 0.004345 0.000003
# 3 -0.003727 -0.001467 0.028392 -0.000001 0.027051 -0.000008
# 4 -0.000002 -0.000002 -0.000001 0.127973 -0.000008 -0.135832
# 5 0.003146 0.004345 0.027051 -0.000008 0.069619 -0.000003
# 6 0.000002 0.000003 -0.000008 -0.135832 -0.000003 0.333538
#
#
# Mechanical properties :
#
#
# Convention : Reuss Voigt Hill
#
# Bulk Modulus (GPa) = 20.31704 34.28166 27.29935
# Shear Modulus (GPa) = 8.07847 20.85275 14.46561
#
# Velocity S-wave (km/s) = 2.08631 3.35195 2.79180
# Velocity P-wave (km/s) = 4.09274 5.78375 5.01010
#
# Compressibility (1/GPa) = 0.04921976
#
# Stress axis : x y z
#
# Youngs Moduli (GPa) = 46.21126 97.33053 35.22125
#
# Poissons Ratio (x) = 0.03395 0.13127
# Poissons Ratio (y) = 0.01612 0.05168
# Poissons Ratio (z) = 0.17223 0.14280
#
# Static dielectric constant tensor:
#      x y z
#    x 1.625620 0.000000 -0.003040 
#    y 0.000000 1.677890 0.000000 
#    z -0.003040 0.000000 1.687800 
# 
# From -- ./inp_files/124178.got.cif
#   From: 2010.05.17/outbox.cif.g08.bks.cpg/sg12_63_cif.got.tgz:124178.got - 2010.06.03 13:09:07.
