data_PCOD9175335
_publ_section_title
;
Structure prediction by ZEFSAII (Michael W. Deem and Ramdas Pophale) SiO2 
 PCOD9175335
Probable space group: C 2/M
;
_chemical_formula_sum "Si O2"
_cell_formula_units_Z 64
_cell_length_a 12.329153
_cell_length_b 13.317486
_cell_length_c 22.773878
_cell_angle_alpha 90.000000
_cell_angle_beta 62.132896
_cell_angle_gamma 90.000000
_cell_volume 3305.685398
_symmetry_space_group_name_H-M "C 2/M"
_symmetry_group_IT_number 12
_symmetry_cell_setting 'monoclinic'
loop_
_space_group_symop_operation_xyz
x,y,z
-x,y,-z
-x,-y,-z
x,-y,z
1/2+x,1/2+y,z
1/2-x,1/2+y,-z
1/2-x,1/2-y,-z
1/2+x,1/2-y,z
loop_
_atom_site_type_symbol
_atom_site_label
_atom_site_fract_x
_atom_site_fract_y
_atom_site_fract_z
Si Si1 0.547814 0.744340 0.088277
Si Si2 0.960561 0.175673 0.348743
Si Si3 0.683253 0.113043 0.442670
Si Si4 0.245549 0.113757 0.983701
Si Si5 0.059034 0.882806 0.197291
Si Si6 0.337705 0.112882 0.095295
Si Si7 0.396610 0.671650 0.573914
Si Si8 0.633457 0.111859 0.594305
O O1 0.616074 0.668661 0.026055
O O2 0.510820 0.683119 0.155328
O O3 0.437230 0.805988 0.088415
O O4 0.658138 0.821358 0.077430
O O5 0.828851 0.126868 0.397046
O O6 0.942712 0.295455 0.361071
O O7 0.002213 0.147827 0.273406
O O8 0.056817 0.142508 0.373837
O O9 0.622698 0.207173 0.425162
O O10 0.652315 0.125025 0.519448
O O11 0.646266 0.000000 0.433982
O O12 0.305610 0.114112 0.034146
O O13 0.232167 0.000000 0.967336
O O14 0.207065 0.871376 0.159854
O O15 0.034958 0.000000 0.191490
O O16 0.383792 0.000000 0.097189
O O17 0.500000 0.645265 0.500000
O O18 0.268686 0.622929 0.588051
O O19 0.584915 0.000000 0.617564
#
# Coordination Sequence:
#
# PCOD9175335 Si02
#       8
#     8   8   8   8   8   8   8   8
#     4  10  18  32  59  84 112 148 184 226 265 309
#     4  11  21  38  56  75 108 144 184 227 275 328
#     4  10  20  34  55  82 108 138 174 216 276 342
#     4   9  18  33  57  90 118 145 183 222 269 319
#     4  10  23  40  56  76 106 150 192 225 268 329
#     4   9  18  34  58  88 116 145 186 226 266 317
#     4  11  19  34  54  81 106 133 172 225 277 326
#     4  10  21  35  54  82 110 134 170 224 283 336
#
# _framework density 19.360582999999998
#
# number of rings (size 3 to 8) (size 9 to 14) (size 15 to 20)
#    0.000    2.000    2.500    3.000    0.000    5.000 
#    0.000    2.500    0.000   34.500    0.000    0.000 
#    0.000    0.000    0.000    0.000    0.000    0.000 
#
# Total GULP energy -178780.887150 kJ/mol
# GULP energy per Si atom -5586.902723 kJ/mol
# Density = 1.931652 g / cm^3
# Si number density = 19.360583 Si / 1000 Ang^3
#
#
#
# Elastic Constant Matrix: (Units=GPa)
#
#
# Indices 1 2 3 4 5 6 
#
# 1 66.2582 20.0475 16.1020 0.0000 7.9862 0.0000
# 2 20.0475 123.4834 32.0984 0.0000 -3.2783 0.0000
# 3 16.1020 32.0984 67.3814 0.0000 0.2970 0.0000
# 4 0.0000 0.0000 0.0000 23.9346 0.0000 2.0061
# 5 7.9862 -3.2783 0.2970 0.0000 12.1115 0.0000
# 6 0.0000 0.0000 0.0000 2.0061 0.0000 19.7260
#
#
#
# Elastic Compliance Matrix: (Units=1/GPa)
#
#
# Indices 1 2 3 4 5 6 
#
# 1 0.018101 -0.002467 -0.003095 0.000000 -0.012527 0.000000
# 2 -0.002467 0.009662 -0.004032 0.000000 0.004341 0.000000
# 3 -0.003095 -0.004032 0.017499 0.000000 0.000520 0.000000
# 4 0.000000 0.000000 0.000000 0.042140 0.000000 -0.004286
# 5 -0.012527 0.004341 0.000520 0.000000 0.091989 0.000000
# 6 0.000000 0.000000 0.000000 -0.004286 0.000000 0.051130
#
#
# Mechanical properties :
#
#
# Convention : Reuss Voigt Hill
#
# Bulk Modulus (GPa) = 38.35308 43.73544 41.04426
# Shear Modulus (GPa) = 19.34974 23.74609 21.54792
#
# Velocity S-wave (km/s) = 3.16482 3.50597 3.33975
# Velocity P-wave (km/s) = 5.76261 6.24724 6.00981
#
# Compressibility (1/GPa) = 0.02607352
#
# Stress axis : x y z
#
# Youngs Moduli (GPa) = 55.24569 103.49661 57.14543
#
# Poissons Ratio (x) = 0.25529 0.17688
# Poissons Ratio (y) = 0.13627 0.23044
# Poissons Ratio (z) = 0.17100 0.41734
#
# Static dielectric constant tensor:
#      x y z
#    x 1.685420 0.000000 -0.007160 
#    y 0.000000 1.722050 0.000000 
#    z -0.007160 0.000000 1.638170 
# 
# From -- ./inp_files/305429.got.cif
#   From: 2010.05.17/outbox.cif.g08.bks.cpg/sg12_153_cif.got.tgz:305429.got - 2010.06.03 13:09:07.
