data_PCOD9175598
_publ_section_title
;
Structure prediction by ZEFSAII (Michael W. Deem and Ramdas Pophale) SiO2 
 PCOD9175598
Probable space group: C 2/M
;
_chemical_formula_sum "Si O2"
_cell_formula_units_Z 56
_cell_length_a 15.054402
_cell_length_b 14.429107
_cell_length_c 12.351544
_cell_angle_alpha 90.000000
_cell_angle_beta 112.001662
_cell_angle_gamma 90.000000
_cell_volume 2487.625403
_symmetry_space_group_name_H-M "C 2/M"
_symmetry_group_IT_number 12
_symmetry_cell_setting 'monoclinic'
loop_
_space_group_symop_operation_xyz
x,y,z
-x,y,-z
-x,-y,-z
x,-y,z
1/2+x,1/2+y,z
1/2-x,1/2+y,-z
1/2-x,1/2-y,-z
1/2+x,1/2-y,z
loop_
_atom_site_type_symbol
_atom_site_label
_atom_site_fract_x
_atom_site_fract_y
_atom_site_fract_z
Si Si1 0.163109 0.886415 0.496142
Si Si2 0.355003 0.401023 0.831491
Si Si3 0.654631 0.350199 0.948199
Si Si4 0.485986 0.394899 0.286149
Si Si5 0.568877 0.898098 0.200903
Si Si6 0.366666 0.864724 0.016333
Si Si7 0.282530 0.750175 0.668347
O O1 0.052954 0.864745 0.415236
O O2 0.201117 0.828259 0.615853
O O3 0.219550 0.830183 0.425642
O O4 0.174861 0.000000 0.502926
O O5 0.306704 0.500000 0.788587
O O6 0.439562 0.393381 0.781902
O O7 0.286766 0.312976 0.777511
O O8 0.392753 0.399285 0.970356
O O9 0.607018 0.352006 0.808987
O O10 0.644922 0.244634 0.978971
O O11 0.759500 0.395190 0.992595
O O12 0.459146 0.500000 0.299451
O O13 0.454118 0.891659 0.134757
O O14 0.620219 0.813349 0.286178
O O15 0.594883 0.000000 0.256719
O O16 0.605772 0.891298 0.093467
#
# Coordination Sequence:
#
# PCOD9175598 Si02
#       7
#     8   8   8   8   8   8   8
#     4   9  18  32  53  84 110 138 188 238 281 328
#     4  10  19  31  52  83 115 147 182 230 287 342
#     4  11  20  33  54  81 117 151 184 226 283 337
#     4   9  18  30  49  80 111 141 178 224 274 328
#     4  11  22  37  55  77 113 157 194 231 277 334
#     4  10  22  35  51  80 114 149 191 229 271 338
#     4  10  18  33  55  78 111 143 186 237 279 333
#
# _framework density 22.511429
#
# number of rings (size 3 to 8) (size 9 to 14) (size 15 to 20)
#    0.000    2.000    1.429    5.143    2.000    3.429 
#    0.000    0.000    0.000    0.857    3.714    6.000 
#    0.000   20.857    0.000    0.000    0.000    0.000 
#
# Total GULP energy -155928.678469 kJ/mol
# GULP energy per Si atom -5568.881374 kJ/mol
# Density = 2.246019 g / cm^3
# Si number density = 22.511429 Si / 1000 Ang^3
#
#
#
# Elastic Constant Matrix: (Units=GPa)
#
#
# Indices 1 2 3 4 5 6 
#
# 1 68.0185 19.1416 35.4435 0.0000 12.1649 0.0000
# 2 19.1416 178.6368 52.4106 0.0000 16.3861 0.0000
# 3 35.4435 52.4106 102.9621 0.0000 22.4397 0.0000
# 4 0.0000 0.0000 0.0000 14.7193 0.0000 97.0493
# 5 12.1649 16.3861 22.4397 0.0000 24.6412 0.0000
# 6 0.0000 0.0000 0.0000 97.0493 0.0000 -465.2429
#
#
#
# Elastic Compliance Matrix: (Units=1/GPa)
#
#
# Indices 1 2 3 4 5 6 
#
# 1 0.018242 0.000002 -0.005387 0.000000 -0.004101 0.000000
# 2 0.000002 0.006635 -0.003015 0.000000 -0.001668 0.000000
# 3 -0.005387 -0.003015 0.015077 0.000000 -0.009066 0.000000
# 4 0.000000 0.000000 0.000000 0.028601 0.000000 0.005966
# 5 -0.004101 -0.001668 -0.009066 0.000000 0.051973 0.000000
# 6 0.000000 0.000000 0.000000 0.005966 0.000000 -0.000905
#
#
# Mechanical properties :
#
#
# Convention : Reuss Voigt Hill
#
# Bulk Modulus (GPa) = 43.18663 62.62322 52.90492
# Shear Modulus (GPa) = 34.68851 -69.00171 -17.15660
#
# Velocity S-wave (km/s) = 3.92973 -5.54242 -2.76366
# Velocity P-wave (km/s) = 6.31001 3.61650 3.65631
#
# Compressibility (1/GPa) = 0.02315532
#
# Stress axis : x y z
#
# Youngs Moduli (GPa) = 54.81927 150.71090 66.32612
#
# Poissons Ratio (x) = -0.00029 0.35727
# Poissons Ratio (y) = -0.00011 0.19995
# Poissons Ratio (z) = 0.29529 0.45434
#
# Static dielectric constant tensor:
#      x y z
#    x 1.900170 0.000000 0.046890 
#    y 0.000000 1.885860 0.000000 
#    z 0.046890 0.000000 1.906810 
# 
# From -- ./inp_files/224883.got.cif
#   From: 2010.05.17/outbox.cif.g08.bks.cpg/sg12_113_cif.got.tgz:224883.got - 2010.06.03 13:09:07.
