data_PCOD9175352
_publ_section_title
;
Structure prediction by ZEFSAII (Michael W. Deem and Ramdas Pophale) SiO2 
 PCOD9175352
Probable space group: C 2/M
;
_chemical_formula_sum "Si O2"
_cell_formula_units_Z 58
_cell_length_a 18.683636
_cell_length_b 12.319980
_cell_length_c 19.954641
_cell_angle_alpha 90.000000
_cell_angle_beta 35.046144
_cell_angle_gamma 90.000000
_cell_volume 2637.580417
_symmetry_space_group_name_H-M "C 2/M"
_symmetry_group_IT_number 12
_symmetry_cell_setting 'monoclinic'
loop_
_space_group_symop_operation_xyz
x,y,z
-x,y,-z
-x,-y,-z
x,-y,z
1/2+x,1/2+y,z
1/2-x,1/2+y,-z
1/2-x,1/2-y,-z
1/2+x,1/2-y,z
loop_
_atom_site_type_symbol
_atom_site_label
_atom_site_fract_x
_atom_site_fract_y
_atom_site_fract_z
Si Si1 0.440482 0.286270 0.327309
Si Si2 0.861618 0.624699 0.876767
Si Si3 0.676111 0.783667 0.954261
Si Si4 0.033289 0.882047 0.897238
Si Si5 0.875497 0.837240 0.703759
Si Si6 0.000000 0.000000 0.500000
Si Si7 0.192150 0.623260 0.469848
Si Si8 0.331715 0.120986 0.665539
O O1 0.520048 0.202957 0.222365
O O2 0.533835 0.356148 0.302013
O O3 0.340947 0.353382 0.360756
O O4 0.368099 0.210850 0.435639
O O5 0.887221 0.500000 0.842376
O O6 0.762046 0.677774 0.902727
O O7 0.811125 0.639556 0.990899
O O8 0.734917 0.841734 0.843570
O O9 0.540037 0.729066 0.062129
O O10 0.181400 0.871012 0.780805
O O11 0.998786 0.000000 0.890420
O O12 0.000000 0.894270 0.000000
O O13 0.884413 0.713753 0.671619
O O14 0.924160 0.907464 0.603958
O O15 0.170214 0.500000 0.509235
O O16 0.140754 0.634520 0.434216
O O17 0.367599 0.000000 0.659862
#
# Coordination Sequence:
#
# PCOD9175352 Si02
#       8
#     8   8   8   8   8   2   8   8
#     4  10  22  40  62  91 121 163 211 260 315 378
#     4  10  21  37  60  89 124 160 205 256 315 374
#     4  10  21  37  60  92 125 162 202 261 309 383
#     4  10  18  32  59  91 125 158 195 247 318 381
#     4  11  24  42  64  91 128 170 220 259 318 389
#     4  12  28  44  62  86 124 180 224 262 312 380
#     4  10  21  38  62  89 123 158 207 261 319 369
#     4  10  21  38  65 100 130 162 203 271 328 382
#
# _framework density 21.989851999999999
#
# number of rings (size 3 to 8) (size 9 to 14) (size 15 to 20)
#    0.000    1.793    1.379    2.483    1.931    2.759 
#    0.000    3.793    9.103    1.241    0.000    0.000 
#    0.000    0.000    0.000    0.000    0.000    0.000 
#
# Total GULP energy -161522.310904 kJ/mol
# GULP energy per Si atom -5569.734859 kJ/mol
# Density = 2.193980 g / cm^3
# Si number density = 21.989852 Si / 1000 Ang^3
#
#
#
# Elastic Constant Matrix: (Units=GPa)
#
#
# Indices 1 2 3 4 5 6 
#
# 1 41.9988 14.8345 -1.8077 0.0000 2.1245 0.0000
# 2 14.8345 67.7827 20.3649 0.0000 10.4404 0.0000
# 3 -1.8077 20.3649 112.8385 0.0000 11.0176 0.0000
# 4 0.0000 0.0000 0.0000 36.0380 0.0000 -10.0171
# 5 2.1245 10.4404 11.0176 0.0000 33.2402 0.0000
# 6 0.0000 0.0000 0.0000 -10.0171 0.0000 7.9888
#
#
#
# Elastic Compliance Matrix: (Units=1/GPa)
#
#
# Indices 1 2 3 4 5 6 
#
# 1 0.026054 -0.006128 0.001548 0.000000 -0.000254 0.000000
# 2 -0.006128 0.017600 -0.002866 0.000000 -0.004186 0.000000
# 3 0.001548 -0.002866 0.009638 0.000000 -0.002393 0.000000
# 4 0.000000 0.000000 0.000000 0.042594 0.000000 0.053408
# 5 -0.000254 -0.004186 -0.002393 0.000000 0.032208 0.000000
# 6 0.000000 0.000000 0.000000 0.053408 0.000000 0.192143
#
#
# Mechanical properties :
#
#
# Convention : Reuss Voigt Hill
#
# Bulk Modulus (GPa) = 26.04133 32.15595 29.09864
# Shear Modulus (GPa) = 14.37074 28.06864 21.21969
#
# Velocity S-wave (km/s) = 2.55917 3.57660 3.10978
# Velocity P-wave (km/s) = 4.53879 5.63125 5.11427
#
# Compressibility (1/GPa) = 0.03840050
#
# Stress axis : x y z
#
# Youngs Moduli (GPa) = 38.38158 56.81810 103.75671
#
# Poissons Ratio (x) = 0.34819 -0.16063
# Poissons Ratio (y) = 0.23521 0.29735
# Poissons Ratio (z) = -0.05942 0.16283
#
# Static dielectric constant tensor:
#      x y z
#    x 1.830900 0.000000 -0.044780 
#    y 0.000000 1.791290 0.000000 
#    z -0.044780 0.000000 1.926860 
# 
# From -- ./inp_files/315957.got.cif
#   From: 2010.05.17/outbox.cif.g08.bks.cpg/sg12_158_cif.got.tgz:315957.got - 2010.06.03 13:09:07.
