data_PCOD9175018
_publ_section_title
;
Structure prediction by ZEFSAII (Michael W. Deem and Ramdas Pophale) SiO2 
 PCOD9175018
Probable space group: C 2/M
;
_chemical_formula_sum "Si O2"
_cell_formula_units_Z 64
_cell_length_a 15.030852
_cell_length_b 7.637849
_cell_length_c 26.841507
_cell_angle_alpha 90.000000
_cell_angle_beta 101.513230
_cell_angle_gamma 90.000000
_cell_volume 3019.491798
_symmetry_space_group_name_H-M "C 2/M"
_symmetry_group_IT_number 12
_symmetry_cell_setting 'monoclinic'
loop_
_space_group_symop_operation_xyz
x,y,z
-x,y,-z
-x,-y,-z
x,-y,z
1/2+x,1/2+y,z
1/2-x,1/2+y,-z
1/2-x,1/2-y,-z
1/2+x,1/2-y,z
loop_
_atom_site_type_symbol
_atom_site_label
_atom_site_fract_x
_atom_site_fract_y
_atom_site_fract_z
Si Si1 0.674038 0.795874 0.821370
Si Si2 0.651496 0.790365 0.011168
Si Si3 0.364135 0.211498 0.877251
Si Si4 0.587477 0.705938 0.357750
Si Si5 0.403966 0.296963 0.291725
Si Si6 0.064146 0.286407 0.902212
Si Si7 0.790351 0.702901 0.371238
Si Si8 0.025822 0.287134 0.558460
O O1 0.782008 0.775697 0.834572
O O2 0.626533 0.714167 0.768463
O O3 0.637740 0.725432 0.870346
O O4 0.650939 0.000000 0.817067
O O5 0.645688 0.723456 0.066722
O O6 0.638706 0.000000 0.013379
O O7 0.750000 0.750000 0.000000
O O8 0.582998 0.725576 0.960686
O O9 0.464778 0.263062 0.872455
O O10 0.359399 0.000000 0.877006
O O11 0.595573 0.500000 0.346161
O O12 0.504827 0.776746 0.314152
O O13 0.689182 0.780949 0.363883
O O14 0.547355 0.726522 0.408825
O O15 0.405384 0.500000 0.307129
O O16 0.329933 0.209929 0.319636
O O17 0.068291 0.500000 0.905093
O O18 0.781913 0.500000 0.385714
O O19 0.873837 0.775935 0.413553
O O20 0.026237 0.500000 0.560415
O O21 0.000000 0.232796 0.500000
#
# Coordination Sequence:
#
# PCOD9175018 Si02
#       8
#     8   8   8   8   8   8   8   8
#     4  11  22  37  55  76 105 135 167 213 266 315
#     4  10  18  32  55  78 104 136 170 208 253 305
#     4  10  20  35  56  79 103 136 174 211 252 307
#     4   9  19  35  55  78 105 140 180 223 266 309
#     4  10  21  37  55  76 102 132 174 221 264 314
#     4   9  19  35  54  77 105 137 171 206 254 313
#     4   9  18  35  56  78 107 142 179 218 265 311
#     4   9  18  32  51  79 115 150 182 217 258 309
#
# _framework density 21.195620000000002
#
# number of rings (size 3 to 8) (size 9 to 14) (size 15 to 20)
#    0.000    2.375    1.250    1.125    0.000    4.250 
#    0.000    4.375    0.000    1.500    0.000    0.000 
#    0.000    0.000    0.000    0.000    0.000    0.000 
#
# Total GULP energy -178548.584008 kJ/mol
# GULP energy per Si atom -5579.643250 kJ/mol
# Density = 2.114738 g / cm^3
# Si number density = 21.195620 Si / 1000 Ang^3
#
#
#
# Elastic Constant Matrix: (Units=GPa)
#
#
# Indices 1 2 3 4 5 6 
#
# 1 134.9046 0.7464 33.4061 0.0000 27.7915 0.0000
# 2 0.7464 38.9791 0.5128 0.0000 3.7972 0.0000
# 3 33.4061 0.5128 106.3806 0.0000 20.5528 0.0000
# 4 0.0000 0.0000 0.0000 -3.5124 0.0000 -11.7339
# 5 27.7915 3.7972 20.5528 0.0000 15.7503 0.0000
# 6 0.0000 0.0000 0.0000 -11.7339 0.0000 8.4590
#
#
#
# Elastic Compliance Matrix: (Units=1/GPa)
#
#
# Indices 1 2 3 4 5 6 
#
# 1 0.011796 0.001907 0.000530 0.000000 -0.021966 0.000000
# 2 0.001907 0.026752 0.001562 0.000000 -0.011853 0.000000
# 3 0.000530 0.001562 0.012675 0.000000 -0.017853 0.000000
# 4 0.000000 0.000000 0.000000 -0.050533 0.000000 -0.070097
# 5 -0.021966 -0.011853 -0.017853 0.000000 0.128403 0.000000
# 6 0.000000 0.000000 0.000000 -0.070097 0.000000 0.020983
#
#
# Mechanical properties :
#
#
# Convention : Reuss Voigt Hill
#
# Bulk Modulus (GPa) = 16.88535 38.84387 27.86461
# Shear Modulus (GPa) = 30.89891 20.51266 25.70579
#
# Velocity S-wave (km/s) = 3.82225 3.11429 3.48629
# Velocity P-wave (km/s) = 5.24054 5.59445 5.42038
#
# Compressibility (1/GPa) = 0.05922293
#
# Stress axis : x y z
#
# Youngs Moduli (GPa) = 84.77531 37.37981 78.89375
#
# Poissons Ratio (x) = -0.07128 -0.04185
# Poissons Ratio (y) = -0.16167 -0.12325
# Poissons Ratio (z) = -0.04497 -0.05840
#
# Static dielectric constant tensor:
#      x y z
#    x 1.767500 0.000000 0.022600 
#    y 0.000000 1.804740 0.000000 
#    z 0.022600 0.000000 1.742140 
# 
# From -- ./inp_files/359938.got.cif
#   From: 2010.05.17/outbox.cif.g08.bks.cpg/sg12_180_cif.got.tgz:359938.got - 2010.06.03 13:09:07.
