data_PCOD9175344
_publ_section_title
;
Structure prediction by ZEFSAII (Michael W. Deem and Ramdas Pophale) SiO2 
 PCOD9175344
Probable space group: C 2/M
;
_chemical_formula_sum "Si O2"
_cell_formula_units_Z 56
_cell_length_a 17.265552
_cell_length_b 18.188493
_cell_length_c 10.935156
_cell_angle_alpha 90.000000
_cell_angle_beta 123.488163
_cell_angle_gamma 90.000000
_cell_volume 2863.967801
_symmetry_space_group_name_H-M "C 2/M"
_symmetry_group_IT_number 12
_symmetry_cell_setting 'monoclinic'
loop_
_space_group_symop_operation_xyz
x,y,z
-x,y,-z
-x,-y,-z
x,-y,z
1/2+x,1/2+y,z
1/2-x,1/2+y,-z
1/2-x,1/2-y,-z
1/2+x,1/2-y,z
loop_
_atom_site_type_symbol
_atom_site_label
_atom_site_fract_x
_atom_site_fract_y
_atom_site_fract_z
Si Si1 0.243470 0.808934 0.107243
Si Si2 0.526684 0.688496 0.322398
Si Si3 0.707973 0.082204 0.201687
Si Si4 0.350713 0.697720 0.336270
Si Si5 0.064503 0.085100 0.935925
Si Si6 0.552198 0.824068 0.176318
Si Si7 0.605238 0.917368 0.850628
O O1 0.270857 0.758803 0.246905
O O2 0.324607 0.868568 0.165364
O O3 0.250000 0.750000 0.000000
O O4 0.147660 0.854625 0.021851
O O5 0.434900 0.714756 0.316802
O O6 0.607445 0.688550 0.493076
O O7 0.497516 0.612594 0.232382
O O8 0.553498 0.745298 0.239982
O O9 0.805436 0.120211 0.260490
O O10 0.648796 0.135144 0.237280
O O11 0.715845 0.000000 0.257227
O O12 0.652446 0.079067 0.026040
O O13 0.097356 0.000000 0.949184
O O14 0.000000 0.087589 0.000000
O O15 0.490792 0.876109 0.210125
O O16 0.500000 0.817851 0.000000
O O17 0.593670 0.000000 0.794612
#
# Coordination Sequence:
#
# PCOD9175344 Si02
#       7
#     8   8   8   8   8   8   8
#     4  12  20  39  63  90 118 159 213 254 295 358
#     4  11  23  41  62  89 124 161 206 254 306 365
#     4  10  21  36  56  89 122 152 194 246 310 361
#     4  11  24  38  61  92 122 163 204 254 306 361
#     4  11  25  43  66  94 126 165 207 255 309 370
#     4  10  20  36  61  90 118 155 196 253 308 360
#     4  10  18  32  59  88 116 149 195 253 299 349
#
# _framework density 19.553291000000002
#
# number of rings (size 3 to 8) (size 9 to 14) (size 15 to 20)
#    0.000    1.286    4.286    1.286    4.000    4.571 
#    0.000    1.429    0.000    3.429    0.000    0.000 
#    0.000    0.000    0.000    0.000    0.000    0.000 
#
# Total GULP energy -156296.605477 kJ/mol
# GULP energy per Si atom -5582.021624 kJ/mol
# Density = 1.950879 g / cm^3
# Si number density = 19.553291 Si / 1000 Ang^3
#
#
#
# Elastic Constant Matrix: (Units=GPa)
#
#
# Indices 1 2 3 4 5 6 
#
# 1 59.1081 38.0616 10.6891 0.0000 2.6177 0.0000
# 2 38.0616 112.1805 26.6581 0.0000 3.6046 0.0000
# 3 10.6891 26.6581 69.9006 0.0000 5.5837 0.0000
# 4 0.0000 0.0000 0.0000 7.3445 0.0000 -0.9982
# 5 2.6177 3.6046 5.5837 0.0000 19.4333 0.0000
# 6 0.0000 0.0000 0.0000 -0.9982 0.0000 28.0814
#
#
#
# Elastic Compliance Matrix: (Units=1/GPa)
#
#
# Indices 1 2 3 4 5 6 
#
# 1 0.021708 -0.007211 -0.000453 0.000000 -0.001456 0.000000
# 2 -0.007211 0.012209 -0.003531 0.000000 -0.000279 0.000000
# 3 -0.000453 -0.003531 0.016033 0.000000 -0.003891 0.000000
# 4 0.000000 0.000000 0.000000 0.136817 0.000000 0.004863
# 5 -0.001456 -0.000279 -0.003891 0.000000 0.052824 0.000000
# 6 0.000000 0.000000 0.000000 0.004863 0.000000 0.035784
#
#
# Mechanical properties :
#
#
# Convention : Reuss Voigt Hill
#
# Bulk Modulus (GPa) = 36.28557 43.55631 39.92094
# Shear Modulus (GPa) = 16.28926 22.02388 19.15657
#
# Velocity S-wave (km/s) = 2.88943 3.35976 3.13343
# Velocity P-wave (km/s) = 5.45246 6.11348 5.79241
#
# Compressibility (1/GPa) = 0.02755917
#
# Stress axis : x y z
#
# Youngs Moduli (GPa) = 46.06633 81.90808 62.37212
#
# Poissons Ratio (x) = 0.59062 0.02827
# Poissons Ratio (y) = 0.33217 0.22025
# Poissons Ratio (z) = 0.02088 0.28923
#
# Static dielectric constant tensor:
#      x y z
#    x 1.713660 0.000000 -0.006030 
#    y 0.000000 1.695250 0.000000 
#    z -0.006030 0.000000 1.694370 
# 
# From -- ./inp_files/157944.got.cif
#   From: 2010.05.17/outbox.cif.g08.bks.cpg/sg12_79_cif.got.tgz:157944.got - 2010.06.03 13:09:07.
