data_PCOD9175150
_publ_section_title
;
Structure prediction by ZEFSAII (Michael W. Deem and Ramdas Pophale) SiO2 
 PCOD9175150
Probable space group: C 2/M
;
_chemical_formula_sum "Si O2"
_cell_formula_units_Z 64
_cell_length_a 15.106473
_cell_length_b 7.423563
_cell_length_c 28.408020
_cell_angle_alpha 90.000000
_cell_angle_beta 128.723170
_cell_angle_gamma 90.000000
_cell_volume 2485.477658
_symmetry_space_group_name_H-M "C 2/M"
_symmetry_group_IT_number 12
_symmetry_cell_setting 'monoclinic'
loop_
_space_group_symop_operation_xyz
x,y,z
-x,y,-z
-x,-y,-z
x,-y,z
1/2+x,1/2+y,z
1/2-x,1/2+y,-z
1/2-x,1/2-y,-z
1/2+x,1/2-y,z
loop_
_atom_site_type_symbol
_atom_site_label
_atom_site_fract_x
_atom_site_fract_y
_atom_site_fract_z
Si Si1 0.880579 0.213780 0.054549
Si Si2 0.898634 0.788711 0.352336
Si Si3 0.127195 0.779486 0.552731
Si Si4 0.661396 0.789526 0.855895
Si Si5 0.105865 0.795385 0.091843
Si Si6 0.050639 0.280733 0.265221
Si Si7 0.637104 0.783327 0.396223
Si Si8 0.204491 0.717548 0.226106
O O1 0.897515 0.280391 0.113190
O O2 0.980067 0.285520 0.053806
O O3 0.895552 0.000000 0.059832
O O4 0.750000 0.250000 0.000000
O O5 0.851870 0.720789 0.386430
O O6 0.830378 0.719094 0.284244
O O7 0.034224 0.770666 0.395645
O O8 0.872759 0.000000 0.344059
O O9 0.232688 0.721205 0.555402
O O10 0.000000 0.718911 0.500000
O O11 0.125810 0.000000 0.551036
O O12 0.787716 0.709873 0.899894
O O13 0.575261 0.712823 0.789073
O O14 0.676330 0.000000 0.849589
O O15 0.153830 0.796832 0.161536
O O16 0.093351 0.000000 0.069578
O O17 0.048671 0.500000 0.265948
O O18 0.096537 0.221969 0.330787
O O19 0.129172 0.235609 0.246792
O O20 0.638861 0.000000 0.397429
O O21 0.201543 0.500000 0.218454
#
# Coordination Sequence:
#
# PCOD9175150 Si02
#       8
#     8   8   8   8   8   8   8   8
#     4  11  24  41  59  82 112 145 184 227 269 315
#     4  10  20  34  53  80 111 140 178 227 275 322
#     4   9  18  34  55  76 103 145 191 229 270 327
#     4  10  20  37  60  82 108 143 179 219 271 326
#     4  10  22  38  58  86 115 142 177 225 275 320
#     4   9  16  30  55  81 105 139 178 214 261 328
#     4  10  19  34  56  80 107 143 186 224 269 331
#     4  10  18  32  56  82 109 143 179 218 268 328
#
# _framework density 25.749579000000001
#
# number of rings (size 3 to 8) (size 9 to 14) (size 15 to 20)
#    0.000    2.125    2.500    1.125    0.000    3.500 
#    0.000    4.375    0.000    0.750    0.000    0.000 
#    0.000    0.000    0.000    0.000    0.000    0.000 
#
# Total GULP energy -178883.802208 kJ/mol
# GULP energy per Si atom -5590.118819 kJ/mol
# Density = 2.569097 g / cm^3
# Si number density = 25.749579 Si / 1000 Ang^3
#
#
#
# Elastic Constant Matrix: (Units=GPa)
#
#
# Indices 1 2 3 4 5 6 
#
# 1 136.4262 -4.9019 8.0355 0.0000 34.1680 0.0000
# 2 -4.9019 89.9660 -0.7993 0.0000 2.5072 0.0000
# 3 8.0355 -0.7993 76.5912 0.0000 35.7665 0.0000
# 4 0.0000 0.0000 0.0000 5.1367 0.0000 0.4823
# 5 34.1680 2.5072 35.7665 0.0000 50.5676 0.0000
# 6 0.0000 0.0000 0.0000 0.4823 0.0000 7.0206
#
#
#
# Elastic Compliance Matrix: (Units=1/GPa)
#
#
# Indices 1 2 3 4 5 6 
#
# 1 0.009289 0.000767 0.002960 0.000000 -0.008408 0.000000
# 2 0.000767 0.011210 0.000803 0.000000 -0.001642 0.000000
# 3 0.002960 0.000803 0.020467 0.000000 -0.016516 0.000000
# 4 0.000000 0.000000 0.000000 0.195940 0.000000 -0.013461
# 5 -0.008408 -0.001642 -0.016516 0.000000 0.037220 0.000000
# 6 0.000000 0.000000 0.000000 -0.013461 0.000000 0.143362
#
#
# Mechanical properties :
#
#
# Convention : Reuss Voigt Hill
#
# Bulk Modulus (GPa) = 19.98979 34.18355 27.08667
# Shear Modulus (GPa) = 11.76187 32.58826 22.17506
#
# Velocity S-wave (km/s) = 2.13956 3.56136 2.93777
# Velocity P-wave (km/s) = 3.72607 5.49684 4.69568
#
# Compressibility (1/GPa) = 0.05002553
#
# Stress axis : x y z
#
# Youngs Moduli (GPa) = 107.65460 89.20620 48.85963
#
# Poissons Ratio (x) = -0.06840 -0.14461
# Poissons Ratio (y) = -0.08254 -0.03925
# Poissons Ratio (z) = -0.31864 -0.07167
#
# Static dielectric constant tensor:
#      x y z
#    x 2.027900 0.000000 0.063890 
#    y 0.000000 1.989410 0.000000 
#    z 0.063890 0.000000 2.035510 
# 
# From -- ./inp_files/359745.got.cif
#   From: 2010.05.17/outbox.cif.g08.bks.cpg/sg12_180_cif.got.tgz:359745.got - 2010.06.03 13:09:07.
