data_PCOD9175554
_publ_section_title
;
Structure prediction by ZEFSAII (Michael W. Deem and Ramdas Pophale) SiO2 
 PCOD9175554
Probable space group: C 2/M
;
_chemical_formula_sum "Si O2"
_cell_formula_units_Z 56
_cell_length_a 14.964203
_cell_length_b 12.071936
_cell_length_c 17.301535
_cell_angle_alpha 90.000000
_cell_angle_beta 121.974077
_cell_angle_gamma 90.000000
_cell_volume 2651.296846
_symmetry_space_group_name_H-M "C 2/M"
_symmetry_group_IT_number 12
_symmetry_cell_setting 'monoclinic'
loop_
_space_group_symop_operation_xyz
x,y,z
-x,y,-z
-x,-y,-z
x,-y,z
1/2+x,1/2+y,z
1/2-x,1/2+y,-z
1/2-x,1/2-y,-z
1/2+x,1/2-y,z
loop_
_atom_site_type_symbol
_atom_site_label
_atom_site_fract_x
_atom_site_fract_y
_atom_site_fract_z
Si Si1 0.575034 0.624192 0.608670
Si Si2 0.121076 0.729796 0.044562
Si Si3 0.438956 0.216485 0.263104
Si Si4 0.658615 0.369603 0.910245
Si Si5 0.775530 0.700470 0.395936
Si Si6 0.714721 0.622622 0.211338
Si Si7 0.638639 0.120952 0.414632
O O1 0.500000 0.620418 0.500000
O O2 0.606095 0.500000 0.643557
O O3 0.529118 0.688252 0.660471
O O4 0.668807 0.702755 0.626503
O O5 0.218685 0.650037 0.061929
O O6 0.146600 0.783358 0.139416
O O7 0.135851 0.827404 0.986992
O O8 0.000000 0.688257 0.000000
O O9 0.411721 0.285420 0.173895
O O10 0.332553 0.151926 0.236974
O O11 0.530084 0.127457 0.318293
O O12 0.634271 0.500000 0.890256
O O13 0.717963 0.627799 0.305602
O O14 0.695684 0.770393 0.409951
O O15 0.856804 0.637503 0.489957
O O16 0.683280 0.500000 0.171826
O O17 0.689295 0.000000 0.423286
#
# Coordination Sequence:
#
# PCOD9175554 Si02
#       7
#     8   8   8   8   8   8   8
#     4  10  18  33  54  78 111 152 193 241 290 339
#     4  10  23  42  66  95 130 159 208 262 314 382
#     4  10  21  37  58  87 118 154 203 243 293 368
#     4  10  22  42  67  94 130 167 206 260 313 370
#     4  10  22  37  55  84 116 153 204 246 290 364
#     4  10  21  38  61  87 117 154 197 250 305 361
#     4  11  22  38  56  81 120 160 195 245 302 351
#
# _framework density 21.121739000000002
#
# number of rings (size 3 to 8) (size 9 to 14) (size 15 to 20)
#    0.000    1.857    1.429    2.143    2.000    1.429 
#    0.000    5.000    0.000    0.000    0.000    0.000 
#    0.000    0.000    0.000    0.000    0.000    0.000 
#
# Total GULP energy -155886.080055 kJ/mol
# GULP energy per Si atom -5567.360002 kJ/mol
# Density = 2.107366 g / cm^3
# Si number density = 21.121739 Si / 1000 Ang^3
#
#
#
# Elastic Constant Matrix: (Units=GPa)
#
#
# Indices 1 2 3 4 5 6 
#
# 1 42.5444 0.6896 15.2946 0.0000 2.8462 0.0000
# 2 0.6896 69.7161 10.7094 0.0000 -7.1585 0.0000
# 3 15.2946 10.7094 84.3795 0.0000 -2.6842 0.0000
# 4 0.0000 0.0000 0.0000 17.4096 0.0000 -3.9887
# 5 2.8462 -7.1585 -2.6842 0.0000 27.4929 0.0000
# 6 0.0000 0.0000 0.0000 -3.9887 0.0000 8.5601
#
#
#
# Elastic Compliance Matrix: (Units=1/GPa)
#
#
# Indices 1 2 3 4 5 6 
#
# 1 0.025404 0.000161 -0.004722 0.000000 -0.003049 0.000000
# 2 0.000161 0.015002 -0.001815 0.000000 0.003712 0.000000
# 3 -0.004722 -0.001815 0.012978 0.000000 0.001283 0.000000
# 4 0.000000 0.000000 0.000000 0.064304 0.000000 0.029963
# 5 -0.003049 0.003712 0.001283 0.000000 0.037781 0.000000
# 6 0.000000 0.000000 0.000000 0.029963 0.000000 0.130783
#
#
# Mechanical properties :
#
#
# Convention : Reuss Voigt Hill
#
# Bulk Modulus (GPa) = 24.61116 27.78078 26.19597
# Shear Modulus (GPa) = 15.99751 22.02227 19.00989
#
# Velocity S-wave (km/s) = 2.75507 3.23249 3.00328
# Velocity P-wave (km/s) = 4.66882 5.20704 4.94526
#
# Compressibility (1/GPa) = 0.04063198
#
# Stress axis : x y z
#
# Youngs Moduli (GPa) = 39.36415 66.65630 77.05137
#
# Poissons Ratio (x) = -0.01073 0.36384
# Poissons Ratio (y) = -0.00634 0.13986
# Poissons Ratio (z) = 0.18588 0.12099
#
# Static dielectric constant tensor:
#      x y z
#    x 1.867000 0.000000 -0.027280 
#    y 0.000000 1.729700 0.000000 
#    z -0.027280 0.000000 1.895540 
# 
# From -- ./inp_files/269385.got.cif
#   From: 2010.05.17/outbox.cif.g08.bks.cpg/sg12_135_cif.got.tgz:269385.got - 2010.06.03 13:09:07.
