data_PCOD9175398
_publ_section_title
;
Structure prediction by ZEFSAII (Michael W. Deem and Ramdas Pophale) SiO2 
 PCOD9175398
Probable space group: C 2/M
;
_chemical_formula_sum "Si O2"
_cell_formula_units_Z 38
_cell_length_a 20.793059
_cell_length_b 14.417418
_cell_length_c 17.339343
_cell_angle_alpha 90.000000
_cell_angle_beta 161.058566
_cell_angle_gamma 90.000000
_cell_volume 1687.287316
_symmetry_space_group_name_H-M "C 2/M"
_symmetry_group_IT_number 12
_symmetry_cell_setting 'monoclinic'
loop_
_space_group_symop_operation_xyz
x,y,z
-x,y,-z
-x,-y,-z
x,-y,z
1/2+x,1/2+y,z
1/2-x,1/2+y,-z
1/2-x,1/2-y,-z
1/2+x,1/2-y,z
loop_
_atom_site_type_symbol
_atom_site_label
_atom_site_fract_x
_atom_site_fract_y
_atom_site_fract_z
Si Si1 0.000000 0.678084 0.000000
Si Si2 0.667521 0.849253 0.882128
Si Si3 0.770575 0.348766 0.331705
Si Si4 0.950140 0.863521 0.769713
Si Si5 0.000000 0.500000 0.500000
Si Si6 0.437410 0.137496 0.762301
O O1 0.185254 0.750676 0.205392
O O2 0.022927 0.619117 0.103558
O O3 0.467902 0.835197 0.607242
O O4 0.599213 0.896279 0.884165
O O5 0.750000 0.750000 0.000000
O O6 0.838774 0.893633 0.024329
O O7 0.612728 0.389285 0.214806
O O8 0.842336 0.419214 0.349201
O O9 0.776403 0.890806 0.513183
O O10 0.944656 0.750633 0.766982
#
# Coordination Sequence:
#
# PCOD9175398 Si02
#       6
#     4   8   8   8   2   8
#     4  10  18  33  48  74 106 139 162 220 268 298
#     4   9  16  31  53  69  88 129 174 216 259 307
#     4  10  23  35  46  67 102 138 185 208 249 302
#     4   8  15  32  47  64  88 130 168 211 251 301
#     4  12  28  38  44  72 106 150 188 212 240 298
#     4   8  15  26  46  73  96 117 166 204 262 317
#
# _framework density 22.521356000000001
#
# number of rings (size 3 to 8) (size 9 to 14) (size 15 to 20)
#    0.000    2.947    0.000    3.789    8.842    0.421 
#    0.000    0.000    0.000    0.000    0.000    0.000 
#    0.000   13.474    0.000   46.316    0.000    1.263 
#
# Total GULP energy -105789.406484 kJ/mol
# GULP energy per Si atom -5567.863499 kJ/mol
# Density = 2.247010 g / cm^3
# Si number density = 22.521356 Si / 1000 Ang^3
#
#
#
# Elastic Constant Matrix: (Units=GPa)
#
#
# Indices 1 2 3 4 5 6 
#
# 1 171.6256 12.3280 87.0036 0.0007 13.4073 -0.0006
# 2 12.3280 81.8650 4.9785 -0.0085 6.7438 -0.0071
# 3 87.0036 4.9785 115.3785 -0.0081 19.0740 -0.0087
# 4 0.0007 -0.0085 -0.0081 -14.6678 -0.0027 5.7231
# 5 13.4073 6.7438 19.0740 -0.0027 54.6918 -0.0025
# 6 -0.0006 -0.0071 -0.0087 5.7231 -0.0025 -29.2598
#
#
#
# Elastic Compliance Matrix: (Units=1/GPa)
#
#
# Indices 1 2 3 4 5 6 
#
# 1 0.009518 -0.001021 -0.007182 0.000006 0.000298 0.000003
# 2 -0.001021 0.012460 0.000472 -0.000009 -0.001451 -0.000005
# 3 -0.007182 0.000472 0.014624 -0.000010 -0.003398 -0.000006
# 4 0.000006 -0.000009 -0.000010 -0.073810 -0.000001 -0.014437
# 5 0.000298 -0.001451 -0.003398 -0.000001 0.019575 -0.000001
# 6 0.000003 -0.000005 -0.000006 -0.014437 -0.000001 -0.037000
#
#
# Mechanical properties :
#
#
# Convention : Reuss Voigt Hill
#
# Bulk Modulus (GPa) = 47.30432 64.16548 55.73490
# Shear Modulus (GPa) = -155.64413 19.79011 -67.92701
#
# Velocity S-wave (km/s) = -8.32224 2.96755 -5.49788
# Velocity P-wave (km/s) = 8.44372 6.34780 3.93711
#
# Compressibility (1/GPa) = 0.02113972
#
# Stress axis : x y z
#
# Youngs Moduli (GPa) = 105.06843 80.25823 68.37940
#
# Poissons Ratio (x) = 0.08194 0.49111
# Poissons Ratio (y) = 0.10727 -0.03228
# Poissons Ratio (z) = 0.75461 -0.03789
#
# Static dielectric constant tensor:
#      x y z
#    x 2.020440 -0.000130 -0.124280 
#    y -0.000130 1.700690 0.000130 
#    z -0.124280 0.000130 1.959090 
# 
# From -- ./inp_files/284675.got.cif
#   From: 2010.05.17/outbox.cif.g08.bks.cpg/sg12_143_cif.got.tgz:284675.got - 2010.06.03 13:09:07.
