data_PCOD9175114
_publ_section_title
;
Structure prediction by ZEFSAII (Michael W. Deem and Ramdas Pophale) SiO2 
 PCOD9175114
Probable space group: C 2/M
;
_chemical_formula_sum "Si O2"
_cell_formula_units_Z 56
_cell_length_a 16.537588
_cell_length_b 7.434167
_cell_length_c 23.492237
_cell_angle_alpha 90.000000
_cell_angle_beta 59.169596
_cell_angle_gamma 90.000000
_cell_volume 2480.071941
_symmetry_space_group_name_H-M "C 2/M"
_symmetry_group_IT_number 12
_symmetry_cell_setting 'monoclinic'
loop_
_space_group_symop_operation_xyz
x,y,z
-x,y,-z
-x,-y,-z
x,-y,z
1/2+x,1/2+y,z
1/2-x,1/2+y,-z
1/2-x,1/2-y,-z
1/2+x,1/2-y,z
loop_
_atom_site_type_symbol
_atom_site_label
_atom_site_fract_x
_atom_site_fract_y
_atom_site_fract_z
Si Si1 0.215429 0.220949 0.151085
Si Si2 0.359918 0.282088 0.290973
Si Si3 0.981971 0.220119 0.570674
Si Si4 0.177575 0.791922 0.289413
Si Si5 0.533117 0.716105 0.156628
Si Si6 0.068596 0.713321 0.926521
Si Si7 0.835803 0.214525 0.426717
O O1 0.174758 0.282467 0.226925
O O2 0.323924 0.282527 0.108446
O O3 0.139971 0.277138 0.130362
O O4 0.217535 0.000000 0.151014
O O5 0.357646 0.500000 0.291603
O O6 0.284021 0.218278 0.272684
O O7 0.463148 0.225982 0.232860
O O8 0.330107 0.216665 0.364327
O O9 0.888267 0.283153 0.636806
O O10 0.000000 0.282244 0.500000
O O11 0.069208 0.277600 0.577756
O O12 0.979732 0.000000 0.568603
O O13 0.148532 0.000000 0.294127
O O14 0.535810 0.500000 0.157033
O O15 0.482492 0.764233 0.115842
O O16 0.077152 0.500000 0.933034
O O17 0.000000 0.787752 0.000000
O O18 0.750000 0.250000 0.500000
O O19 0.843340 0.000000 0.419190
#
# Coordination Sequence:
#
# PCOD9175114 Si02
#       7
#     8   8   8   8   8   8   8
#     4   9  18  34  56  81 108 144 186 223 267 328
#     4  10  20  33  51  77 108 137 170 225 281 317
#     4   9  17  29  47  72  97 126 172 222 259 305
#     4  10  18  32  56  77  99 138 183 220 262 324
#     4  10  20  36  58  82 111 147 187 226 273 332
#     4  10  21  38  58  83 116 147 180 230 281 323
#     4  10  20  34  50  72 103 136 175 221 272 322
#
# _framework density 22.579989000000001
#
# number of rings (size 3 to 8) (size 9 to 14) (size 15 to 20)
#    0.000    2.286    1.429    1.714    0.000    6.000 
#    0.000    2.143    0.000    4.286    0.000    0.000 
#    0.000    0.000    0.000    0.000    0.000    0.000 
#
# Total GULP energy -156352.129054 kJ/mol
# GULP energy per Si atom -5584.004609 kJ/mol
# Density = 2.252860 g / cm^3
# Si number density = 22.579989 Si / 1000 Ang^3
#
#
#
# Elastic Constant Matrix: (Units=GPa)
#
#
# Indices 1 2 3 4 5 6 
#
# 1 141.9530 -10.8024 53.3541 0.0047 -19.9135 -0.0120
# 2 -10.8024 66.9134 0.5798 0.0120 -6.3782 -0.0306
# 3 53.3541 0.5798 133.4122 0.0014 -20.1890 -0.0040
# 4 0.0047 0.0120 0.0014 -68.6169 0.0012 206.1084
# 5 -19.9135 -6.3782 -20.1890 0.0012 30.1036 -0.0029
# 6 -0.0120 -0.0306 -0.0040 206.1084 -0.0029 -564.7807
#
#
#
# Elastic Compliance Matrix: (Units=1/GPa)
#
#
# Indices 1 2 3 4 5 6 
#
# 1 0.008887 0.001872 -0.002908 -0.000001 0.004325 -0.000001
# 2 0.001872 0.015674 -0.000141 -0.000002 0.004465 -0.000002
# 3 -0.002908 -0.000141 0.009308 0.000000 0.004289 0.000000
# 4 -0.000001 -0.000002 0.000000 0.151531 -0.000001 0.055299
# 5 0.004325 0.004465 0.004289 -0.000001 0.039902 -0.000001
# 6 -0.000001 -0.000002 0.000000 0.055299 -0.000001 0.018410
#
#
# Mechanical properties :
#
#
# Convention : Reuss Voigt Hill
#
# Bulk Modulus (GPa) = 31.73081 47.61573 39.67327
# Shear Modulus (GPa) = 19.48785 -100.71567 -40.61391
#
# Velocity S-wave (km/s) = 2.94097 -6.68586 -4.24567
# Velocity P-wave (km/s) = 5.06118 6.20223 2.53497
#
# Compressibility (1/GPa) = 0.03151512
#
# Stress axis : x y z
#
# Youngs Moduli (GPa) = 112.52868 63.80113 107.43400
#
# Poissons Ratio (x) = -0.11944 0.31237
# Poissons Ratio (y) = -0.21067 0.01517
# Poissons Ratio (z) = 0.32718 0.00901
#
# Static dielectric constant tensor:
#      x y z
#    x 1.819320 0.000000 -0.031180 
#    y 0.000000 1.862080 0.000000 
#    z -0.031180 0.000000 1.870690 
# 
# From -- ./inp_files/337870.got.cif
#   From: 2010.05.17/outbox.cif.g08.bks.cpg/sg12_169_cif.got.tgz:337870.got - 2010.06.03 13:09:07.
