data_PCOD9175263
_publ_section_title
;
Structure prediction by ZEFSAII (Michael W. Deem and Ramdas Pophale) SiO2 
 PCOD9175263
Probable space group: C 2/M
;
_chemical_formula_sum "Si O2"
_cell_formula_units_Z 64
_cell_length_a 11.284158
_cell_length_b 14.012764
_cell_length_c 31.067712
_cell_angle_alpha 90.000000
_cell_angle_beta 142.033017
_cell_angle_gamma 90.000000
_cell_volume 3022.203479
_symmetry_space_group_name_H-M "C 2/M"
_symmetry_group_IT_number 12
_symmetry_cell_setting 'monoclinic'
loop_
_space_group_symop_operation_xyz
x,y,z
-x,y,-z
-x,-y,-z
x,-y,z
1/2+x,1/2+y,z
1/2-x,1/2+y,-z
1/2-x,1/2-y,-z
1/2+x,1/2-y,z
loop_
_atom_site_type_symbol
_atom_site_label
_atom_site_fract_x
_atom_site_fract_y
_atom_site_fract_z
Si Si1 0.242506 0.800612 0.280099
Si Si2 0.157531 0.189968 0.160963
Si Si3 0.446501 0.105592 0.864655
Si Si4 0.166597 0.749208 0.406426
Si Si5 0.392020 0.613279 0.012643
Si Si6 0.201571 0.892111 0.491868
Si Si7 0.547801 0.894126 0.237418
Si Si8 0.338887 0.897272 0.391664
O O1 0.128118 0.823162 0.203717
O O2 0.465636 0.787912 0.330313
O O3 0.175861 0.699764 0.281336
O O4 0.246151 0.878734 0.318520
O O5 0.339574 0.129297 0.197349
O O6 0.186580 0.304116 0.162682
O O7 0.980761 0.160508 0.080270
O O8 0.465132 0.102187 0.818213
O O9 0.382354 0.000000 0.860753
O O10 0.662757 0.124585 0.943277
O O11 0.117194 0.820206 0.432290
O O12 0.291636 0.662659 0.460918
O O13 0.278102 0.812557 0.404709
O O14 0.431531 0.500000 0.026500
O O15 0.500000 0.648340 0.000000
O O16 0.430803 0.897404 0.546585
O O17 0.125613 0.000000 0.470309
O O18 0.614203 0.000000 0.270844
O O19 0.276991 0.000000 0.391799
#
# Coordination Sequence:
#
# PCOD9175263 Si02
#       8
#     8   8   8   8   8   8   8   8
#     4  10  23  37  51  81 114 148 190 232 275 327
#     4  11  20  34  58  81 109 148 188 232 283 329
#     4   9  19  35  55  82 110 138 179 230 283 341
#     4  10  19  35  59  82 114 148 186 231 278 332
#     4  10  18  32  57  87 110 138 185 235 286 340
#     4   9  19  35  59  88 111 141 187 234 279 330
#     4  10  20  36  55  77 107 144 187 231 277 333
#     4  10  20  36  57  81 113 150 187 226 275 339
#
# _framework density 21.176603
#
# number of rings (size 3 to 8) (size 9 to 14) (size 15 to 20)
#    0.000    2.125    1.250    2.250    0.000    3.000 
#    0.000    6.250    0.000   12.375    0.000    0.000 
#    0.000    0.000    0.000    0.000    0.000    0.000 
#
# Total GULP energy -178639.173678 kJ/mol
# GULP energy per Si atom -5582.474177 kJ/mol
# Density = 2.112840 g / cm^3
# Si number density = 21.176603 Si / 1000 Ang^3
#
#
#
# Elastic Constant Matrix: (Units=GPa)
#
#
# Indices 1 2 3 4 5 6 
#
# 1 25.0760 16.5775 -10.5022 0.0000 -3.3270 0.0000
# 2 16.5775 77.7254 9.7846 0.0000 -9.4961 0.0000
# 3 -10.5022 9.7846 60.7867 0.0000 -17.3094 0.0000
# 4 0.0000 0.0000 0.0000 7.5947 0.0000 -0.8573
# 5 -3.3270 -9.4961 -17.3094 0.0000 16.1754 0.0000
# 6 0.0000 0.0000 0.0000 -0.8573 0.0000 30.3565
#
#
#
# Elastic Compliance Matrix: (Units=1/GPa)
#
#
# Indices 1 2 3 4 5 6 
#
# 1 0.059528 -0.011963 0.019700 0.000000 0.026302 0.000000
# 2 -0.011963 0.016265 -0.003835 0.000000 0.002984 0.000000
# 3 0.019700 -0.003835 0.030182 0.000000 0.034098 0.000000
# 4 0.000000 0.000000 0.000000 0.132092 0.000000 0.003731
# 5 0.026302 0.002984 0.034098 0.000000 0.105472 0.000000
# 6 0.000000 0.000000 0.000000 0.003731 0.000000 0.033047
#
#
# Mechanical properties :
#
#
# Convention : Reuss Voigt Hill
#
# Bulk Modulus (GPa) = 8.78906 21.70088 15.24497
# Shear Modulus (GPa) = 12.29385 20.67386 16.48386
#
# Velocity S-wave (km/s) = 2.41205 3.12791 2.79301
# Velocity P-wave (km/s) = 3.45206 4.82855 4.19712
#
# Compressibility (1/GPa) = 0.11377776
#
# Stress axis : x y z
#
# Youngs Moduli (GPa) = 16.79894 61.48322 33.13287
#
# Poissons Ratio (x) = 0.73551 -0.65272
# Poissons Ratio (y) = 0.20096 0.12707
# Poissons Ratio (z) = -0.33094 0.23580
#
# Static dielectric constant tensor:
#      x y z
#    x 1.754340 0.000000 -0.001520 
#    y 0.000000 1.799910 0.000000 
#    z -0.001520 0.000000 1.761180 
# 
# From -- ./inp_files/374123.got.cif
#   From: 2010.05.17/outbox.cif.g08.bks.cpg/sg12_188_cif.got.tgz:374123.got - 2010.06.03 13:09:07.
