data_PCOD9175951
_publ_section_title
;
Structure prediction by ZEFSAII (Michael W. Deem and Ramdas Pophale) SiO2 
 PCOD9175951
Probable space group: C 2/M
;
_chemical_formula_sum "Si O2"
_cell_formula_units_Z 56
_cell_length_a 30.503205
_cell_length_b 13.450173
_cell_length_c 9.767689
_cell_angle_alpha 90.000000
_cell_angle_beta 48.727388
_cell_angle_gamma 90.000000
_cell_volume 3011.896984
_symmetry_space_group_name_H-M "C 2/M"
_symmetry_group_IT_number 12
_symmetry_cell_setting 'monoclinic'
loop_
_space_group_symop_operation_xyz
x,y,z
-x,y,-z
-x,-y,-z
x,-y,z
1/2+x,1/2+y,z
1/2-x,1/2+y,-z
1/2-x,1/2-y,-z
1/2+x,1/2-y,z
loop_
_atom_site_type_symbol
_atom_site_label
_atom_site_fract_x
_atom_site_fract_y
_atom_site_fract_z
Si Si1 0.352497 0.381044 0.627889
Si Si2 0.861058 0.616279 0.756070
Si Si3 0.757338 0.226454 0.645601
Si Si4 0.227303 0.884167 0.939255
Si Si5 0.146573 0.615836 0.932372
Si Si6 0.973184 0.616248 0.906693
Si Si7 0.540142 0.251052 0.554157
O O1 0.346486 0.500000 0.615548
O O2 0.317951 0.315147 0.584376
O O3 0.420692 0.349200 0.496128
O O4 0.318650 0.360348 0.843594
O O5 0.875488 0.500000 0.717735
O O6 0.792535 0.624843 0.866991
O O7 0.906591 0.673109 0.570570
O O8 0.870139 0.661256 0.887772
O O9 0.750000 0.250000 0.500000
O O10 0.732014 0.314752 0.795473
O O11 0.711189 0.139510 0.760839
O O12 0.217814 0.000000 0.921440
O O13 0.144428 0.500000 0.961632
O O14 0.095424 0.639907 0.934611
O O15 0.979260 0.500000 0.842197
O O16 0.000785 0.699168 0.751540
O O17 0.000000 0.618930 0.000000
O O18 0.500000 0.260266 0.500000
#
# Coordination Sequence:
#
# PCOD9175951 Si02
#       7
#     8   8   8   8   8   8   8
#     4  11  24  43  63  86 120 160 203 252 301 353
#     4  10  18  33  60  91 117 144 189 249 303 350
#     4  12  24  37  62  93 123 157 194 243 303 367
#     4  10  21  39  63  88 116 153 198 246 301 358
#     4  10  20  36  59  87 118 153 192 240 298 355
#     4  10  23  39  57  85 123 160 195 239 297 361
#     4  12  23  36  61  89 115 155 203 251 294 354
#
# _framework density 18.592932999999999
#
# number of rings (size 3 to 8) (size 9 to 14) (size 15 to 20)
#    0.000    1.286    4.286    2.143    2.000    2.000 
#    0.000    0.000    0.000    0.429    0.000    0.000 
#    0.000    0.000    0.000    0.000    0.000    0.000 
#
# Total GULP energy -155874.455655 kJ/mol
# GULP energy per Si atom -5566.944845 kJ/mol
# Density = 1.855061 g / cm^3
# Si number density = 18.592933 Si / 1000 Ang^3
#
#
#
# Elastic Constant Matrix: (Units=GPa)
#
#
# Indices 1 2 3 4 5 6 
#
# 1 104.5085 36.4247 26.3076 0.0000 3.4790 0.0000
# 2 36.4247 73.3379 23.3205 0.0000 10.7147 0.0000
# 3 26.3076 23.3205 36.5361 0.0000 5.7543 0.0000
# 4 0.0000 0.0000 0.0000 15.6507 0.0000 -11.6261
# 5 3.4790 10.7147 5.7543 0.0000 34.2598 0.0000
# 6 0.0000 0.0000 0.0000 -11.6261 0.0000 20.8167
#
#
#
# Elastic Compliance Matrix: (Units=1/GPa)
#
#
# Indices 1 2 3 4 5 6 
#
# 1 0.012708 -0.004411 -0.006521 0.000000 0.001184 0.000000
# 2 -0.004411 0.019085 -0.008357 0.000000 -0.004117 0.000000
# 3 -0.006521 -0.008357 0.037887 0.000000 -0.003087 0.000000
# 4 0.000000 0.000000 0.000000 0.109199 0.000000 0.060987
# 5 0.001184 -0.004117 -0.003087 0.000000 0.030875 0.000000
# 6 0.000000 0.000000 0.000000 0.060987 0.000000 0.082100
#
#
# Mechanical properties :
#
#
# Convention : Reuss Voigt Hill
#
# Bulk Modulus (GPa) = 32.15388 42.94313 37.54850
# Shear Modulus (GPa) = 14.67134 22.70074 18.68604
#
# Velocity S-wave (km/s) = 2.81211 3.49798 3.17362
# Velocity P-wave (km/s) = 5.27968 6.28181 5.80242
#
# Compressibility (1/GPa) = 0.03110045
#
# Stress axis : x y z
#
# Youngs Moduli (GPa) = 78.68925 52.39597 26.39452
#
# Poissons Ratio (x) = 0.23112 0.17213
# Poissons Ratio (y) = 0.34710 0.22059
# Poissons Ratio (z) = 0.51317 0.43789
#
# Static dielectric constant tensor:
#      x y z
#    x 1.677370 0.000000 -0.035390 
#    y 0.000000 1.721140 0.000000 
#    z -0.035390 0.000000 1.355900 
# 
# From -- ./inp_files/86361.got.cif
#   From: 2010.05.17/outbox.cif.g08.bks.cpg/sg12_44_cif.got.tgz:86361.got - 2010.06.03 13:09:07.
