data_PCOD9175503
_publ_section_title
;
Structure prediction by ZEFSAII (Michael W. Deem and Ramdas Pophale) SiO2 
 PCOD9175503
Probable space group: C 2/M
;
_chemical_formula_sum "Si O2"
_cell_formula_units_Z 48
_cell_length_a 22.182376
_cell_length_b 23.218527
_cell_length_c 10.597608
_cell_angle_alpha 90.000000
_cell_angle_beta 155.713147
_cell_angle_gamma 90.000000
_cell_volume 2244.992000
_symmetry_space_group_name_H-M "C 2/M"
_symmetry_group_IT_number 12
_symmetry_cell_setting 'monoclinic'
loop_
_space_group_symop_operation_xyz
x,y,z
-x,y,-z
-x,-y,-z
x,-y,z
1/2+x,1/2+y,z
1/2-x,1/2+y,-z
1/2-x,1/2-y,-z
1/2+x,1/2-y,z
loop_
_atom_site_type_symbol
_atom_site_label
_atom_site_fract_x
_atom_site_fract_y
_atom_site_fract_z
Si Si1 0.152019 0.176004 0.920085
Si Si2 0.736085 0.432894 0.442680
Si Si3 0.183877 0.693405 0.022933
Si Si4 0.366155 0.267017 0.614988
Si Si5 0.980531 0.117298 0.785744
Si Si6 0.081434 0.647751 0.377844
O O1 0.109800 0.244191 0.847674
O O2 0.285285 0.161779 0.271697
O O3 0.216370 0.173325 0.903060
O O4 0.029459 0.130741 0.735620
O O5 0.765463 0.500000 0.511240
O O6 0.673817 0.407496 0.456382
O O7 0.868709 0.398930 0.629091
O O8 0.602619 0.421240 0.088676
O O9 0.278023 0.709875 0.324857
O O10 0.067003 0.643130 0.826962
O O11 0.250000 0.250000 0.500000
O O12 0.483867 0.318032 0.848559
O O13 0.446708 0.207377 0.747428
#
# Coordination Sequence:
#
# PCOD9175503 Si02
#       6
#     8   8   8   8   8   8
#     4   9  19  32  51  79 113 156 181 224 283 347
#     4  10  21  36  59  83 108 150 197 246 286 323
#     4  10  20  32  50  79 119 155 183 220 285 361
#     4  11  21  32  51  86 120 150 180 228 298 344
#     4  10  18  33  53  79 111 139 183 239 278 336
#     4  10  19  34  55  80 116 145 185 239 282 350
#
# _framework density 21.380921000000001
#
# number of rings (size 3 to 8) (size 9 to 14) (size 15 to 20)
#    0.000    2.000    3.333    1.500    2.333    1.333 
#    0.000    0.000    0.000   12.000    0.000   10.500 
#    0.000    0.000    0.000    0.000    0.000    0.000 
#
# Total GULP energy -133754.643109 kJ/mol
# GULP energy per Si atom -5573.110130 kJ/mol
# Density = 2.133226 g / cm^3
# Si number density = 21.380921 Si / 1000 Ang^3
#
#
#
# Elastic Constant Matrix: (Units=GPa)
#
#
# Indices 1 2 3 4 5 6 
#
# 1 180.8809 59.9111 40.2834 0.0000 50.0196 0.0000
# 2 59.9111 122.3970 15.1283 0.0000 19.2816 0.0000
# 3 40.2834 15.1283 46.1668 0.0000 9.3573 0.0000
# 4 0.0000 0.0000 0.0000 13.7397 0.0000 -7.0671
# 5 50.0196 19.2816 9.3573 0.0000 36.3537 0.0000
# 6 0.0000 0.0000 0.0000 -7.0671 0.0000 4.6437
#
#
#
# Elastic Compliance Matrix: (Units=1/GPa)
#
#
# Indices 1 2 3 4 5 6 
#
# 1 0.011332 -0.002788 -0.006450 0.000000 -0.012453 0.000000
# 2 -0.002788 0.009793 -0.000529 0.000000 -0.001222 0.000000
# 3 -0.006450 -0.000529 0.027016 0.000000 0.002202 0.000000
# 4 0.000000 0.000000 0.000000 0.335064 0.000000 0.509923
# 5 -0.012453 -0.001222 0.002202 0.000000 0.044723 0.000000
# 6 0.000000 0.000000 0.000000 0.509923 0.000000 0.991380
#
#
# Mechanical properties :
#
#
# Convention : Reuss Voigt Hill
#
# Bulk Modulus (GPa) = 34.95667 64.45448 49.70557
# Shear Modulus (GPa) = 3.45214 26.55554 15.00384
#
# Velocity S-wave (km/s) = 1.27204 3.52805 2.65191
# Velocity P-wave (km/s) = 4.30609 6.84160 5.71620
#
# Compressibility (1/GPa) = 0.02860684
#
# Stress axis : x y z
#
# Youngs Moduli (GPa) = 88.24463 102.11823 37.01520
#
# Poissons Ratio (x) = 0.28469 0.23876
# Poissons Ratio (y) = 0.24601 0.01957
# Poissons Ratio (z) = 0.56921 0.05399
#
# Static dielectric constant tensor:
#      x y z
#    x 1.936680 0.000000 0.037750 
#    y 0.000000 1.737920 0.000000 
#    z 0.037750 0.000000 1.916500 
# 
# From -- ./inp_files/132661.got.cif
#   From: 2010.05.17/outbox.cif.g08.bks.cpg/sg12_67_cif.got.tgz:132661.got - 2010.06.03 13:09:07.
