data_PCOD9175365
_publ_section_title
;
Structure prediction by ZEFSAII (Michael W. Deem and Ramdas Pophale) SiO2 
 PCOD9175365
Probable space group: C 2/M
;
_chemical_formula_sum "Si O2"
_cell_formula_units_Z 40
_cell_length_a 15.396453
_cell_length_b 11.449571
_cell_length_c 20.178222
_cell_angle_alpha 90.000000
_cell_angle_beta 27.575860
_cell_angle_gamma 90.000000
_cell_volume 1646.649589
_symmetry_space_group_name_H-M "C 2/M"
_symmetry_group_IT_number 12
_symmetry_cell_setting 'monoclinic'
loop_
_space_group_symop_operation_xyz
x,y,z
-x,y,-z
-x,-y,-z
x,-y,z
1/2+x,1/2+y,z
1/2-x,1/2+y,-z
1/2-x,1/2-y,-z
1/2+x,1/2-y,z
loop_
_atom_site_type_symbol
_atom_site_label
_atom_site_fract_x
_atom_site_fract_y
_atom_site_fract_z
Si Si1 0.215009 0.500000 0.836144
Si Si2 0.735311 0.762623 0.588884
Si Si3 0.221910 0.000000 0.362791
Si Si4 0.105435 0.630477 0.339224
Si Si5 0.998978 0.136024 0.152685
Si Si6 0.202843 0.745551 0.899870
O O1 0.211569 0.500000 0.758621
O O2 0.286432 0.619918 0.820819
O O3 0.000000 0.500000 0.000000
O O4 0.750000 0.750000 0.500000
O O5 0.718590 0.888392 0.634399
O O6 0.564035 0.687299 0.734336
O O7 0.939329 0.714628 0.472449
O O8 0.000000 0.000000 0.500000
O O9 0.031562 0.500000 0.395772
O O10 0.298992 0.640436 0.248676
O O11 0.165807 0.658427 0.223155
O O12 0.058795 0.000000 0.114887
O O13 0.143331 0.215944 0.013606
O O14 0.000000 0.750130 0.000000
#
# Coordination Sequence:
#
# PCOD9175365 Si02
#       6
#     4   8   4   8   8   8
#     4  10  18  32  60  90 130 149 202 262 309 361
#     4  12  26  39  59  88 128 169 214 259 313 376
#     4  12  24  42  66  90 123 169 216 268 316 379
#     4  10  20  37  63  89 120 157 204 256 311 374
#     4  10  20  37  64  93 125 159 205 257 313 374
#     4   9  17  32  59  96 121 151 199 263 308 363
#
# _framework density 24.291748999999999
#
# number of rings (size 3 to 8) (size 9 to 14) (size 15 to 20)
#    0.000    1.600    0.000    7.800    2.800    4.000 
#    0.000    1.000    0.000    0.000    0.000    0.000 
#    0.000    0.000    0.000    0.000    0.000    0.000 
#
# Total GULP energy -111829.081581 kJ/mol
# GULP energy per Si atom -5591.454079 kJ/mol
# Density = 2.423646 g / cm^3
# Si number density = 24.291749 Si / 1000 Ang^3
#
#
#
# Elastic Constant Matrix: (Units=GPa)
#
#
# Indices 1 2 3 4 5 6 
#
# 1 128.6922 58.8965 50.5685 0.0013 44.1193 0.0005
# 2 58.8965 169.1490 58.3202 -0.0006 37.1659 0.0004
# 3 50.5685 58.3202 154.0698 0.0011 65.4797 0.0005
# 4 0.0013 -0.0006 0.0011 21.2483 -0.0010 5.6329
# 5 44.1193 37.1659 65.4797 -0.0010 55.2046 0.0000
# 6 0.0005 0.0004 0.0005 5.6329 0.0000 2.2285
#
#
#
# Elastic Compliance Matrix: (Units=1/GPa)
#
#
# Indices 1 2 3 4 5 6 
#
# 1 0.011464 -0.002392 0.000710 -0.000002 -0.008394 0.000003
# 2 -0.002392 0.007568 -0.001465 0.000001 -0.001445 -0.000004
# 3 0.000710 -0.001465 0.013378 -0.000003 -0.015449 0.000005
# 4 -0.000002 0.000001 -0.000003 0.142649 0.000007 -0.360567
# 5 -0.008394 -0.001445 -0.015449 0.000007 0.044120 -0.000013
# 6 0.000003 -0.000004 0.000005 -0.360567 -0.000013 1.360119
#
#
# Mechanical properties :
#
#
# Convention : Reuss Voigt Hill
#
# Bulk Modulus (GPa) = 38.29243 87.49796 62.89519
# Shear Modulus (GPa) = 3.13618 34.67800 18.90709
#
# Velocity S-wave (km/s) = 1.13748 3.78241 2.79289
# Velocity P-wave (km/s) = 4.18604 7.42787 6.02894
#
# Compressibility (1/GPa) = 0.02611482
#
# Stress axis : x y z
#
# Youngs Moduli (GPa) = 87.23106 132.14229 74.74948
#
# Poissons Ratio (x) = 0.31611 -0.05309
# Poissons Ratio (y) = 0.20867 0.10953
# Poissons Ratio (z) = -0.06195 0.19363
#
# Static dielectric constant tensor:
#      x y z
#    x 2.034620 0.000000 0.008640 
#    y 0.000000 2.001610 0.000010 
#    z 0.008640 0.000010 1.882130 
# 
# From -- ./inp_files/315561.got.cif
#   From: 2010.05.17/outbox.cif.g08.bks.cpg/sg12_158_cif.got.tgz:315561.got - 2010.06.03 13:09:07.
