data_PCOD9175055
_publ_section_title
;
Structure prediction by ZEFSAII (Michael W. Deem and Ramdas Pophale) SiO2 
 PCOD9175055
Probable space group: C 2/M
;
_chemical_formula_sum "Si O2"
_cell_formula_units_Z 40
_cell_length_a 28.318039
_cell_length_b 8.041249
_cell_length_c 14.657450
_cell_angle_alpha 90.000000
_cell_angle_beta 30.306768
_cell_angle_gamma 90.000000
_cell_volume 1684.293744
_symmetry_space_group_name_H-M "C 2/M"
_symmetry_group_IT_number 12
_symmetry_cell_setting 'monoclinic'
loop_
_space_group_symop_operation_xyz
x,y,z
-x,y,-z
-x,-y,-z
x,-y,z
1/2+x,1/2+y,z
1/2-x,1/2+y,-z
1/2-x,1/2-y,-z
1/2+x,1/2-y,z
loop_
_atom_site_type_symbol
_atom_site_label
_atom_site_fract_x
_atom_site_fract_y
_atom_site_fract_z
Si Si1 0.659650 0.197358 0.594218
Si Si2 0.743628 0.295784 0.744256
Si Si3 0.539291 0.698929 0.088604
Si Si4 0.976622 0.195284 0.674981
Si Si5 0.851888 0.307731 0.731419
O O1 0.750000 0.250000 0.500000
O O2 0.681349 0.261628 0.455481
O O3 0.557855 0.254271 0.796309
O O4 0.657392 0.000000 0.594981
O O5 0.745964 0.500000 0.742211
O O6 0.770204 0.241436 0.801884
O O7 0.640208 0.241126 0.886301
O O8 0.543680 0.500000 0.080145
O O9 0.533723 0.752540 0.204077
O O10 0.882447 0.215860 0.772150
O O11 0.057433 0.293447 0.486734
O O12 0.001432 0.000000 0.632785
O O13 0.834514 0.500000 0.782251
#
# Coordination Sequence:
#
# PCOD9175055 Si02
#       5
#     8   8   8   8   8
#     4  11  23  42  64  86 113 146 188 236 289 343
#     4   9  20  38  60  84 114 153 192 229 279 345
#     4  10  21  39  61  85 115 152 191 232 282 340
#     4  10  19  31  52  83 117 149 187 235 282 322
#     4  10  18  32  55  80 112 155 197 226 268 336
#
# _framework density 23.748829000000001
#
# number of rings (size 3 to 8) (size 9 to 14) (size 15 to 20)
#    0.000    2.000    2.000    3.000    0.000    2.400 
#    0.000    8.000    0.000    0.000    0.000    0.000 
#    0.000    0.000    0.000    0.000    0.000    0.000 
#
# Total GULP energy -111760.361398 kJ/mol
# GULP energy per Si atom -5588.018070 kJ/mol
# Density = 2.369478 g / cm^3
# Si number density = 23.748829 Si / 1000 Ang^3
#
#
#
# Elastic Constant Matrix: (Units=GPa)
#
#
# Indices 1 2 3 4 5 6 
#
# 1 95.1709 -7.6403 16.7298 0.0000 -35.7870 0.0000
# 2 -7.6403 21.0746 2.9326 0.0000 0.1917 0.0000
# 3 16.7298 2.9326 86.8587 0.0000 -31.8381 0.0000
# 4 0.0000 0.0000 0.0000 13.9772 0.0000 -6.8607
# 5 -35.7870 0.1917 -31.8381 0.0000 40.9369 0.0000
# 6 0.0000 0.0000 0.0000 -6.8607 0.0000 29.3074
#
#
#
# Elastic Compliance Matrix: (Units=1/GPa)
#
#
# Indices 1 2 3 4 5 6 
#
# 1 0.016776 0.005550 0.002724 0.000000 0.016758 0.000000
# 2 0.005550 0.049636 -0.001471 0.000000 0.003476 0.000000
# 3 0.002724 -0.001471 0.016664 0.000000 0.015348 0.000000
# 4 0.000000 0.000000 0.000000 0.080833 0.000000 0.018923
# 5 0.016758 0.003476 0.015348 0.000000 0.050998 0.000000
# 6 0.000000 0.000000 0.000000 0.018923 0.000000 0.038551
#
#
# Mechanical properties :
#
#
# Convention : Reuss Voigt Hill
#
# Bulk Modulus (GPa) = 10.34318 25.23870 17.79094
# Shear Modulus (GPa) = 18.37711 29.58312 23.98011
#
# Velocity S-wave (km/s) = 2.78476 3.53323 3.18109
# Velocity P-wave (km/s) = 3.83465 5.22450 4.58257
#
# Compressibility (1/GPa) = 0.09668203
#
# Stress axis : x y z
#
# Youngs Moduli (GPa) = 59.61060 20.14676 60.01006
#
# Poissons Ratio (x) = -0.11182 -0.16347
# Poissons Ratio (y) = -0.33085 0.08827
# Poissons Ratio (z) = -0.16238 0.02963
#
# Static dielectric constant tensor:
#      x y z
#    x 1.949650 0.000000 -0.008840 
#    y 0.000000 1.830130 0.000000 
#    z -0.008840 0.000000 1.904690 
# 
# From -- ./inp_files/211251.got.cif
#   From: 2010.05.17/outbox.cif.g08.bks.cpg/sg12_106_cif.got.tgz:211251.got - 2010.06.03 13:09:07.
