data_PCOD9175436
_publ_section_title
;
Structure prediction by ZEFSAII (Michael W. Deem and Ramdas Pophale) SiO2 
 PCOD9175436
Probable space group: C 2/M
;
_chemical_formula_sum "Si O2"
_cell_formula_units_Z 64
_cell_length_a 8.280364
_cell_length_b 22.284888
_cell_length_c 22.927472
_cell_angle_alpha 90.000000
_cell_angle_beta 123.269926
_cell_angle_gamma 90.000000
_cell_volume 3537.300065
_symmetry_space_group_name_H-M "C 2/M"
_symmetry_group_IT_number 12
_symmetry_cell_setting 'monoclinic'
loop_
_space_group_symop_operation_xyz
x,y,z
-x,y,-z
-x,-y,-z
x,-y,z
1/2+x,1/2+y,z
1/2-x,1/2+y,-z
1/2-x,1/2-y,-z
1/2+x,1/2-y,z
loop_
_atom_site_type_symbol
_atom_site_label
_atom_site_fract_x
_atom_site_fract_y
_atom_site_fract_z
Si Si1 0.473594 0.825358 0.667176
Si Si2 0.047155 0.641228 0.163019
Si Si3 0.868489 0.242260 0.741524
Si Si4 0.194139 0.808992 0.874024
Si Si5 0.829422 0.567879 0.709146
Si Si6 0.386330 0.322213 0.918873
Si Si7 0.060332 0.067705 0.443547
Si Si8 0.174958 0.318212 0.490602
O O1 0.684312 0.797987 0.714201
O O2 0.347424 0.774889 0.675361
O O3 0.462188 0.886430 0.700120
O O4 0.399888 0.835276 0.588211
O O5 0.100170 0.703649 0.206722
O O6 0.137768 0.646817 0.116219
O O7 0.153742 0.589981 0.221187
O O8 0.813375 0.639288 0.123040
O O9 0.054440 0.201791 0.790482
O O10 0.304911 0.746255 0.908343
O O11 0.042230 0.824491 0.896159
O O12 0.893635 0.500000 0.716450
O O13 0.621031 0.572607 0.636383
O O14 0.500000 0.337498 0.000000
O O15 0.183253 0.128447 0.460769
O O16 0.000000 0.068235 0.500000
O O17 0.146609 0.000000 0.450829
O O18 0.250000 0.250000 0.500000
O O19 0.000000 0.316849 0.500000
#
# Coordination Sequence:
#
# PCOD9175436 Si02
#       8
#     8   8   8   8   8   8   8   8
#     4  11  21  34  56  79 111 156 187 239 306 353
#     4  10  21  34  56  84 117 156 196 240 299 352
#     4  10  18  33  51  83 112 145 190 231 293 359
#     4  11  18  32  52  81 123 159 191 236 287 355
#     4  10  22  40  64  85 109 153 206 247 291 357
#     4  11  21  32  52  88 130 160 192 232 293 366
#     4  10  21  42  63  80 109 154 202 247 303 368
#     4  12  26  37  53  86 122 152 198 251 309 370
#
# _framework density 18.092897000000001
#
# number of rings (size 3 to 8) (size 9 to 14) (size 15 to 20)
#    0.000    1.375    5.000    3.000    3.500    1.250 
#    0.000    0.000    0.000    4.875    0.000    0.875 
#    0.000    0.000    0.000    0.000    0.000    0.000 
#
# Total GULP energy -178246.922743 kJ/mol
# GULP energy per Si atom -5570.216336 kJ/mol
# Density = 1.805172 g / cm^3
# Si number density = 18.092897 Si / 1000 Ang^3
#
#
#
# Elastic Constant Matrix: (Units=GPa)
#
#
# Indices 1 2 3 4 5 6 
#
# 1 120.6837 46.7517 32.9450 0.0000 -10.0099 0.0000
# 2 46.7517 91.2290 27.6874 0.0000 9.7829 0.0000
# 3 32.9450 27.6874 79.7631 0.0000 0.5171 0.0000
# 4 0.0000 0.0000 0.0000 15.3413 0.0000 15.5509
# 5 -10.0099 9.7829 0.5171 0.0000 26.9100 0.0000
# 6 0.0000 0.0000 0.0000 15.5509 0.0000 52.1630
#
#
#
# Elastic Compliance Matrix: (Units=1/GPa)
#
#
# Indices 1 2 3 4 5 6 
#
# 1 0.011937 -0.005948 -0.002909 0.000000 0.006659 0.000000
# 2 -0.005948 0.015754 -0.002960 0.000000 -0.007883 0.000000
# 3 -0.002909 -0.002960 0.014768 0.000000 -0.000290 0.000000
# 4 0.000000 0.000000 0.000000 0.093412 0.000000 -0.027848
# 5 0.006659 -0.007883 -0.000290 0.000000 0.042509 0.000000
# 6 0.000000 0.000000 0.000000 -0.027848 0.000000 0.027473
#
#
# Mechanical properties :
#
#
# Convention : Reuss Voigt Hill
#
# Bulk Modulus (GPa) = 53.12536 56.27154 54.69845
# Shear Modulus (GPa) = 21.20785 31.16898 26.18842
#
# Velocity S-wave (km/s) = 3.42740 4.15507 3.80865
# Velocity P-wave (km/s) = 6.71484 7.36128 7.04548
#
# Compressibility (1/GPa) = 0.01882340
#
# Stress axis : x y z
#
# Youngs Moduli (GPa) = 83.77445 63.47766 67.71405
#
# Poissons Ratio (x) = 0.37760 0.19696
# Poissons Ratio (y) = 0.49833 0.20046
# Poissons Ratio (z) = 0.24367 0.18792
#
# Static dielectric constant tensor:
#      x y z
#    x 1.695830 0.000000 -0.010100 
#    y 0.000000 1.649200 0.000000 
#    z -0.010100 0.000000 1.638280 
# 
# From -- ./inp_files/333596.got.cif
#   From: 2010.05.17/outbox.cif.g08.bks.cpg/sg12_167_cif.got.tgz:333596.got - 2010.06.03 13:09:07.
