data_PCOD9175857
_publ_section_title
;
Structure prediction by ZEFSAII (Michael W. Deem and Ramdas Pophale) SiO2 
 PCOD9175857
Probable space group: C 2/M
;
_chemical_formula_sum "Si O2"
_cell_formula_units_Z 48
_cell_length_a 10.098015
_cell_length_b 24.492697
_cell_length_c 10.730412
_cell_angle_alpha 90.000000
_cell_angle_beta 42.579600
_cell_angle_gamma 90.000000
_cell_volume 1795.683932
_symmetry_space_group_name_H-M "C 2/M"
_symmetry_group_IT_number 12
_symmetry_cell_setting 'monoclinic'
loop_
_space_group_symop_operation_xyz
x,y,z
-x,y,-z
-x,-y,-z
x,-y,z
1/2+x,1/2+y,z
1/2-x,1/2+y,-z
1/2-x,1/2-y,-z
1/2+x,1/2-y,z
loop_
_atom_site_type_symbol
_atom_site_label
_atom_site_fract_x
_atom_site_fract_y
_atom_site_fract_z
Si Si1 0.287621 0.682169 0.217464
Si Si2 0.674870 0.088667 0.969943
Si Si3 0.760510 0.940156 0.178784
Si Si4 0.407832 0.440325 0.427076
Si Si5 0.232623 0.827316 0.483883
Si Si6 0.778123 0.800854 0.782794
O O1 0.214508 0.619874 0.265061
O O2 0.236893 0.696657 0.398864
O O3 0.217715 0.736447 0.193581
O O4 0.500000 0.677238 0.000000
O O5 0.895353 0.068382 0.788268
O O6 0.689672 0.154533 0.939103
O O7 0.500000 0.070323 0.000000
O O8 0.651719 0.065570 0.122358
O O9 0.712212 0.000000 0.267108
O O10 0.000000 0.940791 0.000000
O O11 0.500000 0.436447 0.500000
O O12 0.325814 0.500000 0.464454
O O13 0.253843 0.392549 0.517015
O O14 0.313830 0.809537 0.292542
O O15 0.002242 0.817685 0.626657
#
# Coordination Sequence:
#
# PCOD9175857 Si02
#       6
#     8   8   8   8   8   8
#     4  11  22  34  58  87 116 158 202 252 309 370
#     4  11  22  37  62  95 130 158 199 263 319 356
#     4  10  22  40  60  87 122 163 206 249 304 372
#     4  10  18  33  58  86 116 157 206 253 301 359
#     4  10  20  38  58  84 118 158 210 257 299 363
#     4  10  20  37  56  87 119 155 204 257 307 364
#
# _framework density 26.730758999999999
#
# number of rings (size 3 to 8) (size 9 to 14) (size 15 to 20)
#    0.000    1.667    3.333    5.500    0.000    7.333 
#    0.000    0.000    0.000    0.000    0.000    3.500 
#    0.000    0.000    0.000    0.000    0.000    0.000 
#
# Total GULP energy -133802.897912 kJ/mol
# GULP energy per Si atom -5575.120746 kJ/mol
# Density = 2.666992 g / cm^3
# Si number density = 26.730759 Si / 1000 Ang^3
#
#
#
# Elastic Constant Matrix: (Units=GPa)
#
#
# Indices 1 2 3 4 5 6 
#
# 1 94.2133 4.9854 15.9219 0.0000 19.4388 0.0000
# 2 4.9854 227.8684 2.5653 0.0000 2.4947 0.0000
# 3 15.9219 2.5653 58.9135 0.0000 -10.3123 0.0000
# 4 0.0000 0.0000 0.0000 4.1838 0.0000 2.5823
# 5 19.4388 2.4947 -10.3123 0.0000 40.0647 0.0000
# 6 0.0000 0.0000 0.0000 2.5823 0.0000 0.0556
#
#
#
# Elastic Compliance Matrix: (Units=1/GPa)
#
#
# Indices 1 2 3 4 5 6 
#
# 1 0.012992 -0.000147 -0.004824 0.000000 -0.007536 0.000000
# 2 -0.000147 0.004397 -0.000196 0.000000 -0.000253 0.000000
# 3 -0.004824 -0.000196 0.019580 0.000000 0.007393 0.000000
# 4 0.000000 0.000000 0.000000 -0.008646 0.000000 0.401255
# 5 -0.007536 -0.000253 0.007393 0.000000 0.030535 0.000000
# 6 0.000000 0.000000 0.000000 0.401255 0.000000 -0.650100
#
#
# Mechanical properties :
#
#
# Convention : Reuss Voigt Hill
#
# Bulk Modulus (GPa) = 37.54500 47.54894 42.54697
# Shear Modulus (GPa) = -8.74081 32.69567 11.97743
#
# Velocity S-wave (km/s) = -1.81026 3.50115 2.11908
# Velocity P-wave (km/s) = 3.11556 5.84558 4.68388
#
# Compressibility (1/GPa) = 0.02663470
#
# Stress axis : x y z
#
# Youngs Moduli (GPa) = 76.96960 227.44360 51.07177
#
# Poissons Ratio (x) = 0.03353 0.24637
# Poissons Ratio (y) = 0.01135 0.01000
# Poissons Ratio (z) = 0.37130 0.04454
#
# Static dielectric constant tensor:
#      x y z
#    x 2.132070 0.000000 0.081650 
#    y 0.000000 2.121140 0.000000 
#    z 0.081650 0.000000 2.179350 
# 
# From -- ./inp_files/135201.got.cif
#   From: 2010.05.17/outbox.cif.g08.bks.cpg/sg12_68_cif.got.tgz:135201.got - 2010.06.03 13:09:07.
