data_PCOD9175820
_publ_section_title
;
Structure prediction by ZEFSAII (Michael W. Deem and Ramdas Pophale) SiO2 
 PCOD9175820
Probable space group: C 2/M
;
_chemical_formula_sum "Si O2"
_cell_formula_units_Z 58
_cell_length_a 25.403543
_cell_length_b 7.568704
_cell_length_c 12.592813
_cell_angle_alpha 90.000000
_cell_angle_beta 83.864290
_cell_angle_gamma 90.000000
_cell_volume 2407.374005
_symmetry_space_group_name_H-M "C 2/M"
_symmetry_group_IT_number 12
_symmetry_cell_setting 'monoclinic'
loop_
_space_group_symop_operation_xyz
x,y,z
-x,y,-z
-x,-y,-z
x,-y,z
1/2+x,1/2+y,z
1/2-x,1/2+y,-z
1/2-x,1/2-y,-z
1/2+x,1/2-y,z
loop_
_atom_site_type_symbol
_atom_site_label
_atom_site_fract_x
_atom_site_fract_y
_atom_site_fract_z
Si Si1 0.629565 0.793292 0.501687
Si Si2 0.496836 0.703682 0.155016
Si Si3 0.707465 0.286293 0.657448
Si Si4 0.000000 0.500000 0.000000
Si Si5 0.811301 0.791272 0.959178
Si Si6 0.477212 0.212187 0.388762
Si Si7 0.321445 0.788354 0.712951
Si Si8 0.875498 0.785058 0.145235
O O1 0.685411 0.776870 0.549578
O O2 0.583290 0.719189 0.586366
O O3 0.635804 0.720303 0.381524
O O4 0.615995 0.000000 0.494794
O O5 0.503714 0.500000 0.120916
O O6 0.506151 0.714062 0.279150
O O7 0.435465 0.768425 0.154905
O O8 0.524867 0.843147 0.073562
O O9 0.708467 0.500000 0.654679
O O10 0.764183 0.222510 0.685332
O O11 0.664190 0.229068 0.753473
O O12 0.826595 0.744168 0.836128
O O13 0.815669 0.000000 0.966029
O O14 0.750000 0.750000 0.000000
O O15 0.850208 0.718485 0.041117
O O16 0.500000 0.252344 0.500000
O O17 0.479042 0.000000 0.373911
O O18 0.320847 0.000000 0.700562
O O19 0.876385 0.000000 0.144726
#
# Coordination Sequence:
#
# PCOD9175820 Si02
#       8
#     8   8   8   2   8   8   8   8
#     4  10  21  36  57  87 120 157 207 260 314 377
#     4  11  23  45  72  99 133 171 219 277 337 405
#     4  10  18  33  58  81 120 161 200 254 308 365
#     4  12  26  48  70 106 132 168 218 282 340 406
#     4  11  21  37  57  83 121 166 212 256 307 373
#     4  10  21  41  66  94 130 170 217 273 333 404
#     4  10  21  37  52  83 125 164 205 258 313 364
#     4   9  19  37  61  87 120 163 208 259 310 374
#
# _framework density 24.092641
#
# number of rings (size 3 to 8) (size 9 to 14) (size 15 to 20)
#    0.000    1.793    3.448    1.034    0.000    1.379 
#    4.966    0.000    0.000    0.000    0.000    0.000 
#    0.000    0.000    0.000    0.000    0.000    0.000 
#
# Total GULP energy -161853.029278 kJ/mol
# GULP energy per Si atom -5581.138941 kJ/mol
# Density = 2.403781 g / cm^3
# Si number density = 24.092641 Si / 1000 Ang^3
#
#
#
# Elastic Constant Matrix: (Units=GPa)
#
#
# Indices 1 2 3 4 5 6 
#
# 1 26.4465 1.4065 5.3527 0.0000 9.5181 0.0000
# 2 1.4065 93.4433 16.7373 0.0000 -5.8187 0.0000
# 3 5.3527 16.7373 178.6779 0.0000 1.3202 0.0000
# 4 0.0000 0.0000 0.0000 25.2874 0.0000 7.9251
# 5 9.5181 -5.8187 1.3202 0.0000 32.7200 0.0000
# 6 0.0000 0.0000 0.0000 7.9251 0.0000 -1.8699
#
#
#
# Elastic Compliance Matrix: (Units=1/GPa)
#
#
# Indices 1 2 3 4 5 6 
#
# 1 0.042619 -0.001233 -0.001068 0.000000 -0.012574 0.000000
# 2 -0.001233 0.011049 -0.001016 0.000000 0.002365 0.000000
# 3 -0.001068 -0.001016 0.005725 0.000000 -0.000101 0.000000
# 4 0.000000 0.000000 0.000000 0.016985 0.000000 0.071986
# 5 -0.012574 0.002365 -0.000101 0.000000 0.034645 0.000000
# 6 0.000000 0.000000 0.000000 0.071986 0.000000 -0.229692
#
#
# Mechanical properties :
#
#
# Convention : Reuss Voigt Hill
#
# Bulk Modulus (GPa) = 18.95400 38.39564 28.67482
# Shear Modulus (GPa) = -52.93874 29.56555 -11.68659
#
# Velocity S-wave (km/s) = -4.69262 3.50689 -2.20482
# Velocity P-wave (km/s) = 4.63430 5.68937 2.33369
#
# Compressibility (1/GPa) = 0.05275932
#
# Stress axis : x y z
#
# Youngs Moduli (GPa) = 23.46344 90.50276 174.68641
#
# Poissons Ratio (x) = 0.11160 0.18662
# Poissons Ratio (y) = 0.02893 0.17740
# Poissons Ratio (z) = 0.02507 0.09191
#
# Static dielectric constant tensor:
#      x y z
#    x 1.963360 0.000000 -0.013800 
#    y 0.000000 1.883690 0.000000 
#    z -0.013800 0.000000 1.945810 
# 
# From -- ./inp_files/186641.got.cif
#   From: 2010.05.17/outbox.cif.g08.bks.cpg/sg12_94_cif.got.tgz:186641.got - 2010.06.03 13:09:07.
