data_PCOD9175895
_publ_section_title
;
Structure prediction by ZEFSAII (Michael W. Deem and Ramdas Pophale) SiO2 
 PCOD9175895
Probable space group: C 2/M
;
_chemical_formula_sum "Si O2"
_cell_formula_units_Z 64
_cell_length_a 20.042476
_cell_length_b 24.192851
_cell_length_c 12.310105
_cell_angle_alpha 90.000000
_cell_angle_beta 141.917260
_cell_angle_gamma 90.000000
_cell_volume 3681.660107
_symmetry_space_group_name_H-M "C 2/M"
_symmetry_group_IT_number 12
_symmetry_cell_setting 'monoclinic'
loop_
_space_group_symop_operation_xyz
x,y,z
-x,y,-z
-x,-y,-z
x,-y,z
1/2+x,1/2+y,z
1/2-x,1/2+y,-z
1/2-x,1/2-y,-z
1/2+x,1/2-y,z
loop_
_atom_site_type_symbol
_atom_site_label
_atom_site_fract_x
_atom_site_fract_y
_atom_site_fract_z
Si Si1 0.846498 0.729483 0.699538
Si Si2 0.738978 0.560847 0.700925
Si Si3 0.108806 0.435134 0.893376
Si Si4 0.082068 0.606038 0.204966
Si Si5 0.246197 0.758407 0.186211
Si Si6 0.091828 0.345734 0.698036
Si Si7 0.033028 0.753387 0.780113
Si Si8 0.908829 0.163359 0.463851
O O1 0.750000 0.750000 0.500000
O O2 0.854585 0.663307 0.701450
O O3 0.817619 0.752070 0.781622
O O4 0.960387 0.747106 0.794386
O O5 0.688448 0.500000 0.639830
O O6 0.830510 0.562668 0.725348
O O7 0.658595 0.611542 0.580701
O O8 0.804148 0.570415 0.897478
O O9 0.102815 0.500000 0.857579
O O10 0.137127 0.394560 0.831039
O O11 0.993293 0.414530 0.793974
O O12 0.000000 0.616141 0.000000
O O13 0.319909 0.811991 0.258981
O O14 0.328180 0.706000 0.297808
O O15 0.156449 0.759017 0.976955
O O16 0.035868 0.300430 0.706287
O O17 0.000000 0.367680 0.500000
O O18 0.973608 0.801412 0.636673
O O19 0.000000 0.142054 0.500000
#
# Coordination Sequence:
#
# PCOD9175895 Si02
#       8
#     8   8   8   8   8   8   8   8
#     4  12  21  35  56  89 123 149 189 239 288 356
#     4  10  21  38  58  85 118 149 191 246 299 349
#     4  10  22  37  60  88 115 153 199 243 295 353
#     4  10  18  33  59  85 116 148 186 240 298 350
#     4  12  23  37  57  86 118 158 191 241 288 353
#     4  12  22  38  57  83 118 158 194 240 293 347
#     4  12  22  37  59  85 118 156 193 236 291 352
#     4  12  23  37  56  86 117 155 195 234 291 349
#
# _framework density 17.383462999999999
#
# number of rings (size 3 to 8) (size 9 to 14) (size 15 to 20)
#    0.000    0.750    6.250    2.625    1.750    2.000 
#    0.000    0.000    0.000    0.000    0.000    0.000 
#    0.000    3.000    0.000    0.000    0.000    0.000 
#
# Total GULP energy -178530.157828 kJ/mol
# GULP energy per Si atom -5579.067432 kJ/mol
# Density = 1.734390 g / cm^3
# Si number density = 17.383463 Si / 1000 Ang^3
#
#
#
# Elastic Constant Matrix: (Units=GPa)
#
#
# Indices 1 2 3 4 5 6 
#
# 1 59.8311 12.2119 5.1292 0.0000 6.3230 0.0000
# 2 12.2119 98.7186 33.7990 0.0000 -5.5149 0.0000
# 3 5.1292 33.7990 78.5767 0.0000 11.0779 0.0000
# 4 0.0000 0.0000 0.0000 17.2715 0.0000 2.3985
# 5 6.3230 -5.5149 11.0779 0.0000 18.7576 0.0000
# 6 0.0000 0.0000 0.0000 2.3985 0.0000 -1.8884
#
#
#
# Elastic Compliance Matrix: (Units=1/GPa)
#
#
# Indices 1 2 3 4 5 6 
#
# 1 0.018055 -0.003089 0.001240 0.000000 -0.007726 0.000000
# 2 -0.003089 0.013343 -0.006804 0.000000 0.008983 0.000000
# 3 0.001240 -0.006804 0.017359 0.000000 -0.012670 0.000000
# 4 0.000000 0.000000 0.000000 0.049217 0.000000 0.062514
# 5 -0.007726 0.008983 -0.012670 0.000000 0.066040 0.000000
# 6 0.000000 0.000000 0.000000 0.062514 0.000000 -0.450151
#
#
# Mechanical properties :
#
#
# Convention : Reuss Voigt Hill
#
# Bulk Modulus (GPa) = 31.79824 37.71185 34.75504
# Shear Modulus (GPa) = -19.35389 19.22722 -0.06334
#
# Velocity S-wave (km/s) = -3.34031 3.32936 -0.19109
# Velocity P-wave (km/s) = 1.85877 6.04324 4.47078
#
# Compressibility (1/GPa) = 0.03144828
#
# Stress axis : x y z
#
# Youngs Moduli (GPa) = 55.38767 74.94288 57.60832
#
# Poissons Ratio (x) = 0.23154 -0.07142
# Poissons Ratio (y) = 0.17112 0.39199
# Poissons Ratio (z) = -0.06866 0.50994
#
# Static dielectric constant tensor:
#      x y z
#    x 1.662540 0.000000 -0.017500 
#    y 0.000000 1.588660 0.000000 
#    z -0.017500 0.000000 1.599880 
# 
# From -- ./inp_files/170182.got.cif
#   From: 2010.05.17/outbox.cif.g08.bks.cpg/sg12_86_cif.got.tgz:170182.got - 2010.06.03 13:09:07.
