data_PCOD9175902
_publ_section_title
;
Structure prediction by ZEFSAII (Michael W. Deem and Ramdas Pophale) SiO2 
 PCOD9175902
Probable space group: C 2/M
;
_chemical_formula_sum "Si O2"
_cell_formula_units_Z 44
_cell_length_a 11.111192
_cell_length_b 20.753974
_cell_length_c 12.972055
_cell_angle_alpha 90.000000
_cell_angle_beta 54.279663
_cell_angle_gamma 90.000000
_cell_volume 2428.625731
_symmetry_space_group_name_H-M "C 2/M"
_symmetry_group_IT_number 12
_symmetry_cell_setting 'monoclinic'
loop_
_space_group_symop_operation_xyz
x,y,z
-x,y,-z
-x,-y,-z
x,-y,z
1/2+x,1/2+y,z
1/2-x,1/2+y,-z
1/2-x,1/2-y,-z
1/2+x,1/2-y,z
loop_
_atom_site_type_symbol
_atom_site_label
_atom_site_fract_x
_atom_site_fract_y
_atom_site_fract_z
Si Si1 0.607744 0.817997 0.167149
Si Si2 0.170016 0.329307 0.374521
Si Si3 0.721581 0.188228 0.700063
Si Si4 0.500000 0.396189 0.500000
Si Si5 0.324963 0.670287 0.878384
Si Si6 0.419397 0.572944 0.313056
O O1 0.666995 0.831763 0.251548
O O2 0.437483 0.838561 0.250813
O O3 0.604063 0.741251 0.141887
O O4 0.714715 0.846127 0.026431
O O5 0.250297 0.260720 0.354747
O O6 0.267609 0.386975 0.372451
O O7 0.000000 0.328072 0.500000
O O8 0.857156 0.147751 0.589366
O O9 0.735849 0.181395 0.816537
O O10 0.535406 0.430941 0.589172
O O11 0.451226 0.616729 0.802073
O O12 0.409586 0.500000 0.277245
#
# Coordination Sequence:
#
# PCOD9175902 Si02
#       6
#     8   8   8   4   8   8
#     4  10  19  34  56  84 116 141 182 240 293 333
#     4  11  22  34  55  86 119 150 183 232 288 335
#     4  10  18  33  59  86 115 140 183 244 290 328
#     4  10  21  36  62  86 107 150 190 238 286 322
#     4   9  20  34  55  84 110 148 190 233 280 329
#     4  11  23  40  57  80 117 156 194 224 270 345
#
# _framework density 18.117242000000001
#
# number of rings (size 3 to 8) (size 9 to 14) (size 15 to 20)
#    0.000    1.818    2.727    1.909    0.000    2.545 
#    0.000    1.818    0.000   10.909    0.000    0.000 
#    0.000    0.000    0.000    0.000    0.000    0.000 
#
# Total GULP energy -122681.336825 kJ/mol
# GULP energy per Si atom -5576.424401 kJ/mol
# Density = 1.807601 g / cm^3
# Si number density = 18.117242 Si / 1000 Ang^3
#
#
#
# Elastic Constant Matrix: (Units=GPa)
#
#
# Indices 1 2 3 4 5 6 
#
# 1 53.4917 24.6766 46.3829 0.0000 -21.7739 0.0000
# 2 24.6766 82.4917 41.1917 0.0000 -2.1710 0.0000
# 3 46.3829 41.1917 118.3807 0.0000 -2.7074 0.0000
# 4 0.0000 0.0000 0.0000 -25.7664 0.0000 6.8702
# 5 -21.7739 -2.1710 -2.7074 0.0000 22.7867 0.0000
# 6 0.0000 0.0000 0.0000 6.8702 0.0000 7.5602
#
#
#
# Elastic Compliance Matrix: (Units=1/GPa)
#
#
# Indices 1 2 3 4 5 6 
#
# 1 0.063976 -0.006969 -0.021317 0.000000 0.057936 0.000000
# 2 -0.006969 0.015445 -0.002770 0.000000 -0.005517 0.000000
# 3 -0.021317 -0.002770 0.017338 0.000000 -0.018573 0.000000
# 4 0.000000 0.000000 0.000000 -0.031241 0.000000 0.028389
# 5 0.057936 -0.005517 -0.018573 0.000000 0.096514 0.000000
# 6 0.000000 0.000000 0.000000 0.028389 0.000000 0.106473
#
#
# Mechanical properties :
#
#
# Convention : Reuss Voigt Hill
#
# Bulk Modulus (GPa) = 28.86112 53.20740 41.03426
# Shear Modulus (GPa) = 14.61279 10.39030 12.50155
#
# Velocity S-wave (km/s) = 2.84310 2.39739 2.62970
# Velocity P-wave (km/s) = 5.17130 6.09060 5.64968
#
# Compressibility (1/GPa) = 0.03464869
#
# Stress axis : x y z
#
# Youngs Moduli (GPa) = 15.63090 64.74566 57.67514
#
# Poissons Ratio (x) = 0.45120 1.22944
# Poissons Ratio (y) = 0.10893 0.15976
# Poissons Ratio (z) = 0.33320 0.17934
#
# Static dielectric constant tensor:
#      x y z
#    x 1.652440 0.000000 0.026260 
#    y 0.000000 1.608710 0.000000 
#    z 0.026260 0.000000 1.621090 
# 
# From -- ./inp_files/207545.got.cif
#   From: 2010.05.17/outbox.cif.g08.bks.cpg/sg12_104_cif.got.tgz:207545.got - 2010.06.03 13:09:07.
