data_PCOD9175048
_publ_section_title
;
Structure prediction by ZEFSAII (Michael W. Deem and Ramdas Pophale) SiO2 
 PCOD9175048
Probable space group: C 2/M
;
_chemical_formula_sum "Si O2"
_cell_formula_units_Z 48
_cell_length_a 18.018770
_cell_length_b 16.631044
_cell_length_c 12.163421
_cell_angle_alpha 90.000000
_cell_angle_beta 44.952429
_cell_angle_gamma 90.000000
_cell_volume 2575.280348
_symmetry_space_group_name_H-M "C 2/M"
_symmetry_group_IT_number 12
_symmetry_cell_setting 'monoclinic'
loop_
_space_group_symop_operation_xyz
x,y,z
-x,y,-z
-x,-y,-z
x,-y,z
1/2+x,1/2+y,z
1/2-x,1/2+y,-z
1/2-x,1/2-y,-z
1/2+x,1/2-y,z
loop_
_atom_site_type_symbol
_atom_site_label
_atom_site_fract_x
_atom_site_fract_y
_atom_site_fract_z
Si Si1 0.977052 0.246190 0.834632
Si Si2 0.235697 0.088129 0.253831
Si Si3 0.292977 0.245506 0.331157
Si Si4 0.070448 0.185981 0.331604
Si Si5 0.752046 0.187901 0.155240
Si Si6 0.871695 0.590736 0.887532
O O1 0.993414 0.187474 0.713062
O O2 0.955336 0.336900 0.812662
O O3 0.081255 0.246763 0.796574
O O4 0.870363 0.213901 0.001824
O O5 0.263753 0.159861 0.306976
O O6 0.119116 0.105077 0.328920
O O7 0.244435 0.000000 0.294881
O O8 0.310564 0.090960 0.068161
O O9 0.250000 0.250000 0.500000
O O10 0.247462 0.311501 0.292750
O O11 0.173542 0.240061 0.202102
O O12 0.000000 0.224547 0.500000
O O13 0.708470 0.114948 0.127313
O O14 0.912279 0.500000 0.827546
#
# Coordination Sequence:
#
# PCOD9175048 Si02
#       6
#     8   8   8   8   8   8
#     4  11  18  34  57  82 106 140 184 224 267 319
#     4  10  20  36  55  80 111 140 180 227 275 321
#     4  11  23  36  55  81 112 146 180 223 273 325
#     4  10  18  32  55  80 108 139 179 225 269 315
#     4  10  19  36  55  80 108 142 186 223 261 321
#     4  10  19  34  58  85 108 137 181 232 273 313
#
# _framework density 18.638746999999999
#
# number of rings (size 3 to 8) (size 9 to 14) (size 15 to 20)
#    0.000    1.667    5.000    3.500    0.000    1.000 
#    0.000    2.500    0.000   20.000    0.000    0.000 
#    0.000    0.000    0.000    0.000    0.000    0.000 
#
# Total GULP energy -133661.346131 kJ/mol
# GULP energy per Si atom -5569.222755 kJ/mol
# Density = 1.859632 g / cm^3
# Si number density = 18.638747 Si / 1000 Ang^3
#
#
#
# Elastic Constant Matrix: (Units=GPa)
#
#
# Indices 1 2 3 4 5 6 
#
# 1 88.9206 18.9506 9.1307 0.0000 18.6085 0.0000
# 2 18.9506 31.8520 2.1535 0.0000 9.7533 0.0000
# 3 9.1307 2.1535 63.3954 0.0000 20.7511 0.0000
# 4 0.0000 0.0000 0.0000 10.5707 0.0000 4.8370
# 5 18.6085 9.7533 20.7511 0.0000 38.1347 0.0000
# 6 0.0000 0.0000 0.0000 4.8370 0.0000 19.1840
#
#
#
# Elastic Compliance Matrix: (Units=1/GPa)
#
#
# Indices 1 2 3 4 5 6 
#
# 1 0.013703 -0.006639 -0.000140 0.000000 -0.004913 0.000000
# 2 -0.006639 0.037502 0.002143 0.000000 -0.007518 0.000000
# 3 -0.000140 0.002143 0.019320 0.000000 -0.010993 0.000000
# 4 0.000000 0.000000 0.000000 0.106940 0.000000 -0.026964
# 5 -0.004913 -0.007518 -0.010993 0.000000 0.036524 0.000000
# 6 0.000000 0.000000 0.000000 -0.026964 0.000000 0.058925
#
#
# Mechanical properties :
#
#
# Convention : Reuss Voigt Hill
#
# Bulk Modulus (GPa) = 16.32577 27.18198 21.75387
# Shear Modulus (GPa) = 16.52320 23.84009 20.18165
#
# Velocity S-wave (km/s) = 2.98064 3.58028 3.29413
# Velocity P-wave (km/s) = 4.54133 5.63084 5.11518
#
# Compressibility (1/GPa) = 0.06125287
#
# Stress axis : x y z
#
# Youngs Moduli (GPa) = 72.97481 26.66499 51.76098
#
# Poissons Ratio (x) = 0.17703 0.00725
# Poissons Ratio (y) = 0.48450 -0.11093
# Poissons Ratio (z) = 0.01023 -0.05715
#
# Static dielectric constant tensor:
#      x y z
#    x 1.673530 0.000000 0.009200 
#    y 0.000000 1.653750 0.000000 
#    z 0.009200 0.000000 1.711380 
# 
# From -- ./inp_files/157668.got.cif
#   From: 2010.05.17/outbox.cif.g08.bks.cpg/sg12_79_cif.got.tgz:157668.got - 2010.06.03 13:09:07.
