data_PCOD9175628
_publ_section_title
;
Structure prediction by ZEFSAII (Michael W. Deem and Ramdas Pophale) SiO2 
 PCOD9175628
Probable space group: C 2/M
;
_chemical_formula_sum "Si O2"
_cell_formula_units_Z 64
_cell_length_a 13.674365
_cell_length_b 24.020370
_cell_length_c 14.609680
_cell_angle_alpha 90.000000
_cell_angle_beta 42.172894
_cell_angle_gamma 90.000000
_cell_volume 3221.732857
_symmetry_space_group_name_H-M "C 2/M"
_symmetry_group_IT_number 12
_symmetry_cell_setting 'monoclinic'
loop_
_space_group_symop_operation_xyz
x,y,z
-x,y,-z
-x,-y,-z
x,-y,z
1/2+x,1/2+y,z
1/2-x,1/2+y,-z
1/2-x,1/2-y,-z
1/2+x,1/2-y,z
loop_
_atom_site_type_symbol
_atom_site_label
_atom_site_fract_x
_atom_site_fract_y
_atom_site_fract_z
Si Si1 0.360203 0.664704 0.915067
Si Si2 0.914745 0.242410 0.140605
Si Si3 0.725607 0.319111 0.378735
Si Si4 0.660878 0.172326 0.215656
Si Si5 0.643122 0.562720 0.465015
Si Si6 0.652977 0.064572 0.340138
Si Si7 0.532224 0.279431 0.339646
Si Si8 0.560759 0.435876 0.735860
O O1 0.475535 0.697187 0.897142
O O2 0.375114 0.696075 0.808669
O O3 0.427317 0.603675 0.854941
O O4 0.211162 0.669058 0.075165
O O5 0.863953 0.282436 0.257092
O O6 0.783541 0.206865 0.187576
O O7 0.000000 0.273667 0.000000
O O8 0.745132 0.385341 0.369108
O O9 0.621778 0.301826 0.365082
O O10 0.630900 0.302151 0.533201
O O11 0.650182 0.110780 0.263337
O O12 0.526315 0.212785 0.331875
O O13 0.500000 0.567349 0.500000
O O14 0.702953 0.500000 0.412192
O O15 0.594939 0.569076 0.604078
O O16 0.500000 0.068750 0.500000
O O17 0.791389 0.077011 0.310085
O O18 0.667442 0.000000 0.299449
O O19 0.524450 0.500000 0.779956
#
# Coordination Sequence:
#
# PCOD9175628 Si02
#       8
#     8   8   8   8   8   8   8   8
#     4  11  19  35  51  79 112 141 181 226 281 340
#     4   9  20  33  49  74 107 140 172 219 275 326
#     4  10  18  34  52  75 104 139 175 222 271 333
#     4  10  21  34  53  75 111 148 180 226 279 331
#     4  10  18  33  55  83 112 138 174 230 290 331
#     4  10  22  39  57  77 109 152 195 237 279 325
#     4  10  20  32  52  79 107 140 179 224 275 333
#     4  10  20  34  56  84 112 143 187 237 277 332
#
# _framework density 19.865086999999999
#
# number of rings (size 3 to 8) (size 9 to 14) (size 15 to 20)
#    0.000    2.000    3.750    0.375    3.500    1.000 
#    2.250    1.250    0.000    0.375    0.000    0.000 
#    0.000    0.000    0.000    0.000    0.000    0.000 
#
# Total GULP energy -178417.041375 kJ/mol
# GULP energy per Si atom -5575.532543 kJ/mol
# Density = 1.981987 g / cm^3
# Si number density = 19.865087 Si / 1000 Ang^3
#
#
#
# Elastic Constant Matrix: (Units=GPa)
#
#
# Indices 1 2 3 4 5 6 
#
# 1 27.0642 2.8911 3.9386 0.0000 11.3030 0.0000
# 2 2.8911 127.7284 50.9013 0.0000 10.5397 0.0000
# 3 3.9386 50.9013 68.4075 -0.0002 16.7876 0.0001
# 4 0.0000 0.0000 -0.0002 26.4205 0.0001 9.8500
# 5 11.3030 10.5397 16.7876 0.0001 24.3981 -0.0001
# 6 0.0000 0.0000 0.0001 9.8500 -0.0001 14.3488
#
#
#
# Elastic Compliance Matrix: (Units=1/GPa)
#
#
# Indices 1 2 3 4 5 6 
#
# 1 0.046385 -0.000494 0.003511 0.000000 -0.023692 -0.000001
# 2 -0.000494 0.011158 -0.008599 0.000000 0.001326 0.000000
# 3 0.003511 -0.008599 0.024427 0.000000 -0.014719 -0.000001
# 4 0.000000 0.000000 0.000000 0.050868 -0.000001 -0.034919
# 5 -0.023692 0.001326 -0.014719 -0.000001 0.061518 0.000001
# 6 -0.000001 0.000000 -0.000001 -0.034919 0.000001 0.093663
#
#
# Mechanical properties :
#
#
# Convention : Reuss Voigt Hill
#
# Bulk Modulus (GPa) = 14.12321 37.62912 25.87616
# Shear Modulus (GPa) = 15.49017 24.06475 19.77746
#
# Velocity S-wave (km/s) = 2.79546 3.48431 3.15872
# Velocity P-wave (km/s) = 4.18861 5.93048 5.13396
#
# Compressibility (1/GPa) = 0.07080545
#
# Stress axis : x y z
#
# Youngs Moduli (GPa) = 21.55847 89.62308 40.93826
#
# Poissons Ratio (x) = 0.04429 -0.14374
# Poissons Ratio (y) = 0.01065 0.35204
# Poissons Ratio (z) = -0.07569 0.77070
#
# Static dielectric constant tensor:
#      x y z
#    x 1.747680 0.000000 -0.004950 
#    y 0.000000 1.707490 0.000000 
#    z -0.004950 0.000000 1.747210 
# 
# From -- ./inp_files/218495.got.cif
#   From: 2010.05.17/outbox.cif.g08.bks.cpg/sg12_110_cif.got.tgz:218495.got - 2010.06.03 13:09:07.
