data_PCOD9175385
_publ_section_title
;
Structure prediction by ZEFSAII (Michael W. Deem and Ramdas Pophale) SiO2 
 PCOD9175385
Probable space group: C 2/M
;
_chemical_formula_sum "Si O2"
_cell_formula_units_Z 36
_cell_length_a 14.011796
_cell_length_b 14.442473
_cell_length_c 8.411067
_cell_angle_alpha 90.000000
_cell_angle_beta 69.944182
_cell_angle_gamma 90.000000
_cell_volume 1598.888034
_symmetry_space_group_name_H-M "C 2/M"
_symmetry_group_IT_number 12
_symmetry_cell_setting 'monoclinic'
loop_
_space_group_symop_operation_xyz
x,y,z
-x,y,-z
-x,-y,-z
x,-y,z
1/2+x,1/2+y,z
1/2-x,1/2+y,-z
1/2-x,1/2-y,-z
1/2+x,1/2-y,z
loop_
_atom_site_type_symbol
_atom_site_label
_atom_site_fract_x
_atom_site_fract_y
_atom_site_fract_z
Si Si1 0.584448 0.105093 0.563850
Si Si2 0.283892 0.864172 0.808487
Si Si3 0.814190 0.000000 0.701386
Si Si4 0.239236 0.688042 0.661995
Si Si5 0.889849 0.000000 0.990260
Si Si6 0.107553 0.500000 0.025638
O O1 0.500000 0.152439 0.500000
O O2 0.677831 0.100546 0.385790
O O3 0.623363 0.153300 0.701250
O O4 0.552012 0.000000 0.617930
O O5 0.266889 0.754229 0.793901
O O6 0.367325 0.908268 0.881108
O O7 0.178622 0.912550 0.916702
O O8 0.810844 0.097809 0.615212
O O9 0.894517 0.000000 0.796717
O O10 0.703547 0.000000 0.851137
O O11 0.250000 0.750000 0.500000
O O12 0.000000 0.000000 0.000000
O O13 0.000000 0.500000 0.000000
#
# Coordination Sequence:
#
# PCOD9175385 Si02
#       6
#     8   8   4   8   4   4
#     4  10  18  32  63  91 121 155 193 257 332 364
#     4   9  20  40  58  89 126 156 206 251 306 366
#     4  10  22  40  59  88 120 159 210 251 311 367
#     4  10  21  37  62  87 126 158 193 262 317 373
#     4  10  22  43  63  79 119 178 209 247 290 365
#     4  10  22  35  63  91 123 159 195 258 316 365
#
# _framework density 22.515649
#
# number of rings (size 3 to 8) (size 9 to 14) (size 15 to 20)
#    0.000    2.444    3.333    0.000    3.111    3.556 
#    8.000    2.222    0.000    5.333    0.000    0.000 
#    0.000    0.000    0.000    0.000    0.000    0.000 
#
# Total GULP energy -100273.482072 kJ/mol
# GULP energy per Si atom -5570.749004 kJ/mol
# Density = 2.246440 g / cm^3
# Si number density = 22.515649 Si / 1000 Ang^3
#
#
#
# Elastic Constant Matrix: (Units=GPa)
#
#
# Indices 1 2 3 4 5 6 
#
# 1 148.3321 45.6833 25.8739 0.0000 56.2772 0.0000
# 2 45.6833 148.6603 27.2755 0.0000 35.5008 0.0000
# 3 25.8739 27.2755 65.7905 0.0000 28.8634 0.0000
# 4 0.0000 0.0000 0.0000 36.7491 0.0000 18.1571
# 5 56.2772 35.5008 28.8634 0.0000 44.7365 0.0000
# 6 0.0000 0.0000 0.0000 18.1571 0.0000 26.3818
#
#
#
# Elastic Compliance Matrix: (Units=1/GPa)
#
#
# Indices 1 2 3 4 5 6 
#
# 1 0.013299 -0.000221 0.002963 0.000000 -0.018466 0.000000
# 2 -0.000221 0.008331 -0.000821 0.000000 -0.005804 0.000000
# 3 0.002963 -0.000821 0.021932 0.000000 -0.017226 0.000000
# 4 0.000000 0.000000 0.000000 0.041233 0.000000 -0.028378
# 5 -0.018466 -0.005804 -0.017226 0.000000 0.061303 0.000000
# 6 0.000000 0.000000 0.000000 -0.028378 0.000000 0.057436
#
#
# Mechanical properties :
#
#
# Convention : Reuss Voigt Hill
#
# Bulk Modulus (GPa) = 21.09493 62.27204 41.68348
# Shear Modulus (GPa) = 23.20271 39.17016 31.18644
#
# Velocity S-wave (km/s) = 3.21365 4.17548 3.72573
# Velocity P-wave (km/s) = 4.81242 7.13887 6.08781
#
# Compressibility (1/GPa) = 0.04740476
#
# Stress axis : x y z
#
# Youngs Moduli (GPa) = 75.19535 120.03074 45.59494
#
# Poissons Ratio (x) = 0.02647 -0.13508
# Poissons Ratio (y) = 0.01658 0.03742
# Poissons Ratio (z) = -0.22278 0.09852
#
# Static dielectric constant tensor:
#      x y z
#    x 1.892220 0.000000 -0.016290 
#    y 0.000000 1.962040 0.000000 
#    z -0.016290 0.000000 1.939020 
# 
# From -- ./inp_files/58569.got.cif
#   From: 2010.05.17/outbox.cif.g08.bks.cpg/sg12_30_cif.got.tgz:58569.got - 2010.06.03 13:09:07.
