data_PCOD9175459
_publ_section_title
;
Structure prediction by ZEFSAII (Michael W. Deem and Ramdas Pophale) SiO2 
 PCOD9175459
Probable space group: C 2/M
;
_chemical_formula_sum "Si O2"
_cell_formula_units_Z 56
_cell_length_a 25.834213
_cell_length_b 13.945424
_cell_length_c 8.566372
_cell_angle_alpha 90.000000
_cell_angle_beta 73.902409
_cell_angle_gamma 90.000000
_cell_volume 2965.191393
_symmetry_space_group_name_H-M "C 2/M"
_symmetry_group_IT_number 12
_symmetry_cell_setting 'monoclinic'
loop_
_space_group_symop_operation_xyz
x,y,z
-x,y,-z
-x,-y,-z
x,-y,z
1/2+x,1/2+y,z
1/2-x,1/2+y,-z
1/2-x,1/2-y,-z
1/2+x,1/2-y,z
loop_
_atom_site_type_symbol
_atom_site_label
_atom_site_fract_x
_atom_site_fract_y
_atom_site_fract_z
Si Si1 0.125110 0.184853 0.739156
Si Si2 0.972254 0.886277 0.359458
Si Si3 0.321932 0.303570 0.804713
Si Si4 0.581238 0.386901 0.104144
Si Si5 0.774216 0.146979 0.517876
Si Si6 0.667165 0.102350 0.759162
Si Si7 0.221960 0.609833 0.056186
O O1 0.081744 0.168563 0.639354
O O2 0.181008 0.129827 0.651260
O O3 0.137391 0.298085 0.748398
O O4 0.099255 0.142755 0.917022
O O5 0.000000 0.860650 0.500000
O O6 0.018501 0.870600 0.191315
O O7 0.959674 0.000000 0.375091
O O8 0.381805 0.326406 0.808413
O O9 0.307101 0.349511 0.652184
O O10 0.306368 0.191014 0.815476
O O11 0.281927 0.352320 0.966029
O O12 0.591476 0.500000 0.121817
O O13 0.750000 0.250000 0.500000
O O14 0.718959 0.094355 0.602613
O O15 0.637101 0.000000 0.774772
O O16 0.690964 0.111574 0.915122
O O17 0.222231 0.500000 0.112856
#
# Coordination Sequence:
#
# PCOD9175459 Si02
#       7
#     8   8   8   8   8   8   8
#     4  11  20  36  56  82 111 145 182 230 274 321
#     4  10  22  39  59  82 108 141 180 224 281 337
#     4  10  18  33  52  76 110 141 179 222 268 321
#     4  11  22  35  55  84 110 139 180 229 279 325
#     4   9  20  34  52  78 112 149 184 219 265 320
#     4   9  18  34  54  79 111 148 184 219 268 325
#     4   9  17  30  52  77 105 142 181 219 262 316
#
# _framework density 18.885797
#
# number of rings (size 3 to 8) (size 9 to 14) (size 15 to 20)
#    0.000    2.143    1.429    2.143    2.000    2.857 
#    0.000    2.857    0.000    3.000    0.000    0.000 
#    0.000    0.000    0.000    0.000    0.000    0.000 
#
# Total GULP energy -156158.159230 kJ/mol
# GULP energy per Si atom -5577.077115 kJ/mol
# Density = 1.884281 g / cm^3
# Si number density = 18.885797 Si / 1000 Ang^3
#
#
#
# Elastic Constant Matrix: (Units=GPa)
#
#
# Indices 1 2 3 4 5 6 
#
# 1 57.3672 3.5642 -5.4729 0.0000 -3.5837 0.0000
# 2 3.5642 81.0268 -7.0285 0.0000 -10.9204 0.0000
# 3 -5.4729 -7.0285 57.4587 0.0000 -14.8683 0.0000
# 4 0.0000 0.0000 0.0000 9.4307 0.0000 -0.6362
# 5 -3.5837 -10.9204 -14.8683 0.0000 24.0129 0.0000
# 6 0.0000 0.0000 0.0000 -0.6362 0.0000 21.3501
#
#
#
# Elastic Compliance Matrix: (Units=1/GPa)
#
#
# Indices 1 2 3 4 5 6 
#
# 1 0.017984 0.000066 0.002886 0.000000 0.004501 0.000000
# 2 0.000066 0.013866 0.003973 0.000000 0.008776 0.000000
# 3 0.002886 0.003973 0.022320 0.000000 0.016057 0.000000
# 4 0.000000 0.000000 0.000000 0.106251 0.000000 0.003166
# 5 0.004501 0.008776 0.016057 0.000000 0.056249 0.000000
# 6 0.000000 0.000000 0.000000 0.003166 0.000000 0.046933
#
#
# Mechanical properties :
#
#
# Convention : Reuss Voigt Hill
#
# Bulk Modulus (GPa) = 14.70175 19.77537 17.23856
# Shear Modulus (GPa) = 18.35361 24.61140 21.48250
#
# Velocity S-wave (km/s) = 3.12079 3.61386 3.37634
# Velocity P-wave (km/s) = 4.55930 5.28272 4.93428
#
# Compressibility (1/GPa) = 0.06801912
#
# Stress axis : x y z
#
# Youngs Moduli (GPa) = 55.60526 72.11818 44.80333
#
# Poissons Ratio (x) = -0.00474 -0.12928
# Poissons Ratio (y) = -0.00366 -0.17802
# Poissons Ratio (z) = -0.16045 -0.28655
#
# Static dielectric constant tensor:
#      x y z
#    x 1.651760 0.000000 0.037890 
#    y 0.000000 1.679310 0.000000 
#    z 0.037890 0.000000 1.768660 
# 
# From -- ./inp_files/96244.got.cif
#   From: 2010.05.17/outbox.cif.g08.bks.cpg/sg12_49_cif.got.tgz:96244.got - 2010.06.03 13:09:07.
