data_PCOD9175357
_publ_section_title
;
Structure prediction by ZEFSAII (Michael W. Deem and Ramdas Pophale) SiO2 
 PCOD9175357
Probable space group: C 2/M
;
_chemical_formula_sum "Si O2"
_cell_formula_units_Z 44
_cell_length_a 18.365893
_cell_length_b 23.835159
_cell_length_c 6.208590
_cell_angle_alpha 90.000000
_cell_angle_beta 49.709810
_cell_angle_gamma 90.000000
_cell_volume 2073.107612
_symmetry_space_group_name_H-M "C 2/M"
_symmetry_group_IT_number 12
_symmetry_cell_setting 'monoclinic'
loop_
_space_group_symop_operation_xyz
x,y,z
-x,y,-z
-x,-y,-z
x,-y,z
1/2+x,1/2+y,z
1/2-x,1/2+y,-z
1/2-x,1/2-y,-z
1/2+x,1/2-y,z
loop_
_atom_site_type_symbol
_atom_site_label
_atom_site_fract_x
_atom_site_fract_y
_atom_site_fract_z
Si Si1 0.297545 0.142210 0.381189
Si Si2 0.402702 0.162898 0.559689
Si Si3 0.000000 0.166906 0.000000
Si Si4 0.788094 0.435867 0.011767
Si Si5 0.838023 0.784204 0.610156
Si Si6 0.641171 0.626432 0.053590
O O1 0.396994 0.149654 0.314920
O O2 0.289678 0.086948 0.251750
O O3 0.261338 0.194062 0.303896
O O4 0.219719 0.137113 0.718561
O O5 0.500000 0.174207 0.500000
O O6 0.342589 0.220648 0.679368
O O7 0.357257 0.108604 0.761432
O O8 0.919620 0.204497 0.272500
O O9 0.044430 0.128268 0.103323
O O10 0.816935 0.500000 0.936418
O O11 0.683488 0.425642 0.106830
O O12 0.860924 0.823915 0.768161
#
# Coordination Sequence:
#
# PCOD9175357 Si02
#       6
#     8   8   4   8   8   8
#     4   9  21  37  58  83 114 154 191 231 286 342
#     4  11  23  37  58  88 118 147 189 239 287 338
#     4  10  18  32  59  94 127 150 174 222 288 352
#     4  10  23  42  59  77 109 156 205 245 281 327
#     4  10  20  36  59  90 125 152 179 221 283 356
#     4   9  19  36  60  87 117 150 186 230 285 345
#
# _framework density 21.224176
#
# number of rings (size 3 to 8) (size 9 to 14) (size 15 to 20)
#    0.000    2.182    0.000    2.182    0.000   14.909 
#    0.000    1.364    0.000   14.182    0.000    0.000 
#    0.000    0.000    0.000    0.000    0.000    0.000 
#
# Total GULP energy -122676.164138 kJ/mol
# GULP energy per Si atom -5576.189279 kJ/mol
# Density = 2.117587 g / cm^3
# Si number density = 21.224176 Si / 1000 Ang^3
#
#
#
# Elastic Constant Matrix: (Units=GPa)
#
#
# Indices 1 2 3 4 5 6 
#
# 1 146.6560 25.7034 19.3850 0.0000 35.4105 0.0000
# 2 25.7034 136.4075 31.2390 0.0000 10.9996 0.0000
# 3 19.3850 31.2390 79.4618 0.0000 18.6515 0.0000
# 4 0.0000 0.0000 0.0000 17.2369 0.0000 -3.0389
# 5 35.4105 10.9996 18.6515 0.0000 34.7221 0.0000
# 6 0.0000 0.0000 0.0000 -3.0389 0.0000 8.4396
#
#
#
# Elastic Compliance Matrix: (Units=1/GPa)
#
#
# Indices 1 2 3 4 5 6 
#
# 1 0.009185 -0.001066 0.000341 0.000000 -0.009212 0.000000
# 2 -0.001066 0.008209 -0.002989 0.000000 0.000092 0.000000
# 3 0.000341 -0.002989 0.015489 0.000000 -0.007721 0.000000
# 4 0.000000 0.000000 0.000000 0.061948 0.000000 0.022306
# 5 -0.009212 0.000092 -0.007721 0.000000 0.042313 0.000000
# 6 0.000000 0.000000 0.000000 0.022306 0.000000 0.126520
#
#
# Mechanical properties :
#
#
# Convention : Reuss Voigt Hill
#
# Bulk Modulus (GPa) = 39.28574 57.24221 48.26397
# Shear Modulus (GPa) = 17.88422 31.15958 24.52190
#
# Velocity S-wave (km/s) = 2.90597 3.83576 3.40277
# Velocity P-wave (km/s) = 5.45982 6.82980 6.18287
#
# Compressibility (1/GPa) = 0.02545453
#
# Stress axis : x y z
#
# Youngs Moduli (GPa) = 108.87594 121.81960 64.56308
#
# Poissons Ratio (x) = 0.12984 -0.02200
# Poissons Ratio (y) = 0.11605 0.19296
# Poissons Ratio (z) = -0.03709 0.36409
#
# Static dielectric constant tensor:
#      x y z
#    x 1.887830 0.000000 -0.014700 
#    y 0.000000 1.722370 0.000000 
#    z -0.014700 0.000000 1.825640 
# 
# From -- ./inp_files/16800.got.cif
#   From: 2010.05.17/outbox.cif.g08.bks.cpg/sg12_9_cif.got.tgz:16800.got - 2010.06.03 13:09:07.
