data_PCOD9175224
_publ_section_title
;
Structure prediction by ZEFSAII (Michael W. Deem and Ramdas Pophale) SiO2 
 PCOD9175224
Probable space group: C 2/M
;
_chemical_formula_sum "Si O2"
_cell_formula_units_Z 48
_cell_length_a 21.077311
_cell_length_b 7.482617
_cell_length_c 15.627093
_cell_angle_alpha 90.000000
_cell_angle_beta 68.068469
_cell_angle_gamma 90.000000
_cell_volume 2286.241483
_symmetry_space_group_name_H-M "C 2/M"
_symmetry_group_IT_number 12
_symmetry_cell_setting 'monoclinic'
loop_
_space_group_symop_operation_xyz
x,y,z
-x,y,-z
-x,-y,-z
x,-y,z
1/2+x,1/2+y,z
1/2-x,1/2+y,-z
1/2-x,1/2-y,-z
1/2+x,1/2-y,z
loop_
_atom_site_type_symbol
_atom_site_label
_atom_site_fract_x
_atom_site_fract_y
_atom_site_fract_z
Si Si1 0.822227 0.218862 0.708192
Si Si2 0.924188 0.218138 0.507774
Si Si3 0.570615 0.707204 0.000654
Si Si4 0.916238 0.217996 0.816671
Si Si5 0.930216 0.215609 0.311648
Si Si6 0.832589 0.291103 0.202338
O O1 0.867107 0.276181 0.604096
O O2 0.860979 0.276918 0.774918
O O3 0.743918 0.279753 0.746204
O O4 0.822086 0.000000 0.706514
O O5 0.912035 0.276200 0.416459
O O6 0.000000 0.272524 0.500000
O O7 0.924260 0.000000 0.508012
O O8 0.554204 0.500000 0.027673
O O9 0.626681 0.712455 0.898473
O O10 0.500000 0.788538 0.000000
O O11 0.594271 0.779742 0.080467
O O12 0.992669 0.272328 0.750318
O O13 0.913920 0.000000 0.814680
O O14 0.877677 0.270542 0.264818
O O15 0.930914 0.000000 0.311759
O O16 0.826556 0.500000 0.185932
#
# Coordination Sequence:
#
# PCOD9175224 Si02
#       6
#     8   8   8   8   8   8
#     4   9  18  32  49  78 113 138 166 214 270 310
#     4   9  15  27  54  85 104 127 175 227 257 293
#     4  10  19  34  57  80 100 131 179 226 260 297
#     4   9  16  30  54  79 102 130 171 223 264 297
#     4  10  18  32  57  83 102 131 180 224 255 296
#     4  11  23  35  49  75 115 147 166 205 267 325
#
# _framework density 20.995156999999999
#
# number of rings (size 3 to 8) (size 9 to 14) (size 15 to 20)
#    0.000    2.333    3.333    0.500    0.000    1.667 
#    0.000    0.000    0.000    4.500    0.000    0.000 
#    0.000    0.000    0.000    0.000    0.000    0.000 
#
# Total GULP energy -134028.060337 kJ/mol
# GULP energy per Si atom -5584.502514 kJ/mol
# Density = 2.094737 g / cm^3
# Si number density = 20.995157 Si / 1000 Ang^3
#
#
#
# Elastic Constant Matrix: (Units=GPa)
#
#
# Indices 1 2 3 4 5 6 
#
# 1 150.3910 -12.1727 75.4225 -0.0001 -1.4999 0.0002
# 2 -12.1727 52.5529 -14.0096 0.0004 0.8493 -0.0011
# 3 75.4225 -14.0096 170.5915 -0.0002 13.2763 0.0005
# 4 -0.0001 0.0004 -0.0002 -159.7567 0.0000 477.7085
# 5 -1.4999 0.8493 13.2763 0.0000 38.3504 0.0001
# 6 0.0002 -0.0011 0.0005 477.7085 0.0001-1576.9609
#
#
#
# Elastic Compliance Matrix: (Units=1/GPa)
#
#
# Indices 1 2 3 4 5 6 
#
# 1 0.008697 0.000949 -0.003897 0.000000 0.001668 0.000000
# 2 0.000949 0.019596 0.001255 0.000000 -0.000831 0.000000
# 3 -0.003897 0.001255 0.007915 0.000000 -0.002920 0.000000
# 4 0.000000 0.000000 0.000000 -0.066469 0.000000 -0.020136
# 5 0.001668 -0.000831 -0.002920 0.000000 0.027170 0.000000
# 6 0.000000 0.000000 0.000000 -0.020136 0.000000 -0.006734
#
#
# Mechanical properties :
#
#
# Convention : Reuss Voigt Hill
#
# Bulk Modulus (GPa) = 30.46865 52.44621 41.45743
# Shear Modulus (GPa) = 1110.26848 -318.05374 396.10737
#
# Velocity S-wave (km/s) = 23.02106 -12.32144 13.75048
# Velocity P-wave (km/s) = 26.85460 13.31877 16.48908
#
# Compressibility (1/GPa) = 0.03282063
#
# Stress axis : x y z
#
# Youngs Moduli (GPa) = 114.97912 51.03073 126.33768
#
# Poissons Ratio (x) = -0.04841 0.49236
# Poissons Ratio (y) = -0.10908 -0.15850
# Poissons Ratio (z) = 0.44809 -0.06402
#
# Static dielectric constant tensor:
#      x y z
#    x 1.714560 0.000000 0.010160 
#    y 0.000000 1.806370 0.000000 
#    z 0.010160 0.000000 1.726960 
# 
# From -- ./inp_files/229834.got.cif
#   From: 2010.05.17/outbox.cif.g08.bks.cpg/sg12_115_cif.got.tgz:229834.got - 2010.06.03 13:09:07.
