data_PCOD9175790
_publ_section_title
;
Structure prediction by ZEFSAII (Michael W. Deem and Ramdas Pophale) SiO2 
 PCOD9175790
Probable space group: C 2/M
;
_chemical_formula_sum "Si O2"
_cell_formula_units_Z 56
_cell_length_a 19.547904
_cell_length_b 8.675732
_cell_length_c 26.781773
_cell_angle_alpha 90.000000
_cell_angle_beta 38.293767
_cell_angle_gamma 90.000000
_cell_volume 2814.638991
_symmetry_space_group_name_H-M "C 2/M"
_symmetry_group_IT_number 12
_symmetry_cell_setting 'monoclinic'
loop_
_space_group_symop_operation_xyz
x,y,z
-x,y,-z
-x,-y,-z
x,-y,z
1/2+x,1/2+y,z
1/2-x,1/2+y,-z
1/2-x,1/2-y,-z
1/2+x,1/2-y,z
loop_
_atom_site_type_symbol
_atom_site_label
_atom_site_fract_x
_atom_site_fract_y
_atom_site_fract_z
Si Si1 0.045301 0.183528 0.807064
Si Si2 0.570666 0.816639 0.689002
Si Si3 0.834962 0.816295 0.991013
Si Si4 0.239355 0.685867 0.757526
Si Si5 0.127842 0.685592 0.925660
Si Si6 0.992401 0.184949 0.627595
Si Si7 0.210276 0.684330 0.469202
O O1 0.015016 0.263643 0.772201
O O2 0.163892 0.238015 0.758772
O O3 0.956412 0.225780 0.900526
O O4 0.043228 0.000000 0.801185
O O5 0.516138 0.744988 0.670396
O O6 0.696779 0.753758 0.619911
O O7 0.571543 0.000000 0.683458
O O8 0.827013 0.000000 0.997360
O O9 0.750000 0.750000 0.000000
O O10 0.816882 0.748525 0.056063
O O11 0.229515 0.500000 0.759105
O O12 0.189316 0.733309 0.839973
O O13 0.368474 0.725193 0.682545
O O14 0.128925 0.500000 0.926616
O O15 0.000000 0.737379 0.000000
O O16 0.085080 0.256971 0.538247
O O17 0.004507 0.000000 0.621109
O O18 0.214723 0.500000 0.466193
O O19 0.250000 0.750000 0.500000
#
# Coordination Sequence:
#
# PCOD9175790 Si02
#       7
#     8   8   8   8   8   8   8
#     4  11  24  41  59  83 118 154 192 240 292 343
#     4  11  22  37  60  87 117 153 194 238 290 344
#     4  11  25  41  60  86 117 153 194 242 291 341
#     4  10  22  39  60  86 117 155 193 236 288 344
#     4  10  20  38  63  86 114 153 195 236 285 343
#     4  10  20  36  59  88 121 152 192 238 285 342
#     4  10  18  33  57  85 117 151 192 236 286 340
#
# _framework density 19.895980000000002
#
# number of rings (size 3 to 8) (size 9 to 14) (size 15 to 20)
#    0.000    1.571    1.429    5.571    2.000    3.714 
#    0.000    0.714    0.000    4.286    0.000    0.000 
#    0.000    0.000    0.000    0.000    0.000    0.000 
#
# Total GULP energy -156451.194503 kJ/mol
# GULP energy per Si atom -5587.542661 kJ/mol
# Density = 1.985070 g / cm^3
# Si number density = 19.895980 Si / 1000 Ang^3
#
#
#
# Elastic Constant Matrix: (Units=GPa)
#
#
# Indices 1 2 3 4 5 6 
#
# 1 68.7202 9.5365 -5.5557 -0.0001 -10.0925 0.0003
# 2 9.5365 59.7199 11.4886 -0.0003 -8.6962 0.0008
# 3 -5.5557 11.4886 31.6120 0.0000 -12.2168 0.0002
# 4 -0.0001 -0.0003 0.0000 24.8248 0.0000 1.5794
# 5 -10.0925 -8.6962 -12.2168 0.0000 38.0033 0.0000
# 6 0.0003 0.0008 0.0002 1.5794 0.0000 30.9910
#
#
#
# Elastic Compliance Matrix: (Units=1/GPa)
#
#
# Indices 1 2 3 4 5 6 
#
# 1 0.016279 -0.002957 0.006103 0.000000 0.005609 0.000000
# 2 -0.002957 0.018719 -0.006818 0.000000 0.001306 0.000000
# 3 0.006103 -0.006818 0.040202 0.000000 0.012984 0.000000
# 4 0.000000 0.000000 0.000000 0.040413 0.000000 -0.002060
# 5 0.005609 0.001306 0.012984 0.000000 0.032276 0.000000
# 6 0.000000 0.000000 0.000000 -0.002060 0.000000 0.032372
#
#
# Mechanical properties :
#
#
# Convention : Reuss Voigt Hill
#
# Bulk Modulus (GPa) = 14.73691 21.22122 17.97907
# Shear Modulus (GPa) = 23.78421 28.40266 26.09344
#
# Velocity S-wave (km/s) = 3.46125 3.78240 3.62538
# Velocity P-wave (km/s) = 4.83701 5.45570 5.15565
#
# Compressibility (1/GPa) = 0.06785683
#
# Stress axis : x y z
#
# Youngs Moduli (GPa) = 61.42798 53.42218 24.87449
#
# Poissons Ratio (x) = 0.15797 -0.15181
# Poissons Ratio (y) = 0.18164 0.16959
# Poissons Ratio (z) = -0.37491 0.36422
#
# Static dielectric constant tensor:
#      x y z
#    x 1.559190 0.000000 -0.117220 
#    y 0.000000 1.664130 0.000000 
#    z -0.117220 0.000000 1.658560 
# 
# From -- ./inp_files/362917.got.cif
#   From: 2010.05.17/outbox.cif.g08.bks.cpg/sg12_182_cif.got.tgz:362917.got - 2010.06.03 13:09:07.
