data_PCOD9175068
_publ_section_title
;
Structure prediction by ZEFSAII (Michael W. Deem and Ramdas Pophale) SiO2 
 PCOD9175068
Probable space group: C 2/M
;
_chemical_formula_sum "Si O2"
_cell_formula_units_Z 56
_cell_length_a 19.110708
_cell_length_b 17.423807
_cell_length_c 14.337422
_cell_angle_alpha 90.000000
_cell_angle_beta 146.532830
_cell_angle_gamma 90.000000
_cell_volume 2632.717092
_symmetry_space_group_name_H-M "C 2/M"
_symmetry_group_IT_number 12
_symmetry_cell_setting 'monoclinic'
loop_
_space_group_symop_operation_xyz
x,y,z
-x,y,-z
-x,-y,-z
x,-y,z
1/2+x,1/2+y,z
1/2-x,1/2+y,-z
1/2-x,1/2-y,-z
1/2+x,1/2-y,z
loop_
_atom_site_type_symbol
_atom_site_label
_atom_site_fract_x
_atom_site_fract_y
_atom_site_fract_z
Si Si1 0.710980 0.364061 0.524980
Si Si2 0.332881 0.692804 0.862863
Si Si3 0.538894 0.416212 0.856401
Si Si4 0.141924 0.622923 0.129232
Si Si5 0.391541 0.209727 0.247152
Si Si6 0.833272 0.316564 0.487132
Si Si7 0.272855 0.365257 0.088943
O O1 0.588767 0.403077 0.344292
O O2 0.764057 0.395146 0.680823
O O3 0.821382 0.362423 0.569813
O O4 0.676866 0.274359 0.502681
O O5 0.362408 0.783353 0.886646
O O6 0.206966 0.682892 0.785434
O O7 0.285708 0.663404 0.710497
O O8 0.437566 0.648128 0.038612
O O9 0.537844 0.500000 0.899512
O O10 0.653890 0.412169 0.908754
O O11 0.205909 0.596550 0.103329
O O12 0.000000 0.597996 0.000000
O O13 0.531280 0.176853 0.411114
O O14 0.377979 0.302017 0.237511
O O15 0.336848 0.183250 0.086164
#
# Coordination Sequence:
#
# PCOD9175068 Si02
#       7
#     8   8   8   8   8   8   8
#     4  10  22  32  53  85 113 154 195 230 296 342
#     4   9  21  32  55  87 115 152 189 231 300 346
#     4  11  23  41  58  79 122 161 199 231 269 361
#     4  10  20  34  59  90 121 140 182 257 302 344
#     4   9  15  30  55  84 113 142 185 249 292 338
#     4  10  18  32  55  81 118 147 183 256 294 331
#     4   9  18  32  55  84 115 149 194 232 295 341
#
# _framework density 21.270800999999999
#
# number of rings (size 3 to 8) (size 9 to 14) (size 15 to 20)
#    0.000    2.286    1.429    2.143    6.000    0.571 
#    0.000    2.857    0.000   15.429    0.000    0.000 
#    0.000    0.000    0.000    0.000    0.000    0.000 
#
# Total GULP energy -156202.029815 kJ/mol
# GULP energy per Si atom -5578.643922 kJ/mol
# Density = 2.122239 g / cm^3
# Si number density = 21.270801 Si / 1000 Ang^3
#
#
#
# Elastic Constant Matrix: (Units=GPa)
#
#
# Indices 1 2 3 4 5 6 
#
# 1 96.2580 -2.5470 26.0899 0.0000 13.8318 0.0000
# 2 -2.5470 43.3243 23.0138 0.0000 -4.4688 0.0000
# 3 26.0899 23.0138 95.1105 0.0000 9.9656 0.0000
# 4 0.0000 0.0000 0.0000 -2.2939 0.0000 -1.1077
# 5 13.8318 -4.4688 9.9656 0.0000 41.7476 0.0000
# 6 0.0000 0.0000 0.0000 -1.1077 0.0000 0.3012
#
#
#
# Elastic Compliance Matrix: (Units=1/GPa)
#
#
# Indices 1 2 3 4 5 6 
#
# 1 0.011800 0.002252 -0.003485 0.000000 -0.002837 0.000000
# 2 0.002252 0.027758 -0.007762 0.000000 0.004078 0.000000
# 3 -0.003485 -0.007762 0.013656 0.000000 -0.002936 0.000000
# 4 0.000000 0.000000 0.000000 -0.157057 0.000000 -0.577533
# 5 -0.002837 0.004078 -0.002936 0.000000 0.026031 0.000000
# 6 0.000000 0.000000 0.000000 -0.577533 0.000000 1.195991
#
#
# Mechanical properties :
#
#
# Convention : Reuss Voigt Hill
#
# Bulk Modulus (GPa) = 28.38838 36.42289 32.40563
# Shear Modulus (GPa) = 4.35575 20.49340 12.42457
#
# Velocity S-wave (km/s) = 1.43255 3.10732 2.41947
# Velocity P-wave (km/s) = 4.01390 5.48038 4.80343
#
# Compressibility (1/GPa) = 0.03522569
#
# Stress axis : x y z
#
# Youngs Moduli (GPa) = 84.74229 36.02599 73.22952
#
# Poissons Ratio (x) = -0.08114 0.25519
# Poissons Ratio (y) = -0.19086 0.56838
# Poissons Ratio (z) = 0.29530 0.27962
#
# Static dielectric constant tensor:
#      x y z
#    x 1.795860 0.000000 -0.000120 
#    y 0.000000 1.769380 0.000000 
#    z -0.000120 0.000000 1.776600 
# 
# From -- ./inp_files/234729.got.cif
#   From: 2010.05.17/outbox.cif.g08.bks.cpg/sg12_118_cif.got.tgz:234729.got - 2010.06.03 13:09:07.
