data_PCOD9175274
_publ_section_title
;
Structure prediction by ZEFSAII (Michael W. Deem and Ramdas Pophale) SiO2 
 PCOD9175274
Probable space group: C 2/M
;
_chemical_formula_sum "Si O2"
_cell_formula_units_Z 56
_cell_length_a 15.722562
_cell_length_b 18.583996
_cell_length_c 9.922959
_cell_angle_alpha 90.000000
_cell_angle_beta 69.025766
_cell_angle_gamma 90.000000
_cell_volume 2707.261912
_symmetry_space_group_name_H-M "C 2/M"
_symmetry_group_IT_number 12
_symmetry_cell_setting 'monoclinic'
loop_
_space_group_symop_operation_xyz
x,y,z
-x,y,-z
-x,-y,-z
x,-y,z
1/2+x,1/2+y,z
1/2-x,1/2+y,-z
1/2-x,1/2-y,-z
1/2+x,1/2-y,z
loop_
_atom_site_type_symbol
_atom_site_label
_atom_site_fract_x
_atom_site_fract_y
_atom_site_fract_z
Si Si1 0.106878 0.278568 0.433456
Si Si2 0.610785 0.918365 0.571124
Si Si3 0.676277 0.420565 0.538980
Si Si4 0.401591 0.586696 0.716998
Si Si5 0.432521 0.173960 0.152165
Si Si6 0.927222 0.811794 0.304187
Si Si7 0.733105 0.297910 0.142066
O O1 0.107443 0.364343 0.446766
O O2 0.131140 0.239389 0.559457
O O3 0.167233 0.247671 0.280013
O O4 0.000000 0.257925 0.500000
O O5 0.717238 0.919836 0.549552
O O6 0.562052 0.878101 0.722060
O O7 0.580730 0.000000 0.565918
O O8 0.646747 0.500000 0.592499
O O9 0.626587 0.403408 0.424860
O O10 0.651494 0.369428 0.677534
O O11 0.410591 0.500000 0.733731
O O12 0.491171 0.634721 0.696432
O O13 0.321503 0.626799 0.845560
O O14 0.463451 0.254254 0.178966
O O15 0.329693 0.183734 0.156641
O O16 0.500000 0.146840 0.000000
O O17 0.750000 0.250000 0.000000
#
# Coordination Sequence:
#
# PCOD9175274 Si02
#       7
#     8   8   8   8   8   8   8
#     4  11  21  38  64  90 119 159 208 256 310 375
#     4  10  22  39  61  87 119 158 213 269 312 362
#     4  10  18  32  57  89 120 150 190 256 318 361
#     4  11  21  36  61  96 128 156 199 259 318 372
#     4  11  24  39  62  87 122 168 212 255 311 370
#     4  11  19  36  60  92 122 152 202 255 314 374
#     4  12  24  41  63  92 129 169 207 254 307 376
#
# _framework density 20.685106000000001
#
# number of rings (size 3 to 8) (size 9 to 14) (size 15 to 20)
#    0.000    1.143    4.286    2.571    2.000    4.000 
#    0.000    0.714    0.000    9.429    0.000    0.000 
#    0.000    0.000    0.000    0.000    0.000    0.000 
#
# Total GULP energy -156016.288026 kJ/mol
# GULP energy per Si atom -5572.010287 kJ/mol
# Density = 2.063803 g / cm^3
# Si number density = 20.685106 Si / 1000 Ang^3
#
#
#
# Elastic Constant Matrix: (Units=GPa)
#
#
# Indices 1 2 3 4 5 6 
#
# 1 50.0410 17.7331 21.6127 0.0000 -15.4071 0.0000
# 2 17.7331 159.7085 38.6620 0.0000 -7.7133 0.0000
# 3 21.6127 38.6620 92.1995 0.0000 -17.8201 0.0000
# 4 0.0000 0.0000 0.0000 25.3014 0.0000 -1.7274
# 5 -15.4071 -7.7133 -17.8201 0.0000 19.7966 0.0000
# 6 0.0000 0.0000 0.0000 -1.7274 0.0000 28.0138
#
#
#
# Elastic Compliance Matrix: (Units=1/GPa)
#
#
# Indices 1 2 3 4 5 6 
#
# 1 0.027204 -0.001612 -0.002095 0.000000 0.018659 0.000000
# 2 -0.001612 0.007065 -0.002778 0.000000 -0.001003 0.000000
# 3 -0.002095 -0.002778 0.014501 0.000000 0.010340 0.000000
# 4 0.000000 0.000000 0.000000 0.039691 0.000000 0.002447
# 5 0.018659 -0.001003 0.010340 0.000000 0.073952 0.000000
# 6 0.000000 0.000000 0.000000 0.002447 0.000000 0.035848
#
#
# Mechanical properties :
#
#
# Convention : Reuss Voigt Hill
#
# Bulk Modulus (GPa) = 27.93381 50.88495 39.40938
# Shear Modulus (GPa) = 22.40510 29.55178 25.97844
#
# Velocity S-wave (km/s) = 3.29470 3.78385 3.54771
# Velocity P-wave (km/s) = 5.29216 6.61387 5.98958
#
# Compressibility (1/GPa) = 0.03579891
#
# Stress axis : x y z
#
# Youngs Moduli (GPa) = 36.75869 141.55167 68.96262
#
# Poissons Ratio (x) = 0.22824 0.14445
# Poissons Ratio (y) = 0.05927 0.19160
# Poissons Ratio (z) = 0.07700 0.39328
#
# Static dielectric constant tensor:
#      x y z
#    x 1.915600 0.000000 0.032030 
#    y 0.000000 1.799740 0.000000 
#    z 0.032030 0.000000 1.769690 
# 
# From -- ./inp_files/158200.got.cif
#   From: 2010.05.17/outbox.cif.g08.bks.cpg/sg12_80_cif.got.tgz:158200.got - 2010.06.03 13:09:07.
