data_PCOD9175887
_publ_section_title
;
Structure prediction by ZEFSAII (Michael W. Deem and Ramdas Pophale) SiO2 
 PCOD9175887
Probable space group: C 2/M
;
_chemical_formula_sum "Si O2"
_cell_formula_units_Z 64
_cell_length_a 15.116595
_cell_length_b 15.382392
_cell_length_c 15.317811
_cell_angle_alpha 90.000000
_cell_angle_beta 60.959523
_cell_angle_gamma 90.000000
_cell_volume 3114.035851
_symmetry_space_group_name_H-M "C 2/M"
_symmetry_group_IT_number 12
_symmetry_cell_setting 'monoclinic'
loop_
_space_group_symop_operation_xyz
x,y,z
-x,y,-z
-x,-y,-z
x,-y,z
1/2+x,1/2+y,z
1/2-x,1/2+y,-z
1/2-x,1/2-y,-z
1/2+x,1/2-y,z
loop_
_atom_site_type_symbol
_atom_site_label
_atom_site_fract_x
_atom_site_fract_y
_atom_site_fract_z
Si Si1 0.342827 0.893760 0.427172
Si Si2 0.746462 0.105515 0.346120
Si Si3 0.807779 0.598046 0.256144
Si Si4 0.575785 0.105048 0.288011
Si Si5 0.285655 0.894582 0.079923
Si Si6 0.529250 0.152131 0.122647
Si Si7 0.136350 0.901370 0.001769
Si Si8 0.427179 0.337696 0.147088
O O1 0.285028 0.866665 0.541736
O O2 0.297175 0.861023 0.356923
O O3 0.461889 0.871087 0.372734
O O4 0.339945 0.000000 0.425185
O O5 0.658861 0.130529 0.319214
O O6 0.852055 0.142106 0.261228
O O7 0.752186 0.000000 0.342473
O O8 0.766797 0.500000 0.280825
O O9 0.767042 0.639998 0.186650
O O10 0.929175 0.593707 0.182388
O O11 0.589669 0.143528 0.184738
O O12 0.579682 0.000000 0.277944
O O13 0.206080 0.865299 0.045254
O O14 0.278900 0.000000 0.087651
O O15 0.396367 0.872092 0.990934
O O16 0.481785 0.246219 0.131374
O O17 0.021326 0.902934 0.091597
O O18 0.169432 0.000000 0.964157
O O19 0.133846 0.846319 0.914492
#
# Coordination Sequence:
#
# PCOD9175887 Si02
#       8
#     8   8   8   8   8   8   8   8
#     4   8  15  29  54  87 113 134 174 232 277 312
#     4  10  18  33  59  84 107 142 187 225 270 322
#     4   9  18  33  53  80 112 141 173 221 273 322
#     4   9  17  32  55  84 115 141 174 226 273 315
#     4  10  20  35  59  81 103 142 184 223 271 323
#     4  11  21  32  49  81 114 143 176 212 270 334
#     4  10  22  41  58  75 103 139 186 235 271 313
#     4  11  23  35  51  80 109 147 178 217 274 325
#
# _framework density 20.552109000000002
#
# number of rings (size 3 to 8) (size 9 to 14) (size 15 to 20)
#    0.000    2.250    0.000    4.875    3.500    5.000 
#    2.250    2.500    0.000    0.750    0.000    4.375 
#    0.000    0.000    0.000    0.000    0.000    1.000 
#
# Total GULP energy -178689.676286 kJ/mol
# GULP energy per Si atom -5584.052384 kJ/mol
# Density = 2.050533 g / cm^3
# Si number density = 20.552109 Si / 1000 Ang^3
#
#
#
# Elastic Constant Matrix: (Units=GPa)
#
#
# Indices 1 2 3 4 5 6 
#
# 1 86.1656 6.3213 49.3432 0.0000 26.4561 0.0000
# 2 6.3213 42.4911 12.0219 0.0000 9.9412 0.0000
# 3 49.3432 12.0219 148.0233 0.0000 21.4618 0.0000
# 4 0.0000 0.0000 0.0000 -39.3731 0.0000 -45.1832
# 5 26.4561 9.9412 21.4618 0.0000 33.5226 0.0000
# 6 0.0000 0.0000 0.0000 -45.1832 0.0000 -24.1660
#
#
#
# Elastic Compliance Matrix: (Units=1/GPa)
#
#
# Indices 1 2 3 4 5 6 
#
# 1 0.017466 0.001284 -0.004269 0.000000 -0.011432 0.000000
# 2 0.001284 0.025537 -0.001386 0.000000 -0.007699 0.000000
# 3 -0.004269 -0.001386 0.008536 0.000000 -0.001685 0.000000
# 4 0.000000 0.000000 0.000000 0.022170 0.000000 -0.041451
# 5 -0.011432 -0.007699 -0.001685 0.000000 0.042214 0.000000
# 6 0.000000 0.000000 0.000000 -0.041451 0.000000 0.036121
#
#
# Mechanical properties :
#
#
# Convention : Reuss Voigt Hill
#
# Bulk Modulus (GPa) = 23.36620 45.78364 34.57492
# Shear Modulus (GPa) = 28.56312 7.92961 18.24636
#
# Velocity S-wave (km/s) = 3.73203 1.96639 2.98285
# Velocity P-wave (km/s) = 5.47400 5.24221 5.35936
#
# Compressibility (1/GPa) = 0.04279686
#
# Stress axis : x y z
#
# Youngs Moduli (GPa) = 57.25376 39.15938 117.15701
#
# Poissons Ratio (x) = -0.05028 0.50015
# Poissons Ratio (y) = -0.07352 0.16235
# Poissons Ratio (z) = 0.24442 0.05426
#
# Static dielectric constant tensor:
#      x y z
#    x 1.752330 0.000000 0.034970 
#    y 0.000000 1.785380 0.000000 
#    z 0.034970 0.000000 1.736110 
# 
# From -- ./inp_files/216353.got.cif
#   From: 2010.05.17/outbox.cif.g08.bks.cpg/sg12_109_cif.got.tgz:216353.got - 2010.06.03 13:09:07.
