data_PCOD9175190
_publ_section_title
;
Structure prediction by ZEFSAII (Michael W. Deem and Ramdas Pophale) SiO2 
 PCOD9175190
Probable space group: C 2/M
;
_chemical_formula_sum "Si O2"
_cell_formula_units_Z 52
_cell_length_a 20.306921
_cell_length_b 9.650889
_cell_length_c 17.692714
_cell_angle_alpha 90.000000
_cell_angle_beta 49.801159
_cell_angle_gamma 90.000000
_cell_volume 2648.443283
_symmetry_space_group_name_H-M "C 2/M"
_symmetry_group_IT_number 12
_symmetry_cell_setting 'monoclinic'
loop_
_space_group_symop_operation_xyz
x,y,z
-x,y,-z
-x,-y,-z
x,-y,z
1/2+x,1/2+y,z
1/2-x,1/2+y,-z
1/2-x,1/2-y,-z
1/2+x,1/2-y,z
loop_
_atom_site_type_symbol
_atom_site_label
_atom_site_fract_x
_atom_site_fract_y
_atom_site_fract_z
Si Si1 0.282871 0.845573 0.041676
Si Si2 0.063452 0.332436 0.524236
Si Si3 0.687782 0.344588 0.846487
Si Si4 0.484821 0.851057 0.854787
Si Si5 0.736136 0.665748 0.639433
Si Si6 0.070821 0.167478 0.670242
Si Si7 0.000000 0.239172 0.000000
O O1 0.269773 0.768033 0.130595
O O2 0.245861 0.000000 0.069359
O O3 0.250000 0.750000 0.000000
O O4 0.383951 0.855479 0.947531
O O5 0.059360 0.500000 0.540066
O O6 0.163899 0.291603 0.435596
O O7 0.042218 0.245380 0.615227
O O8 0.000000 0.303613 0.500000
O O9 0.723903 0.500000 0.830209
O O10 0.698550 0.306655 0.750758
O O11 0.587261 0.346695 0.945212
O O12 0.510968 0.725109 0.782010
O O13 0.521877 0.830299 0.910952
O O14 0.512121 0.000000 0.801656
O O15 0.737216 0.500000 0.630408
O O16 0.667742 0.712941 0.626220
O O17 0.067724 0.000000 0.666066
#
# Coordination Sequence:
#
# PCOD9175190 Si02
#       7
#     8   8   8   8   8   8   4
#     4  10  22  38  54  79 115 157 200 242 289 348
#     4  10  22  41  63  85 115 157 201 244 300 365
#     4  10  19  33  56  83 114 152 191 238 291 348
#     4  10  21  36  57  84 117 153 193 240 291 347
#     4   9  19  37  59  87 118 152 195 244 298 358
#     4  11  22  38  61  90 120 151 196 250 304 360
#     4  10  18  32  56  86 116 148 192 236 282 338
#
# _framework density 19.634176
#
# number of rings (size 3 to 8) (size 9 to 14) (size 15 to 20)
#    0.000    2.000    1.538    1.846    0.000    5.231 
#    0.000    4.615    0.000    0.000    0.000    0.000 
#    0.000    0.000    0.000    0.000    0.000    0.000 
#
# Total GULP energy -144842.413792 kJ/mol
# GULP energy per Si atom -5570.862069 kJ/mol
# Density = 1.958949 g / cm^3
# Si number density = 19.634176 Si / 1000 Ang^3
#
#
#
# Elastic Constant Matrix: (Units=GPa)
#
#
# Indices 1 2 3 4 5 6 
#
# 1 87.2875 52.3413 14.5804 0.0000 33.6238 0.0000
# 2 52.3413 109.7224 26.1062 0.0000 23.2507 0.0001
# 3 14.5804 26.1062 65.5105 0.0000 20.7602 0.0000
# 4 0.0000 0.0000 0.0000 27.1037 0.0000 6.8684
# 5 33.6238 23.2507 20.7602 0.0000 28.3773 0.0000
# 6 0.0000 0.0001 0.0000 6.8684 0.0000 23.3474
#
#
#
# Elastic Compliance Matrix: (Units=1/GPa)
#
#
# Indices 1 2 3 4 5 6 
#
# 1 0.026664 -0.007968 0.006748 0.000000 -0.030003 0.000000
# 2 -0.007968 0.013613 -0.004047 0.000000 0.001247 0.000000
# 3 0.006748 -0.004047 0.021947 0.000000 -0.020736 0.000000
# 4 0.000000 0.000000 0.000000 0.039867 0.000000 -0.011728
# 5 -0.030003 0.001247 -0.020736 0.000000 0.084937 0.000000
# 6 0.000000 0.000000 0.000000 -0.011728 0.000000 0.046282
#
#
# Mechanical properties :
#
#
# Convention : Reuss Voigt Hill
#
# Bulk Modulus (GPa) = 19.34547 49.84181 34.59364
# Shear Modulus (GPa) = 19.15175 27.06519 23.10847
#
# Velocity S-wave (km/s) = 3.12657 3.71681 3.43439
# Velocity P-wave (km/s) = 4.78626 6.62268 5.77790
#
# Compressibility (1/GPa) = 0.05169168
#
# Stress axis : x y z
#
# Youngs Moduli (GPa) = 37.50364 73.45763 45.56499
#
# Poissons Ratio (x) = 0.58528 -0.30749
# Poissons Ratio (y) = 0.29882 0.18440
# Poissons Ratio (z) = -0.25309 0.29728
#
# Static dielectric constant tensor:
#      x y z
#    x 1.776150 0.000000 -0.042860 
#    y 0.000000 1.701110 0.000000 
#    z -0.042860 0.000000 1.710220 
# 
# From -- ./inp_files/282030.got.cif
#   From: 2010.05.17/outbox.cif.g08.bks.cpg/sg12_142_cif.got.tgz:282030.got - 2010.06.03 13:09:07.
