data_PCOD9175773
_publ_section_title
;
Structure prediction by ZEFSAII (Michael W. Deem and Ramdas Pophale) SiO2 
 PCOD9175773
Probable space group: C 2/M
;
_chemical_formula_sum "Si O2"
_cell_formula_units_Z 64
_cell_length_a 25.651888
_cell_length_b 8.720478
_cell_length_c 14.586086
_cell_angle_alpha 90.000000
_cell_angle_beta 90.637551
_cell_angle_gamma 90.000000
_cell_volume 3262.657670
_symmetry_space_group_name_H-M "C 2/M"
_symmetry_group_IT_number 12
_symmetry_cell_setting 'monoclinic'
loop_
_space_group_symop_operation_xyz
x,y,z
-x,y,-z
-x,-y,-z
x,-y,z
1/2+x,1/2+y,z
1/2-x,1/2+y,-z
1/2-x,1/2-y,-z
1/2+x,1/2-y,z
loop_
_atom_site_type_symbol
_atom_site_label
_atom_site_fract_x
_atom_site_fract_y
_atom_site_fract_z
Si Si1 0.143362 0.186721 0.147981
Si Si2 0.417685 0.686372 0.510450
Si Si3 0.805928 0.184932 0.032916
Si Si4 0.804071 0.825845 0.524166
Si Si5 0.948965 0.185495 0.718951
Si Si6 0.944635 0.317671 0.322243
Si Si7 0.838104 0.182807 0.239551
Si Si8 0.733519 0.323464 0.277710
O O1 0.093507 0.236697 0.206222
O O2 0.197006 0.240237 0.197079
O O3 0.143892 0.000000 0.154373
O O4 0.150379 0.228005 0.041983
O O5 0.418982 0.500000 0.506105
O O6 0.358294 0.742868 0.492979
O O7 0.432297 0.728930 0.614589
O O8 0.449586 0.751140 0.425898
O O9 0.823647 0.231351 0.135049
O O10 0.801419 0.000000 0.032840
O O11 0.750000 0.250000 0.000000
O O12 0.750000 0.750000 0.500000
O O13 0.803596 0.827198 0.634581
O O14 0.802609 0.000000 0.490884
O O15 0.006228 0.254081 0.733454
O O16 0.951484 0.000000 0.721720
O O17 0.945406 0.500000 0.325489
O O18 0.890299 0.259336 0.278502
O O19 0.786271 0.230632 0.294129
O O20 0.844852 0.000000 0.242881
O O21 0.748456 0.500000 0.258145
#
# Coordination Sequence:
#
# PCOD9175773 Si02
#       8
#     8   8   8   8   8   8   8   8
#     4   9  17  34  61  89 115 146 185 228 281 343
#     4  10  20  37  60  85 113 148 193 238 283 342
#     4  10  20  35  60  91 120 150 187 231 282 343
#     4  10  20  32  49  78 113 150 188 227 277 336
#     4  10  20  39  65  87 112 152 195 238 285 340
#     4  12  26  41  57  81 114 155 197 243 293 337
#     4  11  23  38  57  86 119 154 195 236 282 342
#     4  10  18  33  57  83 115 150 184 228 284 339
#
# _framework density 19.615908999999998
#
# number of rings (size 3 to 8) (size 9 to 14) (size 15 to 20)
#    0.000    1.750    2.500    2.625    0.000    5.500 
#    0.000    1.875    0.000    3.750    0.000    0.000 
#    0.000    0.000    0.000    0.000    0.000    0.000 
#
# Total GULP energy -178606.131139 kJ/mol
# GULP energy per Si atom -5581.441598 kJ/mol
# Density = 1.957126 g / cm^3
# Si number density = 19.615909 Si / 1000 Ang^3
#
#
#
# Elastic Constant Matrix: (Units=GPa)
#
#
# Indices 1 2 3 4 5 6 
#
# 1 126.3298 18.2425 35.9796 0.0000 -21.3807 0.0000
# 2 18.2425 24.9046 14.1368 0.0000 -2.2721 0.0000
# 3 35.9796 14.1368 86.9826 0.0000 -14.5384 0.0000
# 4 0.0000 0.0000 0.0000 14.2720 0.0000 -0.6776
# 5 -21.3807 -2.2721 -14.5384 0.0000 29.6391 0.0000
# 6 0.0000 0.0000 0.0000 -0.6776 0.0000 27.9198
#
#
#
# Elastic Compliance Matrix: (Units=1/GPa)
#
#
# Indices 1 2 3 4 5 6 
#
# 1 0.010426 -0.005740 -0.002392 0.000000 0.005907 0.000000
# 2 -0.005740 0.047395 -0.005897 0.000000 -0.003400 0.000000
# 3 -0.002392 -0.005897 0.014249 0.000000 0.004811 0.000000
# 4 0.000000 0.000000 0.000000 0.070148 0.000000 0.001702
# 5 0.005907 -0.003400 0.004811 0.000000 0.040100 0.000000
# 6 0.000000 0.000000 0.000000 0.001702 0.000000 0.035858
#
#
# Mechanical properties :
#
#
# Convention : Reuss Voigt Hill
#
# Bulk Modulus (GPa) = 22.72146 41.65941 32.19043
# Shear Modulus (GPa) = 19.16415 25.69005 22.42710
#
# Velocity S-wave (km/s) = 3.12904 3.62284 3.38496
# Velocity P-wave (km/s) = 4.96617 6.22765 5.63234
#
# Compressibility (1/GPa) = 0.04401126
#
# Stress axis : x y z
#
# Youngs Moduli (GPa) = 95.91611 21.09938 70.18200
#
# Poissons Ratio (x) = 0.12111 0.16790
# Poissons Ratio (y) = 0.55055 0.41385
# Poissons Ratio (z) = 0.22946 0.12442
#
# Static dielectric constant tensor:
#      x y z
#    x 1.686740 0.000000 0.003290 
#    y 0.000000 1.670750 0.000000 
#    z 0.003290 0.000000 1.734030 
# 
# From -- ./inp_files/238755.got.cif
#   From: 2010.05.17/outbox.cif.g08.bks.cpg/sg12_120_cif.got.tgz:238755.got - 2010.06.03 13:09:07.
