data_PCOD9175947
_publ_section_title
;
Structure prediction by ZEFSAII (Michael W. Deem and Ramdas Pophale) SiO2 
 PCOD9175947
Probable space group: C 2/M
;
_chemical_formula_sum "Si O2"
_cell_formula_units_Z 56
_cell_length_a 19.818097
_cell_length_b 31.392748
_cell_length_c 8.112435
_cell_angle_alpha 90.000000
_cell_angle_beta 144.876966
_cell_angle_gamma 90.000000
_cell_volume 2903.772862
_symmetry_space_group_name_H-M "C 2/M"
_symmetry_group_IT_number 12
_symmetry_cell_setting 'monoclinic'
loop_
_space_group_symop_operation_xyz
x,y,z
-x,y,-z
-x,-y,-z
x,-y,z
1/2+x,1/2+y,z
1/2-x,1/2+y,-z
1/2-x,1/2-y,-z
1/2+x,1/2-y,z
loop_
_atom_site_type_symbol
_atom_site_label
_atom_site_fract_x
_atom_site_fract_y
_atom_site_fract_z
Si Si1 0.248331 0.743192 0.801236
Si Si2 0.561595 0.682321 0.959853
Si Si3 0.304045 0.836140 0.891079
Si Si4 0.049457 0.678665 0.284965
Si Si5 0.596103 0.618259 0.558034
Si Si6 0.268303 0.118551 0.476273
Si Si7 0.371827 0.450991 0.660619
O O1 0.250167 0.790580 0.732719
O O2 0.139188 0.715257 0.521048
O O3 0.250000 0.750000 0.000000
O O4 0.366621 0.718658 0.988035
O O5 0.467189 0.657037 0.664041
O O6 0.500000 0.699349 0.000000
O O7 0.655797 0.646350 0.199684
O O8 0.220916 0.860023 0.857476
O O9 0.301300 0.866019 0.725673
O O10 0.440414 0.826547 0.190829
O O11 0.124266 0.634797 0.419562
O O12 0.000000 0.687768 0.000000
O O13 0.500000 0.605393 0.500000
O O14 0.619910 0.578901 0.484092
O O15 0.222978 0.070608 0.405818
O O16 0.344552 0.500000 0.569532
O O17 0.500000 0.448849 0.000000
#
# Coordination Sequence:
#
# PCOD9175947 Si02
#       7
#     8   8   8   8   8   8   8
#     4  11  25  38  54  82 120 152 201 264 304 340
#     4  11  19  36  59  78 106 154 204 235 295 355
#     4  10  21  36  52  76 109 152 198 236 287 340
#     4   9  21  37  57  80 110 155 203 245 292 361
#     4  11  21  36  56  80 120 155 186 239 306 356
#     4   9  17  35  56  80 108 144 185 238 288 353
#     4  10  18  33  60  90 114 139 187 242 294 367
#
# _framework density 19.285256
#
# number of rings (size 3 to 8) (size 9 to 14) (size 15 to 20)
#    0.000    1.857    4.286    0.857    2.000    7.714 
#    0.000    0.000    0.000   10.714    0.000    0.000 
#    0.000    2.286    0.000    0.143    0.000    0.000 
#
# Total GULP energy -156245.832218 kJ/mol
# GULP energy per Si atom -5580.208293 kJ/mol
# Density = 1.924136 g / cm^3
# Si number density = 19.285256 Si / 1000 Ang^3
#
#
#
# Elastic Constant Matrix: (Units=GPa)
#
#
# Indices 1 2 3 4 5 6 
#
# 1 96.1005 47.4907 37.0197 0.0000 27.1308 0.0000
# 2 47.4907 133.1405 35.7165 0.0000 26.1114 0.0000
# 3 37.0197 35.7165 74.9612 0.0000 19.9023 0.0000
# 4 0.0000 0.0000 0.0000 18.2008 0.0000 9.0297
# 5 27.1308 26.1114 19.9023 0.0000 31.9365 0.0000
# 6 0.0000 0.0000 0.0000 9.0297 0.0000 16.2740
#
#
#
# Elastic Compliance Matrix: (Units=1/GPa)
#
#
# Indices 1 2 3 4 5 6 
#
# 1 0.015835 -0.002854 -0.004204 0.000000 -0.008499 0.000000
# 2 -0.002854 0.009971 -0.002182 0.000000 -0.004368 0.000000
# 3 -0.004204 -0.002182 0.018015 0.000000 -0.005871 0.000000
# 4 0.000000 0.000000 0.000000 0.075811 0.000000 -0.042064
# 5 -0.008499 -0.004368 -0.005871 0.000000 0.045763 0.000000
# 6 0.000000 0.000000 0.000000 -0.042064 0.000000 0.084787
#
#
# Mechanical properties :
#
#
# Convention : Reuss Voigt Hill
#
# Bulk Modulus (GPa) = 39.46033 60.51733 49.98883
# Shear Modulus (GPa) = 18.04356 25.54727 21.79541
#
# Velocity S-wave (km/s) = 3.06210 3.64360 3.36543
# Velocity P-wave (km/s) = 5.74524 7.01066 6.40925
#
# Compressibility (1/GPa) = 0.02534191
#
# Stress axis : x y z
#
# Youngs Moduli (GPa) = 63.15202 100.29376 55.51031
#
# Poissons Ratio (x) = 0.28620 0.23336
# Poissons Ratio (y) = 0.18021 0.12110
# Poissons Ratio (z) = 0.26548 0.21881
#
# Static dielectric constant tensor:
#      x y z
#    x 1.760870 0.000000 0.018240 
#    y 0.000000 1.656410 0.000000 
#    z 0.018240 0.000000 1.713630 
# 
# From -- ./inp_files/91632.got.cif
#   From: 2010.05.17/outbox.cif.g08.bks.cpg/sg12_46_cif.got.tgz:91632.got - 2010.06.03 13:09:07.
