data_PCOD9175804
_publ_section_title
;
Structure prediction by ZEFSAII (Michael W. Deem and Ramdas Pophale) SiO2 
 PCOD9175804
Probable space group: C 2/M
;
_chemical_formula_sum "Si O2"
_cell_formula_units_Z 64
_cell_length_a 27.444693
_cell_length_b 15.084924
_cell_length_c 18.966539
_cell_angle_alpha 90.000000
_cell_angle_beta 23.812047
_cell_angle_gamma 90.000000
_cell_volume 3170.216053
_symmetry_space_group_name_H-M "C 2/M"
_symmetry_group_IT_number 12
_symmetry_cell_setting 'monoclinic'
loop_
_space_group_symop_operation_xyz
x,y,z
-x,y,-z
-x,-y,-z
x,-y,z
1/2+x,1/2+y,z
1/2-x,1/2+y,-z
1/2-x,1/2-y,-z
1/2+x,1/2-y,z
loop_
_atom_site_type_symbol
_atom_site_label
_atom_site_fract_x
_atom_site_fract_y
_atom_site_fract_z
Si Si1 0.258229 0.851622 0.156174
Si Si2 0.846469 0.770136 0.432220
Si Si3 0.031897 0.356709 0.348079
Si Si4 0.590256 0.648254 0.248420
Si Si5 0.497728 0.098979 0.762990
Si Si6 0.317999 0.404118 0.591427
Si Si7 0.304073 0.145643 0.738998
Si Si8 0.427266 0.398300 0.882697
O O1 0.174340 0.882190 0.201421
O O2 0.242321 0.896763 0.252546
O O3 0.217956 0.750644 0.223157
O O4 0.394734 0.864315 0.950753
O O5 0.750000 0.750000 0.500000
O O6 0.901476 0.674374 0.377559
O O7 0.793755 0.823731 0.569360
O O8 0.958416 0.833348 0.259824
O O9 0.061037 0.252375 0.297786
O O10 0.115413 0.386311 0.301719
O O11 0.058804 0.404066 0.240004
O O12 0.892033 0.369000 0.556391
O O13 0.460644 0.601636 0.419638
O O14 0.635410 0.633017 0.108470
O O15 0.537084 0.000000 0.731407
O O16 0.288737 0.500000 0.598151
O O17 0.171144 0.106684 0.924984
O O18 0.465982 0.500000 0.823274
#
# Coordination Sequence:
#
# PCOD9175804 Si02
#       8
#     8   8   8   8   8   8   8   8
#     4  11  20  35  58  93 133 168 195 240 299 374
#     4  11  24  46  67  84 114 157 205 266 327 370
#     4  10  19  35  57  88 126 176 209 241 290 363
#     4  10  18  33  57  88 131 172 202 234 297 368
#     4  12  24  38  60  89 120 158 206 254 315 380
#     4  11  22  38  63  95 127 160 205 251 305 370
#     4  10  19  34  60  86 129 175 211 238 294 363
#     4  11  22  38  63  93 123 162 213 261 306 370
#
# _framework density 20.187899000000002
#
# number of rings (size 3 to 8) (size 9 to 14) (size 15 to 20)
#    0.000    1.250    5.000    3.000    0.000    7.500 
#    0.000    1.875    0.000    1.500    0.000    2.625 
#    0.000    0.000    0.000    0.000    0.000    0.000 
#
# Total GULP energy -178597.612947 kJ/mol
# GULP energy per Si atom -5581.175405 kJ/mol
# Density = 2.014195 g / cm^3
# Si number density = 20.187899 Si / 1000 Ang^3
#
#
#
# Elastic Constant Matrix: (Units=GPa)
#
#
# Indices 1 2 3 4 5 6 
#
# 1 83.2291 33.3882 33.6203 0.0000 -2.8531 0.0000
# 2 33.3882 82.6861 19.6227 0.0000 -3.8848 0.0000
# 3 33.6203 19.6227 83.7762 0.0000 28.3476 0.0000
# 4 0.0000 0.0000 0.0000 2.5786 0.0000 4.9046
# 5 -2.8531 -3.8848 28.3476 0.0000 28.8452 0.0000
# 6 0.0000 0.0000 0.0000 4.9046 0.0000 0.8710
#
#
#
# Elastic Compliance Matrix: (Units=1/GPa)
#
#
# Indices 1 2 3 4 5 6 
#
# 1 0.018224 -0.004468 -0.009998 0.000000 0.011026 0.000000
# 2 -0.004468 0.014920 -0.003344 0.000000 0.004854 0.000000
# 3 -0.009998 -0.003344 0.025798 0.000000 -0.026792 0.000000
# 4 0.000000 0.000000 0.000000 -0.039937 0.000000 0.224889
# 5 0.011026 0.004854 -0.026792 0.000000 0.062742 0.000001
# 6 0.000000 0.000000 0.000000 0.224889 0.000001 -0.118238
#
#
# Mechanical properties :
#
#
# Convention : Reuss Voigt Hill
#
# Bulk Modulus (GPa) = 42.87836 46.99484 44.93660
# Shear Modulus (GPa) = 724.36395 17.32963 370.84679
#
# Velocity S-wave (km/s) = 18.96286 2.93305 13.56821
# Velocity P-wave (km/s) = 22.37720 5.89912 16.36366
#
# Compressibility (1/GPa) = 0.02332179
#
# Stress axis : x y z
#
# Youngs Moduli (GPa) = 54.87233 67.02553 38.76291
#
# Poissons Ratio (x) = 0.29947 0.38755
# Poissons Ratio (y) = 0.24517 0.12962
# Poissons Ratio (z) = 0.54862 0.22412
#
# Static dielectric constant tensor:
#      x y z
#    x 1.720170 0.000000 0.021980 
#    y 0.000000 1.777040 0.000000 
#    z 0.021980 0.000000 1.731360 
# 
# From -- ./inp_files/330353.got.cif
#   From: 2010.05.17/outbox.cif.g08.bks.cpg/sg12_166_cif.got.tgz:330353.got - 2010.06.03 13:09:07.
