data_PCOD9175982
_publ_section_title
;
Structure prediction by ZEFSAII (Michael W. Deem and Ramdas Pophale) SiO2 
 PCOD9175982
Probable space group: C 2/M
;
_chemical_formula_sum "Si O2"
_cell_formula_units_Z 64
_cell_length_a 16.918157
_cell_length_b 12.399532
_cell_length_c 20.594218
_cell_angle_alpha 90.000000
_cell_angle_beta 53.716618
_cell_angle_gamma 90.000000
_cell_volume 3482.511404
_symmetry_space_group_name_H-M "C 2/M"
_symmetry_group_IT_number 12
_symmetry_cell_setting 'monoclinic'
loop_
_space_group_symop_operation_xyz
x,y,z
-x,y,-z
-x,-y,-z
x,-y,z
1/2+x,1/2+y,z
1/2-x,1/2+y,-z
1/2-x,1/2-y,-z
1/2+x,1/2-y,z
loop_
_atom_site_type_symbol
_atom_site_label
_atom_site_fract_x
_atom_site_fract_y
_atom_site_fract_z
Si Si1 0.169805 0.688073 0.261964
Si Si2 0.469526 0.879166 0.290555
Si Si3 0.381174 0.621221 0.115956
Si Si4 0.097118 0.675686 0.987070
Si Si5 0.312922 0.620045 0.842280
Si Si6 0.795420 0.626519 0.480251
Si Si7 0.893298 0.624157 0.571922
Si Si8 0.975612 0.769698 0.850921
O O1 0.269531 0.627671 0.195063
O O2 0.180672 0.804244 0.223524
O O3 0.154055 0.688792 0.346369
O O4 0.073674 0.635993 0.276098
O O5 0.384558 0.867543 0.385349
O O6 0.467045 0.793113 0.233666
O O7 0.464002 0.000000 0.266120
O O8 0.403504 0.500000 0.085367
O O9 0.392025 0.705630 0.051703
O O10 0.451532 0.659750 0.140301
O O11 0.201358 0.622694 0.922345
O O12 0.074165 0.687618 0.073905
O O13 0.000000 0.627887 0.000000
O O14 0.341834 0.500000 0.811314
O O15 0.388242 0.665032 0.859213
O O16 0.752322 0.500000 0.489905
O O17 0.750000 0.750000 0.500000
O O18 0.831166 0.621329 0.536974
O O19 0.906374 0.500000 0.589042
O O20 0.000000 0.666477 0.500000
#
# Coordination Sequence:
#
# PCOD9175982 Si02
#       8
#     8   8   8   8   8   8   8   8
#     4  10  20  36  56  83 110 136 188 235 269 325
#     4  10  20  37  58  81 112 146 182 229 280 330
#     4  10  20  34  56  82 109 140 178 230 282 325
#     4   9  20  37  55  79 106 138 190 236 267 318
#     4  10  21  37  55  76 112 153 180 219 279 340
#     4  10  22  39  60  87 119 152 188 235 289 340
#     4  10  18  33  62  87 107 142 188 237 280 321
#     4  10  21  35  54  84 112 140 179 226 277 340
#
# _framework density 18.377541999999998
#
# number of rings (size 3 to 8) (size 9 to 14) (size 15 to 20)
#    0.000    2.125    1.250    1.875    1.750    3.500 
#    0.000    8.125    0.000    0.750    0.000    0.000 
#    0.000    0.000    0.000    0.000    0.000    0.000 
#
# Total GULP energy -178272.369859 kJ/mol
# GULP energy per Si atom -5571.011558 kJ/mol
# Density = 1.833571 g / cm^3
# Si number density = 18.377542 Si / 1000 Ang^3
#
#
#
# Elastic Constant Matrix: (Units=GPa)
#
#
# Indices 1 2 3 4 5 6 
#
# 1 50.9916 32.6430 24.1447 0.0000 0.8814 0.0000
# 2 32.6430 100.8239 27.0416 0.0000 -0.8437 0.0000
# 3 24.1447 27.0416 100.9051 0.0000 4.9006 0.0000
# 4 0.0000 0.0000 0.0000 -18.6960 0.0000 2.8714
# 5 0.8814 -0.8437 4.9006 0.0000 32.9983 0.0000
# 6 0.0000 0.0000 0.0000 2.8714 0.0000 1.1567
#
#
#
# Elastic Compliance Matrix: (Units=1/GPa)
#
#
# Indices 1 2 3 4 5 6 
#
# 1 0.026391 -0.007387 -0.004323 0.000000 -0.000252 0.000000
# 2 -0.007387 0.012770 -0.001692 0.000000 0.000775 0.000000
# 3 -0.004323 -0.001692 0.011478 0.000000 -0.001632 0.000000
# 4 0.000000 0.000000 0.000000 -0.038724 0.000000 0.096127
# 5 -0.000252 0.000775 -0.001632 0.000000 0.030574 0.000000
# 6 0.000000 0.000000 0.000000 0.096127 0.000000 0.625890
#
#
# Mechanical properties :
#
#
# Convention : Reuss Voigt Hill
#
# Bulk Modulus (GPa) = 41.95667 46.70879 44.33273
# Shear Modulus (GPa) = 7.11107 14.35121 10.73114
#
# Velocity S-wave (km/s) = 1.96922 2.79751 2.41908
# Velocity P-wave (km/s) = 5.29626 5.99217 5.65493
#
# Compressibility (1/GPa) = 0.02383412
#
# Stress axis : x y z
#
# Youngs Moduli (GPa) = 37.89115 78.30631 87.12667
#
# Poissons Ratio (x) = 0.57846 0.37665
# Poissons Ratio (y) = 0.27991 0.14745
# Poissons Ratio (z) = 0.16380 0.13252
#
# Static dielectric constant tensor:
#      x y z
#    x 1.574410 0.000000 0.021180 
#    y 0.000000 1.664180 0.000000 
#    z 0.021180 0.000000 1.583120 
# 
# From -- ./inp_files/315694.got.cif
#   From: 2010.05.17/outbox.cif.g08.bks.cpg/sg12_158_cif.got.tgz:315694.got - 2010.06.03 13:09:07.
