data_PCOD9175288
_publ_section_title
;
Structure prediction by ZEFSAII (Michael W. Deem and Ramdas Pophale) SiO2 
 PCOD9175288
Probable space group: C 2/M
;
_chemical_formula_sum "Si O2"
_cell_formula_units_Z 52
_cell_length_a 16.541303
_cell_length_b 22.002656
_cell_length_c 10.126741
_cell_angle_alpha 90.000000
_cell_angle_beta 49.091947
_cell_angle_gamma 90.000000
_cell_volume 2785.474947
_symmetry_space_group_name_H-M "C 2/M"
_symmetry_group_IT_number 12
_symmetry_cell_setting 'monoclinic'
loop_
_space_group_symop_operation_xyz
x,y,z
-x,y,-z
-x,-y,-z
x,-y,z
1/2+x,1/2+y,z
1/2-x,1/2+y,-z
1/2-x,1/2-y,-z
1/2+x,1/2-y,z
loop_
_atom_site_type_symbol
_atom_site_label
_atom_site_fract_x
_atom_site_fract_y
_atom_site_fract_z
Si Si1 0.373599 0.070235 0.822432
Si Si2 0.272849 0.657120 0.565874
Si Si3 0.222191 0.287124 0.332596
Si Si4 0.439338 0.428545 0.268335
Si Si5 0.659379 0.606906 0.907712
Si Si6 0.372750 0.069704 0.121954
Si Si7 0.500000 0.152523 0.500000
O O1 0.267625 0.077060 0.846693
O O2 0.466940 0.109772 0.657669
O O3 0.406950 0.000000 0.792784
O O4 0.346762 0.089551 0.000181
O O5 0.245295 0.685483 0.452994
O O6 0.276213 0.714682 0.659932
O O7 0.379121 0.616251 0.433773
O O8 0.182155 0.612047 0.713131
O O9 0.309105 0.322203 0.148629
O O10 0.104391 0.308261 0.417690
O O11 0.438640 0.500000 0.304942
O O12 0.376409 0.420520 0.195529
O O13 0.559771 0.406018 0.109867
O O14 0.336733 0.000000 0.177751
O O15 0.500000 0.071401 0.000000
#
# Coordination Sequence:
#
# PCOD9175288 Si02
#       7
#     8   8   8   8   8   8   4
#     4  10  19  33  55  82 111 138 177 226 273 322
#     4  10  20  38  54  79 108 147 180 217 265 327
#     4   9  20  37  55  76 109 139 185 224 264 321
#     4  10  18  32  58  83 108 140 178 227 274 319
#     4   9  18  34  53  82 110 138 179 227 275 314
#     4  10  21  37  55  80 110 141 178 217 270 329
#     4  10  19  36  56  80 105 140 182 230 272 306
#
# _framework density 18.66827
#
# number of rings (size 3 to 8) (size 9 to 14) (size 15 to 20)
#    0.000    2.308    0.000    3.462    0.000    0.000 
#   13.846    6.154    0.000    2.769    0.000    0.000 
#    0.000    0.000    0.000    0.000    0.000    0.000 
#
# Total GULP energy -145000.840593 kJ/mol
# GULP energy per Si atom -5576.955407 kJ/mol
# Density = 1.862578 g / cm^3
# Si number density = 18.668270 Si / 1000 Ang^3
#
#
#
# Elastic Constant Matrix: (Units=GPa)
#
#
# Indices 1 2 3 4 5 6 
#
# 1 26.7230 3.0192 -7.1325 0.0000 -12.2868 0.0000
# 2 3.0192 127.7061 61.9156 0.0000 -8.3284 0.0000
# 3 -7.1325 61.9156 64.2447 0.0000 -13.4091 0.0000
# 4 0.0000 0.0000 0.0000 4.3496 0.0000 -1.0847
# 5 -12.2868 -8.3284 -13.4091 0.0000 18.0242 0.0000
# 6 0.0000 0.0000 0.0000 -1.0847 0.0000 10.6426
#
#
#
# Elastic Compliance Matrix: (Units=1/GPa)
#
#
# Indices 1 2 3 4 5 6 
#
# 1 0.095187 -0.020066 0.049145 0.000000 0.092177 0.000000
# 2 -0.020066 0.019234 -0.025765 0.000000 -0.023959 0.000000
# 3 0.049145 -0.025765 0.059618 0.000000 0.065949 0.000000
# 4 0.000000 0.000000 0.000000 0.235904 0.000000 0.024043
# 5 0.092177 -0.023959 0.065949 0.000000 0.156308 0.000000
# 6 0.000000 0.000000 0.000000 0.024043 0.000000 0.096412
#
#
# Mechanical properties :
#
#
# Convention : Reuss Voigt Hill
#
# Bulk Modulus (GPa) = 5.53507 37.14205 21.33856
# Shear Modulus (GPa) = 6.98073 17.32804 12.15438
#
# Velocity S-wave (km/s) = 1.93584 3.04996 2.55438
# Velocity P-wave (km/s) = 2.82277 5.68700 4.48943
#
# Compressibility (1/GPa) = 0.18066635
#
# Stress axis : x y z
#
# Youngs Moduli (GPa) = 10.50566 51.99079 16.77355
#
# Poissons Ratio (x) = 1.04326 -0.82434
# Poissons Ratio (y) = 0.21081 0.43218
# Poissons Ratio (z) = -0.51631 1.33956
#
# Static dielectric constant tensor:
#      x y z
#    x 1.640630 0.000000 0.019480 
#    y 0.000000 1.643120 0.000000 
#    z 0.019480 0.000000 1.632940 
# 
# From -- ./inp_files/159459.got.cif
#   From: 2010.05.17/outbox.cif.g08.bks.cpg/sg12_80_cif.got.tgz:159459.got - 2010.06.03 13:09:07.
