data_PCOD9175069
_publ_section_title
;
Structure prediction by ZEFSAII (Michael W. Deem and Ramdas Pophale) SiO2 
 PCOD9175069
Probable space group: C 2/M
;
_chemical_formula_sum "Si O2"
_cell_formula_units_Z 56
_cell_length_a 20.734808
_cell_length_b 13.381599
_cell_length_c 16.239547
_cell_angle_alpha 90.000000
_cell_angle_beta 135.723902
_cell_angle_gamma 90.000000
_cell_volume 3145.646691
_symmetry_space_group_name_H-M "C 2/M"
_symmetry_group_IT_number 12
_symmetry_cell_setting 'monoclinic'
loop_
_space_group_symop_operation_xyz
x,y,z
-x,y,-z
-x,-y,-z
x,-y,z
1/2+x,1/2+y,z
1/2-x,1/2+y,-z
1/2-x,1/2-y,-z
1/2+x,1/2-y,z
loop_
_atom_site_type_symbol
_atom_site_label
_atom_site_fract_x
_atom_site_fract_y
_atom_site_fract_z
Si Si1 0.817896 0.209370 0.688907
Si Si2 0.207712 0.882251 0.512720
Si Si3 0.306773 0.884457 0.084298
Si Si4 0.379875 0.321407 0.159245
Si Si5 0.012232 0.120479 0.417362
Si Si6 0.510853 0.614550 0.895097
Si Si7 0.299803 0.381809 0.841077
O O1 0.793727 0.142711 0.586176
O O2 0.785926 0.318319 0.630592
O O3 0.771918 0.176724 0.733410
O O4 0.925312 0.188617 0.806845
O O5 0.108811 0.850775 0.461929
O O6 0.219050 0.000000 0.534794
O O7 0.379372 0.796234 0.136932
O O8 0.262202 0.864922 0.134324
O O9 0.335811 0.000000 0.106214
O O10 0.223781 0.862538 0.944594
O O11 0.426676 0.337624 0.288511
O O12 0.438734 0.382205 0.146783
O O13 0.000000 0.152571 0.500000
O O14 0.008922 0.000000 0.411497
O O15 0.479362 0.500000 0.881462
O O16 0.593578 0.639622 0.034159
O O17 0.294987 0.500000 0.819568
#
# Coordination Sequence:
#
# PCOD9175069 Si02
#       7
#     8   8   8   8   8   8   8
#     4  11  20  32  56  76 102 137 167 210 261 304
#     4  10  22  37  51  75 105 136 174 214 250 298
#     4   9  19  33  51  80 110 132 163 211 264 314
#     4  10  18  32  56  74 102 138 168 210 259 299
#     4  10  20  34  55  77  99 131 174 216 251 292
#     4  10  18  32  55  82 104 126 170 222 258 299
#     4   9  18  31  53  82 104 127 163 214 264 303
#
# _framework density 17.802379999999999
#
# number of rings (size 3 to 8) (size 9 to 14) (size 15 to 20)
#    0.000    2.143    1.429    3.857    2.000    1.143 
#    0.000    0.714    0.000    2.143    0.000    0.000 
#    0.000    0.000    0.000    0.000    0.000    0.000 
#
# Total GULP energy -156078.569439 kJ/mol
# GULP energy per Si atom -5574.234623 kJ/mol
# Density = 1.776186 g / cm^3
# Si number density = 17.802380 Si / 1000 Ang^3
#
#
#
# Elastic Constant Matrix: (Units=GPa)
#
#
# Indices 1 2 3 4 5 6 
#
# 1 34.2976 27.9734 33.2497 0.0000 -8.3716 0.0000
# 2 27.9734 75.1517 34.0998 0.0000 -12.6441 0.0000
# 3 33.2497 34.0998 103.7560 0.0000 -31.9617 0.0000
# 4 0.0000 0.0000 0.0000 19.5149 0.0000 -3.4148
# 5 -8.3716 -12.6441 -31.9617 0.0000 21.6440 0.0000
# 6 0.0000 0.0000 0.0000 -3.4148 0.0000 17.1633
#
#
#
# Elastic Compliance Matrix: (Units=1/GPa)
#
#
# Indices 1 2 3 4 5 6 
#
# 1 0.053791 -0.014714 -0.015852 0.000000 -0.011198 0.000000
# 2 -0.014714 0.019759 0.000044 0.000000 0.005917 0.000000
# 3 -0.015852 0.000044 0.023523 0.000000 0.028631 0.000000
# 4 0.000000 0.000000 0.000000 0.053091 0.000000 0.010563
# 5 -0.011198 0.005917 0.028631 0.000000 0.087607 0.000000
# 6 0.000000 0.000000 0.000000 0.010563 0.000000 0.060365
#
#
# Mechanical properties :
#
#
# Convention : Reuss Voigt Hill
#
# Bulk Modulus (GPa) = 27.75468 44.87233 36.31351
# Shear Modulus (GPa) = 13.47020 19.52329 16.49675
#
# Velocity S-wave (km/s) = 2.75371 3.31519 3.04741
# Velocity P-wave (km/s) = 5.07295 6.31779 5.72928
#
# Compressibility (1/GPa) = 0.03602995
#
# Stress axis : x y z
#
# Youngs Moduli (GPa) = 18.59035 50.61046 42.51139
#
# Poissons Ratio (x) = 0.74467 0.67388
# Poissons Ratio (y) = 0.27354 -0.00187
# Poissons Ratio (z) = 0.29469 -0.00223
#
# Static dielectric constant tensor:
#      x y z
#    x 1.662290 0.000000 -0.011080 
#    y 0.000000 1.592790 0.000000 
#    z -0.011080 0.000000 1.608170 
# 
# From -- ./inp_files/289171.got.cif
#   From: 2010.05.17/outbox.cif.g08.bks.cpg/sg12_145_cif.got.tgz:289171.got - 2010.06.03 13:09:07.
