data_PCOD9175445
_publ_section_title
;
Structure prediction by ZEFSAII (Michael W. Deem and Ramdas Pophale) SiO2 
 PCOD9175445
Probable space group: C 2/M
;
_chemical_formula_sum "Si O2"
_cell_formula_units_Z 48
_cell_length_a 5.363190
_cell_length_b 14.346155
_cell_length_c 28.653883
_cell_angle_alpha 90.000000
_cell_angle_beta 106.454579
_cell_angle_gamma 90.000000
_cell_volume 2114.369973
_symmetry_space_group_name_H-M "C 2/M"
_symmetry_group_IT_number 12
_symmetry_cell_setting 'monoclinic'
loop_
_space_group_symop_operation_xyz
x,y,z
-x,y,-z
-x,-y,-z
x,-y,z
1/2+x,1/2+y,z
1/2-x,1/2+y,-z
1/2-x,1/2-y,-z
1/2+x,1/2-y,z
loop_
_atom_site_type_symbol
_atom_site_label
_atom_site_fract_x
_atom_site_fract_y
_atom_site_fract_z
Si Si1 0.546452 0.613414 0.555030
Si Si2 0.012767 0.690631 0.864437
Si Si3 0.906463 0.151102 0.720918
Si Si4 0.867972 0.613291 0.387987
Si Si5 0.791683 0.612082 0.027695
Si Si6 0.965870 0.637382 0.760425
O O1 0.500000 0.647775 0.500000
O O2 0.547417 0.500000 0.553148
O O3 0.313800 0.638134 0.577706
O O4 0.832497 0.639916 0.588256
O O5 0.231651 0.766116 0.861269
O O6 0.120648 0.643269 0.916600
O O7 0.984325 0.627732 0.816870
O O8 0.752371 0.158254 0.664578
O O9 0.716561 0.101033 0.747109
O O10 0.968651 0.252465 0.746236
O O11 0.185547 0.104464 0.728322
O O12 0.857012 0.500000 0.381737
O O13 0.789342 0.500000 0.026679
O O14 0.500000 0.643722 0.000000
O O15 0.000000 0.643207 0.000000
#
# Coordination Sequence:
#
# PCOD9175445 Si02
#       6
#     8   8   8   8   8   8
#     4   9  17  30  47  70 103 138 170 211 263 318
#     4  12  21  37  63  88 116 145 199 248 271 332
#     4  10  18  33  52  73 102 137 169 218 263 314
#     4  10  19  30  48  77 105 131 170 215 264 327
#     4  10  23  42  60  85 123 158 186 229 295 351
#     4  10  19  35  54  74  99 138 178 218 263 307
#
# _framework density 22.701799999999999
#
# number of rings (size 3 to 8) (size 9 to 14) (size 15 to 20)
#    0.000    1.833    3.333    2.500    0.000    4.000 
#    0.000    1.667    0.000    0.000    0.000   46.667 
#    0.000    0.000    0.000    0.000    0.000    0.000 
#
# Total GULP energy -134206.085969 kJ/mol
# GULP energy per Si atom -5591.920249 kJ/mol
# Density = 2.265013 g / cm^3
# Si number density = 22.701800 Si / 1000 Ang^3
#
#
#
# Elastic Constant Matrix: (Units=GPa)
#
#
# Indices 1 2 3 4 5 6 
#
# 1 83.7324 -2.0915 -32.3040 0.0000 -5.0960 0.0000
# 2 -2.0915 77.2210 2.1182 0.0000 -2.6536 0.0000
# 3 -32.3040 2.1182 101.0558 0.0000 -1.7936 0.0000
# 4 0.0000 0.0000 0.0000 79.4849 0.0000 33.8552
# 5 -5.0960 -2.6536 -1.7936 0.0000 46.5910 0.0000
# 6 0.0000 0.0000 0.0000 33.8552 0.0000 -5.4619
#
#
#
# Elastic Compliance Matrix: (Units=1/GPa)
#
#
# Indices 1 2 3 4 5 6 
#
# 1 0.013760 0.000310 0.004422 0.000000 0.001693 0.000000
# 2 0.000310 0.012989 -0.000160 0.000000 0.000767 0.000000
# 3 0.004422 -0.000160 0.011329 0.000000 0.000911 0.000000
# 4 0.000000 0.000000 0.000000 0.003456 0.000000 0.021423
# 5 0.001693 0.000767 0.000911 0.000000 0.021727 0.000000
# 6 0.000000 0.000000 0.000000 0.021423 0.000000 -0.050297
#
#
# Mechanical properties :
#
#
# Convention : Reuss Voigt Hill
#
# Bulk Modulus (GPa) = 21.17706 21.93940 21.55823
# Shear Modulus (GPa) = 255.61979 43.74190 149.68085
#
# Velocity S-wave (km/s) = 10.62278 4.39430 8.12875
# Velocity P-wave (km/s) = 12.64146 5.95245 9.88023
#
# Compressibility (1/GPa) = 0.04722091
#
# Stress axis : x y z
#
# Youngs Moduli (GPa) = 72.67661 76.98837 88.27214
#
# Poissons Ratio (x) = -0.02383 -0.39034
# Poissons Ratio (y) = -0.02250 0.01410
# Poissons Ratio (z) = -0.32138 0.01229
#
# Static dielectric constant tensor:
#      x y z
#    x 1.884850 0.000000 0.011750 
#    y 0.000000 1.866370 0.000000 
#    z 0.011750 0.000000 1.787190 
# 
# From -- ./inp_files/331062.got.cif
#   From: 2010.05.17/outbox.cif.g08.bks.cpg/sg12_166_cif.got.tgz:331062.got - 2010.06.03 13:09:07.
