data_PCOD9175811
_publ_section_title
;
Structure prediction by ZEFSAII (Michael W. Deem and Ramdas Pophale) SiO2 
 PCOD9175811
Probable space group: C 2/M
;
_chemical_formula_sum "Si O2"
_cell_formula_units_Z 64
_cell_length_a 16.770265
_cell_length_b 7.489111
_cell_length_c 22.769801
_cell_angle_alpha 90.000000
_cell_angle_beta 90.399865
_cell_angle_gamma 90.000000
_cell_volume 2859.689307
_symmetry_space_group_name_H-M "C 2/M"
_symmetry_group_IT_number 12
_symmetry_cell_setting 'monoclinic'
loop_
_space_group_symop_operation_xyz
x,y,z
-x,y,-z
-x,-y,-z
x,-y,z
1/2+x,1/2+y,z
1/2-x,1/2+y,-z
1/2-x,1/2-y,-z
1/2+x,1/2-y,z
loop_
_atom_site_type_symbol
_atom_site_label
_atom_site_fract_x
_atom_site_fract_y
_atom_site_fract_z
Si Si1 0.664544 0.718586 0.124170
Si Si2 0.898141 0.209156 0.753981
Si Si3 0.345504 0.785704 0.125205
Si Si4 0.345514 0.214260 0.362928
Si Si5 0.169035 0.219139 0.367429
Si Si6 0.490805 0.713483 0.566084
Si Si7 0.920583 0.715894 0.244849
Si Si8 0.911068 0.787306 0.996939
O O1 0.662283 0.500000 0.122441
O O2 0.615454 0.781297 0.180609
O O3 0.755263 0.773611 0.133950
O O4 0.634039 0.782312 0.060753
O O5 0.846188 0.279182 0.699858
O O6 0.990427 0.228096 0.738419
O O7 0.878037 0.000000 0.757590
O O8 0.398819 0.718697 0.179503
O O9 0.346702 0.000000 0.128533
O O10 0.371505 0.739901 0.059720
O O11 0.258758 0.275949 0.385705
O O12 0.426182 0.255784 0.399064
O O13 0.361090 0.275571 0.295938
O O14 0.340623 0.000000 0.361352
O O15 0.091157 0.279349 0.403720
O O16 0.167462 0.000000 0.368474
O O17 0.500000 0.783346 0.500000
O O18 0.481434 0.500000 0.562934
O O19 0.918822 0.500000 0.243988
O O20 0.916665 0.000000 0.988511
O O21 0.000000 0.712880 0.000000
#
# Coordination Sequence:
#
# PCOD9175811 Si02
#       8
#     8   8   8   8   8   8   8   8
#     4   9  18  32  51  74  98 130 173 219 261 314
#     4  10  18  33  58  79 101 139 183 218 263 327
#     4  10  20  34  51  72 100 134 172 212 264 323
#     4  10  20  36  58  82 112 148 188 228 271 327
#     4   9  18  34  57  83 110 147 188 223 269 332
#     4  10  21  38  58  84 118 149 183 230 275 319
#     4  10  20  33  51  78 108 134 170 227 274 308
#     4  10  20  34  50  71  99 129 169 219 267 313
#
# _framework density 22.380054999999999
#
# number of rings (size 3 to 8) (size 9 to 14) (size 15 to 20)
#    0.000    2.250    1.250    1.875    0.000    5.500 
#    0.000    2.500    0.000    1.500    0.000    0.000 
#    0.000    0.000    0.000    0.000    0.000    0.000 
#
# Total GULP energy -178648.263297 kJ/mol
# GULP energy per Si atom -5582.758228 kJ/mol
# Density = 2.232912 g / cm^3
# Si number density = 22.380055 Si / 1000 Ang^3
#
#
#
# Elastic Constant Matrix: (Units=GPa)
#
#
# Indices 1 2 3 4 5 6 
#
# 1 143.9242 -8.5171 61.6842 0.0000 -11.1381 0.0000
# 2 -8.5171 56.5219 0.8460 0.0000 -1.5745 0.0000
# 3 61.6842 0.8460 138.9304 0.0000 -12.5432 0.0000
# 4 0.0000 0.0000 0.0000 15.7018 0.0000 4.6338
# 5 -11.1381 -1.5745 -12.5432 0.0000 21.1222 0.0000
# 6 0.0000 0.0000 0.0000 4.6338 0.0000 -4.9175
#
#
#
# Elastic Compliance Matrix: (Units=1/GPa)
#
#
# Indices 1 2 3 4 5 6 
#
# 1 0.008815 0.001455 -0.003691 0.000000 0.002565 0.000000
# 2 0.001455 0.017969 -0.000597 0.000000 0.001752 0.000000
# 3 -0.003691 -0.000597 0.009151 0.000000 0.003444 0.000000
# 4 0.000000 0.000000 0.000000 0.049830 0.000000 0.046955
# 5 0.002565 0.001752 0.003444 0.000000 0.050872 0.000000
# 6 0.000000 0.000000 0.000000 0.046955 0.000000 -0.159108
#
#
# Mechanical properties :
#
#
# Convention : Reuss Voigt Hill
#
# Bulk Modulus (GPa) = 33.03762 49.71140 41.37451
# Shear Modulus (GPa) = -744.51939 25.40551 -359.55694
#
# Velocity S-wave (km/s) = -18.25906 3.37291 -12.68891
# Velocity P-wave (km/s) = 20.72993 6.11795 14.00537
#
# Compressibility (1/GPa) = 0.03026853
#
# Stress axis : x y z
#
# Youngs Moduli (GPa) = 113.44860 55.65064 109.27622
#
# Poissons Ratio (x) = -0.08097 0.40333
# Poissons Ratio (y) = -0.16506 0.06526
# Poissons Ratio (z) = 0.41873 0.03324
#
# Static dielectric constant tensor:
#      x y z
#    x 1.810150 0.000000 -0.009720 
#    y 0.000000 1.901870 0.000000 
#    z -0.009720 0.000000 1.848950 
# 
# From -- ./inp_files/314087.got.cif
#   From: 2010.05.17/outbox.cif.g08.bks.cpg/sg12_158_cif.got.tgz:314087.got - 2010.06.03 13:09:07.
