data_PCOD9175974
_publ_section_title
;
Structure prediction by ZEFSAII (Michael W. Deem and Ramdas Pophale) SiO2 
 PCOD9175974
Probable space group: C 2/M
;
_chemical_formula_sum "Si O2"
_cell_formula_units_Z 48
_cell_length_a 14.361298
_cell_length_b 11.386072
_cell_length_c 25.690696
_cell_angle_alpha 90.000000
_cell_angle_beta 151.660411
_cell_angle_gamma 90.000000
_cell_volume 1994.157661
_symmetry_space_group_name_H-M "C 2/M"
_symmetry_group_IT_number 12
_symmetry_cell_setting 'monoclinic'
loop_
_space_group_symop_operation_xyz
x,y,z
-x,y,-z
-x,-y,-z
x,-y,z
1/2+x,1/2+y,z
1/2-x,1/2+y,-z
1/2-x,1/2-y,-z
1/2+x,1/2-y,z
loop_
_atom_site_type_symbol
_atom_site_label
_atom_site_fract_x
_atom_site_fract_y
_atom_site_fract_z
Si Si1 0.471789 0.253351 0.129159
Si Si2 0.366092 0.743548 0.502039
Si Si3 0.660736 0.138395 0.123418
Si Si4 0.589483 0.500000 0.444921
Si Si5 0.444053 0.000000 0.299224
Si Si6 0.995421 0.707899 0.252881
Si Si7 0.800478 0.500000 0.444430
Si Si8 0.345331 0.500000 0.747072
O O1 0.608406 0.206031 0.150485
O O2 0.486688 0.176375 0.188590
O O3 0.533958 0.382361 0.179545
O O4 0.250000 0.250000 0.000000
O O5 0.250000 0.750000 0.500000
O O6 0.492537 0.624336 0.573503
O O7 0.216612 0.719711 0.381507
O O8 0.419185 0.878666 0.515684
O O9 0.869782 0.176925 0.203858
O O10 0.650462 0.000000 0.127874
O O11 0.500000 0.168375 0.000000
O O12 0.619227 0.500000 0.397091
O O13 0.820582 0.500000 0.575803
O O14 0.398079 0.888388 0.241768
O O15 0.323216 0.000000 0.291987
O O16 0.724292 0.500000 0.347538
#
# Coordination Sequence:
#
# PCOD9175974 Si02
#       8
#     8   8   8   4   4   8   4   4
#     4  12  26  41  62  91 124 164 209 257 315 372
#     4   9  18  34  59  92 124 162 209 255 311 373
#     4  11  25  43  62  90 124 162 211 260 312 374
#     4   8  18  35  57  89 126 163 201 256 319 374
#     4  10  22  40  60  88 125 158 204 255 311 373
#     4  11  22  40  64  89 124 167 204 253 315 369
#     4  10  18  33  61  91 122 161 212 260 303 376
#     4  12  24  40  62  91 125 158 217 262 305 376
#
# _framework density 24.070314
#
# number of rings (size 3 to 8) (size 9 to 14) (size 15 to 20)
#    0.000    1.500    5.000    0.000    4.667    0.333 
#    0.000    1.667    0.000    1.000    0.000    1.167 
#    0.000    0.000    0.000    0.000    0.000    0.000 
#
# Total GULP energy -134210.778622 kJ/mol
# GULP energy per Si atom -5592.115776 kJ/mol
# Density = 2.401553 g / cm^3
# Si number density = 24.070314 Si / 1000 Ang^3
#
#
#
# Elastic Constant Matrix: (Units=GPa)
#
#
# Indices 1 2 3 4 5 6 
#
# 1 129.0625 48.4970 53.4902 0.0003 -39.7436 0.0002
# 2 48.4970 182.1051 52.9619 0.0002 -24.9967 0.0001
# 3 53.4902 52.9619 118.2300 0.0005 -45.9799 0.0002
# 4 0.0003 0.0002 0.0005 34.7734 0.0003 -4.3243
# 5 -39.7436 -24.9967 -45.9799 0.0003 41.0754 0.0002
# 6 0.0002 0.0001 0.0002 -4.3243 0.0002 28.7399
#
#
#
# Elastic Compliance Matrix: (Units=1/GPa)
#
#
# Indices 1 2 3 4 5 6 
#
# 1 0.011546 -0.001535 -0.000982 0.000000 0.009138 0.000000
# 2 -0.001535 0.006551 -0.002244 0.000000 -0.000011 0.000000
# 3 -0.000982 -0.002244 0.015951 0.000000 0.015540 0.000000
# 4 0.000000 0.000000 0.000000 0.029306 -0.000001 0.004409
# 5 0.009138 -0.000011 0.015540 -0.000001 0.050576 -0.000001
# 6 0.000000 0.000000 0.000000 0.004409 -0.000001 0.035458
#
#
# Mechanical properties :
#
#
# Convention : Reuss Voigt Hill
#
# Bulk Modulus (GPa) = 40.77426 82.14397 61.45911
# Shear Modulus (GPa) = 29.92450 39.21429 34.56940
#
# Velocity S-wave (km/s) = 3.52975 4.04066 3.79381
# Velocity P-wave (km/s) = 5.79556 7.48131 6.69173
#
# Compressibility (1/GPa) = 0.02452528
#
# Stress axis : x y z
#
# Youngs Moduli (GPa) = 86.60995 152.63954 62.69069
#
# Poissons Ratio (x) = 0.23427 0.06159
# Poissons Ratio (y) = 0.13293 0.14071
# Poissons Ratio (z) = 0.08509 0.34260
#
# Static dielectric constant tensor:
#      x y z
#    x 1.895130 0.000000 0.007550 
#    y 0.000000 2.006720 0.000000 
#    z 0.007550 0.000000 1.903390 
# 
# From -- ./inp_files/212725.got.cif
#   From: 2010.05.17/outbox.cif.g08.bks.cpg/sg12_107_cif.got.tgz:212725.got - 2010.06.03 13:09:07.
