data_PCOD9175012
_publ_section_title
;
Structure prediction by ZEFSAII (Michael W. Deem and Ramdas Pophale) SiO2 
 PCOD9175012
Probable space group: C 2/M
;
_chemical_formula_sum "Si O2"
_cell_formula_units_Z 64
_cell_length_a 15.034551
_cell_length_b 7.775017
_cell_length_c 31.023062
_cell_angle_alpha 90.000000
_cell_angle_beta 122.343038
_cell_angle_gamma 90.000000
_cell_volume 3063.806472
_symmetry_space_group_name_H-M "C 2/M"
_symmetry_group_IT_number 12
_symmetry_cell_setting 'monoclinic'
loop_
_space_group_symop_operation_xyz
x,y,z
-x,y,-z
-x,-y,-z
x,-y,z
1/2+x,1/2+y,z
1/2-x,1/2+y,-z
1/2-x,1/2-y,-z
1/2+x,1/2-y,z
loop_
_atom_site_type_symbol
_atom_site_label
_atom_site_fract_x
_atom_site_fract_y
_atom_site_fract_z
Si Si1 0.249723 0.297382 0.362111
Si Si2 0.455705 0.207844 0.876592
Si Si3 0.985635 0.299452 0.708852
Si Si4 0.864522 0.293517 0.011412
Si Si5 0.064477 0.798277 0.821297
Si Si6 0.793196 0.290192 0.902207
Si Si7 0.692517 0.294155 0.440917
Si Si8 0.955205 0.798713 0.367222
O O1 0.246433 0.500000 0.350180
O O2 0.133851 0.226076 0.319834
O O3 0.252645 0.277406 0.414535
O O4 0.352394 0.224449 0.364467
O O5 0.475176 0.272294 0.833819
O O6 0.348277 0.258701 0.872027
O O7 0.459951 0.000000 0.876171
O O8 0.547655 0.271435 0.932853
O O9 0.977513 0.500000 0.695305
O O10 0.038400 0.282787 0.768866
O O11 0.048543 0.215695 0.685618
O O12 0.878632 0.500000 0.013523
O O13 0.860270 0.230934 0.960921
O O14 0.750000 0.250000 0.000000
O O15 0.172898 0.730736 0.870640
O O16 0.078721 0.000000 0.817129
O O17 0.793353 0.500000 0.904842
O O18 0.689219 0.500000 0.434902
O O19 0.750000 0.250000 0.500000
O O20 0.571305 0.227989 0.409306
O O21 0.958591 0.000000 0.380043
#
# Coordination Sequence:
#
# PCOD9175012 Si02
#       8
#     8   8   8   8   8   8   8   8
#     4   9  19  37  59  80 106 143 185 226 267 314
#     4  10  20  35  56  78 101 134 175 216 254 308
#     4  10  21  37  57  80 106 136 176 225 270 316
#     4  10  18  32  55  78 102 133 170 210 256 310
#     4  11  22  37  55  76 107 139 170 215 267 320
#     4   9  19  35  54  76 103 137 173 207 256 317
#     4  10  20  34  54  82 117 150 183 223 265 313
#     4   9  19  37  59  81 106 143 186 223 265 315
#
# _framework density 20.889047999999999
#
# number of rings (size 3 to 8) (size 9 to 14) (size 15 to 20)
#    0.000    2.250    1.250    1.500    0.000    4.500 
#    0.000    9.375    0.000    1.500    0.000    0.000 
#    0.000    0.000    0.000    0.000    0.000    0.000 
#
# Total GULP energy -178562.846025 kJ/mol
# GULP energy per Si atom -5580.088938 kJ/mol
# Density = 2.084150 g / cm^3
# Si number density = 20.889048 Si / 1000 Ang^3
#
#
#
# Elastic Constant Matrix: (Units=GPa)
#
#
# Indices 1 2 3 4 5 6 
#
# 1 128.6080 -2.4341 21.9370 0.0000 -17.8397 0.0000
# 2 -2.4341 27.9011 -9.2263 0.0000 8.1943 0.0000
# 3 21.9370 -9.2263 86.9005 0.0000 -15.6019 0.0000
# 4 0.0000 0.0000 0.0000 20.3615 0.0000 -3.8052
# 5 -17.8397 8.1943 -15.6019 0.0000 14.7993 0.0000
# 6 0.0000 0.0000 0.0000 -3.8052 0.0000 13.7665
#
#
#
# Elastic Compliance Matrix: (Units=1/GPa)
#
#
# Indices 1 2 3 4 5 6 
#
# 1 0.009562 -0.003058 -0.000450 0.000000 0.012745 0.000000
# 2 -0.003058 0.043788 0.000501 0.000000 -0.027403 0.000000
# 3 -0.000450 0.000501 0.014218 0.000000 0.014169 0.000000
# 4 0.000000 0.000000 0.000000 0.051787 0.000000 0.014314
# 5 0.012745 -0.027403 0.014169 0.000000 0.113045 0.000000
# 6 0.000000 0.000000 0.000000 0.014314 0.000000 0.076597
#
#
# Mechanical properties :
#
#
# Convention : Reuss Voigt Hill
#
# Bulk Modulus (GPa) = 16.24588 29.32921 22.78754
# Shear Modulus (GPa) = 14.90183 25.32767 20.11475
#
# Velocity S-wave (km/s) = 2.67382 3.48585 3.10648
# Velocity P-wave (km/s) = 4.16251 5.50205 4.87847
#
# Compressibility (1/GPa) = 0.06155408
#
# Stress axis : x y z
#
# Youngs Moduli (GPa) = 104.57566 22.83744 70.33271
#
# Poissons Ratio (x) = 0.06983 0.03167
# Poissons Ratio (y) = 0.31978 -0.03524
# Poissons Ratio (z) = 0.04709 -0.01144
#
# Static dielectric constant tensor:
#      x y z
#    x 1.761430 0.000000 0.022470 
#    y 0.000000 1.805470 0.000000 
#    z 0.022470 0.000000 1.727020 
# 
# From -- ./inp_files/338714.got.cif
#   From: 2010.05.17/outbox.cif.g08.bks.cpg/sg12_170_cif.got.tgz:338714.got - 2010.06.03 13:09:07.
