data_PCOD9175926
_publ_section_title
;
Structure prediction by ZEFSAII (Michael W. Deem and Ramdas Pophale) SiO2 
 PCOD9175926
Probable space group: C 2/M
;
_chemical_formula_sum "Si O2"
_cell_formula_units_Z 60
_cell_length_a 17.073833
_cell_length_b 15.620154
_cell_length_c 9.266702
_cell_angle_alpha 90.000000
_cell_angle_beta 94.691985
_cell_angle_gamma 90.000000
_cell_volume 2463.109408
_symmetry_space_group_name_H-M "C 2/M"
_symmetry_group_IT_number 12
_symmetry_cell_setting 'monoclinic'
loop_
_space_group_symop_operation_xyz
x,y,z
-x,y,-z
-x,-y,-z
x,-y,z
1/2+x,1/2+y,z
1/2-x,1/2+y,-z
1/2-x,1/2-y,-z
1/2+x,1/2-y,z
loop_
_atom_site_type_symbol
_atom_site_label
_atom_site_fract_x
_atom_site_fract_y
_atom_site_fract_z
Si Si1 0.533979 0.156365 0.848660
Si Si2 0.101001 0.130255 0.488195
Si Si3 0.900350 0.154559 0.092611
Si Si4 0.961298 0.000000 0.273300
Si Si5 0.823952 0.372043 0.306751
Si Si6 0.649673 0.589225 0.193036
Si Si7 0.730021 0.324694 0.705289
Si Si8 0.101921 0.673124 0.395138
O O1 0.558018 0.257093 0.857286
O O2 0.614254 0.111121 0.811227
O O3 0.471091 0.143998 0.711280
O O4 0.500000 0.132493 0.000000
O O5 0.057424 0.076452 0.604136
O O6 0.099395 0.088379 0.331294
O O7 0.190641 0.129002 0.561984
O O8 0.084091 0.230882 0.455359
O O9 0.954056 0.076286 0.148627
O O10 0.815915 0.141049 0.161799
O O11 0.877448 0.160818 0.921203
O O12 0.739521 0.409314 0.256323
O O13 0.800252 0.271989 0.308995
O O14 0.869341 0.384452 0.465342
O O15 0.637165 0.500000 0.112208
O O16 0.822649 0.323918 0.700188
#
# Coordination Sequence:
#
# PCOD9175926 Si02
#       8
#     8   8   8   4   8   8   8   8
#     4  11  25  39  59  86 122 161 200 243 302 365
#     4  10  18  33  59  90 117 146 201 247 292 355
#     4  10  23  39  56  86 125 159 198 245 299 353
#     4  10  20  38  56  80 121 160 199 238 294 351
#     4  10  21  37  59  89 118 149 198 258 303 340
#     4  12  21  35  61  90 121 153 199 248 295 350
#     4   9  18  34  62  89 114 145 194 258 306 344
#     4  11  19  38  62  92 117 153 195 253 304 357
#
# _framework density 24.359453999999999
#
# number of rings (size 3 to 8) (size 9 to 14) (size 15 to 20)
#    0.000    1.600    4.000    2.800    1.867    1.067 
#    0.000    1.667    0.000    2.000    0.000    0.000 
#    0.000    0.000    0.000    0.000    0.000    0.000 
#
# Total GULP energy -167149.870780 kJ/mol
# GULP energy per Si atom -5571.662359 kJ/mol
# Density = 2.430401 g / cm^3
# Si number density = 24.359454 Si / 1000 Ang^3
#
#
#
# Elastic Constant Matrix: (Units=GPa)
#
#
# Indices 1 2 3 4 5 6 
#
# 1 166.9943 -2.5297 48.9947 0.0000 -14.8696 0.0000
# 2 -2.5297 32.4630 6.1230 0.0000 8.1009 0.0000
# 3 48.9947 6.1230 138.8450 0.0000 -0.3252 0.0000
# 4 0.0000 0.0000 0.0000 15.3910 0.0000 -0.4437
# 5 -14.8696 8.1009 -0.3252 0.0000 46.4608 0.0000
# 6 0.0000 0.0000 0.0000 -0.4437 0.0000 49.3499
#
#
#
# Elastic Compliance Matrix: (Units=1/GPa)
#
#
# Indices 1 2 3 4 5 6 
#
# 1 0.006903 0.000474 -0.002452 0.000000 0.002109 0.000000
# 2 0.000474 0.032526 -0.001615 0.000000 -0.005531 0.000000
# 3 -0.002452 -0.001615 0.008138 0.000000 -0.000446 0.000000
# 4 0.000000 0.000000 0.000000 0.064990 0.000000 0.000584
# 5 0.002109 -0.005531 -0.000446 0.000000 0.023160 0.000000
# 6 0.000000 0.000000 0.000000 0.000584 0.000000 0.020269
#
#
# Mechanical properties :
#
#
# Convention : Reuss Voigt Hill
#
# Bulk Modulus (GPa) = 24.76389 49.27536 37.01963
# Shear Modulus (GPa) = 28.30785 41.28797 34.79791
#
# Velocity S-wave (km/s) = 3.41264 4.12144 3.78367
# Velocity P-wave (km/s) = 5.07112 6.55139 5.85820
#
# Compressibility (1/GPa) = 0.04038137
#
# Stress axis : x y z
#
# Youngs Moduli (GPa) = 144.87445 30.74473 122.88688
#
# Poissons Ratio (x) = -0.01457 0.30128
# Poissons Ratio (y) = -0.06866 0.19841
# Poissons Ratio (z) = 0.35519 0.04964
#
# Static dielectric constant tensor:
#      x y z
#    x 2.032570 0.000000 0.016080 
#    y 0.000000 2.200400 0.000000 
#    z 0.016080 0.000000 1.950770 
# 
# From -- ./inp_files/77562.got.cif
#   From: 2010.05.17/outbox.cif.g08.bks.cpg/sg12_39_cif.got.tgz:77562.got - 2010.06.03 13:09:07.
