data_PCOD9175867
_publ_section_title
;
Structure prediction by ZEFSAII (Michael W. Deem and Ramdas Pophale) SiO2 
 PCOD9175867
Probable space group: C 2/M
;
_chemical_formula_sum "Si O2"
_cell_formula_units_Z 48
_cell_length_a 29.619577
_cell_length_b 8.671671
_cell_length_c 12.856527
_cell_angle_alpha 90.000000
_cell_angle_beta 54.784145
_cell_angle_gamma 90.000000
_cell_volume 2697.861078
_symmetry_space_group_name_H-M "C 2/M"
_symmetry_group_IT_number 12
_symmetry_cell_setting 'monoclinic'
loop_
_space_group_symop_operation_xyz
x,y,z
-x,y,-z
-x,-y,-z
x,-y,z
1/2+x,1/2+y,z
1/2-x,1/2+y,-z
1/2-x,1/2-y,-z
1/2+x,1/2-y,z
loop_
_atom_site_type_symbol
_atom_site_label
_atom_site_fract_x
_atom_site_fract_y
_atom_site_fract_z
Si Si1 0.935534 0.685779 0.258279
Si Si2 0.748459 0.316494 0.619143
Si Si3 0.438358 0.186370 0.621503
Si Si4 0.939653 0.312337 0.858914
Si Si5 0.862473 0.183290 0.543236
Si Si6 0.634327 0.814091 0.853584
O O1 0.933165 0.500000 0.276413
O O2 0.899561 0.762402 0.396351
O O3 0.908577 0.719918 0.182781
O O4 0.999289 0.733753 0.183613
O O5 0.750087 0.500000 0.610515
O O6 0.750000 0.250000 0.500000
O O7 0.802228 0.256066 0.607844
O O8 0.692450 0.261368 0.748535
O O9 0.500000 0.227079 0.500000
O O10 0.431767 0.235324 0.750067
O O11 0.393389 0.258557 0.605156
O O12 0.434138 0.000000 0.621683
O O13 0.939297 0.500000 0.860417
O O14 0.892970 0.262144 0.001974
O O15 0.858004 0.000000 0.549248
O O16 0.641405 0.000000 0.846670
#
# Coordination Sequence:
#
# PCOD9175867 Si02
#       6
#     8   8   8   8   8   8
#     4  10  18  33  58  87 120 155 190 233 287 348
#     4  12  24  40  61  85 115 152 194 239 291 346
#     4  10  19  36  61  86 117 155 199 239 282 342
#     4   9  18  34  58  89 120 156 195 234 284 346
#     4  12  24  37  57  87 119 150 195 245 291 338
#     4  10  20  35  59  89 121 154 192 236 288 347
#
# _framework density 17.791872000000001
#
# number of rings (size 3 to 8) (size 9 to 14) (size 15 to 20)
#    0.000    1.500    3.333    3.500    0.000    2.333 
#    0.000    2.500    0.000    2.000    0.000    0.000 
#    0.000    0.000    0.000    0.000    0.000    0.000 
#
# Total GULP energy -134096.868637 kJ/mol
# GULP energy per Si atom -5587.369527 kJ/mol
# Density = 1.775138 g / cm^3
# Si number density = 17.791872 Si / 1000 Ang^3
#
#
#
# Elastic Constant Matrix: (Units=GPa)
#
#
# Indices 1 2 3 4 5 6 
#
# 1 159.7616 60.8686 100.3293 0.0000 4.7446 0.0000
# 2 60.8686 55.6517 58.8040 0.0000 0.4509 0.0000
# 3 100.3293 58.8040 182.7087 0.0000 1.6119 0.0000
# 4 0.0000 0.0000 0.0000 21.4971 0.0000 -4.8693
# 5 4.7446 0.4509 1.6119 0.0000 20.5322 0.0000
# 6 0.0000 0.0000 0.0000 -4.8693 0.0000 25.1751
#
#
#
# Elastic Compliance Matrix: (Units=1/GPa)
#
#
# Indices 1 2 3 4 5 6 
#
# 1 0.012242 -0.009530 -0.003634 0.000000 -0.002334 0.000000
# 2 -0.009530 0.034648 -0.005935 0.000000 0.001907 0.000000
# 3 -0.003634 -0.005935 0.009377 0.000000 0.000234 0.000000
# 4 0.000000 0.000000 0.000000 0.048649 0.000000 0.009410
# 5 -0.002334 0.001907 0.000234 0.000000 0.049183 0.000000
# 6 0.000000 0.000000 0.000000 0.009410 0.000000 0.041542
#
#
# Mechanical properties :
#
#
# Convention : Reuss Voigt Hill
#
# Bulk Modulus (GPa) = 55.34688 93.12510 74.23599
# Shear Modulus (GPa) = 20.84513 25.31555 23.08034
#
# Velocity S-wave (km/s) = 3.42659 3.77619 3.60563
# Velocity P-wave (km/s) = 6.84331 8.45386 7.69086
#
# Compressibility (1/GPa) = 0.01806787
#
# Stress axis : x y z
#
# Youngs Moduli (GPa) = 81.68484 28.86137 106.64364
#
# Poissons Ratio (x) = 0.27506 0.38760
# Poissons Ratio (y) = 0.77850 0.63292
# Poissons Ratio (z) = 0.29688 0.17129
#
# Static dielectric constant tensor:
#      x y z
#    x 1.585290 0.000000 0.005180 
#    y 0.000000 1.601520 0.000000 
#    z 0.005180 0.000000 1.591720 
# 
# From -- ./inp_files/179725.got.cif
#   From: 2010.05.17/outbox.cif.g08.bks.cpg/sg12_90_cif.got.tgz:179725.got - 2010.06.03 13:09:07.
