data_PCOD9175450
_publ_section_title
;
Structure prediction by ZEFSAII (Michael W. Deem and Ramdas Pophale) SiO2 
 PCOD9175450
Probable space group: C 2/M
;
_chemical_formula_sum "Si O2"
_cell_formula_units_Z 48
_cell_length_a 24.539499
_cell_length_b 8.608207
_cell_length_c 24.676044
_cell_angle_alpha 90.000000
_cell_angle_beta 32.669999
_cell_angle_gamma 90.000000
_cell_volume 2813.756442
_symmetry_space_group_name_H-M "C 2/M"
_symmetry_group_IT_number 12
_symmetry_cell_setting 'monoclinic'
loop_
_space_group_symop_operation_xyz
x,y,z
-x,y,-z
-x,-y,-z
x,-y,z
1/2+x,1/2+y,z
1/2-x,1/2+y,-z
1/2-x,1/2-y,-z
1/2+x,1/2-y,z
loop_
_atom_site_type_symbol
_atom_site_label
_atom_site_fract_x
_atom_site_fract_y
_atom_site_fract_z
Si Si1 0.613797 0.811224 0.886798
Si Si2 0.742434 0.816188 0.140654
Si Si3 0.155504 0.687658 0.612346
Si Si4 0.886353 0.681035 0.233520
Si Si5 0.878580 0.680751 0.932571
Si Si6 0.562481 0.684885 0.231609
O O1 0.696231 0.751678 0.859988
O O2 0.635712 0.753095 0.807364
O O3 0.614695 0.000000 0.886125
O O4 0.500000 0.764891 0.000000
O O5 0.632871 0.742336 0.221538
O O6 0.733487 0.000000 0.152679
O O7 0.808663 0.771249 0.032587
O O8 0.154386 0.500000 0.614018
O O9 0.250000 0.750000 0.500000
O O10 0.157609 0.745479 0.673408
O O11 0.049923 0.745100 0.675390
O O12 0.855652 0.500000 0.257437
O O13 0.007406 0.684313 0.139737
O O14 0.847157 0.500000 0.955455
O O15 0.885736 0.754589 0.867324
O O16 0.557288 0.500000 0.235168
#
# Coordination Sequence:
#
# PCOD9175450 Si02
#       6
#     8   8   8   8   8   8
#     4  10  18  33  54  75 104 147 188 218 257 313
#     4  12  23  33  47  74 110 148 182 220 264 316
#     4  10  20  37  60  85 109 137 173 221 274 324
#     4   8  16  31  53  78 105 138 178 218 260 313
#     4  10  18  33  52  74 105 144 181 220 264 318
#     4  11  22  36  53  77 105 139 179 224 273 324
#
# _framework density 17.059045999999999
#
# number of rings (size 3 to 8) (size 9 to 14) (size 15 to 20)
#    0.000    1.833    1.667    5.500    0.000    0.333 
#    0.000    1.667    0.000    1.000    0.000    7.000 
#    0.000    0.000    0.000    0.000    0.000    0.000 
#
# Total GULP energy -133935.357284 kJ/mol
# GULP energy per Si atom -5580.639887 kJ/mol
# Density = 1.702022 g / cm^3
# Si number density = 17.059046 Si / 1000 Ang^3
#
#
#
# Elastic Constant Matrix: (Units=GPa)
#
#
# Indices 1 2 3 4 5 6 
#
# 1 158.0376 39.2767 65.8877 -0.0001 0.8106 -0.0001
# 2 39.2767 65.4648 14.8741 -0.0016 2.6704 0.0020
# 3 65.8877 14.8741 95.6538 -0.0010 5.9837 0.0011
# 4 -0.0001 -0.0016 -0.0010 23.6881 0.0001 -2.8595
# 5 0.8106 2.6704 5.9837 0.0001 6.1399 -0.0001
# 6 -0.0001 0.0020 0.0011 -2.8595 -0.0001 26.7939
#
#
#
# Elastic Compliance Matrix: (Units=1/GPa)
#
#
# Indices 1 2 3 4 5 6 
#
# 1 0.010379 -0.004977 -0.006842 -0.000001 0.007462 0.000001
# 2 -0.004977 0.018354 0.001099 0.000001 -0.008397 -0.000001
# 3 -0.006842 0.001099 0.015941 0.000001 -0.015111 -0.000001
# 4 -0.000001 0.000001 0.000001 0.042766 -0.000002 0.004564
# 5 0.007462 -0.008397 -0.015111 -0.000002 0.180261 0.000002
# 6 0.000001 -0.000001 -0.000001 0.004564 0.000002 0.037809
#
#
# Mechanical properties :
#
#
# Convention : Reuss Voigt Hill
#
# Bulk Modulus (GPa) = 43.03760 62.13702 52.58731
# Shear Modulus (GPa) = 14.93900 24.59890 19.76895
#
# Velocity S-wave (km/s) = 2.96247 3.80147 3.40789
# Velocity P-wave (km/s) = 6.08153 7.46806 6.81018
#
# Compressibility (1/GPa) = 0.02323550
#
# Stress axis : x y z
#
# Youngs Moduli (GPa) = 96.35171 54.48397 62.72947
#
# Poissons Ratio (x) = 0.27115 0.42919
# Poissons Ratio (y) = 0.47951 -0.06896
# Poissons Ratio (z) = 0.65923 -0.05989
#
# Static dielectric constant tensor:
#      x y z
#    x 1.601340 0.000000 0.008520 
#    y 0.000000 1.576250 0.000000 
#    z 0.008520 0.000000 1.565150 
# 
# From -- ./inp_files/319582.got.cif
#   From: 2010.05.17/outbox.cif.g08.bks.cpg/sg12_160_cif.got.tgz:319582.got - 2010.06.03 13:09:07.
