data_PCOD9175451
_publ_section_title
;
Structure prediction by ZEFSAII (Michael W. Deem and Ramdas Pophale) SiO2 
 PCOD9175451
Probable space group: C 2/M
;
_chemical_formula_sum "Si O2"
_cell_formula_units_Z 48
_cell_length_a 17.588339
_cell_length_b 19.251038
_cell_length_c 25.212845
_cell_angle_alpha 90.000000
_cell_angle_beta 160.218269
_cell_angle_gamma 90.000000
_cell_volume 2889.214751
_symmetry_space_group_name_H-M "C 2/M"
_symmetry_group_IT_number 12
_symmetry_cell_setting 'monoclinic'
loop_
_space_group_symop_operation_xyz
x,y,z
-x,y,-z
-x,-y,-z
x,-y,z
1/2+x,1/2+y,z
1/2-x,1/2+y,-z
1/2-x,1/2-y,-z
1/2+x,1/2-y,z
loop_
_atom_site_type_symbol
_atom_site_label
_atom_site_fract_x
_atom_site_fract_y
_atom_site_fract_z
Si Si1 0.169720 0.218242 0.002357
Si Si2 0.765906 0.500000 0.686214
Si Si3 0.589916 0.304424 0.425837
Si Si4 0.067802 0.500000 0.982593
Si Si5 0.783653 0.354985 0.895622
Si Si6 0.308576 0.238670 0.336530
Si Si7 0.111030 0.641970 0.286640
O O1 0.911964 0.196135 0.825255
O O2 0.250000 0.250000 0.000000
O O3 0.190163 0.283710 0.054871
O O4 0.357780 0.161132 0.136901
O O5 0.500000 0.500000 0.500000
O O6 0.867113 0.568239 0.726045
O O7 0.847591 0.500000 0.800874
O O8 0.750000 0.250000 0.500000
O O9 0.440223 0.347318 0.286206
O O10 0.423886 0.265565 0.358340
O O11 0.738985 0.351578 0.562387
O O12 0.201388 0.427350 0.062034
O O13 0.000000 0.500000 0.000000
O O14 0.000000 0.356421 0.000000
O O15 0.500000 0.205571 0.500000
O O16 0.213011 0.302453 0.310480
#
# Coordination Sequence:
#
# PCOD9175451 Si02
#       7
#     8   4   8   4   8   8   8
#     4  10  18  33  52  74 105 145 186 228 272 332
#     4  12  24  38  56  78 117 157 184 227 281 352
#     4  11  20  33  52  84 109 143 186 234 277 332
#     4  10  24  34  52  82 111 152 191 218 282 333
#     4  11  21  34  53  76 116 145 183 231 280 329
#     4   9  18  32  50  76 108 139 179 228 274 326
#     4  10  22  34  55  79 111 146 190 220 276 341
#
# _framework density 16.613510000000002
#
# number of rings (size 3 to 8) (size 9 to 14) (size 15 to 20)
#    0.000    1.667    3.333    3.500    7.000    0.000 
#    0.000    0.000    0.000    0.000    0.000    7.000 
#    0.000    0.167    0.000    0.000    0.000    0.000 
#
# Total GULP energy -133691.933554 kJ/mol
# GULP energy per Si atom -5570.497231 kJ/mol
# Density = 1.657570 g / cm^3
# Si number density = 16.613510 Si / 1000 Ang^3
#
#
#
# Elastic Constant Matrix: (Units=GPa)
#
#
# Indices 1 2 3 4 5 6 
#
# 1 59.4331 23.6967 35.9256 0.0015 -9.5341 0.0033
# 2 23.6967 67.2506 43.3382 0.0213 -0.5845 -0.0072
# 3 35.9256 43.3382 164.2805 0.0412 -11.6035 -0.0148
# 4 0.0015 0.0213 0.0412 16.6796 -0.0082 2.0059
# 5 -9.5341 -0.5845 -11.6035 -0.0082 30.6263 0.0004
# 6 0.0033 -0.0072 -0.0148 2.0059 0.0004 18.6066
#
#
#
# Elastic Compliance Matrix: (Units=1/GPa)
#
#
# Indices 1 2 3 4 5 6 
#
# 1 0.021741 -0.005786 -0.002834 0.000016 0.005584 -0.000010
# 2 -0.005786 0.019522 -0.004095 -0.000017 -0.002980 0.000007
# 3 -0.002834 -0.004095 0.007932 -0.000014 0.002045 0.000007
# 4 0.000016 -0.000017 -0.000014 0.060741 0.000016 -0.006548
# 5 0.005584 -0.002980 0.002045 0.000016 0.035108 -0.000003
# 6 -0.000010 0.000007 0.000007 -0.006548 -0.000003 0.054450
#
#
# Mechanical properties :
#
#
# Convention : Reuss Voigt Hill
#
# Bulk Modulus (GPa) = 42.07929 55.20947 48.64438
# Shear Modulus (GPa) = 21.47348 25.71608 23.59478
#
# Velocity S-wave (km/s) = 3.59908 3.93861 3.77266
# Velocity P-wave (km/s) = 6.53104 7.34761 6.95132
#
# Compressibility (1/GPa) = 0.02376466
#
# Stress axis : x y z
#
# Youngs Moduli (GPa) = 45.99535 51.22494 126.07865
#
# Poissons Ratio (x) = 0.29640 0.35726
# Poissons Ratio (y) = 0.26614 0.51630
# Poissons Ratio (z) = 0.13033 0.20977
#
# Static dielectric constant tensor:
#      x y z
#    x 1.581940 0.000300 -0.012290 
#    y 0.000300 1.449940 -0.000040 
#    z -0.012290 -0.000040 1.620480 
# 
# From -- ./inp_files/285569.got.cif
#   From: 2010.05.17/outbox.cif.g08.bks.cpg/sg12_143_cif.got.tgz:285569.got - 2010.06.03 13:09:07.
