data_PCOD9175849
_publ_section_title
;
Structure prediction by ZEFSAII (Michael W. Deem and Ramdas Pophale) SiO2 
 PCOD9175849
Probable space group: C 2/M
;
_chemical_formula_sum "Si O2"
_cell_formula_units_Z 64
_cell_length_a 17.115903
_cell_length_b 15.630391
_cell_length_c 10.248243
_cell_angle_alpha 90.000000
_cell_angle_beta 87.927471
_cell_angle_gamma 90.000000
_cell_volume 2739.901094
_symmetry_space_group_name_H-M "C 2/M"
_symmetry_group_IT_number 12
_symmetry_cell_setting 'monoclinic'
loop_
_space_group_symop_operation_xyz
x,y,z
-x,y,-z
-x,-y,-z
x,-y,z
1/2+x,1/2+y,z
1/2-x,1/2+y,-z
1/2-x,1/2-y,-z
1/2+x,1/2-y,z
loop_
_atom_site_type_symbol
_atom_site_label
_atom_site_fract_x
_atom_site_fract_y
_atom_site_fract_z
Si Si1 0.586163 0.754762 0.483325
Si Si2 0.388586 0.406004 0.885777
Si Si3 0.559077 0.905862 0.280366
Si Si4 0.905977 0.674764 0.230913
Si Si5 0.565864 0.631626 0.821577
Si Si6 0.752207 0.217904 0.853463
Si Si7 0.335464 0.593070 0.449518
Si Si8 0.770329 0.405526 0.757299
O O1 0.500000 0.712420 0.500000
O O2 0.573320 0.825948 0.375025
O O3 0.605060 0.805501 0.614772
O O4 0.646273 0.676719 0.467776
O O5 0.357011 0.500000 0.857939
O O6 0.476372 0.398073 0.826049
O O7 0.332708 0.332669 0.834346
O O8 0.396633 0.397826 0.043412
O O9 0.477828 0.889771 0.212343
O O10 0.640597 0.905169 0.198633
O O11 0.555457 0.000000 0.344729
O O12 0.934218 0.765737 0.172582
O O13 0.821503 0.658171 0.175523
O O14 0.611907 0.602713 0.687917
O O15 0.741653 0.309106 0.783757
O O16 0.750000 0.250000 0.000000
O O17 0.352868 0.500000 0.507342
O O18 0.247440 0.591378 0.397424
O O19 0.739751 0.500000 0.804234
#
# Coordination Sequence:
#
# PCOD9175849 Si02
#       8
#     8   8   8   8   8   8   8   8
#     4   9  19  35  58  86 113 151 198 242 298 354
#     4  11  22  33  55  87 116 157 198 236 294 352
#     4  10  22  40  63  88 118 159 203 246 298 357
#     4  10  20  38  59  87 114 158 202 239 299 351
#     4  10  18  36  57  80 117 152 196 242 289 357
#     4  12  22  39  60  87 126 157 195 249 297 349
#     4  10  18  33  58  85 116 151 192 241 297 358
#     4  10  21  39  63  88 116 157 202 245 297 358
#
# _framework density 23.358505999999998
#
# number of rings (size 3 to 8) (size 9 to 14) (size 15 to 20)
#    0.000    1.750    3.750    2.250    0.000    5.000 
#    0.000    0.000    0.000    2.250    0.000    0.000 
#    0.000    0.000    0.000    0.000    0.000    0.000 
#
# Total GULP energy -178460.633755 kJ/mol
# GULP energy per Si atom -5576.894805 kJ/mol
# Density = 2.330534 g / cm^3
# Si number density = 23.358506 Si / 1000 Ang^3
#
#
#
# Elastic Constant Matrix: (Units=GPa)
#
#
# Indices 1 2 3 4 5 6 
#
# 1 127.7066 33.2022 15.3570 0.0000 23.8742 0.0000
# 2 33.2022 145.0916 3.1474 0.0000 5.5939 0.0000
# 3 15.3570 3.1474 46.4167 0.0000 8.6974 0.0000
# 4 0.0000 0.0000 0.0000 17.2318 0.0000 7.8459
# 5 23.8742 5.5939 8.6974 0.0000 23.9659 0.0000
# 6 0.0000 0.0000 0.0000 7.8459 0.0000 36.5460
#
#
#
# Elastic Compliance Matrix: (Units=1/GPa)
#
#
# Indices 1 2 3 4 5 6 
#
# 1 0.010241 -0.001956 -0.001534 0.000000 -0.009189 0.000000
# 2 -0.001956 0.007330 0.000113 0.000000 0.000197 0.000000
# 3 -0.001534 0.000113 0.023350 0.000000 -0.006972 0.000000
# 4 0.000000 0.000000 0.000000 0.064319 0.000000 -0.013808
# 5 -0.009189 0.000197 -0.006972 0.000000 0.053364 0.000000
# 6 0.000000 0.000000 0.000000 -0.013808 0.000000 0.030327
#
#
# Mechanical properties :
#
#
# Convention : Reuss Voigt Hill
#
# Bulk Modulus (GPa) = 29.26718 46.95868 38.11293
# Shear Modulus (GPa) = 24.14590 33.38263 28.76427
#
# Velocity S-wave (km/s) = 3.21862 3.78450 3.51297
# Velocity P-wave (km/s) = 5.13512 6.26448 5.72770
#
# Compressibility (1/GPa) = 0.03416796
#
# Stress axis : x y z
#
# Youngs Moduli (GPa) = 97.64423 136.42998 42.82613
#
# Poissons Ratio (x) = 0.26686 0.06569
# Poissons Ratio (y) = 0.19099 -0.00485
# Poissons Ratio (z) = 0.14978 -0.01546
#
# Static dielectric constant tensor:
#      x y z
#    x 1.985350 0.000000 -0.020800 
#    y 0.000000 1.960070 0.000000 
#    z -0.020800 0.000000 1.968400 
# 
# From -- ./inp_files/156655.got.cif
#   From: 2010.05.17/outbox.cif.g08.bks.cpg/sg12_79_cif.got.tgz:156655.got - 2010.06.03 13:09:07.
