data_PCOD9175943
_publ_section_title
;
Structure prediction by ZEFSAII (Michael W. Deem and Ramdas Pophale) SiO2 
 PCOD9175943
Probable space group: C 2/M
;
_chemical_formula_sum "Si O2"
_cell_formula_units_Z 48
_cell_length_a 24.965393
_cell_length_b 7.697102
_cell_length_c 11.956949
_cell_angle_alpha 90.000000
_cell_angle_beta 110.643905
_cell_angle_gamma 90.000000
_cell_volume 2150.127743
_symmetry_space_group_name_H-M "C 2/M"
_symmetry_group_IT_number 12
_symmetry_cell_setting 'monoclinic'
loop_
_space_group_symop_operation_xyz
x,y,z
-x,y,-z
-x,-y,-z
x,-y,z
1/2+x,1/2+y,z
1/2-x,1/2+y,-z
1/2-x,1/2-y,-z
1/2+x,1/2-y,z
loop_
_atom_site_type_symbol
_atom_site_label
_atom_site_fract_x
_atom_site_fract_y
_atom_site_fract_z
Si Si1 0.056031 0.708942 0.470676
Si Si2 0.887593 0.212462 0.113216
Si Si3 0.166749 0.204792 0.697145
Si Si4 0.876649 0.786125 0.856857
Si Si5 0.982520 0.203453 0.801535
Si Si6 0.725801 0.304165 0.362760
O O1 0.056943 0.500000 0.467236
O O2 0.112959 0.770713 0.574664
O O3 0.049210 0.778052 0.340469
O O4 0.000000 0.763937 0.500000
O O5 0.852815 0.271877 0.195895
O O6 0.953564 0.275089 0.165088
O O7 0.888132 0.000000 0.120564
O O8 0.863648 0.262987 0.974696
O O9 0.222221 0.293135 0.686160
O O10 0.179332 0.000000 0.713832
O O11 0.939537 0.727227 0.863880
O O12 0.829337 0.718144 0.735089
O O13 0.877164 0.000000 0.856229
O O14 0.990411 0.000000 0.833279
O O15 0.707270 0.500000 0.367634
O O16 0.750000 0.250000 0.500000
#
# Coordination Sequence:
#
# PCOD9175943 Si02
#       6
#     8   8   8   8   8   8
#     4  11  22  35  54  82 118 152 186 234 290 344
#     4   9  18  33  56  87 117 146 188 239 287 343
#     4  11  22  37  59  86 116 151 193 238 285 342
#     4   9  19  35  57  85 114 148 192 238 286 339
#     4  10  18  33  60  88 114 148 191 240 288 341
#     4  11  23  40  61  85 116 153 194 240 287 340
#
# _framework density 22.324256999999999
#
# number of rings (size 3 to 8) (size 9 to 14) (size 15 to 20)
#    0.000    1.833    1.667    3.000    0.000    4.667 
#    0.000    0.833    0.000    9.000    0.000    0.000 
#    0.000    0.000    0.000    0.000    0.000    0.000 
#
# Total GULP energy -134122.266209 kJ/mol
# GULP energy per Si atom -5588.427759 kJ/mol
# Density = 2.227345 g / cm^3
# Si number density = 22.324257 Si / 1000 Ang^3
#
#
#
# Elastic Constant Matrix: (Units=GPa)
#
#
# Indices 1 2 3 4 5 6 
#
# 1 82.7891 -8.5853 43.9269 0.0000 -15.4729 0.0000
# 2 -8.5853 36.2733 -3.3711 0.0000 2.7247 0.0000
# 3 43.9269 -3.3711 123.3489 0.0000 -10.3280 0.0000
# 4 0.0000 0.0000 0.0000 4.4645 0.0000 -3.3287
# 5 -15.4729 2.7247 -10.3280 0.0000 24.1912 0.0000
# 6 0.0000 0.0000 0.0000 -3.3287 0.0000 10.4324
#
#
#
# Elastic Compliance Matrix: (Units=1/GPa)
#
#
# Indices 1 2 3 4 5 6 
#
# 1 0.016631 0.002847 -0.005166 0.000000 0.008111 0.000000
# 2 0.002847 0.028323 -0.000368 0.000000 -0.001526 0.000000
# 3 -0.005166 -0.000368 0.010022 0.000000 0.001016 0.000000
# 4 0.000000 0.000000 0.000000 0.293912 0.000000 0.093779
# 5 0.008111 -0.001526 0.001016 0.000000 0.047131 0.000000
# 6 0.000000 0.000000 0.000000 0.093779 0.000000 0.125778
#
#
# Mechanical properties :
#
#
# Convention : Reuss Voigt Hill
#
# Bulk Modulus (GPa) = 20.16017 34.03916 27.09966
# Shear Modulus (GPa) = 9.19621 21.84700 15.52160
#
# Velocity S-wave (km/s) = 2.03183 3.13169 2.63968
# Velocity P-wave (km/s) = 3.81506 5.32516 4.63206
#
# Compressibility (1/GPa) = 0.04960276
#
# Stress axis : x y z
#
# Youngs Moduli (GPa) = 60.12923 35.30729 99.78371
#
# Poissons Ratio (x) = -0.10052 0.51544
# Poissons Ratio (y) = -0.17118 0.03668
# Poissons Ratio (z) = 0.31060 0.01298
#
# Static dielectric constant tensor:
#      x y z
#    x 1.806360 0.000000 0.011580 
#    y 0.000000 1.875510 0.000000 
#    z 0.011580 0.000000 1.834100 
# 
# From -- ./inp_files/172436.got.cif
#   From: 2010.05.17/outbox.cif.g08.bks.cpg/sg12_87_cif.got.tgz:172436.got - 2010.06.03 13:09:07.
