data_PCOD9175337
_publ_section_title
;
Structure prediction by ZEFSAII (Michael W. Deem and Ramdas Pophale) SiO2 
 PCOD9175337
Probable space group: C 2/M
;
_chemical_formula_sum "Si O2"
_cell_formula_units_Z 52
_cell_length_a 17.169212
_cell_length_b 17.153023
_cell_length_c 18.508544
_cell_angle_alpha 90.000000
_cell_angle_beta 150.256910
_cell_angle_gamma 90.000000
_cell_volume 2704.225102
_symmetry_space_group_name_H-M "C 2/M"
_symmetry_group_IT_number 12
_symmetry_cell_setting 'monoclinic'
loop_
_space_group_symop_operation_xyz
x,y,z
-x,y,-z
-x,-y,-z
x,-y,z
1/2+x,1/2+y,z
1/2-x,1/2+y,-z
1/2-x,1/2-y,-z
1/2+x,1/2-y,z
loop_
_atom_site_type_symbol
_atom_site_label
_atom_site_fract_x
_atom_site_fract_y
_atom_site_fract_z
Si Si1 0.640078 0.202813 0.670688
Si Si2 0.126569 0.913032 0.538825
Si Si3 0.000000 0.635778 0.000000
Si Si4 0.124829 0.181785 0.899817
Si Si5 0.159326 0.131658 0.771221
Si Si6 0.655295 0.592397 0.075609
Si Si7 0.879821 0.719420 0.764671
O O1 0.500000 0.192998 0.500000
O O2 0.633034 0.280935 0.715597
O O3 0.693696 0.131848 0.764281
O O4 0.782500 0.219091 0.731845
O O5 0.262160 0.848955 0.644888
O O6 0.000000 0.894158 0.500000
O O7 0.003814 0.911774 0.375085
O O8 0.190267 0.000000 0.601809
O O9 0.177655 0.600318 0.134423
O O10 0.008549 0.683377 0.082491
O O11 0.166525 0.133328 0.862875
O O12 0.964368 0.232133 0.770556
O O13 0.250000 0.250000 0.000000
O O14 0.131346 0.133032 0.978784
O O15 0.675886 0.500000 0.084378
O O16 0.500000 0.605618 0.000000
#
# Coordination Sequence:
#
# PCOD9175337 Si02
#       7
#     8   8   4   8   8   8   8
#     4  11  19  37  64  92 119 163 213 259 304 378
#     4  11  22  39  60  86 124 166 206 259 320 374
#     4  10  18  32  59  84 123 148 198 258 304 358
#     4  12  22  36  67  95 121 161 213 265 316 372
#     4  11  21  37  61  95 122 159 215 262 309 384
#     4  11  24  42  64  92 128 167 208 265 323 367
#     4  11  19  37  59  91 118 158 208 257 301 382
#
# _framework density 19.229168999999999
#
# number of rings (size 3 to 8) (size 9 to 14) (size 15 to 20)
#    0.000    0.923    9.231    0.923    1.077    1.538 
#    0.000    2.308    0.000    0.000    0.000    0.000 
#    0.000    0.000    0.000    0.000    0.000    0.000 
#
# Total GULP energy -144736.252468 kJ/mol
# GULP energy per Si atom -5566.778941 kJ/mol
# Density = 1.918540 g / cm^3
# Si number density = 19.229169 Si / 1000 Ang^3
#
#
#
# Elastic Constant Matrix: (Units=GPa)
#
#
# Indices 1 2 3 4 5 6 
#
# 1 98.4478 35.3590 20.7931 0.0004 -8.0628 0.0003
# 2 35.3590 105.5801 41.6902 0.0027 4.2175 0.0011
# 3 20.7931 41.6902 99.1690 0.0038 -5.5035 0.0017
# 4 0.0004 0.0027 0.0038 10.4848 0.0008 -3.9406
# 5 -8.0628 4.2175 -5.5035 0.0008 27.3602 0.0002
# 6 0.0003 0.0011 0.0017 -3.9406 0.0002 6.9286
#
#
#
# Elastic Compliance Matrix: (Units=1/GPa)
#
#
# Indices 1 2 3 4 5 6 
#
# 1 0.012038 -0.003937 -0.000645 0.000001 0.004025 0.000000
# 2 -0.003937 0.012852 -0.004805 -0.000002 -0.004108 -0.000002
# 3 -0.000645 -0.004805 0.012408 -0.000005 0.003046 -0.000005
# 4 0.000001 -0.000002 -0.000005 0.121307 -0.000005 0.068994
# 5 0.004025 -0.004108 0.003046 -0.000005 0.038982 -0.000004
# 6 0.000000 -0.000002 -0.000005 0.068994 -0.000004 0.183571
#
#
# Mechanical properties :
#
#
# Convention : Reuss Voigt Hill
#
# Bulk Modulus (GPa) = 53.99061 55.43126 54.71094
# Shear Modulus (GPa) = 12.31202 22.64501 17.47852
#
# Velocity S-wave (km/s) = 2.53312 3.43540 3.01816
# Velocity P-wave (km/s) = 6.05756 6.68021 6.37649
#
# Compressibility (1/GPa) = 0.01852174
#
# Stress axis : x y z
#
# Youngs Moduli (GPa) = 83.07200 77.81116 80.59150
#
# Poissons Ratio (x) = 0.30637 0.05201
# Poissons Ratio (y) = 0.32709 0.38726
# Poissons Ratio (z) = 0.05361 0.37390
#
# Static dielectric constant tensor:
#      x y z
#    x 1.504200 0.000000 -0.336250 
#    y 0.000000 1.720060 0.000000 
#    z -0.336250 0.000000 1.685170 
# 
# From -- ./inp_files/278737.got.cif
#   From: 2010.05.17/outbox.cif.g08.bks.cpg/sg12_140_cif.got.tgz:278737.got - 2010.06.03 13:09:07.
