data_PCOD9175298
_publ_section_title
;
Structure prediction by ZEFSAII (Michael W. Deem and Ramdas Pophale) SiO2 
 PCOD9175298
Probable space group: C 2/M
;
_chemical_formula_sum "Si O2"
_cell_formula_units_Z 64
_cell_length_a 18.084591
_cell_length_b 21.657409
_cell_length_c 9.640387
_cell_angle_alpha 90.000000
_cell_angle_beta 85.417896
_cell_angle_gamma 90.000000
_cell_volume 3763.737945
_symmetry_space_group_name_H-M "C 2/M"
_symmetry_group_IT_number 12
_symmetry_cell_setting 'monoclinic'
loop_
_space_group_symop_operation_xyz
x,y,z
-x,y,-z
-x,-y,-z
x,-y,z
1/2+x,1/2+y,z
1/2-x,1/2+y,-z
1/2-x,1/2-y,-z
1/2+x,1/2-y,z
loop_
_atom_site_type_symbol
_atom_site_label
_atom_site_fract_x
_atom_site_fract_y
_atom_site_fract_z
Si Si1 0.311211 0.625192 0.237094
Si Si2 0.697269 0.220954 0.127279
Si Si3 0.817856 0.066823 0.952379
Si Si4 0.194118 0.926655 0.454786
Si Si5 0.676602 0.930374 0.775880
Si Si6 0.035744 0.195499 0.842729
Si Si7 0.422278 0.169522 0.070249
Si Si8 0.385603 0.662829 0.744591
O O1 0.246943 0.674469 0.209664
O O2 0.303715 0.594996 0.387839
O O3 0.390968 0.657804 0.205849
O O4 0.307497 0.575032 0.115857
O O5 0.663797 0.275795 0.226267
O O6 0.750000 0.250000 0.000000
O O7 0.631529 0.187897 0.050403
O O8 0.738902 0.071361 0.887704
O O9 0.866780 0.120975 0.881782
O O10 0.850313 0.000000 0.912825
O O11 0.274299 0.918947 0.368631
O O12 0.139210 0.880940 0.378253
O O13 0.175125 0.000000 0.444452
O O14 0.617945 0.878735 0.823940
O O15 0.645967 0.000000 0.774789
O O16 0.058860 0.267017 0.852801
O O17 0.970936 0.182321 0.742038
O O18 0.000000 0.181078 0.000000
O O19 0.500000 0.144878 0.000000
#
# Coordination Sequence:
#
# PCOD9175298 Si02
#       8
#     8   8   8   8   8   8   8   8
#     4  12  22  35  60  87 117 153 202 241 293 346
#     4  12  18  33  60  89 117 151 190 252 293 343
#     4  10  18  32  58  85 110 149 203 240 278 339
#     4  10  24  43  60  82 122 161 199 242 286 345
#     4   9  19  37  60  85 116 156 193 242 292 347
#     4  11  20  35  57  87 121 154 187 251 299 346
#     4  11  19  34  60  94 121 147 188 250 304 343
#     4  11  20  38  57  81 119 158 194 234 301 345
#
# _framework density 17.004370999999999
#
# number of rings (size 3 to 8) (size 9 to 14) (size 15 to 20)
#    0.000    1.250    7.500    2.250    0.000    1.250 
#    0.000    3.750    0.000    0.750    0.000    1.750 
#    0.000    0.000    0.000    0.000    0.000    0.000 
#
# Total GULP energy -178466.406173 kJ/mol
# GULP energy per Si atom -5577.075193 kJ/mol
# Density = 1.696567 g / cm^3
# Si number density = 17.004371 Si / 1000 Ang^3
#
#
#
# Elastic Constant Matrix: (Units=GPa)
#
#
# Indices 1 2 3 4 5 6 
#
# 1 98.8932 52.1956 33.5595 0.0000 -2.1792 0.0000
# 2 52.1956 97.0630 43.1601 0.0000 -3.4835 0.0000
# 3 33.5595 43.1601 116.9875 0.0000 -0.5664 0.0000
# 4 0.0000 0.0000 0.0000 18.5019 0.0000 6.7876
# 5 -2.1792 -3.4835 -0.5664 0.0000 15.7516 0.0000
# 6 0.0000 0.0000 0.0000 6.7876 0.0000 15.6570
#
#
#
# Elastic Compliance Matrix: (Units=1/GPa)
#
#
# Indices 1 2 3 4 5 6 
#
# 1 0.014343 -0.007023 -0.001522 0.000000 0.000377 0.000000
# 2 -0.007023 0.015867 -0.003828 0.000000 0.002400 0.000000
# 3 -0.001522 -0.003828 0.010393 0.000000 -0.000683 0.000000
# 4 0.000000 0.000000 0.000000 0.064270 0.000000 -0.027862
# 5 0.000377 0.002400 -0.000683 0.000000 0.064044 0.000000
# 6 0.000000 0.000000 0.000000 -0.027862 0.000000 0.075948
#
#
# Mechanical properties :
#
#
# Convention : Reuss Voigt Hill
#
# Bulk Modulus (GPa) = 63.05508 63.41935 63.23722
# Shear Modulus (GPa) = 18.18863 22.25066 20.21964
#
# Velocity S-wave (km/s) = 3.27409 3.62128 3.45205
# Velocity P-wave (km/s) = 7.17322 7.40687 7.29098
#
# Compressibility (1/GPa) = 0.01585915
#
# Stress axis : x y z
#
# Youngs Moduli (GPa) = 69.71893 63.02271 96.21582
#
# Poissons Ratio (x) = 0.44260 0.14642
# Poissons Ratio (y) = 0.48963 0.36828
# Poissons Ratio (z) = 0.10610 0.24123
#
# Static dielectric constant tensor:
#      x y z
#    x 1.579730 0.000000 0.003810 
#    y 0.000000 1.591480 0.000000 
#    z 0.003810 0.000000 1.571230 
# 
# From -- ./inp_files/77537.got.cif
#   From: 2010.05.17/outbox.cif.g08.bks.cpg/sg12_39_cif.got.tgz:77537.got - 2010.06.03 13:09:07.
