data_PCOD9175906
_publ_section_title
;
Structure prediction by ZEFSAII (Michael W. Deem and Ramdas Pophale) SiO2 
 PCOD9175906
Probable space group: C 2/M
;
_chemical_formula_sum "Si O2"
_cell_formula_units_Z 64
_cell_length_a 15.145776
_cell_length_b 14.999569
_cell_length_c 16.899528
_cell_angle_alpha 90.000000
_cell_angle_beta 118.613663
_cell_angle_gamma 90.000000
_cell_volume 3370.346084
_symmetry_space_group_name_H-M "C 2/M"
_symmetry_group_IT_number 12
_symmetry_cell_setting 'monoclinic'
loop_
_space_group_symop_operation_xyz
x,y,z
-x,y,-z
-x,-y,-z
x,-y,z
1/2+x,1/2+y,z
1/2-x,1/2+y,-z
1/2-x,1/2-y,-z
1/2+x,1/2-y,z
loop_
_atom_site_type_symbol
_atom_site_label
_atom_site_fract_x
_atom_site_fract_y
_atom_site_fract_z
Si Si1 0.415704 0.899030 0.908357
Si Si2 0.616153 0.101155 0.573743
Si Si3 0.808014 0.605892 0.561068
Si Si4 0.111810 0.104709 0.576353
Si Si5 0.699770 0.759113 0.718842
Si Si6 0.867260 0.254183 0.134695
Si Si7 0.096700 0.711806 0.255431
Si Si8 0.736580 0.897325 0.016736
O O1 0.400116 0.855290 0.817717
O O2 0.317846 0.901310 0.921217
O O3 0.450518 0.000000 0.907898
O O4 0.500000 0.853572 0.000000
O O5 0.500000 0.100447 0.500000
O O6 0.675043 0.135890 0.521488
O O7 0.631604 0.162484 0.655396
O O8 0.648723 0.000000 0.603650
O O9 0.834552 0.500000 0.576083
O O10 0.693146 0.614405 0.540838
O O11 0.875310 0.661072 0.651776
O O12 0.154391 0.167399 0.663752
O O13 0.000000 0.130170 0.500000
O O14 0.110136 0.000000 0.598567
O O15 0.695444 0.757411 0.810886
O O16 0.809833 0.774622 0.727914
O O17 0.831328 0.168538 0.068693
O O18 0.984710 0.249630 0.206982
O O19 0.838470 0.343738 0.073954
O O20 0.756025 0.000000 0.000977
#
# Coordination Sequence:
#
# PCOD9175906 Si02
#       8
#     8   8   8   8   8   8   8   8
#     4  10  18  33  59  87 111 141 180 234 296 338
#     4  10  21  38  56  75 105 150 195 233 271 322
#     4   9  19  34  54  81 110 143 188 236 282 327
#     4   9  19  35  56  82 112 146 184 231 284 335
#     4  11  23  36  55  84 114 148 187 231 280 339
#     4  11  23  38  58  87 116 148 187 233 287 340
#     4  11  21  34  55  86 117 144 180 235 286 338
#     4  10  22  40  61  84 114 149 189 235 284 341
#
# _framework density 18.989148
#
# number of rings (size 3 to 8) (size 9 to 14) (size 15 to 20)
#    0.000    1.875    2.500    1.500    0.000    5.000 
#    0.000    0.625    0.000    0.750    0.000    0.000 
#    0.000    0.000    0.000    0.000    0.000    0.000 
#
# Total GULP energy -178514.455749 kJ/mol
# GULP energy per Si atom -5578.576742 kJ/mol
# Density = 1.894593 g / cm^3
# Si number density = 18.989148 Si / 1000 Ang^3
#
#
#
# Elastic Constant Matrix: (Units=GPa)
#
#
# Indices 1 2 3 4 5 6 
#
# 1 57.1187 12.9433 11.7982 0.0000 11.3746 0.0000
# 2 12.9433 71.4204 25.8745 0.0000 2.9400 0.0000
# 3 11.7982 25.8745 59.5772 0.0000 4.1765 0.0000
# 4 0.0000 0.0000 0.0000 -8.3675 0.0000 2.2914
# 5 11.3746 2.9400 4.1765 0.0000 41.5556 0.0000
# 6 0.0000 0.0000 0.0000 2.2914 0.0000 16.1881
#
#
#
# Elastic Compliance Matrix: (Units=1/GPa)
#
#
# Indices 1 2 3 4 5 6 
#
# 1 0.019553 -0.002448 -0.002463 0.000000 -0.004931 0.000000
# 2 -0.002448 0.016931 -0.006880 0.000000 0.000164 0.000000
# 3 -0.002463 -0.006880 0.020322 0.000000 -0.000882 0.000000
# 4 0.000000 0.000000 0.000000 -0.115050 0.000000 0.016285
# 5 -0.004931 0.000164 -0.000882 0.000000 0.025491 0.000000
# 6 0.000000 0.000000 0.000000 0.016285 0.000000 0.059468
#
#
# Mechanical properties :
#
#
# Convention : Reuss Voigt Hill
#
# Bulk Modulus (GPa) = 30.09866 32.14983 31.12424
# Shear Modulus (GPa) = 81.46913 19.04192 50.25552
#
# Velocity S-wave (km/s) = 6.55714 3.17010 5.15003
# Velocity P-wave (km/s) = 8.55646 5.51061 7.19652
#
# Compressibility (1/GPa) = 0.03322407
#
# Stress axis : x y z
#
# Youngs Moduli (GPa) = 51.14311 59.06327 49.20660
#
# Poissons Ratio (x) = 0.14460 0.12120
# Poissons Ratio (y) = 0.12521 0.33853
# Poissons Ratio (z) = 0.12597 0.40635
#
# Static dielectric constant tensor:
#      x y z
#    x 1.695620 0.000000 0.034730 
#    y 0.000000 1.665270 0.000000 
#    z 0.034730 0.000000 1.660330 
# 
# From -- ./inp_files/270324.got.cif
#   From: 2010.05.17/outbox.cif.g08.bks.cpg/sg12_136_cif.got.tgz:270324.got - 2010.06.03 13:09:07.
