data_PCOD9175585
_publ_section_title
;
Structure prediction by ZEFSAII (Michael W. Deem and Ramdas Pophale) SiO2 
 PCOD9175585
Probable space group: C 2/M
;
_chemical_formula_sum "Si O2"
_cell_formula_units_Z 32
_cell_length_a 7.570997
_cell_length_b 23.148985
_cell_length_c 8.762012
_cell_angle_alpha 90.000000
_cell_angle_beta 120.177442
_cell_angle_gamma 90.000000
_cell_volume 1327.517314
_symmetry_space_group_name_H-M "C 2/M"
_symmetry_group_IT_number 12
_symmetry_cell_setting 'monoclinic'
loop_
_space_group_symop_operation_xyz
x,y,z
-x,y,-z
-x,-y,-z
x,-y,z
1/2+x,1/2+y,z
1/2-x,1/2+y,-z
1/2-x,1/2-y,-z
1/2+x,1/2-y,z
loop_
_atom_site_type_symbol
_atom_site_label
_atom_site_fract_x
_atom_site_fract_y
_atom_site_fract_z
Si Si1 0.071828 0.000000 0.709331
Si Si2 0.929229 0.205901 0.622134
Si Si3 0.853144 0.500000 0.293688
Si Si4 0.777897 0.203288 0.859621
Si Si5 0.281023 0.588231 0.993555
O O1 0.000000 0.000000 0.500000
O O2 0.866511 0.000000 0.720646
O O3 0.192834 0.944020 0.832844
O O4 0.750000 0.250000 0.500000
O O5 0.832407 0.171935 0.721221
O O6 0.884748 0.247444 0.245221
O O7 0.000000 0.173583 0.500000
O O8 0.867966 0.553430 0.183735
O O9 0.000000 0.500000 0.500000
O O10 0.718805 0.155124 0.957115
O O11 0.000000 0.227831 0.000000
O O12 0.500000 0.585503 0.000000
#
# Coordination Sequence:
#
# PCOD9175585 Si02
#       5
#     4   8   4   8   8
#     4   9  17  35  60  82 108 141 183 235 283 337
#     4   9  19  33  51  77 107 145 190 233 277 328
#     4   9  17  31  54  80 108 143 177 215 280 353
#     4  10  18  33  55  76 107 148 188 232 278 331
#     4   8  17  33  53  78 109 147 182 222 284 343
#
# _framework density 24.105149000000001
#
# number of rings (size 3 to 8) (size 9 to 14) (size 15 to 20)
#    0.000    3.000    0.000    2.250    0.000    3.000 
#    0.000   13.750    0.000   21.000    0.000    0.000 
#    0.000    0.000    0.000    0.000    0.000    0.000 
#
# Total GULP energy -89128.058241 kJ/mol
# GULP energy per Si atom -5570.503640 kJ/mol
# Density = 2.405028 g / cm^3
# Si number density = 24.105149 Si / 1000 Ang^3
#
#
#
# Elastic Constant Matrix: (Units=GPa)
#
#
# Indices 1 2 3 4 5 6 
#
# 1 50.6125 16.9939 28.4686 0.0000 -8.4686 0.0000
# 2 16.9939 101.8904 72.7145 0.0000 1.0624 0.0000
# 3 28.4686 72.7145 191.5982 0.0000 -7.2337 0.0000
# 4 0.0000 0.0000 0.0000 27.5664 0.0000 -4.0446
# 5 -8.4686 1.0624 -7.2337 0.0000 72.1469 0.0000
# 6 0.0000 0.0000 0.0000 -4.0446 0.0000 4.4289
#
#
#
# Elastic Compliance Matrix: (Units=1/GPa)
#
#
# Indices 1 2 3 4 5 6 
#
# 1 0.022204 -0.001972 -0.002460 0.000000 0.002389 0.000000
# 2 -0.001972 0.013672 -0.004931 0.000000 -0.000927 0.000000
# 3 -0.002460 -0.004931 0.007476 0.000000 0.000533 0.000000
# 4 0.000000 0.000000 0.000000 0.041889 0.000000 0.038255
# 5 0.002389 -0.000927 0.000533 0.000000 0.014208 0.000000
# 6 0.000000 0.000000 0.000000 0.038255 0.000000 0.260728
#
#
# Mechanical properties :
#
#
# Convention : Reuss Voigt Hill
#
# Bulk Modulus (GPa) = 40.60887 64.49501 52.55194
# Shear Modulus (GPa) = 12.91614 35.89004 24.40309
#
# Velocity S-wave (km/s) = 2.31730 3.86281 3.18521
# Velocity P-wave (km/s) = 4.90336 6.83438 5.94776
#
# Compressibility (1/GPa) = 0.02462516
#
# Stress axis : x y z
#
# Youngs Moduli (GPa) = 45.03729 73.14299 133.75718
#
# Poissons Ratio (x) = 0.14426 0.32910
# Poissons Ratio (y) = 0.08883 0.65951
# Poissons Ratio (z) = 0.11081 0.36064
#
# Static dielectric constant tensor:
#      x y z
#    x 1.982410 0.000000 -0.066310 
#    y 0.000000 1.946840 0.000000 
#    z -0.066310 0.000000 2.062410 
# 
# From -- ./inp_files/53497.got.cif
#   From: 2010.05.17/outbox.cif.g08.bks.cpg/sg12_27_cif.got.tgz:53497.got - 2010.06.03 13:09:07.
