data_PCOD9175467
_publ_section_title
;
Structure prediction by ZEFSAII (Michael W. Deem and Ramdas Pophale) SiO2 
 PCOD9175467
Probable space group: C 2/M
;
_chemical_formula_sum "Si O2"
_cell_formula_units_Z 56
_cell_length_a 9.584686
_cell_length_b 18.438302
_cell_length_c 19.189423
_cell_angle_alpha 90.000000
_cell_angle_beta 63.743265
_cell_angle_gamma 90.000000
_cell_volume 3041.349817
_symmetry_space_group_name_H-M "C 2/M"
_symmetry_group_IT_number 12
_symmetry_cell_setting 'monoclinic'
loop_
_space_group_symop_operation_xyz
x,y,z
-x,y,-z
-x,-y,-z
x,-y,z
1/2+x,1/2+y,z
1/2-x,1/2+y,-z
1/2-x,1/2-y,-z
1/2+x,1/2-y,z
loop_
_atom_site_type_symbol
_atom_site_label
_atom_site_fract_x
_atom_site_fract_y
_atom_site_fract_z
Si Si1 0.761397 0.637266 0.239165
Si Si2 0.712968 0.587064 0.395719
Si Si3 0.282557 0.786975 0.919312
Si Si4 0.475151 0.914714 0.924670
Si Si5 0.412868 0.586797 0.278666
Si Si6 0.148759 0.087683 0.557060
Si Si7 0.105618 0.785799 0.821558
O O1 0.805282 0.614519 0.308268
O O2 0.592755 0.604986 0.257765
O O3 0.779598 0.723866 0.233126
O O4 0.877103 0.606139 0.155121
O O5 0.724582 0.500000 0.393050
O O6 0.744838 0.612990 0.467868
O O7 0.531938 0.605482 0.419440
O O8 0.336105 0.868200 0.924004
O O9 0.144100 0.788186 0.894931
O O10 0.430014 0.744243 0.853458
O O11 0.250000 0.750000 0.000000
O O12 0.448019 0.000000 0.928079
O O13 0.500000 0.893616 0.000000
O O14 0.396665 0.500000 0.270295
O O15 0.319445 0.608693 0.370125
O O16 0.372551 0.638536 0.223009
O O17 0.157120 0.000000 0.555260
#
# Coordination Sequence:
#
# PCOD9175467 Si02
#       7
#     8   8   8   8   8   8   8
#     4  10  18  33  52  78 110 145 181 226 272 325
#     4   8  12  22  45  73 103 139 182 221 260 317
#     4  11  22  40  57  76 107 146 183 222 274 334
#     4  10  21  35  55  81 108 137 178 229 279 326
#     4  10  19  33  55  81 112 144 182 228 274 321
#     4   7  12  23  42  73 106 138 175 220 267 314
#     4  11  22  36  56  81 107 143 186 220 275 333
#
# _framework density 18.412877000000002
#
# number of rings (size 3 to 8) (size 9 to 14) (size 15 to 20)
#    0.000    2.429    1.429    5.143    0.000    0.571 
#    0.000    0.714    0.000    1.714    0.000    0.000 
#    0.000   14.857    0.000    0.000    0.000    0.000 
#
# Total GULP energy -155886.597734 kJ/mol
# GULP energy per Si atom -5567.378491 kJ/mol
# Density = 1.837097 g / cm^3
# Si number density = 18.412877 Si / 1000 Ang^3
#
#
#
# Elastic Constant Matrix: (Units=GPa)
#
#
# Indices 1 2 3 4 5 6 
#
# 1 34.4606 13.6373 17.0149 0.0000 12.8863 0.0000
# 2 13.6373 84.5493 38.3951 0.0000 14.6623 0.0000
# 3 17.0149 38.3951 145.0684 0.0000 20.1291 0.0000
# 4 0.0000 0.0000 0.0000 10.8331 0.0000 1.7121
# 5 12.8863 14.6623 20.1291 0.0000 17.7453 0.0000
# 6 0.0000 0.0000 0.0000 1.7121 0.0000 15.4754
#
#
#
# Elastic Compliance Matrix: (Units=1/GPa)
#
#
# Indices 1 2 3 4 5 6 
#
# 1 0.040064 -0.001498 -0.000519 0.000000 -0.027268 0.000000
# 2 -0.001498 0.014642 -0.002578 0.000000 -0.008087 0.000000
# 3 -0.000519 -0.002578 0.008650 0.000000 -0.007305 0.000000
# 4 0.000000 0.000000 0.000000 0.093953 0.000000 -0.010395
# 5 -0.027268 -0.008087 -0.007305 0.000000 0.091122 0.000000
# 6 0.000000 0.000000 0.000000 -0.010395 0.000000 0.065769
#
#
# Mechanical properties :
#
#
# Convention : Reuss Voigt Hill
#
# Bulk Modulus (GPa) = 18.46131 44.68589 31.57360
# Shear Modulus (GPa) = 14.64367 21.81282 18.22825
#
# Velocity S-wave (km/s) = 2.82316 3.44561 3.14980
# Velocity P-wave (km/s) = 4.54698 6.33649 5.51481
#
# Compressibility (1/GPa) = 0.05416734
#
# Stress axis : x y z
#
# Youngs Moduli (GPa) = 24.95990 68.29743 115.60659
#
# Poissons Ratio (x) = 0.10229 0.06002
# Poissons Ratio (y) = 0.03738 0.29798
# Poissons Ratio (z) = 0.01296 0.17604
#
# Static dielectric constant tensor:
#      x y z
#    x 1.647350 0.000000 0.014400 
#    y 0.000000 1.625980 0.000000 
#    z 0.014400 0.000000 1.708590 
# 
# From -- ./inp_files/263817.got.cif
#   From: 2010.05.17/outbox.cif.g08.bks.cpg/sg12_132_cif.got.tgz:263817.got - 2010.06.03 13:09:07.
