data_PCOD9175519
_publ_section_title
;
Structure prediction by ZEFSAII (Michael W. Deem and Ramdas Pophale) SiO2 
 PCOD9175519
Probable space group: C 2/M
;
_chemical_formula_sum "Si O2"
_cell_formula_units_Z 50
_cell_length_a 24.547401
_cell_length_b 7.471841
_cell_length_c 15.345378
_cell_angle_alpha 90.000000
_cell_angle_beta 134.658078
_cell_angle_gamma 90.000000
_cell_volume 2002.036773
_symmetry_space_group_name_H-M "C 2/M"
_symmetry_group_IT_number 12
_symmetry_cell_setting 'monoclinic'
loop_
_space_group_symop_operation_xyz
x,y,z
-x,y,-z
-x,-y,-z
x,-y,z
1/2+x,1/2+y,z
1/2-x,1/2+y,-z
1/2-x,1/2-y,-z
1/2+x,1/2-y,z
loop_
_atom_site_type_symbol
_atom_site_label
_atom_site_fract_x
_atom_site_fract_y
_atom_site_fract_z
Si Si1 0.552706 0.301590 0.938988
Si Si2 0.782616 0.213776 0.132118
Si Si3 0.000000 0.500000 0.000000
Si Si4 0.756199 0.717721 0.727329
Si Si5 0.382094 0.792510 0.732269
Si Si6 0.114515 0.216950 0.456450
Si Si7 0.059646 0.782229 0.752123
O O1 0.580595 0.500000 0.991110
O O2 0.460804 0.313284 0.820413
O O3 0.580140 0.234346 0.875324
O O4 0.555541 0.157246 0.017336
O O5 0.736543 0.279201 0.164787
O O6 0.870849 0.278100 0.230143
O O7 0.785118 0.000000 0.144038
O O8 0.750000 0.250000 0.000000
O O9 0.759871 0.500000 0.728724
O O10 0.818736 0.775085 0.727134
O O11 0.672579 0.769438 0.597422
O O12 0.354535 0.786199 0.601654
O O13 0.407470 0.000000 0.782186
O O14 0.026272 0.277637 0.366740
O O15 0.114169 0.000000 0.452293
O O16 0.058142 0.000000 0.749458
#
# Coordination Sequence:
#
# PCOD9175519 Si02
#       7
#     8   8   2   8   8   8   8
#     4  10  21  38  57  86 120 158 204 254 303 366
#     4  10  21  40  57  79 110 154 203 253 299 358
#     4  12  22  36  56  90 116 158 206 254 316 354
#     4   9  19  33  56  86 119 151 203 251 299 365
#     4  10  18  33  53  85 123 159 191 239 305 373
#     4   9  17  33  57  87 115 154 191 247 313 369
#     4   8  17  35  59  81 112 149 197 244 302 362
#
# _framework density 24.974567
#
# number of rings (size 3 to 8) (size 9 to 14) (size 15 to 20)
#    0.000    2.560    0.800    2.160    0.000    1.920 
#    4.320    8.000    0.000    0.000    0.000    3.360 
#    0.000    0.000    0.000    0.000    0.000    0.000 
#
# Total GULP energy -139627.510983 kJ/mol
# GULP energy per Si atom -5585.100439 kJ/mol
# Density = 2.491772 g / cm^3
# Si number density = 24.974567 Si / 1000 Ang^3
#
#
#
# Elastic Constant Matrix: (Units=GPa)
#
#
# Indices 1 2 3 4 5 6 
#
# 1 153.2159 1.2170 32.1209 0.0000 -8.9055 0.0000
# 2 1.2170 103.6074 0.5932 0.0000 -3.8954 0.0000
# 3 32.1209 0.5932 103.2056 0.0000 -1.0294 0.0000
# 4 0.0000 0.0000 0.0000 21.1402 0.0000 -2.5573
# 5 -8.9055 -3.8954 -1.0294 0.0000 34.1489 0.0000
# 6 0.0000 0.0000 0.0000 -2.5573 0.0000 14.2170
#
#
#
# Elastic Compliance Matrix: (Units=1/GPa)
#
#
# Indices 1 2 3 4 5 6 
#
# 1 0.007089 -0.000004 -0.002189 0.000000 0.001782 0.000000
# 2 -0.000004 0.009694 -0.000044 0.000000 0.001103 0.000000
# 3 -0.002189 -0.000044 0.010368 0.000000 -0.000263 0.000000
# 4 0.000000 0.000000 0.000000 0.048356 0.000000 0.008698
# 5 0.001782 0.001103 -0.000263 0.000000 0.029866 0.000000
# 6 0.000000 0.000000 0.000000 0.008698 0.000000 0.071903
#
#
# Mechanical properties :
#
#
# Convention : Reuss Voigt Hill
#
# Bulk Modulus (GPa) = 44.09316 47.54344 45.81830
# Shear Modulus (GPa) = 26.41211 35.64107 31.02659
#
# Velocity S-wave (km/s) = 3.25554 3.78179 3.52849
# Velocity P-wave (km/s) = 5.64136 6.17635 5.91491
#
# Compressibility (1/GPa) = 0.02267926
#
# Stress axis : x y z
#
# Youngs Moduli (GPa) = 141.05990 103.16084 96.44892
#
# Poissons Ratio (x) = 0.00038 0.21109
# Poissons Ratio (y) = 0.00053 0.00420
# Poissons Ratio (z) = 0.30872 0.00449
#
# Static dielectric constant tensor:
#      x y z
#    x 1.985550 0.000000 0.003730 
#    y 0.000000 1.947670 0.000000 
#    z 0.003730 0.000000 1.899500 
# 
# From -- ./inp_files/238007.got.cif
#   From: 2010.05.17/outbox.cif.g08.bks.cpg/sg12_120_cif.got.tgz:238007.got - 2010.06.03 13:09:07.
