data_PCOD9175185
_publ_section_title
;
Structure prediction by ZEFSAII (Michael W. Deem and Ramdas Pophale) SiO2 
 PCOD9175185
Probable space group: C 2/M
;
_chemical_formula_sum "Si O2"
_cell_formula_units_Z 32
_cell_length_a 25.062612
_cell_length_b 8.628834
_cell_length_c 26.065030
_cell_angle_alpha 90.000000
_cell_angle_beta 163.804466
_cell_angle_gamma 90.000000
_cell_volume 1572.209794
_symmetry_space_group_name_H-M "C 2/M"
_symmetry_group_IT_number 12
_symmetry_cell_setting 'monoclinic'
loop_
_space_group_symop_operation_xyz
x,y,z
-x,y,-z
-x,-y,-z
x,-y,z
1/2+x,1/2+y,z
1/2-x,1/2+y,-z
1/2-x,1/2-y,-z
1/2+x,1/2-y,z
loop_
_atom_site_type_symbol
_atom_site_label
_atom_site_fract_x
_atom_site_fract_y
_atom_site_fract_z
Si Si1 0.077687 0.683346 0.227425
Si Si2 0.033607 0.814953 0.293439
Si Si3 0.101701 0.186267 0.041658
Si Si4 0.499852 0.184527 0.368136
O O1 0.062450 0.500000 0.219357
O O2 0.978795 0.760842 0.185986
O O3 0.300964 0.733620 0.434743
O O4 0.991091 0.737871 0.093950
O O5 0.250000 0.750000 0.500000
O O6 0.932864 0.742814 0.250089
O O7 0.030992 0.000000 0.294155
O O8 0.328603 0.217776 0.249248
O O9 0.078320 0.000000 0.015608
O O10 0.000000 0.237233 0.000000
O O11 0.533167 0.000000 0.396558
#
# Coordination Sequence:
#
# PCOD9175185 Si02
#       4
#     8   8   8   8
#     4  11  22  37  59  86 118 151 185 230 284 340
#     4  10  18  32  56  85 117 148 184 228 278 339
#     4  10  23  42  61  82 110 149 197 240 278 329
#     4  10  20  37  61  86 115 149 187 233 283 335
#
# _framework density 20.353517
#
# number of rings (size 3 to 8) (size 9 to 14) (size 15 to 20)
#    0.000    1.750    0.000    8.250    0.000    4.500 
#    0.000    5.000    0.000    0.000    0.000    0.000 
#    0.000    0.000    0.000    0.000    0.000    0.000 
#
# Total GULP energy -89420.272388 kJ/mol
# GULP energy per Si atom -5588.767024 kJ/mol
# Density = 2.030719 g / cm^3
# Si number density = 20.353517 Si / 1000 Ang^3
#
#
#
# Elastic Constant Matrix: (Units=GPa)
#
#
# Indices 1 2 3 4 5 6 
#
# 1 99.6353 10.9322 4.6198 -0.0057 16.2238 0.0004
# 2 10.9322 57.1348 -2.2096 -0.0137 6.2491 -0.0033
# 3 4.6198 -2.2096 49.3801 -0.0262 -1.4223 -0.0005
# 4 -0.0057 -0.0137 -0.0262 19.5632 -0.0053 -13.7449
# 5 16.2238 6.2491 -1.4223 -0.0053 30.2700 0.0008
# 6 0.0004 -0.0033 -0.0005 -13.7449 0.0008 22.3820
#
#
#
# Elastic Compliance Matrix: (Units=1/GPa)
#
#
# Indices 1 2 3 4 5 6 
#
# 1 0.011203 -0.001565 -0.001283 -0.000002 -0.005742 -0.000002
# 2 -0.001565 0.018149 0.000876 0.000026 -0.002867 0.000019
# 3 -0.001283 0.000876 0.020453 0.000050 0.001468 0.000031
# 4 -0.000002 0.000026 0.000050 0.089908 0.000013 0.055213
# 5 -0.005742 -0.002867 0.001468 0.000013 0.036774 0.000006
# 6 -0.000002 0.000019 0.000031 0.055213 0.000006 0.078585
#
#
# Mechanical properties :
#
#
# Convention : Reuss Voigt Hill
#
# Bulk Modulus (GPa) = 21.80578 25.87055 23.83817
# Shear Modulus (GPa) = 18.22792 27.29690 22.76241
#
# Velocity S-wave (km/s) = 2.99585 3.66613 3.34781
# Velocity P-wave (km/s) = 4.76483 5.53705 5.16539
#
# Compressibility (1/GPa) = 0.04585940
#
# Stress axis : x y z
#
# Youngs Moduli (GPa) = 89.26379 55.09830 48.89339
#
# Poissons Ratio (x) = 0.08624 0.06275
# Poissons Ratio (y) = 0.13972 -0.04283
# Poissons Ratio (z) = 0.11457 -0.04827
#
# Static dielectric constant tensor:
#      x y z
#    x 1.824330 0.000040 0.221280 
#    y 0.000040 1.680500 0.000100 
#    z 0.221280 0.000100 2.216890 
# 
# From -- ./inp_files/92142.got.cif
#   From: 2010.05.17/outbox.cif.g08.bks.cpg/sg12_47_cif.got.tgz:92142.got - 2010.06.03 13:09:07.
