data_PCOD9175086
_publ_section_title
;
Structure prediction by ZEFSAII (Michael W. Deem and Ramdas Pophale) SiO2 
 PCOD9175086
Probable space group: C 2/M
;
_chemical_formula_sum "Si O2"
_cell_formula_units_Z 40
_cell_length_a 10.760243
_cell_length_b 20.236821
_cell_length_c 9.474515
_cell_angle_alpha 90.000000
_cell_angle_beta 101.914294
_cell_angle_gamma 90.000000
_cell_volume 2018.660703
_symmetry_space_group_name_H-M "C 2/M"
_symmetry_group_IT_number 12
_symmetry_cell_setting 'monoclinic'
loop_
_space_group_symop_operation_xyz
x,y,z
-x,y,-z
-x,-y,-z
x,-y,z
1/2+x,1/2+y,z
1/2-x,1/2+y,-z
1/2-x,1/2-y,-z
1/2+x,1/2-y,z
loop_
_atom_site_type_symbol
_atom_site_label
_atom_site_fract_x
_atom_site_fract_y
_atom_site_fract_z
Si Si1 0.362472 0.690778 0.148315
Si Si2 0.303182 0.824728 0.617434
Si Si3 0.876596 0.342320 0.066708
Si Si4 0.496010 0.077336 0.330396
Si Si5 0.419797 0.686970 0.618468
O O1 0.288103 0.700546 0.279397
O O2 0.382727 0.762997 0.087477
O O3 0.501588 0.664502 0.226427
O O4 0.263294 0.648447 0.033544
O O5 0.368986 0.891446 0.681792
O O6 0.406447 0.766854 0.621839
O O7 0.222217 0.834256 0.456025
O O8 0.894680 0.381366 0.216629
O O9 0.000000 0.360462 0.000000
O O10 0.500000 0.088027 0.500000
O O11 0.483607 0.000000 0.299502
O O12 0.500000 0.666690 0.500000
#
# Coordination Sequence:
#
# PCOD9175086 Si02
#       5
#     8   8   8   8   8
#     4  10  19  32  53  85 121 140 181 234 288 350
#     4  10  18  32  55  83 113 149 186 231 286 334
#     4  11  21  36  55  84 120 149 183 230 293 341
#     4  11  24  40  58  81 114 155 200 235 267 331
#     4   9  17  27  51  83 113 141 177 234 289 338
#
# _framework density 19.815117000000001
#
# number of rings (size 3 to 8) (size 9 to 14) (size 15 to 20)
#    0.000    1.800    4.000    0.600    5.600    0.400 
#    0.000    0.000    0.000    6.600    0.000    2.800 
#    0.000    0.000    0.000    0.000    0.000    0.000 
#
# Total GULP energy -111378.742430 kJ/mol
# GULP energy per Si atom -5568.937121 kJ/mol
# Density = 1.977002 g / cm^3
# Si number density = 19.815117 Si / 1000 Ang^3
#
#
#
# Elastic Constant Matrix: (Units=GPa)
#
#
# Indices 1 2 3 4 5 6 
#
# 1 70.2917 19.5030 49.4697 0.0000 39.6154 0.0000
# 2 19.5030 43.9595 36.6739 0.0000 16.2262 0.0000
# 3 49.4697 36.6739 108.1218 0.0000 50.9245 0.0000
# 4 0.0000 0.0000 0.0000 23.5039 0.0000 0.6810
# 5 39.6154 16.2262 50.9245 0.0000 63.0639 0.0000
# 6 0.0000 0.0000 0.0000 0.6810 0.0000 8.4962
#
#
#
# Elastic Compliance Matrix: (Units=1/GPa)
#
#
# Indices 1 2 3 4 5 6 
#
# 1 0.024674 -0.002476 -0.005566 0.000000 -0.010368 0.000000
# 2 -0.002476 0.032003 -0.010613 0.000000 0.001891 0.000000
# 3 -0.005566 -0.010613 0.020111 0.000000 -0.010013 0.000000
# 4 0.000000 0.000000 0.000000 0.042645 0.000000 -0.003418
# 5 -0.010368 0.001891 -0.010013 0.000000 0.029968 0.000000
# 6 0.000000 0.000000 0.000000 -0.003418 0.000000 0.117974
#
#
# Mechanical properties :
#
#
# Convention : Reuss Voigt Hill
#
# Bulk Modulus (GPa) = 25.33090 48.18514 36.75802
# Shear Modulus (GPa) = 15.73097 26.79457 21.26277
#
# Velocity S-wave (km/s) = 2.82066 3.68126 3.27931
# Velocity P-wave (km/s) = 4.83937 6.51452 5.73840
#
# Compressibility (1/GPa) = 0.03947748
#
# Stress axis : x y z
#
# Youngs Moduli (GPa) = 40.52856 31.24752 49.72346
#
# Poissons Ratio (x) = 0.07737 0.27677
# Poissons Ratio (y) = 0.10036 0.52770
# Poissons Ratio (z) = 0.22559 0.33162
#
# Static dielectric constant tensor:
#      x y z
#    x 1.767910 0.000000 0.027980 
#    y 0.000000 1.636610 0.000000 
#    z 0.027980 0.000000 1.810910 
# 
# From -- ./inp_files/48599.got.cif
#   From: 2010.05.17/outbox.cif.g08.bks.cpg/sg12_25_cif.got.tgz:48599.got - 2010.06.03 13:09:07.
