data_PCOD9175708
_publ_section_title
;
Structure prediction by ZEFSAII (Michael W. Deem and Ramdas Pophale) SiO2 
 PCOD9175708
Probable space group: C 2/M
;
_chemical_formula_sum "Si O2"
_cell_formula_units_Z 64
_cell_length_a 19.683479
_cell_length_b 20.695344
_cell_length_c 9.428384
_cell_angle_alpha 90.000000
_cell_angle_beta 61.375837
_cell_angle_gamma 90.000000
_cell_volume 3371.304342
_symmetry_space_group_name_H-M "C 2/M"
_symmetry_group_IT_number 12
_symmetry_cell_setting 'monoclinic'
loop_
_space_group_symop_operation_xyz
x,y,z
-x,y,-z
-x,-y,-z
x,-y,z
1/2+x,1/2+y,z
1/2-x,1/2+y,-z
1/2-x,1/2-y,-z
1/2+x,1/2-y,z
loop_
_atom_site_type_symbol
_atom_site_label
_atom_site_fract_x
_atom_site_fract_y
_atom_site_fract_z
Si Si1 0.972616 0.574737 0.363000
Si Si2 0.829727 0.845609 0.222891
Si Si3 0.434603 0.572252 0.940408
Si Si4 0.977998 0.812747 0.263603
Si Si5 0.787589 0.703468 0.171655
Si Si6 0.626303 0.737145 0.400259
Si Si7 0.181442 0.347626 0.548849
Si Si8 0.422430 0.188879 0.825040
O O1 0.976518 0.500000 0.314893
O O2 0.886747 0.603456 0.425004
O O3 0.000000 0.577808 0.500000
O O4 0.029454 0.623182 0.223236
O O5 0.907337 0.825541 0.228084
O O6 0.801228 0.780713 0.173841
O O7 0.763641 0.867114 0.399030
O O8 0.856035 0.901298 0.089476
O O9 0.427024 0.500000 0.890914
O O10 0.464903 0.626649 0.802923
O O11 0.500000 0.570025 0.000000
O O12 0.939091 0.803041 0.455210
O O13 0.024351 0.748106 0.172331
O O14 0.694749 0.697120 0.257162
O O15 0.813092 0.667216 0.290141
O O16 0.842376 0.682452 0.989035
O O17 0.662141 0.779256 0.492766
O O18 0.594126 0.787654 0.318616
#
# Coordination Sequence:
#
# PCOD9175708 Si02
#       8
#     8   8   8   8   8   8   8   8
#     4  11  23  41  62  86 119 163 208 251 302 366
#     4  10  18  33  56  83 117 149 190 239 299 349
#     4   9  19  32  52  86 119 146 187 242 297 355
#     4  11  18  33  59  83 115 152 194 244 297 349
#     4  11  21  35  58  91 117 153 193 251 302 355
#     4  11  20  36  57  88 122 153 194 249 297 360
#     4  11  20  37  59  84 117 154 198 246 298 358
#     4  12  22  36  59  92 122 156 203 250 307 354
#
# _framework density 18.983750000000001
#
# number of rings (size 3 to 8) (size 9 to 14) (size 15 to 20)
#    0.000    1.250    6.250    1.500    0.000    2.000 
#    0.000    1.250    0.000    2.250    0.000    0.000 
#    0.000    0.000    0.000    0.000    0.000    0.000 
#
# Total GULP energy -178630.633048 kJ/mol
# GULP energy per Si atom -5582.207283 kJ/mol
# Density = 1.894054 g / cm^3
# Si number density = 18.983750 Si / 1000 Ang^3
#
#
#
# Elastic Constant Matrix: (Units=GPa)
#
#
# Indices 1 2 3 4 5 6 
#
# 1 30.5898 17.3352 3.9217 0.0000 -7.3593 0.0000
# 2 17.3352 126.8064 54.1122 0.0000 -25.2529 0.0000
# 3 3.9217 54.1122 107.6157 0.0000 -31.6024 0.0000
# 4 0.0000 0.0000 0.0000 24.7086 0.0000 -0.0538
# 5 -7.3593 -25.2529 -31.6024 0.0000 25.6438 0.0000
# 6 0.0000 0.0000 0.0000 -0.0538 0.0000 13.9632
#
#
#
# Elastic Compliance Matrix: (Units=1/GPa)
#
#
# Indices 1 2 3 4 5 6 
#
# 1 0.037578 -0.004710 0.004394 0.000000 0.011561 0.000000
# 2 -0.004710 0.011201 -0.004103 0.000000 0.004622 0.000000
# 3 0.004394 -0.004103 0.016266 0.000000 0.017265 0.000000
# 4 0.000000 0.000000 0.000000 0.040472 0.000000 0.000156
# 5 0.011561 0.004622 0.017265 0.000000 0.068142 0.000000
# 6 0.000000 0.000000 0.000000 0.000156 0.000000 0.071617
#
#
# Mechanical properties :
#
#
# Convention : Reuss Voigt Hill
#
# Bulk Modulus (GPa) = 17.79172 46.19445 31.99308
# Shear Modulus (GPa) = 18.32506 25.50598 21.91552
#
# Velocity S-wave (km/s) = 3.11030 3.66945 3.40138
# Velocity P-wave (km/s) = 4.72134 6.50689 5.68466
#
# Compressibility (1/GPa) = 0.05620593
#
# Stress axis : x y z
#
# Youngs Moduli (GPa) = 26.61150 89.27426 61.47946
#
# Poissons Ratio (x) = 0.42046 -0.27013
# Poissons Ratio (y) = 0.12533 0.25228
# Poissons Ratio (z) = -0.11693 0.36633
#
# Static dielectric constant tensor:
#      x y z
#    x 1.710790 0.000000 -0.005740 
#    y 0.000000 1.640180 0.000000 
#    z -0.005740 0.000000 1.689440 
# 
# From -- ./inp_files/89555.got.cif
#   From: 2010.05.17/outbox.cif.g08.bks.cpg/sg12_45_cif.got.tgz:89555.got - 2010.06.03 13:09:07.
