data_PCOD9175152
_publ_section_title
;
Structure prediction by ZEFSAII (Michael W. Deem and Ramdas Pophale) SiO2 
 PCOD9175152
Probable space group: C 2/M
;
_chemical_formula_sum "Si O2"
_cell_formula_units_Z 48
_cell_length_a 14.040223
_cell_length_b 13.910421
_cell_length_c 11.881331
_cell_angle_alpha 90.000000
_cell_angle_beta 97.788665
_cell_angle_gamma 90.000000
_cell_volume 2299.080987
_symmetry_space_group_name_H-M "C 2/M"
_symmetry_group_IT_number 12
_symmetry_cell_setting 'monoclinic'
loop_
_space_group_symop_operation_xyz
x,y,z
-x,y,-z
-x,-y,-z
x,-y,z
1/2+x,1/2+y,z
1/2-x,1/2+y,-z
1/2-x,1/2-y,-z
1/2+x,1/2-y,z
loop_
_atom_site_type_symbol
_atom_site_label
_atom_site_fract_x
_atom_site_fract_y
_atom_site_fract_z
Si Si1 0.428492 0.715574 0.729322
Si Si2 0.387059 0.199422 0.955592
Si Si3 0.945310 0.500000 0.175400
Si Si4 0.755784 0.109312 0.650597
Si Si5 0.645716 0.000000 0.082560
Si Si6 0.874473 0.290336 0.208892
Si Si7 0.594268 0.889194 0.437974
O O1 0.402700 0.725419 0.857921
O O2 0.368416 0.631752 0.661128
O O3 0.544319 0.715352 0.740869
O O4 0.398788 0.812616 0.659424
O O5 0.321788 0.110540 0.900025
O O6 0.500000 0.167639 0.000000
O O7 0.351737 0.227750 0.074100
O O8 0.923345 0.397638 0.228025
O O9 0.052275 0.500000 0.145925
O O10 0.877564 0.500000 0.054325
O O11 0.715674 0.192467 0.726587
O O12 0.689855 0.116398 0.529831
O O13 0.743489 0.000000 0.692421
O O14 0.500000 0.868187 0.500000
O O15 0.583767 0.000000 0.398757
#
# Coordination Sequence:
#
# PCOD9175152 Si02
#       7
#     8   8   4   8   4   8   8
#     4  11  21  33  57  85 114 145 180 233 279 322
#     4   9  16  26  48  82 112 141 176 219 276 328
#     4   9  12  22  46  76 103 135 166 213 264 323
#     4  11  23  38  55  82 113 148 190 227 270 329
#     4   9  10  20  40  75 104 134 166 207 267 322
#     4  10  18  32  56  82 113 144 180 224 276 326
#     4  10  21  36  59  86 110 139 180 232 284 328
#
# _framework density 20.877908000000001
#
# number of rings (size 3 to 8) (size 9 to 14) (size 15 to 20)
#    0.000    2.000    7.500    0.500    2.333    0.667 
#    0.000    0.000    0.000    6.000    0.000    0.000 
#    0.000    0.000    0.000    0.000    0.000    0.000 
#
# Total GULP energy -133628.727169 kJ/mol
# GULP energy per Si atom -5567.863632 kJ/mol
# Density = 2.083039 g / cm^3
# Si number density = 20.877908 Si / 1000 Ang^3
#
#
#
# Elastic Constant Matrix: (Units=GPa)
#
#
# Indices 1 2 3 4 5 6 
#
# 1 55.9344 16.9434 13.3739 0.0000 19.8614 0.0000
# 2 16.9434 28.4605 11.8713 0.0000 9.1104 0.0000
# 3 13.3739 11.8713 65.8260 0.0000 4.1949 0.0000
# 4 0.0000 0.0000 0.0000 14.3683 0.0000 6.4944
# 5 19.8614 9.1104 4.1949 0.0000 22.4564 0.0000
# 6 0.0000 0.0000 0.0000 6.4944 0.0000 28.2643
#
#
#
# Elastic Compliance Matrix: (Units=1/GPa)
#
#
# Indices 1 2 3 4 5 6 
#
# 1 0.028914 -0.009201 -0.002857 0.000000 -0.021306 0.000000
# 2 -0.009201 0.046079 -0.005837 0.000000 -0.009466 0.000000
# 3 -0.002857 -0.005837 0.016712 0.000000 0.001773 0.000000
# 4 0.000000 0.000000 0.000000 0.077663 0.000000 -0.017845
# 5 -0.021306 -0.009466 0.001773 0.000000 0.066883 0.000000
# 6 0.000000 0.000000 0.000000 -0.017845 0.000000 0.039481
#
#
# Mechanical properties :
#
#
# Convention : Reuss Voigt Hill
#
# Bulk Modulus (GPa) = 17.88498 26.06646 21.97572
# Shear Modulus (GPa) = 15.14407 20.21997 17.68202
#
# Velocity S-wave (km/s) = 2.69618 3.11543 2.91335
# Velocity P-wave (km/s) = 4.27523 5.04514 4.67606
#
# Compressibility (1/GPa) = 0.05591284
#
# Stress axis : x y z
#
# Youngs Moduli (GPa) = 34.58534 21.70181 59.83797
#
# Poissons Ratio (x) = 0.19969 0.17097
# Poissons Ratio (y) = 0.31823 0.34930
# Poissons Ratio (z) = 0.09882 0.12668
#
# Static dielectric constant tensor:
#      x y z
#    x 1.827980 0.000000 0.019820 
#    y 0.000000 1.795880 0.000000 
#    z 0.019820 0.000000 1.806330 
# 
# From -- ./inp_files/143124.got.cif
#   From: 2010.05.17/outbox.cif.g08.bks.cpg/sg12_72_cif.got.tgz:143124.got - 2010.06.03 13:09:07.
