data_PCOD9175730
_publ_section_title
;
Structure prediction by ZEFSAII (Michael W. Deem and Ramdas Pophale) SiO2 
 PCOD9175730
Probable space group: C 2/M
;
_chemical_formula_sum "Si O2"
_cell_formula_units_Z 64
_cell_length_a 29.414730
_cell_length_b 7.712310
_cell_length_c 14.778608
_cell_angle_alpha 90.000000
_cell_angle_beta 86.913226
_cell_angle_gamma 90.000000
_cell_volume 3347.744539
_symmetry_space_group_name_H-M "C 2/M"
_symmetry_group_IT_number 12
_symmetry_cell_setting 'monoclinic'
loop_
_space_group_symop_operation_xyz
x,y,z
-x,y,-z
-x,-y,-z
x,-y,z
1/2+x,1/2+y,z
1/2-x,1/2+y,-z
1/2-x,1/2-y,-z
1/2+x,1/2-y,z
loop_
_atom_site_type_symbol
_atom_site_label
_atom_site_fract_x
_atom_site_fract_y
_atom_site_fract_z
Si Si1 0.589477 0.300576 0.321643
Si Si2 0.324172 0.793955 0.218326
Si Si3 0.992326 0.708948 0.398018
Si Si4 0.801765 0.291042 0.021291
Si Si5 0.343242 0.790745 0.833171
Si Si6 0.270873 0.209927 0.688866
Si Si7 0.891851 0.286377 0.357301
Si Si8 0.160452 0.698718 0.462045
O O1 0.596677 0.500000 0.344377
O O2 0.536628 0.258109 0.336303
O O3 0.610812 0.266028 0.221215
O O4 0.619850 0.197931 0.391747
O O5 0.314137 0.721992 0.119399
O O6 0.280113 0.765989 0.286136
O O7 0.368133 0.728724 0.267348
O O8 0.330006 0.000000 0.207447
O O9 0.990557 0.500000 0.401464
O O10 0.943741 0.769858 0.366230
O O11 0.000000 0.771511 0.500000
O O12 0.805315 0.500000 0.023728
O O13 0.750000 0.250000 0.000000
O O14 0.833406 0.228548 0.935388
O O15 0.302209 0.734145 0.770693
O O16 0.342719 0.000000 0.833964
O O17 0.296097 0.275375 0.595444
O O18 0.272060 0.000000 0.686441
O O19 0.891921 0.500000 0.359700
O O20 0.860690 0.224916 0.444780
O O21 0.172401 0.500000 0.482449
#
# Coordination Sequence:
#
# PCOD9175730 Si02
#       8
#     8   8   8   8   8   8   8   8
#     4  11  21  31  49  79 107 124 157 217 265 288
#     4  10  20  32  49  75 104 130 165 213 255 287
#     4  10  18  33  57  75  94 134 176 200 240 307
#     4  10  19  32  52  76 102 133 168 209 251 294
#     4   9  18  33  51  71  99 136 173 201 241 304
#     4   9  17  29  47  69  98 136 174 202 234 290
#     4   9  18  33  52  73  98 133 172 207 243 295
#     4   9  17  33  51  68  98 140 177 198 233 302
#
# _framework density 19.117349000000001
#
# number of rings (size 3 to 8) (size 9 to 14) (size 15 to 20)
#    0.000    2.375    2.500    1.875    0.000    3.250 
#    0.000    1.250    0.000    0.750    0.000    5.250 
#    0.000    0.000    0.000    0.000    0.000    0.000 
#
# Total GULP energy -178543.605042 kJ/mol
# GULP energy per Si atom -5579.487658 kJ/mol
# Density = 1.907384 g / cm^3
# Si number density = 19.117349 Si / 1000 Ang^3
#
#
#
# Elastic Constant Matrix: (Units=GPa)
#
#
# Indices 1 2 3 4 5 6 
#
# 1 128.5916 0.1737 80.5521 0.0000 -0.3499 0.0000
# 2 0.1737 32.9830 2.1792 0.0000 2.5168 0.0000
# 3 80.5521 2.1792 118.5775 0.0000 -4.9034 0.0000
# 4 0.0000 0.0000 0.0000 -1.9827 0.0000 -9.7385
# 5 -0.3499 2.5168 -4.9034 0.0000 24.5452 0.0000
# 6 0.0000 0.0000 0.0000 -9.7385 0.0000 5.4746
#
#
#
# Elastic Compliance Matrix: (Units=1/GPa)
#
#
# Indices 1 2 3 4 5 6 
#
# 1 0.013619 0.000678 -0.009336 0.000000 -0.001741 0.000000
# 2 0.000678 0.030649 -0.001163 0.000000 -0.003365 0.000000
# 3 -0.009336 -0.001163 0.014920 0.000000 0.002967 0.000000
# 4 0.000000 0.000000 0.000000 -0.051797 0.000000 -0.092139
# 5 -0.001741 -0.003365 0.002967 0.000000 0.041654 0.000000
# 6 0.000000 0.000000 0.000000 -0.092139 0.000000 0.018759
#
#
# Mechanical properties :
#
#
# Convention : Reuss Voigt Hill
#
# Bulk Modulus (GPa) = 25.28756 49.55134 37.41945
# Shear Modulus (GPa) = 49.68768 18.75723 34.22246
#
# Velocity S-wave (km/s) = 5.10366 3.13575 4.23558
# Velocity P-wave (km/s) = 6.92719 6.25191 6.59820
#
# Compressibility (1/GPa) = 0.03954513
#
# Stress axis : x y z
#
# Youngs Moduli (GPa) = 73.42489 32.62776 67.02539
#
# Poissons Ratio (x) = -0.02212 0.62577
# Poissons Ratio (y) = -0.04978 0.07795
# Poissons Ratio (z) = 0.68552 0.03794
#
# Static dielectric constant tensor:
#      x y z
#    x 1.649690 0.000000 -0.006020 
#    y 0.000000 1.722320 0.000000 
#    z -0.006020 0.000000 1.685870 
# 
# From -- ./inp_files/248344.got.cif
#   From: 2010.05.17/outbox.cif.g08.bks.cpg/sg12_125_cif.got.tgz:248344.got - 2010.06.03 13:09:07.
