data_PCOD9175653
_publ_section_title
;
Structure prediction by ZEFSAII (Michael W. Deem and Ramdas Pophale) SiO2 
 PCOD9175653
Probable space group: C 2/M
;
_chemical_formula_sum "Si O2"
_cell_formula_units_Z 56
_cell_length_a 19.427405
_cell_length_b 16.758774
_cell_length_c 9.298992
_cell_angle_alpha 90.000000
_cell_angle_beta 88.557037
_cell_angle_gamma 90.000000
_cell_volume 3026.600996
_symmetry_space_group_name_H-M "C 2/M"
_symmetry_group_IT_number 12
_symmetry_cell_setting 'monoclinic'
loop_
_space_group_symop_operation_xyz
x,y,z
-x,y,-z
-x,-y,-z
x,-y,z
1/2+x,1/2+y,z
1/2-x,1/2+y,-z
1/2-x,1/2-y,-z
1/2+x,1/2-y,z
loop_
_atom_site_type_symbol
_atom_site_label
_atom_site_fract_x
_atom_site_fract_y
_atom_site_fract_z
Si Si1 0.246723 0.699284 0.216218
Si Si2 0.943834 0.126480 0.896566
Si Si3 0.324201 0.909303 0.017185
Si Si4 0.037395 0.818854 0.641283
Si Si5 0.697609 0.622856 0.228517
Si Si6 0.178169 0.908590 0.562546
Si Si7 0.394172 0.763425 0.106575
O O1 0.202583 0.779970 0.238289
O O2 0.270910 0.652405 0.357423
O O3 0.316907 0.728631 0.134196
O O4 0.208136 0.637230 0.116273
O O5 0.868058 0.095386 0.862236
O O6 0.981831 0.136510 0.743231
O O7 0.927537 0.209381 0.981077
O O8 0.000000 0.086788 0.000000
O O9 0.266330 0.905552 0.145258
O O10 0.387293 0.854821 0.065202
O O11 0.341023 0.000000 0.983657
O O12 0.101194 0.876319 0.598768
O O13 0.067334 0.751590 0.745564
O O14 0.000000 0.790074 0.500000
O O15 0.691213 0.593882 0.391750
O O16 0.185544 0.000000 0.614177
#
# Coordination Sequence:
#
# PCOD9175653 Si02
#       7
#     8   8   8   8   8   8   8
#     4  10  19  35  57  78 104 143 185 215 256 318
#     4  10  18  33  56  77 100 135 189 219 250 302
#     4  11  20  33  56  85 110 135 169 224 282 315
#     4  10  20  34  56  77  99 145 188 215 250 312
#     4  11  19  36  56  79 108 145 182 210 258 324
#     4  11  23  36  50  80 118 142 170 223 270 307
#     4   9  18  35  56  77 105 134 181 230 255 312
#
# _framework density 18.502604999999999
#
# number of rings (size 3 to 8) (size 9 to 14) (size 15 to 20)
#    0.000    1.714    4.286    2.143    0.000    0.286 
#    0.000    0.000    0.000    8.143    0.000    0.000 
#    0.000    0.000    0.000    0.000    0.000    0.000 
#
# Total GULP energy -156189.839629 kJ/mol
# GULP energy per Si atom -5578.208558 kJ/mol
# Density = 1.846049 g / cm^3
# Si number density = 18.502605 Si / 1000 Ang^3
#
#
#
# Elastic Constant Matrix: (Units=GPa)
#
#
# Indices 1 2 3 4 5 6 
#
# 1 46.4755 14.3343 12.8127 0.0000 6.5947 0.0000
# 2 14.3343 126.5284 18.8187 0.0000 14.6327 0.0000
# 3 12.8127 18.8187 89.6501 0.0000 8.3491 0.0000
# 4 0.0000 0.0000 0.0000 12.6957 0.0000 -5.1193
# 5 6.5947 14.6327 8.3491 0.0000 30.1137 0.0000
# 6 0.0000 0.0000 0.0000 -5.1193 0.0000 -6.1025
#
#
#
# Elastic Compliance Matrix: (Units=1/GPa)
#
#
# Indices 1 2 3 4 5 6 
#
# 1 0.023302 -0.001848 -0.002618 0.000000 -0.003479 0.000000
# 2 -0.001848 0.008699 -0.001238 0.000000 -0.003479 0.000000
# 3 -0.002618 -0.001238 0.011989 0.000000 -0.002149 0.000000
# 4 0.000000 0.000000 0.000000 0.058857 0.000000 -0.049375
# 5 -0.003479 -0.003479 -0.002149 0.000000 0.036256 0.000000
# 6 0.000000 0.000000 0.000000 -0.049375 0.000000 -0.122448
#
#
# Mechanical properties :
#
#
# Convention : Reuss Voigt Hill
#
# Bulk Modulus (GPa) = 30.69246 39.39837 35.04542
# Shear Modulus (GPa) = 128.45326 21.78727 75.12026
#
# Velocity S-wave (km/s) = 8.34117 3.43523 6.37871
# Velocity P-wave (km/s) = 10.45902 6.08885 8.55760
#
# Compressibility (1/GPa) = 0.03258129
#
# Stress axis : x y z
#
# Youngs Moduli (GPa) = 42.91434 114.95296 83.41198
#
# Poissons Ratio (x) = 0.21245 0.21840
# Poissons Ratio (y) = 0.07931 0.10326
# Poissons Ratio (z) = 0.11237 0.14230
#
# Static dielectric constant tensor:
#      x y z
#    x 1.657360 0.000000 0.023640 
#    y 0.000000 1.648270 0.000000 
#    z 0.023640 0.000000 1.631790 
# 
# From -- ./inp_files/86351.got.cif
#   From: 2010.05.17/outbox.cif.g08.bks.cpg/sg12_44_cif.got.tgz:86351.got - 2010.06.03 13:09:07.
