data_PCOD9175493
_publ_section_title
;
Structure prediction by ZEFSAII (Michael W. Deem and Ramdas Pophale) SiO2 
 PCOD9175493
Probable space group: C 2/M
;
_chemical_formula_sum "Si O2"
_cell_formula_units_Z 48
_cell_length_a 10.306985
_cell_length_b 27.910773
_cell_length_c 9.267046
_cell_angle_alpha 90.000000
_cell_angle_beta 121.715915
_cell_angle_gamma 90.000000
_cell_volume 2267.793214
_symmetry_space_group_name_H-M "C 2/M"
_symmetry_group_IT_number 12
_symmetry_cell_setting 'monoclinic'
loop_
_space_group_symop_operation_xyz
x,y,z
-x,y,-z
-x,-y,-z
x,-y,z
1/2+x,1/2+y,z
1/2-x,1/2+y,-z
1/2-x,1/2-y,-z
1/2+x,1/2-y,z
loop_
_atom_site_type_symbol
_atom_site_label
_atom_site_fract_x
_atom_site_fract_y
_atom_site_fract_z
Si Si1 0.236205 0.351757 0.366105
Si Si2 0.829149 0.356547 0.355038
Si Si3 0.928664 0.290393 0.178214
Si Si4 0.358076 0.409386 0.993929
Si Si5 0.327141 0.054223 0.845329
Si Si6 0.627574 0.314290 0.829089
O O1 0.266100 0.351547 0.553994
O O2 0.213086 0.405677 0.295181
O O3 0.356198 0.328135 0.327866
O O4 0.077534 0.322883 0.252892
O O5 0.850665 0.306173 0.283978
O O6 0.760293 0.392781 0.198112
O O7 0.000000 0.372126 0.500000
O O8 0.963363 0.234262 0.196314
O O9 0.801637 0.302629 0.984573
O O10 0.500000 0.434153 0.000000
O O11 0.277608 0.437557 0.075276
O O12 0.418267 0.359961 0.102920
O O13 0.311420 0.000000 0.782501
O O14 0.500000 0.061823 0.000000
#
# Coordination Sequence:
#
# PCOD9175493 Si02
#       6
#     8   8   8   8   8   8
#     4  10  18  33  53  76 111 145 186 240 282 326
#     4   9  18  33  55  80 113 151 188 234 286 332
#     4   9  17  29  48  74 105 145 190 226 267 327
#     4  10  21  38  58  83 116 149 187 236 287 339
#     4  10  20  37  62  86 110 150 198 236 280 343
#     4   9  18  30  48  74 106 148 185 219 271 336
#
# _framework density 21.165949999999999
#
# number of rings (size 3 to 8) (size 9 to 14) (size 15 to 20)
#    0.000    2.500    0.000    4.500    0.000    5.000 
#    0.000    7.500    0.000    8.000    0.000    0.000 
#    0.000    0.000    0.000    0.000    0.000    0.000 
#
# Total GULP energy -134108.526247 kJ/mol
# GULP energy per Si atom -5587.855260 kJ/mol
# Density = 2.111778 g / cm^3
# Si number density = 21.165950 Si / 1000 Ang^3
#
#
#
# Elastic Constant Matrix: (Units=GPa)
#
#
# Indices 1 2 3 4 5 6 
#
# 1 78.2978 12.9351 29.5549 0.0000 -21.8257 0.0000
# 2 12.9351 85.3941 22.6548 0.0000 -0.7972 0.0000
# 3 29.5549 22.6548 110.0157 0.0000 -15.8411 0.0000
# 4 0.0000 0.0000 0.0000 -0.8348 0.0000 -5.8106
# 5 -21.8257 -0.7972 -15.8411 0.0000 43.1587 0.0000
# 6 0.0000 0.0000 0.0000 -5.8106 0.0000 -22.8319
#
#
#
# Elastic Compliance Matrix: (Units=1/GPa)
#
#
# Indices 1 2 3 4 5 6 
#
# 1 0.016121 -0.001582 -0.002994 0.000000 0.007025 0.000000
# 2 -0.001582 0.012565 -0.002369 0.000000 -0.001438 0.000000
# 3 -0.002994 -0.002369 0.010724 0.000000 0.002379 0.000000
# 4 0.000000 0.000000 0.000000 1.552864 0.000000 -0.395198
# 5 0.007025 -0.001438 0.002379 0.000000 0.027569 0.000000
# 6 0.000000 0.000000 0.000000 -0.395198 0.000000 0.056778
#
#
# Mechanical properties :
#
#
# Convention : Reuss Voigt Hill
#
# Bulk Modulus (GPa) = 39.18450 44.88858 42.03654
# Shear Modulus (GPa) = 2.94287 17.80259 10.37273
#
# Velocity S-wave (km/s) = 1.18042 2.90331 2.21615
# Velocity P-wave (km/s) = 4.51786 5.70026 5.14315
#
# Compressibility (1/GPa) = 0.02552030
#
# Stress axis : x y z
#
# Youngs Moduli (GPa) = 62.02991 79.58443 93.24676
#
# Poissons Ratio (x) = 0.12592 0.27914
# Poissons Ratio (y) = 0.09814 0.22094
# Poissons Ratio (z) = 0.18569 0.18857
#
# Static dielectric constant tensor:
#      x y z
#    x 1.821570 0.000000 0.001270 
#    y 0.000000 1.726750 0.000000 
#    z 0.001270 0.000000 1.762520 
# 
# From -- ./inp_files/52437.got.cif
#   From: 2010.05.17/outbox.cif.g08.bks.cpg/sg12_27_cif.got.tgz:52437.got - 2010.06.03 13:09:07.
