data_PCOD9175630
_publ_section_title
;
Structure prediction by ZEFSAII (Michael W. Deem and Ramdas Pophale) SiO2 
 PCOD9175630
Probable space group: C 2/M
;
_chemical_formula_sum "Si O2"
_cell_formula_units_Z 64
_cell_length_a 29.708313
_cell_length_b 17.878552
_cell_length_c 11.882663
_cell_angle_alpha 90.000000
_cell_angle_beta 151.556462
_cell_angle_gamma 90.000000
_cell_volume 3006.061466
_symmetry_space_group_name_H-M "C 2/M"
_symmetry_group_IT_number 12
_symmetry_cell_setting 'monoclinic'
loop_
_space_group_symop_operation_xyz
x,y,z
-x,y,-z
-x,-y,-z
x,-y,z
1/2+x,1/2+y,z
1/2-x,1/2+y,-z
1/2-x,1/2-y,-z
1/2+x,1/2-y,z
loop_
_atom_site_type_symbol
_atom_site_label
_atom_site_fract_x
_atom_site_fract_y
_atom_site_fract_z
Si Si1 0.943857 0.421123 0.759399
Si Si2 0.946858 0.254509 0.765832
Si Si3 0.812292 0.685341 0.193032
Si Si4 0.340898 0.319489 0.953429
Si Si5 0.247351 0.318847 0.336217
Si Si6 0.236734 0.083949 0.405486
Si Si7 0.458944 0.308507 0.559153
Si Si8 0.282437 0.411255 0.186376
O O1 0.965895 0.500000 0.746374
O O2 0.963925 0.338747 0.758127
O O3 0.834728 0.421447 0.553534
O O4 0.000000 0.423274 0.000000
O O5 0.837054 0.236437 0.547213
O O6 0.971453 0.196859 0.722245
O O7 0.000000 0.245057 0.000000
O O8 0.754123 0.670700 0.179895
O O9 0.911875 0.728302 0.424341
O O10 0.750000 0.750000 0.000000
O O11 0.798409 0.615801 0.079279
O O12 0.334922 0.237939 0.881171
O O13 0.335845 0.379146 0.841619
O O14 0.432776 0.322442 0.236429
O O15 0.241937 0.365548 0.438514
O O16 0.261551 0.374202 0.261911
O O17 0.208064 0.000000 0.376410
O O18 0.381947 0.372911 0.368070
O O19 0.288826 0.500000 0.205678
#
# Coordination Sequence:
#
# PCOD9175630 Si02
#       8
#     8   8   8   8   8   8   8   8
#     4   9  18  30  46  72 112 158 198 244 295 346
#     4  10  18  33  55  83 118 158 209 241 286 366
#     4  10  20  43  61  93 118 156 211 252 311 359
#     4  12  22  38  65  92 123 165 205 262 300 368
#     4  11  21  38  59  91 121 166 206 246 306 355
#     4  11  23  36  54  88 130 163 202 250 306 371
#     4  10  22  37  61  93 122 156 206 253 307 364
#     4  10  22  43  68  89 124 162 200 255 314 371
#
# _framework density 21.290317999999999
#
# number of rings (size 3 to 8) (size 9 to 14) (size 15 to 20)
#    0.000    1.625    5.000    1.500    3.500    3.000 
#    0.000    1.250    0.000    6.375    0.000    0.000 
#    0.000    0.000    0.000    0.000    0.000    0.000 
#
# Total GULP energy -178446.130967 kJ/mol
# GULP energy per Si atom -5576.441593 kJ/mol
# Density = 2.124186 g / cm^3
# Si number density = 21.290318 Si / 1000 Ang^3
#
#
#
# Elastic Constant Matrix: (Units=GPa)
#
#
# Indices 1 2 3 4 5 6 
#
# 1 48.7211 13.2867 8.2367 0.0000 -18.8269 0.0000
# 2 13.2867 135.0435 35.7239 0.0000 -14.9072 0.0000
# 3 8.2367 35.7239 122.5557 0.0000 0.4493 0.0000
# 4 0.0000 0.0000 0.0000 286.8671 0.0000 -47.3091
# 5 -18.8269 -14.9072 0.4493 0.0000 29.7189 0.0000
# 6 0.0000 0.0000 0.0000 -47.3091 0.0000 23.3027
#
#
#
# Elastic Compliance Matrix: (Units=1/GPa)
#
#
# Indices 1 2 3 4 5 6 
#
# 1 0.027635 -0.000317 -0.001828 0.000000 0.017375 0.000000
# 2 -0.000317 0.008549 -0.002486 0.000000 0.004125 0.000000
# 3 -0.001828 -0.002486 0.009016 0.000000 -0.002542 0.000000
# 4 0.000000 0.000000 0.000000 0.005241 0.000000 0.010639
# 5 0.017375 0.004125 -0.002542 0.000000 0.046763 0.000000
# 6 0.000000 0.000000 0.000000 0.010639 0.000000 0.064513
#
#
# Mechanical properties :
#
#
# Convention : Reuss Voigt Hill
#
# Bulk Modulus (GPa) = 27.82635 46.75720 37.29177
# Shear Modulus (GPa) = 27.32849 84.58264 55.95556
#
# Velocity S-wave (km/s) = 3.58664 6.30987 5.13218
# Velocity P-wave (km/s) = 5.50003 8.66576 7.25760
#
# Compressibility (1/GPa) = 0.03593717
#
# Stress axis : x y z
#
# Youngs Moduli (GPa) = 36.18640 116.97057 110.90962
#
# Poissons Ratio (x) = 0.03711 0.20280
# Poissons Ratio (y) = 0.01148 0.27570
# Poissons Ratio (z) = 0.06617 0.29077
#
# Static dielectric constant tensor:
#      x y z
#    x 1.880190 0.000000 0.000200 
#    y 0.000000 1.786640 0.000000 
#    z 0.000200 0.000000 1.869960 
# 
# From -- ./inp_files/190060.got.cif
#   From: 2010.05.17/outbox.cif.g08.bks.cpg/sg12_96_cif.got.tgz:190060.got - 2010.06.03 13:09:07.
