data_PCOD9175194
_publ_section_title
;
Structure prediction by ZEFSAII (Michael W. Deem and Ramdas Pophale) SiO2 
 PCOD9175194
Probable space group: C 2/M
;
_chemical_formula_sum "Si O2"
_cell_formula_units_Z 48
_cell_length_a 18.865497
_cell_length_b 13.348279
_cell_length_c 21.654605
_cell_angle_alpha 90.000000
_cell_angle_beta 154.115932
_cell_angle_gamma 90.000000
_cell_volume 2380.561534
_symmetry_space_group_name_H-M "C 2/M"
_symmetry_group_IT_number 12
_symmetry_cell_setting 'monoclinic'
loop_
_space_group_symop_operation_xyz
x,y,z
-x,y,-z
-x,-y,-z
x,-y,z
1/2+x,1/2+y,z
1/2-x,1/2+y,-z
1/2-x,1/2-y,-z
1/2+x,1/2-y,z
loop_
_atom_site_type_symbol
_atom_site_label
_atom_site_fract_x
_atom_site_fract_y
_atom_site_fract_z
Si Si1 0.578598 0.613802 0.876633
Si Si2 0.843194 0.726828 0.156269
Si Si3 0.263027 0.676669 0.692819
Si Si4 0.664449 0.887061 0.090731
Si Si5 0.963720 0.381249 0.371599
Si Si6 0.187001 0.889170 0.665021
O O1 0.582373 0.500000 0.856121
O O2 0.550962 0.698353 0.802743
O O3 0.431636 0.624323 0.809884
O O4 0.748374 0.644568 0.041622
O O5 0.704733 0.801440 0.074523
O O6 0.934538 0.676705 0.285052
O O7 0.180780 0.644759 0.693192
O O8 0.282498 0.796614 0.711335
O O9 0.129642 0.649543 0.536292
O O10 0.799862 0.884174 0.250645
O O11 0.657609 0.000000 0.059581
O O12 0.500000 0.869787 0.000000
O O13 0.964985 0.500000 0.362431
O O14 0.000000 0.878110 0.500000
O O15 0.245502 0.000000 0.692470
#
# Coordination Sequence:
#
# PCOD9175194 Si02
#       6
#     8   8   8   8   8   8
#     4  11  25  42  61  86 122 166 203 246 305 362
#     4  11  23  40  60  86 119 158 202 255 294 362
#     4  11  20  40  62  92 127 156 198 248 302 363
#     4  10  19  33  55  82 111 147 191 242 296 346
#     4  11  22  38  63  91 120 159 201 252 302 355
#     4  10  18  32  56  87 119 150 189 240 295 345
#
# _framework density 20.163309000000002
#
# number of rings (size 3 to 8) (size 9 to 14) (size 15 to 20)
#    0.000    1.333    3.333    4.000    0.000    0.667 
#    0.000    6.667    0.000    0.000    0.000    0.000 
#    0.000    0.000    0.000    0.000    0.000    0.000 
#
# Total GULP energy -134059.790856 kJ/mol
# GULP energy per Si atom -5585.824619 kJ/mol
# Density = 2.011742 g / cm^3
# Si number density = 20.163309 Si / 1000 Ang^3
#
#
#
# Elastic Constant Matrix: (Units=GPa)
#
#
# Indices 1 2 3 4 5 6 
#
# 1 39.0265 15.5783 13.5427 -0.0024 -10.5852 -0.0010
# 2 15.5783 133.4250 9.4102 0.0036 -5.9159 0.0026
# 3 13.5427 9.4102 51.4790 0.0024 -17.0553 0.0016
# 4 -0.0024 0.0036 0.0024 16.6414 0.0015 1.6569
# 5 -10.5852 -5.9159 -17.0553 0.0015 31.0119 0.0005
# 6 -0.0010 0.0026 0.0016 1.6569 0.0005 18.4362
#
#
#
# Elastic Compliance Matrix: (Units=1/GPa)
#
#
# Indices 1 2 3 4 5 6 
#
# 1 0.030468 -0.002882 -0.005166 0.000005 0.007008 0.000002
# 2 -0.002882 0.007883 -0.000624 -0.000002 0.000177 -0.000001
# 3 -0.005166 -0.000624 0.024792 -0.000005 0.011752 -0.000002
# 4 0.000005 -0.000002 -0.000005 0.060634 -0.000004 -0.005449
# 5 0.007008 0.000177 0.011752 -0.000004 0.041135 -0.000001
# 6 0.000002 -0.000001 -0.000002 -0.005449 -0.000001 0.054731
#
#
# Mechanical properties :
#
#
# Convention : Reuss Voigt Hill
#
# Bulk Modulus (GPa) = 21.83526 33.44364 27.63945
# Shear Modulus (GPa) = 19.82126 25.57785 22.69956
#
# Velocity S-wave (km/s) = 3.13874 3.56551 3.35891
# Velocity P-wave (km/s) = 4.89779 5.79421 5.36476
#
# Compressibility (1/GPa) = 0.04579748
#
# Stress axis : x y z
#
# Youngs Moduli (GPa) = 32.82148 126.85155 40.33518
#
# Poissons Ratio (x) = 0.36561 0.20839
# Poissons Ratio (y) = 0.09460 0.02518
# Poissons Ratio (z) = 0.16957 0.07919
#
# Static dielectric constant tensor:
#      x y z
#    x 1.711110 0.000000 -0.014590 
#    y 0.000000 1.739340 0.000000 
#    z -0.014590 0.000000 1.723680 
# 
# From -- ./inp_files/316356.got.cif
#   From: 2010.05.17/outbox.cif.g08.bks.cpg/sg12_159_cif.got.tgz:316356.got - 2010.06.03 13:09:07.
