data_PCOD9175292
_publ_section_title
;
Structure prediction by ZEFSAII (Michael W. Deem and Ramdas Pophale) SiO2 
 PCOD9175292
Probable space group: C 2/M
;
_chemical_formula_sum "Si O2"
_cell_formula_units_Z 44
_cell_length_a 19.020187
_cell_length_b 17.459729
_cell_length_c 11.045026
_cell_angle_alpha 90.000000
_cell_angle_beta 137.151433
_cell_angle_gamma 90.000000
_cell_volume 2494.411938
_symmetry_space_group_name_H-M "C 2/M"
_symmetry_group_IT_number 12
_symmetry_cell_setting 'monoclinic'
loop_
_space_group_symop_operation_xyz
x,y,z
-x,y,-z
-x,-y,-z
x,-y,z
1/2+x,1/2+y,z
1/2-x,1/2+y,-z
1/2-x,1/2-y,-z
1/2+x,1/2-y,z
loop_
_atom_site_type_symbol
_atom_site_label
_atom_site_fract_x
_atom_site_fract_y
_atom_site_fract_z
Si Si1 0.098570 0.088511 0.482921
Si Si2 0.690659 0.592426 0.100869
Si Si3 0.363633 0.277497 0.615879
Si Si4 0.500000 0.672945 0.000000
Si Si5 0.611970 0.809792 0.602823
Si Si6 0.131960 0.847327 0.767914
O O1 0.146657 0.133185 0.432737
O O2 0.161380 0.104476 0.685273
O O3 0.986751 0.127956 0.358049
O O4 0.083543 0.000000 0.443692
O O5 0.690784 0.500000 0.098917
O O6 0.589446 0.623272 0.045790
O O7 0.795525 0.629408 0.286334
O O8 0.686572 0.627031 0.959208
O O9 0.250000 0.250000 0.500000
O O10 0.442763 0.275823 0.826609
O O11 0.398632 0.231276 0.541008
O O12 0.500000 0.841365 0.500000
O O13 0.638165 0.740696 0.731660
#
# Coordination Sequence:
#
# PCOD9175292 Si02
#       6
#     8   8   8   4   8   8
#     4  10  18  32  58  84 116 148 184 245 298 343
#     4  12  24  36  58  90 123 154 198 251 305 356
#     4  11  22  39  57  89 120 157 199 243 299 365
#     4  12  23  38  62  82 123 156 202 250 303 346
#     4  11  21  41  61  84 117 162 201 242 297 361
#     4  10  18  34  58  85 113 144 194 241 293 348
#
# _framework density 17.639427999999999
#
# number of rings (size 3 to 8) (size 9 to 14) (size 15 to 20)
#    0.000    1.091    7.273    3.000    0.000    1.091 
#    0.000    0.000    0.000    0.000    0.000    1.273 
#    0.000    0.000    0.000    0.000    0.000    0.000 
#
# Total GULP energy -122634.265701 kJ/mol
# GULP energy per Si atom -5574.284805 kJ/mol
# Density = 1.759928 g / cm^3
# Si number density = 17.639428 Si / 1000 Ang^3
#
#
#
# Elastic Constant Matrix: (Units=GPa)
#
#
# Indices 1 2 3 4 5 6 
#
# 1 78.5186 32.4061 51.8427 0.0000 5.6398 0.0000
# 2 32.4061 73.7179 48.2817 0.0000 8.1259 0.0000
# 3 51.8427 48.2817 120.8408 0.0000 -11.1224 0.0000
# 4 0.0000 0.0000 0.0000 14.9378 0.0000 4.6584
# 5 5.6398 8.1259 -11.1224 0.0000 37.3155 0.0000
# 6 0.0000 0.0000 0.0000 4.6584 0.0000 16.8640
#
#
#
# Elastic Compliance Matrix: (Units=1/GPa)
#
#
# Indices 1 2 3 4 5 6 
#
# 1 0.019236 -0.003107 -0.007420 0.000000 -0.004443 0.000000
# 2 -0.003107 0.020472 -0.007418 0.000000 -0.006199 0.000000
# 3 -0.007420 -0.007418 0.015088 0.000000 0.007234 0.000000
# 4 0.000000 0.000000 0.000000 0.073254 0.000000 -0.020235
# 5 -0.004443 -0.006199 0.007234 0.000000 0.030976 0.000000
# 6 0.000000 0.000000 0.000000 -0.020235 0.000000 0.064888
#
#
# Mechanical properties :
#
#
# Convention : Reuss Voigt Hill
#
# Bulk Modulus (GPa) = 52.88736 59.79316 56.34026
# Shear Modulus (GPa) = 18.78942 23.19326 20.99134
#
# Velocity S-wave (km/s) = 3.26727 3.63002 3.45341
# Velocity P-wave (km/s) = 6.65440 7.17917 6.92176
#
# Compressibility (1/GPa) = 0.01890811
#
# Stress axis : x y z
#
# Youngs Moduli (GPa) = 51.98451 48.84635 66.27624
#
# Poissons Ratio (x) = 0.15174 0.49180
# Poissons Ratio (y) = 0.16149 0.49161
# Poissons Ratio (z) = 0.38575 0.36232
#
# Static dielectric constant tensor:
#      x y z
#    x 1.665130 0.000000 -0.025550 
#    y 0.000000 1.587200 0.000000 
#    z -0.025550 0.000000 1.656630 
# 
# From -- ./inp_files/158396.got.cif
#   From: 2010.05.17/outbox.cif.g08.bks.cpg/sg12_80_cif.got.tgz:158396.got - 2010.06.03 13:09:07.
