data_PCOD9175705
_publ_section_title
;
Structure prediction by ZEFSAII (Michael W. Deem and Ramdas Pophale) SiO2 
 PCOD9175705
Probable space group: C 2/M
;
_chemical_formula_sum "Si O2"
_cell_formula_units_Z 64
_cell_length_a 30.885542
_cell_length_b 7.749327
_cell_length_c 20.198906
_cell_angle_alpha 90.000000
_cell_angle_beta 37.097893
_cell_angle_gamma 90.000000
_cell_volume 2916.036987
_symmetry_space_group_name_H-M "C 2/M"
_symmetry_group_IT_number 12
_symmetry_cell_setting 'monoclinic'
loop_
_space_group_symop_operation_xyz
x,y,z
-x,y,-z
-x,-y,-z
x,-y,z
1/2+x,1/2+y,z
1/2-x,1/2+y,-z
1/2-x,1/2-y,-z
1/2+x,1/2-y,z
loop_
_atom_site_type_symbol
_atom_site_label
_atom_site_fract_x
_atom_site_fract_y
_atom_site_fract_z
Si Si1 0.627743 0.208625 0.922097
Si Si2 0.503109 0.788896 0.168739
Si Si3 0.264517 0.292498 0.558756
Si Si4 0.387811 0.789376 0.203320
Si Si5 0.812450 0.291549 0.871193
Si Si6 0.030338 0.703655 0.280717
Si Si7 0.709231 0.798084 0.251961
Si Si8 0.614423 0.298951 0.491847
O O1 0.592615 0.260874 0.895064
O O2 0.708134 0.274978 0.828766
O O3 0.631345 0.000000 0.918131
O O4 0.577893 0.261798 0.043486
O O5 0.439399 0.728148 0.198758
O O6 0.501781 0.726609 0.245338
O O7 0.499508 0.000000 0.172970
O O8 0.267329 0.500000 0.560428
O O9 0.250000 0.250000 0.500000
O O10 0.193572 0.233754 0.684043
O O11 0.335462 0.224553 0.509600
O O12 0.389445 0.000000 0.203236
O O13 0.814526 0.500000 0.865506
O O14 0.891337 0.226430 0.796509
O O15 0.797992 0.228076 0.814038
O O16 0.750000 0.250000 0.000000
O O17 0.041523 0.500000 0.257448
O O18 0.965461 0.723672 0.411242
O O19 0.658219 0.719604 0.370341
O O20 0.691403 0.000000 0.272321
O O21 0.604682 0.500000 0.517046
#
# Coordination Sequence:
#
# PCOD9175705 Si02
#       8
#     8   8   8   8   8   8   8   8
#     4  10  18  33  56  83 115 150 192 242 286 343
#     4   9  17  29  54  85 112 148 191 235 290 348
#     4  10  20  34  53  79 113 153 197 244 289 341
#     4   9  16  29  49  79 113 144 185 236 285 337
#     4  10  23  42  65  93 122 154 195 242 295 354
#     4  10  21  39  60  85 117 153 194 241 296 355
#     4  11  23  39  60  86 118 157 196 242 299 354
#     4  11  23  40  60  86 117 154 200 246 293 348
#
# _framework density 21.947596000000001
#
# number of rings (size 3 to 8) (size 9 to 14) (size 15 to 20)
#    0.000    2.000    1.250    2.625    0.000    6.500 
#    0.000    3.125    0.000    2.250    0.000    0.000 
#    0.000    0.000    0.000    0.000    0.000    0.000 
#
# Total GULP energy -178727.526869 kJ/mol
# GULP energy per Si atom -5585.235215 kJ/mol
# Density = 2.189764 g / cm^3
# Si number density = 21.947596 Si / 1000 Ang^3
#
#
#
# Elastic Constant Matrix: (Units=GPa)
#
#
# Indices 1 2 3 4 5 6 
#
# 1 140.7897 3.1746 62.0549 -0.0005 -2.5802 -0.0021
# 2 3.1746 29.6443 -7.0207 -0.0010 0.2245 -0.0114
# 3 62.0549 -7.0207 108.8777 -0.0188 -14.1125 -0.0014
# 4 -0.0005 -0.0010 -0.0188 21.4828 -0.0062 -0.0460
# 5 -2.5802 0.2245 -14.1125 -0.0062 37.3437 0.0021
# 6 -0.0021 -0.0114 -0.0014 -0.0460 0.0021 15.7413
#
#
#
# Elastic Compliance Matrix: (Units=1/GPa)
#
#
# Indices 1 2 3 4 5 6 
#
# 1 0.009731 -0.002428 -0.005903 -0.000005 -0.001544 -0.000001
# 2 -0.002428 0.034878 0.003769 0.000005 0.001047 0.000025
# 3 -0.005903 0.003769 0.013392 0.000013 0.004631 0.000003
# 4 -0.000005 0.000005 0.000013 0.046549 0.000012 0.000136
# 5 -0.001544 0.001047 0.004631 0.000012 0.028415 -0.000003
# 6 -0.000001 0.000025 0.000003 0.000136 -0.000003 0.063527
#
#
# Mechanical properties :
#
#
# Convention : Reuss Voigt Hill
#
# Bulk Modulus (GPa) = 20.45987 43.96992 32.21489
# Shear Modulus (GPa) = 22.53165 29.65377 26.09271
#
# Velocity S-wave (km/s) = 3.20755 3.67974 3.45173
# Velocity P-wave (km/s) = 4.80211 6.17507 5.53136
#
# Compressibility (1/GPa) = 0.04887617
#
# Stress axis : x y z
#
# Youngs Moduli (GPa) = 102.76398 28.67136 74.67036
#
# Poissons Ratio (x) = 0.06962 0.44077
# Poissons Ratio (y) = 0.24955 -0.28141
# Poissons Ratio (z) = 0.60661 -0.10806
#
# Static dielectric constant tensor:
#      x y z
#    x 1.817380 0.000000 0.011790 
#    y 0.000000 1.767240 0.000000 
#    z 0.011790 0.000000 1.782140 
# 
# From -- ./inp_files/295607.got.cif
#   From: 2010.05.17/outbox.cif.g08.bks.cpg/sg12_148_cif.got.tgz:295607.got - 2010.06.03 13:09:07.
