data_PCOD9175202
_publ_section_title
;
Structure prediction by ZEFSAII (Michael W. Deem and Ramdas Pophale) SiO2 
 PCOD9175202
Probable space group: C 2/M
;
_chemical_formula_sum "Si O2"
_cell_formula_units_Z 56
_cell_length_a 11.607817
_cell_length_b 23.242297
_cell_length_c 22.188985
_cell_angle_alpha 90.000000
_cell_angle_beta 150.696514
_cell_angle_gamma 90.000000
_cell_volume 2929.965528
_symmetry_space_group_name_H-M "C 2/M"
_symmetry_group_IT_number 12
_symmetry_cell_setting 'monoclinic'
loop_
_space_group_symop_operation_xyz
x,y,z
-x,y,-z
-x,-y,-z
x,-y,z
1/2+x,1/2+y,z
1/2-x,1/2+y,-z
1/2-x,1/2-y,-z
1/2+x,1/2-y,z
loop_
_atom_site_type_symbol
_atom_site_label
_atom_site_fract_x
_atom_site_fract_y
_atom_site_fract_z
Si Si1 0.307860 0.931975 0.713015
Si Si2 0.940525 0.150928 0.604714
Si Si3 0.033434 0.561206 0.444160
Si Si4 0.855901 0.065376 0.996698
Si Si5 0.854048 0.663578 0.640578
Si Si6 0.721509 0.283024 0.356019
Si Si7 0.316368 0.637494 0.776723
O O1 0.580378 0.929620 0.856840
O O2 0.293962 0.897933 0.642884
O O3 0.157445 0.891019 0.689034
O O4 0.239185 0.000000 0.679339
O O5 0.726746 0.108006 0.520284
O O6 0.842301 0.180175 0.498995
O O7 0.935457 0.193504 0.659272
O O8 0.112963 0.500000 0.456643
O O9 0.000000 0.558809 0.500000
O O10 0.795533 0.580449 0.304170
O O11 0.896850 0.000000 0.038957
O O12 0.000000 0.069655 0.000000
O O13 0.953537 0.115612 0.084066
O O14 0.839309 0.716069 0.680208
O O15 0.112498 0.659642 0.729072
O O16 0.663839 0.318147 0.269302
O O17 0.000000 0.291434 0.500000
#
# Coordination Sequence:
#
# PCOD9175202 Si02
#       7
#     8   8   8   8   8   8   8
#     4  11  24  41  62  91 125 160 204 261 315 360
#     4  11  21  38  58  92 128 161 195 247 307 374
#     4  10  18  32  56  90 122 151 190 245 302 361
#     4  10  21  41  66  87 116 158 209 256 301 367
#     4  11  24  36  65  92 123 162 201 255 307 365
#     4  12  22  40  61  93 127 166 207 243 304 374
#     4  11  21  39  62  90 116 160 209 252 298 367
#
# _framework density 19.112852
#
# number of rings (size 3 to 8) (size 9 to 14) (size 15 to 20)
#    0.000    1.143    5.714    2.571    2.000    3.429 
#    0.000    1.429    3.143    1.714    0.000    0.000 
#    0.000    0.000    0.000    0.000    0.000    0.000 
#
# Total GULP energy -156189.998224 kJ/mol
# GULP energy per Si atom -5578.214222 kJ/mol
# Density = 1.906935 g / cm^3
# Si number density = 19.112852 Si / 1000 Ang^3
#
#
#
# Elastic Constant Matrix: (Units=GPa)
#
#
# Indices 1 2 3 4 5 6 
#
# 1 75.7783 25.2423 23.5936 0.0033 3.4710 -0.0096
# 2 25.2423 92.5113 17.7963 0.0041 -6.8400 -0.0179
# 3 23.5936 17.7963 54.6083 0.0198 1.3916 -0.0420
# 4 0.0033 0.0041 0.0198 22.4766 0.0104 2.7737
# 5 3.4710 -6.8400 1.3916 0.0104 20.9126 -0.0088
# 6 -0.0096 -0.0179 -0.0420 2.7737 -0.0088 24.8446
#
#
#
# Elastic Compliance Matrix: (Units=1/GPa)
#
#
# Indices 1 2 3 4 5 6 
#
# 1 0.016367 -0.003608 -0.005806 0.000006 -0.003510 -0.000008
# 2 -0.003608 0.012677 -0.002698 -0.000002 0.004925 0.000005
# 3 -0.005806 -0.002698 0.021735 -0.000021 -0.001365 0.000034
# 4 0.000006 -0.000002 -0.000021 0.045112 -0.000025 -0.005037
# 5 -0.003510 0.004925 -0.001365 -0.000025 0.050102 0.000020
# 6 -0.000008 0.000005 0.000034 -0.005037 0.000020 0.040813
#
#
# Mechanical properties :
#
#
# Convention : Reuss Voigt Hill
#
# Bulk Modulus (GPa) = 37.65862 39.57358 38.61610
# Shear Modulus (GPa) = 22.73949 24.06447 23.40198
#
# Velocity S-wave (km/s) = 3.45302 3.55219 3.50295
# Velocity P-wave (km/s) = 5.97024 6.12978 6.05054
#
# Compressibility (1/GPa) = 0.02655435
#
# Stress axis : x y z
#
# Youngs Moduli (GPa) = 61.09900 78.88177 46.00932
#
# Poissons Ratio (x) = 0.28464 0.26713
# Poissons Ratio (y) = 0.22047 0.12412
# Poissons Ratio (z) = 0.35474 0.21281
#
# Static dielectric constant tensor:
#      x y z
#    x 1.692250 -0.000010 -0.051660 
#    y -0.000010 1.716890 0.000000 
#    z -0.051660 0.000000 1.688070 
# 
# From -- ./inp_files/307255.got.cif
#   From: 2010.05.17/outbox.cif.g08.bks.cpg/sg12_154_cif.got.tgz:307255.got - 2010.06.03 13:09:07.
