data_PCOD9175321
_publ_section_title
;
Structure prediction by ZEFSAII (Michael W. Deem and Ramdas Pophale) SiO2 
 PCOD9175321
Probable space group: C 2/M
;
_chemical_formula_sum "Si O2"
_cell_formula_units_Z 52
_cell_length_a 11.193218
_cell_length_b 20.740220
_cell_length_c 14.797430
_cell_angle_alpha 90.000000
_cell_angle_beta 139.953918
_cell_angle_gamma 90.000000
_cell_volume 2210.232936
_symmetry_space_group_name_H-M "C 2/M"
_symmetry_group_IT_number 12
_symmetry_cell_setting 'monoclinic'
loop_
_space_group_symop_operation_xyz
x,y,z
-x,y,-z
-x,-y,-z
x,-y,z
1/2+x,1/2+y,z
1/2-x,1/2+y,-z
1/2-x,1/2-y,-z
1/2+x,1/2-y,z
loop_
_atom_site_type_symbol
_atom_site_label
_atom_site_fract_x
_atom_site_fract_y
_atom_site_fract_z
Si Si1 0.729069 0.318612 0.034169
Si Si2 0.453248 0.724795 0.369343
Si Si3 0.410926 0.138683 0.847316
Si Si4 0.493805 0.000000 0.889276
Si Si5 0.559220 0.368709 0.277807
Si Si6 0.693457 0.500000 0.169360
Si Si7 0.076951 0.000000 0.819302
Si Si8 0.177878 0.360906 0.729559
O O1 0.692637 0.327093 0.118558
O O2 0.934619 0.344640 0.136751
O O3 0.750000 0.250000 0.000000
O O4 0.584373 0.354536 0.887137
O O5 0.500000 0.712074 0.500000
O O6 0.248448 0.692021 0.242117
O O7 0.563013 0.685563 0.356164
O O8 0.466774 0.801654 0.360257
O O9 0.380128 0.064323 0.801607
O O10 0.500000 0.139003 0.000000
O O11 0.500000 0.000000 0.000000
O O12 0.723392 0.000000 0.010274
O O13 0.467295 0.434832 0.261323
O O14 0.747956 0.369124 0.329879
O O15 0.594975 0.500000 0.210060
O O16 0.818228 0.435343 0.232958
O O17 0.500000 0.500000 0.000000
#
# Coordination Sequence:
#
# PCOD9175321 Si02
#       8
#     8   8   8   4   8   4   4   8
#     4  12  20  35  65 100 132 164 215 274 331 391
#     4  12  27  46  65  96 133 182 228 275 330 395
#     4  11  21  38  63  93 132 169 219 272 333 391
#     4  10  18  32  58  91 131 171 208 266 337 389
#     4  11  21  41  66  98 138 172 218 273 331 398
#     4  10  22  38  65 101 136 167 212 272 333 401
#     4  10  18  36  62 100 136 171 208 273 338 389
#     4  11  24  41  65  98 133 176 215 271 338 396
#
# _framework density 23.526931000000001
#
# number of rings (size 3 to 8) (size 9 to 14) (size 15 to 20)
#    0.000    0.923    4.615    4.154    0.000    1.231 
#    0.000    1.923    0.000    0.000    0.000    0.000 
#    0.000    0.000    0.000    0.000    0.000    0.000 
#
# Total GULP energy -144738.307287 kJ/mol
# GULP energy per Si atom -5566.857973 kJ/mol
# Density = 2.347338 g / cm^3
# Si number density = 23.526931 Si / 1000 Ang^3
#
#
#
# Elastic Constant Matrix: (Units=GPa)
#
#
# Indices 1 2 3 4 5 6 
#
# 1 66.1959 26.2054 10.1011 -0.0005 -13.4688 0.0001
# 2 26.2054 200.8515 37.3523 -0.0001 -4.1893 0.0000
# 3 10.1011 37.3523 73.2643 -0.0009 -22.9088 0.0003
# 4 -0.0005 -0.0001 -0.0009 132.2955 -0.0007 -54.8252
# 5 -13.4688 -4.1893 -22.9088 -0.0007 30.9145 0.0002
# 6 0.0001 0.0000 0.0003 -54.8252 0.0002 45.9758
#
#
#
# Elastic Compliance Matrix: (Units=1/GPa)
#
#
# Indices 1 2 3 4 5 6 
#
# 1 0.017533 -0.002375 0.001408 0.000000 0.008360 0.000000
# 2 -0.002375 0.005894 -0.003581 0.000000 -0.002890 0.000000
# 3 0.001408 -0.003581 0.019942 0.000000 0.014906 0.000000
# 4 0.000000 0.000000 0.000000 0.014944 0.000000 0.017820
# 5 0.008360 -0.002890 0.014906 0.000000 0.046644 0.000000
# 6 0.000000 0.000000 0.000000 0.017820 0.000000 0.043001
#
#
# Mechanical properties :
#
#
# Convention : Reuss Voigt Hill
#
# Bulk Modulus (GPa) = 29.17843 54.18103 41.67973
# Shear Modulus (GPa) = 29.67735 59.61403 44.64569
#
# Velocity S-wave (km/s) = 3.55550 5.03921 4.36092
# Velocity P-wave (km/s) = 5.41152 7.54570 6.56590
#
# Compressibility (1/GPa) = 0.03427190
#
# Stress axis : x y z
#
# Youngs Moduli (GPa) = 57.03508 169.65218 50.14586
#
# Poissons Ratio (x) = 0.40292 -0.07059
# Poissons Ratio (y) = 0.13546 0.17959
# Poissons Ratio (z) = -0.08028 0.60758
#
# Static dielectric constant tensor:
#      x y z
#    x 1.981400 0.000000 0.007110 
#    y 0.000000 2.120250 0.000000 
#    z 0.007110 0.000000 1.700590 
# 
# From -- ./inp_files/207794.got.cif
#   From: 2010.05.17/outbox.cif.g08.bks.cpg/sg12_104_cif.got.tgz:207794.got - 2010.06.03 13:09:07.
