data_PCOD9175078
_publ_section_title
;
Structure prediction by ZEFSAII (Michael W. Deem and Ramdas Pophale) SiO2 
 PCOD9175078
Probable space group: C 2/M
;
_chemical_formula_sum "Si O2"
_cell_formula_units_Z 64
_cell_length_a 31.383391
_cell_length_b 7.487818
_cell_length_c 16.599453
_cell_angle_alpha 90.000000
_cell_angle_beta 47.164698
_cell_angle_gamma 90.000000
_cell_volume 2860.468579
_symmetry_space_group_name_H-M "C 2/M"
_symmetry_group_IT_number 12
_symmetry_cell_setting 'monoclinic'
loop_
_space_group_symop_operation_xyz
x,y,z
-x,y,-z
-x,-y,-z
x,-y,z
1/2+x,1/2+y,z
1/2-x,1/2+y,-z
1/2-x,1/2-y,-z
1/2+x,1/2-y,z
loop_
_atom_site_type_symbol
_atom_site_label
_atom_site_fract_x
_atom_site_fract_y
_atom_site_fract_z
Si Si1 0.500412 0.718727 0.751048
Si Si2 0.338070 0.207699 0.715229
Si Si3 0.266341 0.286974 0.570711
Si Si4 0.206726 0.780793 0.911362
Si Si5 0.886722 0.793529 0.483439
Si Si6 0.376455 0.284152 0.842941
Si Si7 0.655232 0.294956 0.814843
Si Si8 0.542689 0.717030 0.872189
O O1 0.497532 0.500000 0.755237
O O2 0.551327 0.778321 0.624553
O O3 0.436783 0.777410 0.804912
O O4 0.519304 0.778232 0.816035
O O5 0.272544 0.280479 0.811040
O O6 0.373089 0.287935 0.595604
O O7 0.369557 0.226573 0.759977
O O8 0.332089 0.000000 0.702542
O O9 0.265685 0.500000 0.585053
O O10 0.250000 0.250000 0.500000
O O11 0.330030 0.216256 0.511851
O O12 0.216954 0.208428 0.691388
O O13 0.166057 0.719112 0.889668
O O14 0.207801 0.000000 0.909157
O O15 0.177938 0.724964 0.032245
O O16 0.888332 0.000000 0.455395
O O17 0.376253 0.500000 0.843758
O O18 0.637040 0.500000 0.852356
O O19 0.606350 0.218969 0.818355
O O20 0.544292 0.500000 0.863462
O O21 0.500000 0.763310 0.000000
#
# Coordination Sequence:
#
# PCOD9175078 Si02
#       8
#     8   8   8   8   8   8   8   8
#     4   9  18  33  53  79 109 141 184 231 271 318
#     4  11  22  37  56  81 112 143 181 229 280 332
#     4  11  22  35  54  80 110 144 184 224 270 328
#     4   9  18  33  55  83 112 141 177 225 279 331
#     4  10  21  38  57  79 109 146 186 228 273 325
#     4  10  20  36  58  81 107 143 185 229 279 333
#     4  10  18  32  55  82 113 144 180 225 274 327
#     4   9  16  28  52  85 115 145 182 226 273 322
#
# _framework density 22.373957000000001
#
# number of rings (size 3 to 8) (size 9 to 14) (size 15 to 20)
#    0.000    2.125    1.250    2.625    0.000    6.000 
#    0.000    4.375    0.000    1.125    0.000    0.000 
#    0.000    0.000    0.000    0.000    0.000    0.000 
#
# Total GULP energy -178803.016625 kJ/mol
# GULP energy per Si atom -5587.594270 kJ/mol
# Density = 2.232303 g / cm^3
# Si number density = 22.373957 Si / 1000 Ang^3
#
#
#
# Elastic Constant Matrix: (Units=GPa)
#
#
# Indices 1 2 3 4 5 6 
#
# 1 123.0113 -2.7766 45.7405 0.0000 6.8915 0.0001
# 2 -2.7766 60.7422 -10.5466 -0.0009 -6.4736 -0.0026
# 3 45.7405 -10.5466 124.0689 -0.0015 4.4437 -0.0006
# 4 0.0000 -0.0009 -0.0015 0.2457 0.0002 -16.2392
# 5 6.8915 -6.4736 4.4437 0.0002 41.6574 0.0002
# 6 0.0001 -0.0026 -0.0006 -16.2392 0.0002 -11.2902
#
#
#
# Elastic Compliance Matrix: (Units=1/GPa)
#
#
# Indices 1 2 3 4 5 6 
#
# 1 0.009486 -0.000303 -0.003478 0.000000 -0.001245 0.000000
# 2 -0.000303 0.016973 0.001464 -0.000002 0.002532 -0.000001
# 3 -0.003478 0.001464 0.009474 0.000000 -0.000208 -0.000001
# 4 0.000000 -0.000002 0.000000 0.042367 0.000000 -0.060939
# 5 -0.001245 0.002532 -0.000208 0.000000 0.024627 0.000000
# 6 0.000000 -0.000001 -0.000001 -0.060939 0.000000 -0.000922
#
#
# Mechanical properties :
#
#
# Convention : Reuss Voigt Hill
#
# Bulk Modulus (GPa) = 31.95071 41.40633 36.67852
# Shear Modulus (GPa) = 42.70849 24.48291 33.59570
#
# Velocity S-wave (km/s) = 4.37378 3.31155 3.87919
# Velocity P-wave (km/s) = 6.31014 5.75921 6.04096
#
# Compressibility (1/GPa) = 0.03129821
#
# Stress axis : x y z
#
# Youngs Moduli (GPa) = 105.42300 58.91657 105.54951
#
# Poissons Ratio (x) = 0.01785 0.36712
# Poissons Ratio (y) = 0.03195 -0.15451
# Poissons Ratio (z) = 0.36668 -0.08625
#
# Static dielectric constant tensor:
#      x y z
#    x 1.785790 0.000000 0.007430 
#    y 0.000000 1.925240 0.000000 
#    z 0.007430 0.000000 1.766400 
# 
# From -- ./inp_files/249856.got.cif
#   From: 2010.05.17/outbox.cif.g08.bks.cpg/sg12_125_cif.got.tgz:249856.got - 2010.06.03 13:09:07.
