data_PCOD9175425
_publ_section_title
;
Structure prediction by ZEFSAII (Michael W. Deem and Ramdas Pophale) SiO2 
 PCOD9175425
Probable space group: C 2/M
;
_chemical_formula_sum "Si O2"
_cell_formula_units_Z 44
_cell_length_a 10.781142
_cell_length_b 27.209862
_cell_length_c 9.315752
_cell_angle_alpha 90.000000
_cell_angle_beta 139.951822
_cell_angle_gamma 90.000000
_cell_volume 1758.374420
_symmetry_space_group_name_H-M "C 2/M"
_symmetry_group_IT_number 12
_symmetry_cell_setting 'monoclinic'
loop_
_space_group_symop_operation_xyz
x,y,z
-x,y,-z
-x,-y,-z
x,-y,z
1/2+x,1/2+y,z
1/2-x,1/2+y,-z
1/2-x,1/2-y,-z
1/2+x,1/2-y,z
loop_
_atom_site_type_symbol
_atom_site_label
_atom_site_fract_x
_atom_site_fract_y
_atom_site_fract_z
Si Si1 0.834584 0.095350 0.107932
Si Si2 0.972754 0.000000 0.707791
Si Si3 0.310590 0.667061 0.596363
Si Si4 0.785563 0.426866 0.323903
Si Si5 0.428956 0.820461 0.119187
Si Si6 0.211497 0.740735 0.738365
O O1 0.892506 0.045068 0.237560
O O2 0.993197 0.138847 0.265691
O O3 0.805605 0.078380 0.915103
O O4 0.640283 0.124287 0.975042
O O5 0.843026 0.041821 0.680591
O O6 0.201343 0.626546 0.595108
O O7 0.328789 0.714509 0.713618
O O8 0.160186 0.679582 0.338822
O O9 0.000000 0.446862 0.500000
O O10 0.345449 0.802268 0.198714
O O11 0.328140 0.781840 0.925471
O O12 0.000000 0.759041 0.500000
#
# Coordination Sequence:
#
# PCOD9175425 Si02
#       6
#     8   4   8   8   8   8
#     4  11  20  33  49  73 106 137 172 211 246 307
#     4  10  22  28  45  76 102 136 176 197 254 312
#     4  10  18  33  51  70 103 139 170 210 252 298
#     4  11  17  30  48  68 103 142 167 200 249 305
#     4  10  19  33  52  72 100 138 174 211 254 299
#     4   9  18  34  51  71 101 135 175 215 249 300
#
# _framework density 25.023112000000001
#
# number of rings (size 3 to 8) (size 9 to 14) (size 15 to 20)
#    0.000    1.818    3.636    4.091    0.000    0.000 
#    0.000   11.818    0.000    0.000    0.000    0.636 
#    0.000    5.818    0.000    0.000    0.000    0.000 
#
# Total GULP energy -122626.389483 kJ/mol
# GULP energy per Si atom -5573.926795 kJ/mol
# Density = 2.496616 g / cm^3
# Si number density = 25.023112 Si / 1000 Ang^3
#
#
#
# Elastic Constant Matrix: (Units=GPa)
#
#
# Indices 1 2 3 4 5 6 
#
# 1 35.5195 8.3535 23.5762 0.0000 6.5419 0.0000
# 2 8.3535 148.3481 62.6591 0.0000 7.1603 0.0000
# 3 23.5762 62.6591 139.5369 0.0000 18.9628 0.0000
# 4 0.0000 0.0000 0.0000 45.2627 0.0000 10.1587
# 5 6.5419 7.1603 18.9628 0.0000 28.6079 0.0000
# 6 0.0000 0.0000 0.0000 10.1587 0.0000 21.6518
#
#
#
# Elastic Compliance Matrix: (Units=1/GPa)
#
#
# Indices 1 2 3 4 5 6 
#
# 1 0.032183 0.000552 -0.005128 0.000000 -0.004098 0.000000
# 2 0.000552 0.008333 -0.003885 0.000000 0.000363 0.000000
# 3 -0.005128 -0.003885 0.010425 0.000000 -0.004765 0.000000
# 4 0.000000 0.000000 0.000000 0.024694 0.000000 -0.011586
# 5 -0.004098 0.000363 -0.004765 0.000000 0.038960 0.000000
# 6 0.000000 0.000000 0.000000 -0.011586 0.000000 0.051621
#
#
# Mechanical properties :
#
#
# Convention : Reuss Voigt Hill
#
# Bulk Modulus (GPa) = 29.39603 56.95356 43.17480
# Shear Modulus (GPa) = 25.70992 34.35887 30.03440
#
# Velocity S-wave (km/s) = 3.20886 3.70954 3.46824
# Velocity P-wave (km/s) = 5.04996 6.41540 5.77319
#
# Compressibility (1/GPa) = 0.03401820
#
# Stress axis : x y z
#
# Youngs Moduli (GPa) = 31.07276 120.00408 95.92336
#
# Poissons Ratio (x) = -0.06621 0.49193
# Poissons Ratio (y) = -0.01714 0.37262
# Poissons Ratio (z) = 0.15935 0.46616
#
# Static dielectric constant tensor:
#      x y z
#    x 2.035820 0.000000 0.000430 
#    y 0.000000 1.967900 0.000000 
#    z 0.000430 0.000000 2.077860 
# 
# From -- ./inp_files/149558.got.cif
#   From: 2010.05.17/outbox.cif.g08.bks.cpg/sg12_75_cif.got.tgz:149558.got - 2010.06.03 13:09:07.
