data_PCOD9175766
_publ_section_title
;
Structure prediction by ZEFSAII (Michael W. Deem and Ramdas Pophale) SiO2 
 PCOD9175766
Probable space group: C 2/M
;
_chemical_formula_sum "Si O2"
_cell_formula_units_Z 48
_cell_length_a 8.839455
_cell_length_b 19.510782
_cell_length_c 16.188325
_cell_angle_alpha 90.000000
_cell_angle_beta 118.778077
_cell_angle_gamma 90.000000
_cell_volume 2447.087598
_symmetry_space_group_name_H-M "C 2/M"
_symmetry_group_IT_number 12
_symmetry_cell_setting 'monoclinic'
loop_
_space_group_symop_operation_xyz
x,y,z
-x,y,-z
-x,-y,-z
x,-y,z
1/2+x,1/2+y,z
1/2-x,1/2+y,-z
1/2-x,1/2-y,-z
1/2+x,1/2-y,z
loop_
_atom_site_type_symbol
_atom_site_label
_atom_site_fract_x
_atom_site_fract_y
_atom_site_fract_z
Si Si1 0.895516 0.156308 0.893301
Si Si2 0.817945 0.577207 0.289346
Si Si3 0.765525 0.579144 0.577540
Si Si4 0.908492 0.755922 0.187784
Si Si5 0.741409 0.305491 0.681697
Si Si6 0.295134 0.173846 0.431922
O O1 0.769602 0.100611 0.818545
O O2 0.768093 0.218987 0.884511
O O3 0.026200 0.186322 0.858157
O O4 0.000000 0.132050 0.000000
O O5 0.767281 0.500000 0.297270
O O6 0.752858 0.631776 0.338597
O O7 0.026426 0.579728 0.351337
O O8 0.714790 0.500000 0.553403
O O9 0.692134 0.620007 0.636412
O O10 0.725421 0.627899 0.488795
O O11 0.876841 0.781395 0.273654
O O12 0.063475 0.700883 0.233819
O O13 0.741513 0.252320 0.603762
O O14 0.500000 0.172941 0.500000
#
# Coordination Sequence:
#
# PCOD9175766 Si02
#       6
#     8   8   8   8   8   8
#     4  11  21  37  59  85 111 141 183 234 284 336
#     4  10  19  34  55  80 113 146 185 232 275 327
#     4  10  20  33  54  83 113 151 190 223 269 329
#     4  10  20  36  58  84 108 146 184 229 284 327
#     4  11  19  36  59  80 114 148 188 228 274 327
#     4  10  18  33  57  82 108 150 193 229 263 320
#
# _framework density 19.615155000000001
#
# number of rings (size 3 to 8) (size 9 to 14) (size 15 to 20)
#    0.000    1.667    5.000    2.500    0.000    2.333 
#    0.000    0.833    0.000    1.500    0.000    2.333 
#    0.000    0.000    0.000    0.000    0.000    0.000 
#
# Total GULP energy -133828.249375 kJ/mol
# GULP energy per Si atom -5576.177057 kJ/mol
# Density = 1.957051 g / cm^3
# Si number density = 19.615155 Si / 1000 Ang^3
#
#
#
# Elastic Constant Matrix: (Units=GPa)
#
#
# Indices 1 2 3 4 5 6 
#
# 1 69.1944 4.9224 13.4069 0.0000 4.5159 0.0000
# 2 4.9224 99.5289 21.9381 0.0000 -7.7008 0.0000
# 3 13.4069 21.9381 109.0815 0.0000 2.0679 0.0000
# 4 0.0000 0.0000 0.0000 17.1314 0.0000 3.8073
# 5 4.5159 -7.7008 2.0679 0.0000 17.4216 0.0000
# 6 0.0000 0.0000 0.0000 3.8073 0.0000 9.4359
#
#
#
# Elastic Compliance Matrix: (Units=1/GPa)
#
#
# Indices 1 2 3 4 5 6 
#
# 1 0.015081 -0.000696 -0.001637 0.000000 -0.004023 0.000000
# 2 -0.000696 0.010982 -0.002224 0.000000 0.005299 0.000000
# 3 -0.001637 -0.002224 0.009849 0.000000 -0.001727 0.000000
# 4 0.000000 0.000000 0.000000 0.064122 0.000000 -0.025873
# 5 -0.004023 0.005299 -0.001727 0.000000 0.060990 0.000000
# 6 0.000000 0.000000 0.000000 -0.025873 0.000000 0.116418
#
#
# Mechanical properties :
#
#
# Convention : Reuss Voigt Hill
#
# Bulk Modulus (GPa) = 37.31661 39.81549 38.56605
# Shear Modulus (GPa) = 16.92114 24.63361 20.77737
#
# Velocity S-wave (km/s) = 2.94029 3.54764 3.25814
# Velocity P-wave (km/s) = 5.53107 6.09289 5.81877
#
# Compressibility (1/GPa) = 0.02679772
#
# Stress axis : x y z
#
# Youngs Moduli (GPa) = 66.30708 91.05945 101.53700
#
# Poissons Ratio (x) = 0.06340 0.16625
# Poissons Ratio (y) = 0.04616 0.22577
# Poissons Ratio (z) = 0.10857 0.20247
#
# Static dielectric constant tensor:
#      x y z
#    x 1.715100 0.000000 0.009390 
#    y 0.000000 1.688010 0.000000 
#    z 0.009390 0.000000 1.700630 
# 
# From -- ./inp_files/196480.got.cif
#   From: 2010.05.17/outbox.cif.g08.bks.cpg/sg12_99_cif.got.tgz:196480.got - 2010.06.03 13:09:07.
