data_PCOD9175724
_publ_section_title
;
Structure prediction by ZEFSAII (Michael W. Deem and Ramdas Pophale) SiO2 
 PCOD9175724
Probable space group: C 2/M
;
_chemical_formula_sum "Si O2"
_cell_formula_units_Z 56
_cell_length_a 9.107650
_cell_length_b 18.988011
_cell_length_c 22.193545
_cell_angle_alpha 90.000000
_cell_angle_beta 47.974331
_cell_angle_gamma 90.000000
_cell_volume 2851.088347
_symmetry_space_group_name_H-M "C 2/M"
_symmetry_group_IT_number 12
_symmetry_cell_setting 'monoclinic'
loop_
_space_group_symop_operation_xyz
x,y,z
-x,y,-z
-x,-y,-z
x,-y,z
1/2+x,1/2+y,z
1/2-x,1/2+y,-z
1/2-x,1/2-y,-z
1/2+x,1/2-y,z
loop_
_atom_site_type_symbol
_atom_site_label
_atom_site_fract_x
_atom_site_fract_y
_atom_site_fract_z
Si Si1 0.137447 0.079666 0.696463
Si Si2 0.388066 0.801240 0.817093
Si Si3 0.763791 0.677320 0.372224
Si Si4 0.300222 0.674898 0.016047
Si Si5 0.998931 0.156098 0.848129
Si Si6 0.110542 0.418586 0.560117
Si Si7 0.631473 0.678826 0.591934
O O1 0.059156 0.097317 0.784094
O O2 0.375082 0.088599 0.631181
O O3 0.058866 0.135642 0.670134
O O4 0.091425 0.000000 0.691278
O O5 0.579507 0.819795 0.725494
O O6 0.358897 0.843134 0.888636
O O7 0.197655 0.814572 0.826697
O O8 0.406280 0.720657 0.835170
O O9 0.795247 0.607840 0.403268
O O10 0.546219 0.683913 0.405992
O O11 0.805962 0.744379 0.403260
O O12 0.500000 0.682088 0.000000
O O13 0.250000 0.750000 0.000000
O O14 0.354841 0.630653 0.941621
O O15 0.156365 0.500000 0.533806
O O16 0.197061 0.367388 0.485529
#
# Coordination Sequence:
#
# PCOD9175724 Si02
#       7
#     8   8   8   8   8   8   8
#     4  11  23  40  61  82 114 157 197 240 292 347
#     4  10  18  33  56  87 117 145 182 234 287 337
#     4  12  23  39  63  88 118 150 193 244 291 343
#     4   8  16  28  51  82 116 144 176 227 281 339
#     4  10  18  34  56  85 119 145 189 231 286 345
#     4  11  25  44  61  82 116 157 196 240 293 348
#     4  12  25  40  60  88 116 150 199 247 292 342
#
# _framework density 19.641622000000002
#
# number of rings (size 3 to 8) (size 9 to 14) (size 15 to 20)
#    0.000    1.429    2.857    3.429    0.000    4.000 
#    0.000    0.000    0.000    4.714    0.000    1.000 
#    0.000    0.000    0.000    0.000    0.000    0.000 
#
# Total GULP energy -156330.101438 kJ/mol
# GULP energy per Si atom -5583.217908 kJ/mol
# Density = 1.959692 g / cm^3
# Si number density = 19.641622 Si / 1000 Ang^3
#
#
#
# Elastic Constant Matrix: (Units=GPa)
#
#
# Indices 1 2 3 4 5 6 
#
# 1 57.3064 7.7553 -9.8121 0.0005 9.2925 -0.0006
# 2 7.7553 34.1006 15.5469 -0.0001 -3.1866 -0.0002
# 3 -9.8121 15.5469 135.6739 0.0001 14.1874 -0.0004
# 4 0.0005 -0.0001 0.0001 11.1359 -0.0004 -10.6537
# 5 9.2925 -3.1866 14.1874 -0.0004 24.1390 0.0003
# 6 -0.0006 -0.0002 -0.0004 -10.6537 0.0003 5.2993
#
#
#
# Elastic Compliance Matrix: (Units=1/GPa)
#
#
# Indices 1 2 3 4 5 6 
#
# 1 0.020842 -0.007373 0.003509 -0.000001 -0.011059 0.000000
# 2 -0.007373 0.034560 -0.005612 0.000000 0.010699 -0.000001
# 3 0.003509 -0.005612 0.009042 -0.000001 -0.007406 0.000000
# 4 -0.000001 0.000000 -0.000001 -0.097255 0.000002 -0.195521
# 5 -0.011059 0.010699 -0.007406 0.000002 0.051449 -0.000001
# 6 0.000000 -0.000001 0.000000 -0.195521 -0.000001 -0.204370
#
#
# Mechanical properties :
#
#
# Convention : Reuss Voigt Hill
#
# Bulk Modulus (GPa) = 21.98253 28.22902 25.10577
# Shear Modulus (GPa) = -32.97835 22.35422 -5.31206
#
# Velocity S-wave (km/s) = -4.10201 3.37724 -1.64632
# Velocity P-wave (km/s) = 3.34951 5.44159 3.03247
#
# Compressibility (1/GPa) = 0.04549067
#
# Stress axis : x y z
#
# Youngs Moduli (GPa) = 47.98052 28.93495 110.59637
#
# Poissons Ratio (x) = 0.21334 -0.38803
# Poissons Ratio (y) = 0.35376 0.62070
# Poissons Ratio (z) = -0.16834 0.16239
#
# Static dielectric constant tensor:
#      x y z
#    x 1.674520 0.000000 0.007390 
#    y 0.000000 1.646490 0.000000 
#    z 0.007390 0.000000 1.772090 
# 
# From -- ./inp_files/301664.got.cif
#   From: 2010.05.17/outbox.cif.g08.bks.cpg/sg12_151_cif.got.tgz:301664.got - 2010.06.03 13:09:07.
