data_PCOD9175972
_publ_section_title
;
Structure prediction by ZEFSAII (Michael W. Deem and Ramdas Pophale) SiO2 
 PCOD9175972
Probable space group: C 2/M
;
_chemical_formula_sum "Si O2"
_cell_formula_units_Z 48
_cell_length_a 18.044606
_cell_length_b 12.743472
_cell_length_c 16.940063
_cell_angle_alpha 90.000000
_cell_angle_beta 154.553071
_cell_angle_gamma 90.000000
_cell_volume 1673.748337
_symmetry_space_group_name_H-M "C 2/M"
_symmetry_group_IT_number 12
_symmetry_cell_setting 'monoclinic'
loop_
_space_group_symop_operation_xyz
x,y,z
-x,y,-z
-x,-y,-z
x,-y,z
1/2+x,1/2+y,z
1/2-x,1/2+y,-z
1/2-x,1/2-y,-z
1/2+x,1/2-y,z
loop_
_atom_site_type_symbol
_atom_site_label
_atom_site_fract_x
_atom_site_fract_y
_atom_site_fract_z
Si Si1 0.698702 0.610006 0.663209
Si Si2 0.502067 0.116861 0.340041
Si Si3 0.253206 0.663508 0.772592
Si Si4 0.152155 0.620552 0.974410
Si Si5 0.958194 0.162238 0.827888
Si Si6 0.055505 0.843199 0.362909
O O1 0.500000 0.612523 0.500000
O O2 0.778409 0.500000 0.764520
O O3 0.777653 0.711975 0.779102
O O4 0.676285 0.610993 0.546876
O O5 0.419396 0.137628 0.346315
O O6 0.604657 0.220616 0.415629
O O7 0.570580 0.000000 0.398316
O O8 0.356767 0.123392 0.130013
O O9 0.292395 0.629164 0.721155
O O10 0.393331 0.623747 0.969825
O O11 0.106716 0.500000 0.952568
O O12 0.351935 0.642684 0.189399
O O13 0.024584 0.714865 0.879428
O O14 0.940212 0.119858 0.722640
#
# Coordination Sequence:
#
# PCOD9175972 Si02
#       6
#     8   8   8   8   8   8
#     4  11  23  38  61  90 118 153 196 246 304 359
#     4  10  19  35  60  86 111 152 204 248 287 341
#     4  11  21  39  57  87 126 157 195 247 301 353
#     4  10  18  33  61  90 113 148 202 248 292 348
#     4  10  21  36  61  83 124 161 196 244 300 345
#     4  11  19  39  61  86 120 156 199 247 294 354
#
# _framework density 28.678146999999999
#
# number of rings (size 3 to 8) (size 9 to 14) (size 15 to 20)
#    0.000    1.500    5.000    1.500    0.000    3.333 
#    0.000    6.667    0.000    0.000    0.000    0.000 
#    0.000    0.000    0.000    0.000    0.000    0.000 
#
# Total GULP energy -134259.267854 kJ/mol
# GULP energy per Si atom -5594.136161 kJ/mol
# Density = 2.861287 g / cm^3
# Si number density = 28.678147 Si / 1000 Ang^3
#
#
#
# Elastic Constant Matrix: (Units=GPa)
#
#
# Indices 1 2 3 4 5 6 
#
# 1 208.1082 10.9527 64.2224 0.0000 -32.2428 -0.0001
# 2 10.9527 198.4614 25.1812 -0.0002 -6.4801 -0.0004
# 3 64.2224 25.1812 136.4262 0.0000 -35.9501 -0.0002
# 4 0.0000 -0.0002 0.0000 -1.2184 -0.0001 -12.3015
# 5 -32.2428 -6.4801 -35.9501 -0.0001 79.7799 -0.0003
# 6 -0.0001 -0.0004 -0.0002 -12.3015 -0.0003 -18.3777
#
#
#
# Elastic Compliance Matrix: (Units=1/GPa)
#
#
# Indices 1 2 3 4 5 6 
#
# 1 0.005730 0.000026 -0.002373 0.000000 0.001248 0.000000
# 2 0.000026 0.005160 -0.000966 0.000000 -0.000006 0.000000
# 3 -0.002373 -0.000966 0.009477 0.000000 0.003233 0.000000
# 4 0.000000 0.000000 0.000000 0.142534 0.000000 -0.095408
# 5 0.001248 -0.000006 0.003233 0.000000 0.014495 0.000000
# 6 0.000000 0.000000 0.000000 -0.095408 0.000000 0.009450
#
#
# Mechanical properties :
#
#
# Convention : Reuss Voigt Hill
#
# Bulk Modulus (GPa) = 72.78010 82.63429 77.70719
# Shear Modulus (GPa) = 25.24579 41.54606 33.39593
#
# Velocity S-wave (km/s) = 2.97023 3.81031 3.41619
# Velocity P-wave (km/s) = 6.09888 6.94513 6.53572
#
# Compressibility (1/GPa) = 0.01374002
#
# Stress axis : x y z
#
# Youngs Moduli (GPa) = 174.53374 193.80884 105.51518
#
# Poissons Ratio (x) = -0.00497 0.25038
# Poissons Ratio (y) = -0.00448 0.10192
# Poissons Ratio (z) = 0.41416 0.18721
#
# Static dielectric constant tensor:
#      x y z
#    x 2.269990 0.000000 0.085480 
#    y 0.000000 2.220550 0.000000 
#    z 0.085480 0.000000 2.254920 
# 
# From -- ./inp_files/225470.got.cif
#   From: 2010.05.17/outbox.cif.g08.bks.cpg/sg12_113_cif.got.tgz:225470.got - 2010.06.03 13:09:07.
