data_PCOD9175605
_publ_section_title
;
Structure prediction by ZEFSAII (Michael W. Deem and Ramdas Pophale) SiO2 
 PCOD9175605
Probable space group: C 2/M
;
_chemical_formula_sum "Si O2"
_cell_formula_units_Z 56
_cell_length_a 29.158864
_cell_length_b 8.901546
_cell_length_c 14.561706
_cell_angle_alpha 90.000000
_cell_angle_beta 120.117237
_cell_angle_gamma 90.000000
_cell_volume 3269.374422
_symmetry_space_group_name_H-M "C 2/M"
_symmetry_group_IT_number 12
_symmetry_cell_setting 'monoclinic'
loop_
_space_group_symop_operation_xyz
x,y,z
-x,y,-z
-x,-y,-z
x,-y,z
1/2+x,1/2+y,z
1/2-x,1/2+y,-z
1/2-x,1/2-y,-z
1/2+x,1/2-y,z
loop_
_atom_site_type_symbol
_atom_site_label
_atom_site_fract_x
_atom_site_fract_y
_atom_site_fract_z
Si Si1 0.160618 0.668375 0.149202
Si Si2 0.202346 0.820608 0.512233
Si Si3 0.116860 0.324300 0.305376
Si Si4 0.604465 0.675781 0.935927
Si Si5 0.285851 0.325684 0.264806
Si Si6 0.695711 0.821444 0.904811
Si Si7 0.997688 0.681253 0.889280
O O1 0.140279 0.500000 0.103826
O O2 0.152175 0.684640 0.248637
O O3 0.222276 0.675488 0.188766
O O4 0.129183 0.791306 0.061121
O O5 0.250000 0.750000 0.500000
O O6 0.146869 0.771566 0.411487
O O7 0.203911 0.773911 0.620743
O O8 0.209051 0.000000 0.517018
O O9 0.115117 0.500000 0.331254
O O10 0.058294 0.277860 0.213650
O O11 0.602812 0.500000 0.914325
O O12 0.645208 0.757999 0.908770
O O13 0.546201 0.746292 0.883235
O O14 0.303271 0.500000 0.273051
O O15 0.308777 0.226730 0.205980
O O16 0.698959 0.000000 0.918352
O O17 0.750000 0.750000 0.000000
O O18 0.001767 0.500000 0.891328
O O19 0.000000 0.724846 0.000000
#
# Coordination Sequence:
#
# PCOD9175605 Si02
#       7
#     8   8   8   8   8   8   8
#     4  10  18  33  55  79 114 153 188 226 271 331
#     4  11  22  36  56  82 116 152 187 230 280 332
#     4  10  20  36  57  82 113 151 191 229 276 332
#     4  12  24  36  54  83 117 150 188 232 280 335
#     4  10  21  37  56  80 114 153 188 227 277 333
#     4  12  24  38  58  83 112 148 188 232 283 338
#     4  10  20  37  59  81 112 154 191 228 282 336
#
# _framework density 17.12866
#
# number of rings (size 3 to 8) (size 9 to 14) (size 15 to 20)
#    0.000    1.286    4.286    3.000    0.000    2.571 
#    0.000    0.000    0.000    0.857    0.000    6.000 
#    0.000    0.000    0.000    0.000    0.000    0.000 
#
# Total GULP energy -156354.914094 kJ/mol
# GULP energy per Si atom -5584.104075 kJ/mol
# Density = 1.708967 g / cm^3
# Si number density = 17.128660 Si / 1000 Ang^3
#
#
#
# Elastic Constant Matrix: (Units=GPa)
#
#
# Indices 1 2 3 4 5 6 
#
# 1 102.1102 47.5996 36.4725 0.0000 -2.6804 0.0000
# 2 47.5996 75.0738 37.4804 0.0000 -5.0780 0.0000
# 3 36.4725 37.4804 94.9805 0.0000 -2.5387 0.0000
# 4 0.0000 0.0000 0.0000 28.4716 0.0000 -0.2448
# 5 -2.6804 -5.0780 -2.5387 0.0000 24.8121 0.0000
# 6 0.0000 0.0000 0.0000 -0.2448 0.0000 28.0055
#
#
#
# Elastic Compliance Matrix: (Units=1/GPa)
#
#
# Indices 1 2 3 4 5 6 
#
# 1 0.014326 -0.007913 -0.002387 0.000000 -0.000316 0.000000
# 2 -0.007913 0.021146 -0.005227 0.000000 0.002938 0.000000
# 3 -0.002387 -0.005227 0.013509 0.000000 0.000055 0.000000
# 4 0.000000 0.000000 0.000000 0.035125 0.000000 0.000307
# 5 -0.000316 0.002938 0.000055 0.000000 0.040876 0.000000
# 6 0.000000 0.000000 0.000000 0.000307 0.000000 0.035710
#
#
# Mechanical properties :
#
#
# Convention : Reuss Voigt Hill
#
# Bulk Modulus (GPa) = 55.78308 57.25216 56.51762
# Shear Modulus (GPa) = 25.28785 26.29862 25.79323
#
# Velocity S-wave (km/s) = 3.84649 3.92261 3.88474
# Velocity P-wave (km/s) = 7.23638 7.34937 7.29309
#
# Compressibility (1/GPa) = 0.01792658
#
# Stress axis : x y z
#
# Youngs Moduli (GPa) = 69.80073 47.29058 74.02270
#
# Poissons Ratio (x) = 0.37422 0.17671
# Poissons Ratio (y) = 0.55234 0.38694
# Poissons Ratio (z) = 0.16663 0.24720
#
# Static dielectric constant tensor:
#      x y z
#    x 1.572680 0.000000 0.000920 
#    y 0.000000 1.588870 0.000000 
#    z 0.000920 0.000000 1.584730 
# 
# From -- ./inp_files/244337.got.cif
#   From: 2010.05.17/outbox.cif.g08.bks.cpg/sg12_123_cif.got.tgz:244337.got - 2010.06.03 13:09:07.
