data_PCOD9175267
_publ_section_title
;
Structure prediction by ZEFSAII (Michael W. Deem and Ramdas Pophale) SiO2 
 PCOD9175267
Probable space group: C 2/M
;
_chemical_formula_sum "Si O2"
_cell_formula_units_Z 44
_cell_length_a 25.308660
_cell_length_b 7.398126
_cell_length_c 13.142980
_cell_angle_alpha 90.000000
_cell_angle_beta 43.120826
_cell_angle_gamma 90.000000
_cell_volume 1682.085640
_symmetry_space_group_name_H-M "C 2/M"
_symmetry_group_IT_number 12
_symmetry_cell_setting 'monoclinic'
loop_
_space_group_symop_operation_xyz
x,y,z
-x,y,-z
-x,-y,-z
x,-y,z
1/2+x,1/2+y,z
1/2-x,1/2+y,-z
1/2-x,1/2-y,-z
1/2+x,1/2-y,z
loop_
_atom_site_type_symbol
_atom_site_label
_atom_site_fract_x
_atom_site_fract_y
_atom_site_fract_z
Si Si1 0.667856 0.703361 0.487713
Si Si2 0.052741 0.209212 0.297594
Si Si3 0.343848 0.285958 0.277341
Si Si4 0.126447 0.285418 0.981512
Si Si5 0.787816 0.783738 0.836192
Si Si6 0.084804 0.500000 0.488757
O O1 0.641253 0.500000 0.502931
O O2 0.628870 0.771230 0.648394
O O3 0.759650 0.698962 0.379012
O O4 0.649243 0.841721 0.426194
O O5 0.125354 0.285443 0.261767
O O6 0.982467 0.341645 0.413669
O O7 0.039285 0.000000 0.343201
O O8 0.076501 0.210940 0.144678
O O9 0.331990 0.500000 0.302895
O O10 0.394705 0.251640 0.105995
O O11 0.126454 0.500000 0.995794
O O12 0.215080 0.219531 0.870849
O O13 0.795872 0.000000 0.806280
O O14 0.750000 0.750000 0.000000
#
# Coordination Sequence:
#
# PCOD9175267 Si02
#       6
#     8   8   8   8   8   4
#     4  10  22  39  60  83 109 147 191 239 282 330
#     4  10  20  36  55  83 120 153 186 229 277 343
#     4  10  20  37  59  86 112 139 191 245 284 327
#     4  10  18  32  57  88 116 148 187 236 287 328
#     4   8  16  29  50  79 112 147 186 229 276 325
#     4  12  22  38  59  85 118 156 191 220 287 359
#
# _framework density 26.158000999999999
#
# number of rings (size 3 to 8) (size 9 to 14) (size 15 to 20)
#    0.000    2.182    1.818    1.636    3.818    0.727 
#    0.000    1.818    0.000    5.455    0.000    5.091 
#    0.000    0.000    0.000    0.000    0.000    0.000 
#
# Total GULP energy -122606.421692 kJ/mol
# GULP energy per Si atom -5573.019168 kJ/mol
# Density = 2.609846 g / cm^3
# Si number density = 26.158001 Si / 1000 Ang^3
#
#
#
# Elastic Constant Matrix: (Units=GPa)
#
#
# Indices 1 2 3 4 5 6 
#
# 1 33.2546 -9.4068 21.3729 0.0000 17.6305 -0.0002
# 2 -9.4068 129.7730 -18.9392 -0.0002 -17.2029 0.0002
# 3 21.3729 -18.9392 123.1890 -0.0002 26.1929 0.0001
# 4 0.0000 -0.0002 -0.0002 9.0413 0.0000 -26.2210
# 5 17.6305 -17.2029 26.1929 0.0000 68.7723 -0.0001
# 6 -0.0002 0.0002 0.0001 -26.2210 -0.0001 -0.7119
#
#
#
# Elastic Compliance Matrix: (Units=1/GPa)
#
#
# Indices 1 2 3 4 5 6 
#
# 1 0.037391 0.001022 -0.004729 0.000000 -0.007529 0.000000
# 2 0.001022 0.008085 0.000752 0.000000 0.001474 0.000000
# 3 -0.004729 0.000752 0.009528 0.000000 -0.002228 0.000000
# 4 0.000000 0.000000 0.000000 0.001026 0.000000 -0.037784
# 5 -0.007529 0.001474 -0.002228 0.000000 0.017688 0.000000
# 6 0.000000 0.000000 0.000000 -0.037784 0.000000 -0.013028
#
#
# Mechanical properties :
#
#
# Convention : Reuss Voigt Hill
#
# Bulk Modulus (GPa) = 20.36909 30.25226 25.31067
# Shear Modulus (GPa) = 60.26727 34.96634 47.61680
#
# Velocity S-wave (km/s) = 4.80518 3.66011 4.27119
# Velocity P-wave (km/s) = 6.21210 5.42698 5.83276
#
# Compressibility (1/GPa) = 0.04909399
#
# Stress axis : x y z
#
# Youngs Moduli (GPa) = 26.74426 123.68551 104.95897
#
# Poissons Ratio (x) = -0.12643 0.49638
# Poissons Ratio (y) = -0.02734 -0.07896
# Poissons Ratio (z) = 0.12648 -0.09305
#
# Static dielectric constant tensor:
#      x y z
#    x 2.095370 0.000000 0.099120 
#    y 0.000000 1.971040 0.000000 
#    z 0.099120 0.000000 2.104860 
# 
# From -- ./inp_files/236900.got.cif
#   From: 2010.05.17/outbox.cif.g08.bks.cpg/sg12_119_cif.got.tgz:236900.got - 2010.06.03 13:09:07.
