data_PCOD9175682
_publ_section_title
;
Structure prediction by ZEFSAII (Michael W. Deem and Ramdas Pophale) SiO2 
 PCOD9175682
Probable space group: C 2/M
;
_chemical_formula_sum "Si O2"
_cell_formula_units_Z 56
_cell_length_a 29.204337
_cell_length_b 15.134299
_cell_length_c 18.071886
_cell_angle_alpha 90.000000
_cell_angle_beta 163.092279
_cell_angle_gamma 90.000000
_cell_volume 2323.025769
_symmetry_space_group_name_H-M "C 2/M"
_symmetry_group_IT_number 12
_symmetry_cell_setting 'monoclinic'
loop_
_space_group_symop_operation_xyz
x,y,z
-x,y,-z
-x,-y,-z
x,-y,z
1/2+x,1/2+y,z
1/2-x,1/2+y,-z
1/2-x,1/2-y,-z
1/2+x,1/2-y,z
loop_
_atom_site_type_symbol
_atom_site_label
_atom_site_fract_x
_atom_site_fract_y
_atom_site_fract_z
Si Si1 0.763550 0.807144 0.716071
Si Si2 0.458094 0.400849 0.236238
Si Si3 0.106795 0.644552 0.331620
Si Si4 0.815894 0.284009 0.236332
Si Si5 0.358094 0.101404 0.839678
Si Si6 0.576960 0.646132 0.257234
Si Si7 0.844340 0.903949 0.309645
O O1 0.646567 0.854238 0.478970
O O2 0.703846 0.809836 0.708025
O O3 0.791632 0.704341 0.732939
O O4 0.927820 0.860521 0.972767
O O5 0.399619 0.500000 0.154809
O O6 0.534655 0.390110 0.273067
O O7 0.585873 0.387811 0.499287
O O8 0.307705 0.337302 0.004391
O O9 0.260488 0.611033 0.524456
O O10 0.090928 0.748073 0.286753
O O11 0.948023 0.601457 0.057531
O O12 0.760006 0.182403 0.149604
O O13 0.000000 0.291621 0.500000
O O14 0.288898 0.000000 0.724320
O O15 0.500000 0.103973 0.000000
O O16 0.000000 0.907306 0.500000
O O17 0.771498 0.000000 0.190552
#
# Coordination Sequence:
#
# PCOD9175682 Si02
#       7
#     8   8   8   8   8   8   8
#     4  10  19  35  57  81 111 148 190 234 282 337
#     4  10  21  38  59  85 118 155 194 238 293 351
#     4  10  18  33  56  81 110 148 186 224 276 338
#     4  10  22  38  61  86 113 151 198 245 294 348
#     4  10  21  35  54  85 119 148 183 230 283 339
#     4   9  18  31  53  81 111 147 186 225 274 341
#     4   9  19  36  58  84 112 145 191 243 290 340
#
# _framework density 24.106490999999998
#
# number of rings (size 3 to 8) (size 9 to 14) (size 15 to 20)
#    0.000    2.286    0.000    3.857    0.000    3.714 
#    0.000    6.429    0.000    8.571    0.000    0.000 
#    0.000    0.571    0.000    0.000    0.000    0.000 
#
# Total GULP energy -156405.144542 kJ/mol
# GULP energy per Si atom -5585.898019 kJ/mol
# Density = 2.405162 g / cm^3
# Si number density = 24.106491 Si / 1000 Ang^3
#
#
#
# Elastic Constant Matrix: (Units=GPa)
#
#
# Indices 1 2 3 4 5 6 
#
# 1 53.1555 4.5810 -17.6849 0.0000 7.5129 0.0000
# 2 4.5810 130.4082 54.1232 0.0000 -5.1003 0.0000
# 3 -17.6849 54.1232 100.3208 0.0000 -16.2593 0.0000
# 4 0.0000 0.0000 0.0000 59.2594 0.0000 -26.6717
# 5 7.5129 -5.1003 -16.2593 0.0000 39.3737 0.0000
# 6 0.0000 0.0000 0.0000 -26.6717 0.0000 54.0427
#
#
#
# Elastic Compliance Matrix: (Units=1/GPa)
#
#
# Indices 1 2 3 4 5 6 
#
# 1 0.021008 -0.002845 0.004854 0.000000 -0.002373 0.000000
# 2 -0.002845 0.010302 -0.006168 0.000000 -0.000670 0.000000
# 3 0.004854 -0.006168 0.014867 0.000000 0.004414 0.000000
# 4 0.000000 0.000000 0.000000 0.021694 0.000000 0.010707
# 5 -0.002373 -0.000670 0.004414 0.000000 0.027586 0.000000
# 6 0.000000 0.000000 0.000000 0.010707 0.000000 0.023788
#
#
# Mechanical properties :
#
#
# Convention : Reuss Voigt Hill
#
# Bulk Modulus (GPa) = 26.41448 40.65812 33.53630
# Shear Modulus (GPa) = 35.66765 46.72616 41.19691
#
# Velocity S-wave (km/s) = 3.85071 4.40742 4.13844
# Velocity P-wave (km/s) = 5.54544 6.54241 6.06444
#
# Compressibility (1/GPa) = 0.03785802
#
# Stress axis : x y z
#
# Youngs Moduli (GPa) = 47.60044 97.06969 67.26435
#
# Poissons Ratio (x) = 0.27619 -0.32649
# Poissons Ratio (y) = 0.13544 0.41489
# Poissons Ratio (z) = -0.23105 0.59872
#
# Static dielectric constant tensor:
#      x y z
#    x 2.050720 0.000000 0.074310 
#    y 0.000000 1.894010 0.000000 
#    z 0.074310 0.000000 2.007650 
# 
# From -- ./inp_files/296946.got.cif
#   From: 2010.05.17/outbox.cif.g08.bks.cpg/sg12_149_cif.got.tgz:296946.got - 2010.06.03 13:09:07.
