data_PCOD9175560
_publ_section_title
;
Structure prediction by ZEFSAII (Michael W. Deem and Ramdas Pophale) SiO2 
 PCOD9175560
Probable space group: C 2/M
;
_chemical_formula_sum "Si O2"
_cell_formula_units_Z 48
_cell_length_a 9.574472
_cell_length_b 13.846297
_cell_length_c 15.962539
_cell_angle_alpha 90.000000
_cell_angle_beta 104.169994
_cell_angle_gamma 90.000000
_cell_volume 2051.782247
_symmetry_space_group_name_H-M "C 2/M"
_symmetry_group_IT_number 12
_symmetry_cell_setting 'monoclinic'
loop_
_space_group_symop_operation_xyz
x,y,z
-x,y,-z
-x,-y,-z
x,-y,z
1/2+x,1/2+y,z
1/2-x,1/2+y,-z
1/2-x,1/2-y,-z
1/2+x,1/2-y,z
loop_
_atom_site_type_symbol
_atom_site_label
_atom_site_fract_x
_atom_site_fract_y
_atom_site_fract_z
Si Si1 0.687888 0.292363 0.405802
Si Si2 0.511243 0.892436 0.859947
Si Si3 0.039762 0.818981 0.133352
Si Si4 0.792780 0.108427 0.002129
Si Si5 0.460354 0.394549 0.292728
Si Si6 0.083232 0.688240 0.696396
O O1 0.750000 0.250000 0.500000
O O2 0.567067 0.376814 0.387082
O O3 0.818527 0.333513 0.368768
O O4 0.584937 0.207235 0.351800
O O5 0.422563 0.793712 0.855161
O O6 0.626886 0.887876 0.952600
O O7 0.587189 0.876897 0.779634
O O8 0.445451 0.000000 0.852467
O O9 0.053502 0.876373 0.221856
O O10 0.126964 0.869483 0.073120
O O11 0.871089 0.824010 0.080487
O O12 0.825566 0.000000 0.035395
O O13 0.395213 0.500000 0.283498
O O14 0.364689 0.298530 0.276425
#
# Coordination Sequence:
#
# PCOD9175560 Si02
#       6
#     8   8   8   8   8   8
#     4  10  20  38  61  85 117 148 186 237 295 347
#     4  10  21  36  54  79 113 152 188 233 288 343
#     4  10  18  33  54  81 111 144 192 238 280 327
#     4  10  19  31  56  83 112 147 194 237 280 337
#     4   9  19  34  59  83 113 151 195 236 287 341
#     4   9  21  36  61  83 116 149 191 233 290 340
#
# _framework density 23.394293999999999
#
# number of rings (size 3 to 8) (size 9 to 14) (size 15 to 20)
#    1.000    1.333    0.000    4.000    0.000    2.000 
#    0.000    5.000    0.000    4.000    0.000    0.000 
#    0.000    0.000    0.000    0.000    0.000    0.000 
#
# Total GULP energy -133667.640781 kJ/mol
# GULP energy per Si atom -5569.485033 kJ/mol
# Density = 2.334105 g / cm^3
# Si number density = 23.394294 Si / 1000 Ang^3
#
#
#
# Elastic Constant Matrix: (Units=GPa)
#
#
# Indices 1 2 3 4 5 6 
#
# 1 77.1536 -13.1995 35.5971 0.0000 9.4505 0.0000
# 2 -13.1995 138.7827 -0.3254 0.0000 13.8358 0.0000
# 3 35.5971 -0.3254 101.0925 0.0000 30.0389 0.0000
# 4 0.0000 0.0000 0.0000 19.9542 0.0000 7.1037
# 5 9.4505 13.8358 30.0389 0.0000 37.1518 0.0000
# 6 0.0000 0.0000 0.0000 7.1037 0.0000 5.2498
#
#
#
# Elastic Compliance Matrix: (Units=1/GPa)
#
#
# Indices 1 2 3 4 5 6 
#
# 1 0.015777 0.001499 -0.005518 0.000000 -0.000110 0.000000
# 2 0.001499 0.007724 0.000612 0.000000 -0.003753 0.000000
# 3 -0.005518 0.000612 0.015120 0.000000 -0.011050 0.000000
# 4 0.000000 0.000000 0.000000 0.096692 0.000000 -0.130835
# 5 -0.000110 -0.003753 -0.011050 0.000000 0.037276 0.000000
# 6 0.000000 0.000000 0.000000 -0.130835 0.000000 0.367517
#
#
# Mechanical properties :
#
#
# Convention : Reuss Voigt Hill
#
# Bulk Modulus (GPa) = 31.44028 40.13035 35.78531
# Shear Modulus (GPa) = 8.96826 32.13494 20.55160
#
# Velocity S-wave (km/s) = 1.96006 3.71026 2.96714
# Velocity P-wave (km/s) = 4.31172 5.96204 5.20273
#
# Compressibility (1/GPa) = 0.03180633
#
# Stress axis : x y z
#
# Youngs Moduli (GPa) = 63.38403 129.47366 66.13639
#
# Poissons Ratio (x) = -0.19402 0.36494
# Poissons Ratio (y) = -0.09498 -0.04049
# Poissons Ratio (z) = 0.34975 -0.07927
#
# Static dielectric constant tensor:
#      x y z
#    x 1.999210 0.000000 -0.007660 
#    y 0.000000 1.876910 0.000000 
#    z -0.007660 0.000000 1.907210 
# 
# From -- ./inp_files/212841.got.cif
#   From: 2010.05.17/outbox.cif.g08.bks.cpg/sg12_107_cif.got.tgz:212841.got - 2010.06.03 13:09:07.
