data_PCOD9175126
_publ_section_title
;
Structure prediction by ZEFSAII (Michael W. Deem and Ramdas Pophale) SiO2 
 PCOD9175126
Probable space group: C 2/M
;
_chemical_formula_sum "Si O2"
_cell_formula_units_Z 44
_cell_length_a 13.724342
_cell_length_b 9.819737
_cell_length_c 20.896891
_cell_angle_alpha 90.000000
_cell_angle_beta 47.479624
_cell_angle_gamma 90.000000
_cell_volume 2075.689433
_symmetry_space_group_name_H-M "C 2/M"
_symmetry_group_IT_number 12
_symmetry_cell_setting 'monoclinic'
loop_
_space_group_symop_operation_xyz
x,y,z
-x,y,-z
-x,-y,-z
x,-y,z
1/2+x,1/2+y,z
1/2-x,1/2+y,-z
1/2-x,1/2-y,-z
1/2+x,1/2-y,z
loop_
_atom_site_type_symbol
_atom_site_label
_atom_site_fract_x
_atom_site_fract_y
_atom_site_fract_z
Si Si1 0.279990 0.342344 0.386154
Si Si2 0.225668 0.842783 0.299890
Si Si3 0.579523 0.651832 0.547591
Si Si4 0.378352 0.338095 0.926879
Si Si5 0.707939 0.345138 0.166165
Si Si6 0.500000 0.767167 0.000000
O O1 0.253820 0.500000 0.382389
O O2 0.304326 0.253630 0.312676
O O3 0.395201 0.336295 0.387634
O O4 0.157953 0.271517 0.478064
O O5 0.215661 0.781383 0.233000
O O6 0.076152 0.845517 0.393085
O O7 0.274881 0.000000 0.276372
O O8 0.630800 0.500000 0.506275
O O9 0.352580 0.500000 0.937714
O O10 0.391089 0.297250 0.845969
O O11 0.250000 0.250000 0.000000
O O12 0.477801 0.310617 0.941772
O O13 0.667472 0.500000 0.197376
O O14 0.859863 0.342686 0.072740
#
# Coordination Sequence:
#
# PCOD9175126 Si02
#       6
#     8   8   8   8   8   4
#     4  10  20  34  54  80 106 134 172 216 261 305
#     4  10  20  35  53  74 103 140 178 211 253 311
#     4   9  19  35  54  75 104 141 175 209 254 312
#     4   9  18  33  53  77 103 132 169 212 260 311
#     4   9  19  34  52  75 104 139 175 212 257 314
#     4  10  18  32  56  80 103 132 173 222 267 304
#
# _framework density 21.197775
#
# number of rings (size 3 to 8) (size 9 to 14) (size 15 to 20)
#    0.000    2.545    0.000    1.636    0.000    5.818 
#    0.000    6.364    0.000    0.000    0.000    0.000 
#    0.000    0.000    0.000    0.000    0.000    0.000 
#
# Total GULP energy -122472.302014 kJ/mol
# GULP energy per Si atom -5566.922819 kJ/mol
# Density = 2.114953 g / cm^3
# Si number density = 21.197775 Si / 1000 Ang^3
#
#
#
# Elastic Constant Matrix: (Units=GPa)
#
#
# Indices 1 2 3 4 5 6 
#
# 1 127.4309 48.7825 43.9995 0.0000 42.4335 0.0000
# 2 48.7825 90.1765 25.9980 0.0000 22.7295 0.0000
# 3 43.9995 25.9980 63.1490 0.0000 33.0513 0.0000
# 4 0.0000 0.0000 0.0000 17.8592 0.0000 9.9305
# 5 42.4335 22.7295 33.0513 0.0000 60.9943 0.0000
# 6 0.0000 0.0000 0.0000 9.9305 0.0000 19.4868
#
#
#
# Elastic Compliance Matrix: (Units=1/GPa)
#
#
# Indices 1 2 3 4 5 6 
#
# 1 0.012655 -0.004342 -0.004563 0.000000 -0.004713 0.000000
# 2 -0.004342 0.014382 -0.002333 0.000000 -0.001074 0.000000
# 3 -0.004563 -0.002333 0.024929 0.000000 -0.009465 0.000000
# 4 0.000000 0.000000 0.000000 0.078133 0.000000 -0.039816
# 5 -0.004713 -0.001074 -0.009465 0.000000 0.025203 0.000000
# 6 0.000000 0.000000 0.000000 -0.039816 0.000000 0.071607
#
#
# Mechanical properties :
#
#
# Convention : Reuss Voigt Hill
#
# Bulk Modulus (GPa) = 33.91096 57.59073 45.75084
# Shear Modulus (GPa) = 19.28909 30.46651 24.87780
#
# Velocity S-wave (km/s) = 3.01982 3.79522 3.42951
# Velocity P-wave (km/s) = 5.30954 6.81412 6.10833
#
# Compressibility (1/GPa) = 0.02948900
#
# Stress axis : x y z
#
# Youngs Moduli (GPa) = 79.02314 69.53234 40.11423
#
# Poissons Ratio (x) = 0.30193 0.18303
# Poissons Ratio (y) = 0.34314 0.09359
# Poissons Ratio (z) = 0.36055 0.16223
#
# Static dielectric constant tensor:
#      x y z
#    x 1.816330 0.000000 0.059760 
#    y 0.000000 1.728960 0.000000 
#    z 0.059760 0.000000 1.852650 
# 
# From -- ./inp_files/308238.got.cif
#   From: 2010.05.17/outbox.cif.g08.bks.cpg/sg12_155_cif.got.tgz:308238.got - 2010.06.03 13:09:07.
