data_PCOD9175898
_publ_section_title
;
Structure prediction by ZEFSAII (Michael W. Deem and Ramdas Pophale) SiO2 
 PCOD9175898
Probable space group: C 2/M
;
_chemical_formula_sum "Si O2"
_cell_formula_units_Z 64
_cell_length_a 15.213285
_cell_length_b 25.943485
_cell_length_c 7.482311
_cell_angle_alpha 90.000000
_cell_angle_beta 96.348660
_cell_angle_gamma 90.000000
_cell_volume 2935.050093
_symmetry_space_group_name_H-M "C 2/M"
_symmetry_group_IT_number 12
_symmetry_cell_setting 'monoclinic'
loop_
_space_group_symop_operation_xyz
x,y,z
-x,y,-z
-x,-y,-z
x,-y,z
1/2+x,1/2+y,z
1/2-x,1/2+y,-z
1/2-x,1/2-y,-z
1/2+x,1/2-y,z
loop_
_atom_site_type_symbol
_atom_site_label
_atom_site_fract_x
_atom_site_fract_y
_atom_site_fract_z
Si Si1 0.361817 0.557884 0.784819
Si Si2 0.204119 0.942143 0.825862
Si Si3 0.999279 0.773449 0.714537
Si Si4 0.292410 0.864018 0.330060
Si Si5 0.290902 0.258052 0.709778
Si Si6 0.474725 0.839242 0.280904
Si Si7 0.534245 0.383929 0.706480
Si Si8 0.669855 0.146590 0.237596
O O1 0.363949 0.500000 0.708934
O O2 0.283200 0.593211 0.692910
O O3 0.457094 0.584235 0.785173
O O4 0.336740 0.554413 0.986420
O O5 0.284467 0.902332 0.840247
O O6 0.124344 0.914906 0.704149
O O7 0.225747 0.000000 0.768910
O O8 0.895342 0.770816 0.733655
O O9 0.044386 0.719987 0.780415
O O10 0.043097 0.826475 0.789727
O O11 0.000000 0.772358 0.500000
O O12 0.255984 0.810408 0.241036
O O13 0.386270 0.873120 0.253299
O O14 0.312784 0.856851 0.544678
O O15 0.250000 0.250000 0.500000
O O16 0.287270 0.202076 0.802818
O O17 0.500000 0.838135 0.500000
O O18 0.563698 0.854243 0.197173
O O19 0.500000 0.375573 0.500000
#
# Coordination Sequence:
#
# PCOD9175898 Si02
#       8
#     8   8   8   8   8   8   8   8
#     4  11  24  42  56  76 114 155 193 233 283 339
#     4  11  25  41  57  76 111 158 192 233 289 335
#     4   9  16  27  48  85 119 143 173 217 274 338
#     4  10  18  33  59  86 112 146 187 235 279 336
#     4   9  16  27  52  85 116 143 177 225 281 329
#     4   8  16  31  54  85 119 145 174 226 288 332
#     4  11  22  35  61  89 112 143 188 235 278 334
#     4   9  19  34  58  87 112 144 189 235 280 335
#
# _framework density 21.805420999999999
#
# number of rings (size 3 to 8) (size 9 to 14) (size 15 to 20)
#    0.000    2.250    1.250    3.750    7.000    3.500 
#    0.000    1.875    0.000    3.750    0.000    0.000 
#    0.000    0.000    0.000    0.000    0.000    0.000 
#
# Total GULP energy -178609.449741 kJ/mol
# GULP energy per Si atom -5581.545304 kJ/mol
# Density = 2.175579 g / cm^3
# Si number density = 21.805421 Si / 1000 Ang^3
#
#
#
# Elastic Constant Matrix: (Units=GPa)
#
#
# Indices 1 2 3 4 5 6 
#
# 1 98.3649 60.3637 -0.3915 0.0000 -12.4765 0.0000
# 2 60.3637 133.5595 -2.5655 0.0000 -11.0661 0.0000
# 3 -0.3915 -2.5655 27.6613 0.0000 -2.7690 0.0000
# 4 0.0000 0.0000 0.0000 23.1323 0.0000 -0.0679
# 5 -12.4765 -11.0661 -2.7690 0.0000 25.4215 0.0000
# 6 0.0000 0.0000 0.0000 -0.0679 0.0000 32.8281
#
#
#
# Elastic Compliance Matrix: (Units=1/GPa)
#
#
# Indices 1 2 3 4 5 6 
#
# 1 0.014534 -0.006199 0.000075 0.000000 0.004443 0.000000
# 2 -0.006199 0.010443 0.001043 0.000000 0.001617 0.000000
# 3 0.000075 0.001043 0.036699 0.000000 0.004488 0.000000
# 4 0.000000 0.000000 0.000000 0.043230 0.000000 0.000089
# 5 0.004443 0.001617 0.004488 0.000000 0.042710 0.000000
# 6 0.000000 0.000000 0.000000 0.000089 0.000000 0.030462
#
#
# Mechanical properties :
#
#
# Convention : Reuss Voigt Hill
#
# Bulk Modulus (GPa) = 19.41228 41.59991 30.50609
# Shear Modulus (GPa) = 24.34132 29.75498 27.04815
#
# Velocity S-wave (km/s) = 3.34473 3.69801 3.52580
# Velocity P-wave (km/s) = 4.88243 6.11170 5.53132
#
# Compressibility (1/GPa) = 0.05151379
#
# Stress axis : x y z
#
# Youngs Moduli (GPa) = 68.80197 95.75604 27.24894
#
# Poissons Ratio (x) = 0.59363 -0.00206
# Poissons Ratio (y) = 0.42653 -0.02841
# Poissons Ratio (z) = -0.00519 -0.09984
#
# Static dielectric constant tensor:
#      x y z
#    x 1.850080 0.000000 0.048160 
#    y 0.000000 1.843870 0.000000 
#    z 0.048160 0.000000 1.904260 
# 
# From -- ./inp_files/65900.got.cif
#   From: 2010.05.17/outbox.cif.g08.bks.cpg/sg12_33_cif.got.tgz:65900.got - 2010.06.03 13:09:07.
