data_PCOD9175038
_publ_section_title
;
Structure prediction by ZEFSAII (Michael W. Deem and Ramdas Pophale) SiO2 
 PCOD9175038
Probable space group: C 2/M
;
_chemical_formula_sum "Si O2"
_cell_formula_units_Z 56
_cell_length_a 20.182746
_cell_length_b 16.752822
_cell_length_c 14.873772
_cell_angle_alpha 90.000000
_cell_angle_beta 33.699478
_cell_angle_gamma 90.000000
_cell_volume 2790.324063
_symmetry_space_group_name_H-M "C 2/M"
_symmetry_group_IT_number 12
_symmetry_cell_setting 'monoclinic'
loop_
_space_group_symop_operation_xyz
x,y,z
-x,y,-z
-x,-y,-z
x,-y,z
1/2+x,1/2+y,z
1/2-x,1/2+y,-z
1/2-x,1/2-y,-z
1/2+x,1/2-y,z
loop_
_atom_site_type_symbol
_atom_site_label
_atom_site_fract_x
_atom_site_fract_y
_atom_site_fract_z
Si Si1 0.901506 0.817544 0.348019
Si Si2 0.018168 0.592740 0.088020
Si Si3 0.479084 0.907909 0.416050
Si Si4 0.250617 0.191755 0.642961
Si Si5 0.762357 0.590598 0.363576
Si Si6 0.879204 0.253837 0.810184
Si Si7 0.743126 0.809167 0.805892
O O1 0.867450 0.818216 0.282631
O O2 0.824443 0.755774 0.497942
O O3 0.848411 0.899387 0.446345
O O4 0.033824 0.796287 0.224690
O O5 0.042367 0.500000 0.086438
O O6 0.886883 0.622054 0.268111
O O7 0.000000 0.595477 0.000000
O O8 0.126986 0.652430 0.985665
O O9 0.500000 0.902861 0.500000
O O10 0.342617 0.880958 0.550384
O O11 0.564318 0.841186 0.273544
O O12 0.499673 0.000000 0.364568
O O13 0.219649 0.229118 0.774630
O O14 0.792417 0.500000 0.312488
O O15 0.732364 0.628746 0.301819
O O16 0.854847 0.209275 0.742873
O O17 0.750000 0.250000 0.000000
#
# Coordination Sequence:
#
# PCOD9175038 Si02
#       7
#     8   8   8   8   8   8   8
#     4   9  20  35  53  79 120 153 191 245 302 357
#     4   8  15  28  49  80 112 143 186 238 289 347
#     4  10  20  39  68  92 114 154 212 265 303 352
#     4   9  18  34  58  85 110 148 203 250 295 353
#     4   9  18  33  55  83 116 153 198 247 299 365
#     4  11  24  40  58  88 126 157 196 255 314 367
#     4  10  18  32  55  79 115 155 194 242 295 364
#
# _framework density 20.069354000000001
#
# number of rings (size 3 to 8) (size 9 to 14) (size 15 to 20)
#    0.000    2.571    1.429    1.286    0.000    7.429 
#    0.000    5.714    0.000    2.571    0.000    2.000 
#    0.000    0.000    0.000    0.000    0.000    0.000 
#
# Total GULP energy -156025.552284 kJ/mol
# GULP energy per Si atom -5572.341153 kJ/mol
# Density = 2.002368 g / cm^3
# Si number density = 20.069354 Si / 1000 Ang^3
#
#
#
# Elastic Constant Matrix: (Units=GPa)
#
#
# Indices 1 2 3 4 5 6 
#
# 1 136.7392 35.4483 33.5903 0.0000 -29.0084 0.0000
# 2 35.4483 90.1670 32.9555 0.0000 -20.3094 0.0000
# 3 33.5903 32.9555 77.2221 0.0000 -24.7477 0.0000
# 4 0.0000 0.0000 0.0000 26.0377 0.0000 -8.7182
# 5 -29.0084 -20.3094 -24.7477 0.0000 30.4815 0.0000
# 6 0.0000 0.0000 0.0000 -8.7182 0.0000 19.8490
#
#
#
# Elastic Compliance Matrix: (Units=1/GPa)
#
#
# Indices 1 2 3 4 5 6 
#
# 1 0.009530 -0.001753 -0.001169 0.000000 0.006952 0.000000
# 2 -0.001753 0.014233 -0.003794 0.000000 0.004734 0.000000
# 3 -0.001169 -0.003794 0.018803 0.000000 0.011625 0.000000
# 4 0.000000 0.000000 0.000000 0.045028 0.000000 0.019778
# 5 0.006952 0.004734 0.011625 0.000000 0.052015 0.000000
# 6 0.000000 0.000000 0.000000 0.019778 0.000000 0.059067
#
#
# Mechanical properties :
#
#
# Convention : Reuss Voigt Hill
#
# Bulk Modulus (GPa) = 34.32630 56.45739 45.39184
# Shear Modulus (GPa) = 22.54072 28.74923 25.64497
#
# Velocity S-wave (km/s) = 3.35497 3.78894 3.57854
# Velocity P-wave (km/s) = 5.66998 6.87994 6.30406
#
# Compressibility (1/GPa) = 0.02913218
#
# Stress axis : x y z
#
# Youngs Moduli (GPa) = 104.93508 70.25948 53.18267
#
# Poissons Ratio (x) = 0.12319 0.06218
# Poissons Ratio (y) = 0.18399 0.20179
# Poissons Ratio (z) = 0.12269 0.26658
#
# Static dielectric constant tensor:
#      x y z
#    x 1.764030 0.000000 0.027490 
#    y 0.000000 1.760290 0.000000 
#    z 0.027490 0.000000 1.784770 
# 
# From -- ./inp_files/234672.got.cif
#   From: 2010.05.17/outbox.cif.g08.bks.cpg/sg12_118_cif.got.tgz:234672.got - 2010.06.03 13:09:07.
