data_PCOD9175964
_publ_section_title
;
Structure prediction by ZEFSAII (Michael W. Deem and Ramdas Pophale) SiO2 
 PCOD9175964
Probable space group: C 2/M
;
_chemical_formula_sum "Si O2"
_cell_formula_units_Z 64
_cell_length_a 22.650339
_cell_length_b 18.192988
_cell_length_c 17.390578
_cell_angle_alpha 90.000000
_cell_angle_beta 149.485589
_cell_angle_gamma 90.000000
_cell_volume 3638.706436
_symmetry_space_group_name_H-M "C 2/M"
_symmetry_group_IT_number 12
_symmetry_cell_setting 'monoclinic'
loop_
_space_group_symop_operation_xyz
x,y,z
-x,y,-z
-x,-y,-z
x,-y,z
1/2+x,1/2+y,z
1/2-x,1/2+y,-z
1/2-x,1/2-y,-z
1/2+x,1/2-y,z
loop_
_atom_site_type_symbol
_atom_site_label
_atom_site_fract_x
_atom_site_fract_y
_atom_site_fract_z
Si Si1 0.907354 0.292081 0.610457
Si Si2 0.279537 0.915517 0.554872
Si Si3 0.306048 0.586268 0.092957
Si Si4 0.671411 0.802556 0.855162
Si Si5 0.512985 0.267628 0.140233
Si Si6 0.735673 0.194577 0.149730
Si Si7 0.724634 0.803215 0.312185
Si Si8 0.991769 0.083978 0.794376
O O1 0.852530 0.369646 0.574180
O O2 0.918745 0.247849 0.703275
O O3 0.823539 0.248041 0.459951
O O4 0.036823 0.297801 0.723476
O O5 0.291279 0.872368 0.648802
O O6 0.144408 0.914406 0.378602
O O7 0.317141 0.000000 0.603200
O O8 0.293456 0.500000 0.091377
O O9 0.277935 0.631126 0.138937
O O10 0.432791 0.601207 0.197778
O O11 0.219278 0.617581 0.930214
O O12 0.697331 0.768615 0.801322
O O13 0.750000 0.750000 0.000000
O O14 0.604840 0.243779 0.179044
O O15 0.481610 0.353439 0.112615
O O16 0.400003 0.215827 0.013703
O O17 0.754447 0.175302 0.259105
O O18 0.021912 0.000000 0.850871
#
# Coordination Sequence:
#
# PCOD9175964 Si02
#       8
#     8   8   8   8   8   8   8   8
#     4  11  19  36  59  81 105 148 198 231 264 322
#     4  10  21  36  57  84 115 146 183 230 278 328
#     4  10  20  35  58  83 108 146 190 227 271 334
#     4  10  19  35  58  79 104 147 195 229 266 321
#     4  11  17  38  59  78 111 147 192 231 265 323
#     4  11  22  36  56  83 120 146 177 230 287 329
#     4  11  23  34  56  88 113 147 183 228 281 340
#     4  10  18  33  61  86 104 137 189 238 272 315
#
# _framework density 17.588667999999998
#
# number of rings (size 3 to 8) (size 9 to 14) (size 15 to 20)
#    0.000    1.500    6.250    1.875    0.000    1.500 
#    0.000    0.000    0.000    8.250    0.000    1.750 
#    0.000    0.000    0.000    0.000    0.000    0.000 
#
# Total GULP energy -178431.678672 kJ/mol
# GULP energy per Si atom -5575.989959 kJ/mol
# Density = 1.754864 g / cm^3
# Si number density = 17.588668 Si / 1000 Ang^3
#
#
#
# Elastic Constant Matrix: (Units=GPa)
#
#
# Indices 1 2 3 4 5 6 
#
# 1 69.9805 36.9813 19.6397 0.0001 25.4895 0.0000
# 2 36.9813 117.0473 28.9626 0.0000 6.2464 0.0000
# 3 19.6397 28.9626 54.9006 0.0001 22.1176 0.0001
# 4 0.0001 0.0000 0.0001 17.5317 0.0000 5.6069
# 5 25.4895 6.2464 22.1176 0.0000 30.9523 0.0000
# 6 0.0000 0.0000 0.0001 5.6069 0.0000 22.9212
#
#
#
# Elastic Compliance Matrix: (Units=1/GPa)
#
#
# Indices 1 2 3 4 5 6 
#
# 1 0.025378 -0.007819 0.003974 0.000000 -0.022161 0.000000
# 2 -0.007819 0.012366 -0.007464 0.000000 0.009277 0.000000
# 3 0.003974 -0.007464 0.030110 0.000000 -0.023282 0.000000
# 4 0.000000 0.000000 0.000000 0.061881 0.000000 -0.015137
# 5 -0.022161 0.009277 -0.023282 0.000000 0.065322 0.000000
# 6 0.000000 0.000000 0.000000 -0.015137 0.000000 0.047330
#
#
# Mechanical properties :
#
#
# Convention : Reuss Voigt Hill
#
# Bulk Modulus (GPa) = 22.10576 45.89949 34.00263
# Shear Modulus (GPa) = 17.85183 24.70404 21.27793
#
# Velocity S-wave (km/s) = 3.18930 3.75179 3.48192
# Velocity P-wave (km/s) = 5.11446 6.70228 5.96147
#
# Compressibility (1/GPa) = 0.04523707
#
# Stress axis : x y z
#
# Youngs Moduli (GPa) = 39.40391 80.86845 33.21141
#
# Poissons Ratio (x) = 0.63231 -0.13199
# Poissons Ratio (y) = 0.30810 0.24788
# Poissons Ratio (z) = -0.15660 0.60358
#
# Static dielectric constant tensor:
#      x y z
#    x 1.626510 0.000000 0.012280 
#    y 0.000000 1.636420 0.000000 
#    z 0.012280 0.000000 1.604680 
# 
# From -- ./inp_files/290475.got.cif
#   From: 2010.05.17/outbox.cif.g08.bks.cpg/sg12_146_cif.got.tgz:290475.got - 2010.06.03 13:09:07.
