data_PCOD9175621
_publ_section_title
;
Structure prediction by ZEFSAII (Michael W. Deem and Ramdas Pophale) SiO2 
 PCOD9175621
Probable space group: C 2/M
;
_chemical_formula_sum "Si O2"
_cell_formula_units_Z 56
_cell_length_a 18.223705
_cell_length_b 19.399809
_cell_length_c 9.350638
_cell_angle_alpha 90.000000
_cell_angle_beta 69.237875
_cell_angle_gamma 90.000000
_cell_volume 3091.113508
_symmetry_space_group_name_H-M "C 2/M"
_symmetry_group_IT_number 12
_symmetry_cell_setting 'monoclinic'
loop_
_space_group_symop_operation_xyz
x,y,z
-x,y,-z
-x,-y,-z
x,-y,z
1/2+x,1/2+y,z
1/2-x,1/2+y,-z
1/2-x,1/2-y,-z
1/2+x,1/2-y,z
loop_
_atom_site_type_symbol
_atom_site_label
_atom_site_fract_x
_atom_site_fract_y
_atom_site_fract_z
Si Si1 0.908238 0.727264 0.591467
Si Si2 0.287836 0.818128 0.900313
Si Si3 0.210673 0.578509 0.844605
Si Si4 0.315457 0.170828 0.391380
Si Si5 0.888796 0.111858 0.651610
Si Si6 0.180978 0.172678 0.706105
Si Si7 0.044265 0.921932 0.698864
O O1 0.868572 0.698151 0.761605
O O2 0.872657 0.685699 0.483179
O O3 0.883809 0.807393 0.615233
O O4 0.000000 0.726306 0.500000
O O5 0.226456 0.843898 0.821254
O O6 0.250000 0.750000 0.000000
O O7 0.304104 0.874147 0.008934
O O8 0.187955 0.500000 0.881336
O O9 0.170462 0.611614 0.732496
O O10 0.304513 0.584448 0.754307
O O11 0.234302 0.154285 0.530799
O O12 0.317439 0.243765 0.305286
O O13 0.919025 0.076612 0.486105
O O14 0.954777 0.101622 0.729109
O O15 0.098120 0.133333 0.746933
O O16 0.046650 0.000000 0.756368
#
# Coordination Sequence:
#
# PCOD9175621 Si02
#       7
#     8   8   8   8   8   8   8
#     4  11  20  38  66  92 117 153 204 253 298 353
#     4  11  22  38  61  87 122 160 199 252 301 349
#     4  12  23  38  60  88 121 160 200 245 307 364
#     4  10  18  34  58  85 110 148 208 253 289 341
#     4  11  18  32  56  88 125 159 191 231 288 361
#     4  10  18  33  55  81 116 162 202 245 280 337
#     4  11  20  30  50  89 130 161 191 231 284 354
#
# _framework density 18.116448999999999
#
# number of rings (size 3 to 8) (size 9 to 14) (size 15 to 20)
#    0.000    1.143    7.143    2.571    0.000    0.571 
#    0.000    3.571    0.000    4.286    0.000    0.000 
#    0.000    0.000    0.000    0.000    0.000    0.000 
#
# Total GULP energy -156146.400984 kJ/mol
# GULP energy per Si atom -5576.657178 kJ/mol
# Density = 1.807521 g / cm^3
# Si number density = 18.116449 Si / 1000 Ang^3
#
#
#
# Elastic Constant Matrix: (Units=GPa)
#
#
# Indices 1 2 3 4 5 6 
#
# 1 18.8173 14.2900 6.8637 0.0000 13.5065 0.0000
# 2 14.2900 118.6821 53.3848 0.0000 21.4738 0.0000
# 3 6.8637 53.3848 80.2305 0.0000 10.4548 0.0000
# 4 0.0000 0.0000 0.0000 22.2064 0.0000 3.7574
# 5 13.5065 21.4738 10.4548 0.0000 18.9073 0.0000
# 6 0.0000 0.0000 0.0000 3.7574 0.0000 22.0018
#
#
#
# Elastic Compliance Matrix: (Units=1/GPa)
#
#
# Indices 1 2 3 4 5 6 
#
# 1 0.109208 0.001094 0.000277 0.000000 -0.079409 0.000000
# 2 0.001094 0.014066 -0.007834 0.000000 -0.012425 0.000000
# 3 0.000277 -0.007834 0.017802 0.000000 -0.001144 0.000000
# 4 0.000000 0.000000 0.000000 0.046372 0.000000 -0.007919
# 5 -0.079409 -0.012425 -0.001144 0.000000 0.124360 0.000000
# 6 0.000000 0.000000 0.000000 -0.007919 0.000000 0.046803
#
#
# Mechanical properties :
#
#
# Convention : Reuss Voigt Hill
#
# Bulk Modulus (GPa) = 7.80334 40.75631 24.27982
# Shear Modulus (GPa) = 12.06990 22.16921 17.11956
#
# Velocity S-wave (km/s) = 2.58396 3.50195 3.07738
# Velocity P-wave (km/s) = 3.63582 6.23676 5.10472
#
# Compressibility (1/GPa) = 0.12815027
#
# Stress axis : x y z
#
# Youngs Moduli (GPa) = 9.15686 71.09277 56.17291
#
# Poissons Ratio (x) = -0.07777 -0.01557
# Poissons Ratio (y) = -0.01002 0.44006
# Poissons Ratio (z) = -0.00254 0.55694
#
# Static dielectric constant tensor:
#      x y z
#    x 1.660020 0.000000 0.008570 
#    y 0.000000 1.629670 0.000000 
#    z 0.008570 0.000000 1.621430 
# 
# From -- ./inp_files/75853.got.cif
#   From: 2010.05.17/outbox.cif.g08.bks.cpg/sg12_38_cif.got.tgz:75853.got - 2010.06.03 13:09:07.
