data_PCOD9175330
_publ_section_title
;
Structure prediction by ZEFSAII (Michael W. Deem and Ramdas Pophale) SiO2 
 PCOD9175330
Probable space group: C 2/M
;
_chemical_formula_sum "Si O2"
_cell_formula_units_Z 64
_cell_length_a 12.577132
_cell_length_b 25.292875
_cell_length_c 23.908014
_cell_angle_alpha 90.000000
_cell_angle_beta 156.168365
_cell_angle_gamma 90.000000
_cell_volume 3072.973933
_symmetry_space_group_name_H-M "C 2/M"
_symmetry_group_IT_number 12
_symmetry_cell_setting 'monoclinic'
loop_
_space_group_symop_operation_xyz
x,y,z
-x,y,-z
-x,-y,-z
x,-y,z
1/2+x,1/2+y,z
1/2-x,1/2+y,-z
1/2-x,1/2-y,-z
1/2+x,1/2-y,z
loop_
_atom_site_type_symbol
_atom_site_label
_atom_site_fract_x
_atom_site_fract_y
_atom_site_fract_z
Si Si1 0.888821 0.855158 0.827876
Si Si2 0.539220 0.274377 0.452939
Si Si3 0.112104 0.657796 0.491916
Si Si4 0.939819 0.633236 0.033537
Si Si5 0.061237 0.258003 0.136846
Si Si6 0.154307 0.561951 0.789178
Si Si7 0.417338 0.937546 0.791956
Si Si8 0.651515 0.604452 0.482664
O O1 0.634432 0.853897 0.666498
O O2 0.870894 0.903653 0.861480
O O3 0.870207 0.799987 0.852840
O O4 0.135381 0.857317 0.904427
O O5 0.500000 0.270735 0.500000
O O6 0.700450 0.218761 0.521855
O O7 0.647538 0.333856 0.498781
O O8 0.261615 0.268143 0.285438
O O9 0.000000 0.653313 0.500000
O O10 0.316604 0.613561 0.569262
O O11 0.081789 0.690257 0.108852
O O12 0.029294 0.594339 0.125865
O O13 0.000000 0.614111 0.000000
O O14 0.750000 0.250000 0.000000
O O15 0.216869 0.500000 0.818459
O O16 0.093485 0.578677 0.823442
O O17 0.887042 0.573441 0.625573
O O18 0.118323 0.923513 0.632299
O O19 0.449016 0.000000 0.815399
#
# Coordination Sequence:
#
# PCOD9175330 Si02
#       8
#     8   8   8   8   8   8   8   8
#     4   9  21  41  63  91 125 164 213 255 314 376
#     4  10  18  32  58  93 126 162 207 262 318 380
#     4   9  20  34  56  88 127 165 198 246 307 383
#     4  11  24  42  63  90 127 170 210 259 313 381
#     4   9  19  40  59  91 131 171 211 254 319 390
#     4  10  22  42  66  93 124 161 209 270 325 376
#     4  11  24  41  64  91 122 164 213 263 317 371
#     4  11  20  35  61  93 125 158 204 260 325 380
#
# _framework density 20.826730000000001
#
# number of rings (size 3 to 8) (size 9 to 14) (size 15 to 20)
#    0.000    2.000    1.250    1.875    1.750    2.250 
#    6.750    1.250    0.000    1.875    0.000    0.000 
#    0.000    0.000    0.000    0.000    0.000    0.000 
#
# Total GULP energy -178377.228494 kJ/mol
# GULP energy per Si atom -5574.288390 kJ/mol
# Density = 2.077933 g / cm^3
# Si number density = 20.826730 Si / 1000 Ang^3
#
#
#
# Elastic Constant Matrix: (Units=GPa)
#
#
# Indices 1 2 3 4 5 6 
#
# 1 115.9311 54.0939 7.8064 -0.0003 -12.3375 0.0160
# 2 54.0939 81.0697 13.2345 -0.0227 -6.4842 0.0184
# 3 7.8064 13.2345 58.6421 -0.1672 2.5933 0.0728
# 4 -0.0003 -0.0227 -0.1672 6.2392 0.0176 17.3308
# 5 -12.3375 -6.4842 2.5933 0.0176 21.5607 0.0223
# 6 0.0160 0.0184 0.0728 17.3308 0.0223 13.1818
#
#
#
# Elastic Compliance Matrix: (Units=1/GPa)
#
#
# Indices 1 2 3 4 5 6 
#
# 1 0.013023 -0.008278 -0.000085 0.000004 0.004973 -0.000018
# 2 -0.008278 0.018463 -0.003117 0.000007 0.001190 -0.000010
# 3 -0.000085 -0.003117 0.017905 -0.000273 -0.003140 0.000270
# 4 0.000004 0.000007 -0.000273 -0.060431 0.000005 0.079453
# 5 0.004973 0.001190 -0.003140 0.000005 0.049962 -0.000081
# 6 -0.000018 -0.000010 0.000270 0.079453 -0.000081 -0.028601
#
#
# Mechanical properties :
#
#
# Convention : Reuss Voigt Hill
#
# Bulk Modulus (GPa) = 37.83616 45.10137 41.46876
# Shear Modulus (GPa) = 118.78354 20.23021 69.50688
#
# Velocity S-wave (km/s) = 7.56029 3.12004 5.78328
# Velocity P-wave (km/s) = 9.71685 5.88915 8.03428
#
# Compressibility (1/GPa) = 0.02642974
#
# Stress axis : x y z
#
# Youngs Moduli (GPa) = 76.78459 54.16279 55.84963
#
# Poissons Ratio (x) = 0.44837 0.00476
# Poissons Ratio (y) = 0.63564 0.17410
# Poissons Ratio (z) = 0.00655 0.16884
#
# Static dielectric constant tensor:
#      x y z
#    x 1.832260 -0.000010 0.066500 
#    y -0.000010 1.748920 -0.000040 
#    z 0.066500 -0.000040 1.803830 
# 
# From -- ./inp_files/337123.got.cif
#   From: 2010.05.17/outbox.cif.g08.bks.cpg/sg12_169_cif.got.tgz:337123.got - 2010.06.03 13:09:07.
