data_PCOD9175872
_publ_section_title
;
Structure prediction by ZEFSAII (Michael W. Deem and Ramdas Pophale) SiO2 
 PCOD9175872
Probable space group: C 2/M
;
_chemical_formula_sum "Si O2"
_cell_formula_units_Z 48
_cell_length_a 24.835139
_cell_length_b 8.464113
_cell_length_c 20.084801
_cell_angle_alpha 90.000000
_cell_angle_beta 146.494487
_cell_angle_gamma 90.000000
_cell_volume 2330.602489
_symmetry_space_group_name_H-M "C 2/M"
_symmetry_group_IT_number 12
_symmetry_cell_setting 'monoclinic'
loop_
_space_group_symop_operation_xyz
x,y,z
-x,y,-z
-x,-y,-z
x,-y,z
1/2+x,1/2+y,z
1/2-x,1/2+y,-z
1/2-x,1/2-y,-z
1/2+x,1/2-y,z
loop_
_atom_site_type_symbol
_atom_site_label
_atom_site_fract_x
_atom_site_fract_y
_atom_site_fract_z
Si Si1 0.231567 0.308574 0.796036
Si Si2 0.316266 0.192472 0.401308
Si Si3 0.162436 0.186610 0.864039
Si Si4 0.130816 0.191035 0.299895
Si Si5 0.455791 0.692285 0.025094
Si Si6 0.048402 0.311954 0.344452
O O1 0.230212 0.500000 0.795067
O O2 0.190760 0.254996 0.682295
O O3 0.175058 0.249978 0.802167
O O4 0.344554 0.256212 0.918520
O O5 0.220135 0.237926 0.344307
O O6 0.409119 0.242531 0.540499
O O7 0.316312 0.000000 0.399832
O O8 0.055907 0.237661 0.778937
O O9 0.168456 0.000000 0.870711
O O10 0.250000 0.250000 0.000000
O O11 0.125827 0.265927 0.367437
O O12 0.133143 0.000000 0.308341
O O13 0.030780 0.238885 0.159639
O O14 0.454382 0.500000 0.022807
O O15 0.500000 0.743353 0.000000
O O16 0.037904 0.500000 0.335400
#
# Coordination Sequence:
#
# PCOD9175872 Si02
#       6
#     8   8   8   8   8   8
#     4  10  19  36  62  91 122 158 200 245 290 347
#     4   9  19  35  59  89 123 163 205 243 291 356
#     4  12  26  45  65  87 115 151 195 247 304 362
#     4  10  18  33  58  89 122 159 203 249 297 350
#     4   9  15  27  54  87 114 143 186 236 285 341
#     4  11  23  39  58  85 121 163 206 248 294 349
#
# _framework density 20.595533
#
# number of rings (size 3 to 8) (size 9 to 14) (size 15 to 20)
#    0.000    1.833    1.667    3.500    0.000    2.000 
#    0.000    6.667    0.000    1.000    0.000    0.000 
#    0.000    0.000    0.000    0.000    0.000    0.000 
#
# Total GULP energy -134096.876648 kJ/mol
# GULP energy per Si atom -5587.369860 kJ/mol
# Density = 2.054866 g / cm^3
# Si number density = 20.595533 Si / 1000 Ang^3
#
#
#
# Elastic Constant Matrix: (Units=GPa)
#
#
# Indices 1 2 3 4 5 6 
#
# 1 102.9110 12.0447 29.4493 0.0000 -13.4194 0.0000
# 2 12.0447 30.2979 20.9245 0.0000 -5.2474 0.0000
# 3 29.4493 20.9245 112.2433 0.0000 -17.1122 0.0000
# 4 0.0000 0.0000 0.0000 7.6321 0.0000 0.8742
# 5 -13.4194 -5.2474 -17.1122 0.0000 32.7361 0.0000
# 6 0.0000 0.0000 0.0000 0.8742 0.0000 28.7368
#
#
#
# Elastic Compliance Matrix: (Units=1/GPa)
#
#
# Indices 1 2 3 4 5 6 
#
# 1 0.010966 -0.002483 -0.001945 0.000000 0.003081 0.000000
# 2 -0.002483 0.038648 -0.006263 0.000000 0.001903 0.000000
# 3 -0.001945 -0.006263 0.011205 0.000000 0.004056 0.000000
# 4 0.000000 0.000000 0.000000 0.131483 0.000000 -0.004000
# 5 0.003081 0.001903 0.004056 0.000000 0.034236 0.000000
# 6 0.000000 0.000000 0.000000 -0.004000 0.000000 0.034920
#
#
# Mechanical properties :
#
#
# Convention : Reuss Voigt Hill
#
# Bulk Modulus (GPa) = 25.35637 41.14326 33.24981
# Shear Modulus (GPa) = 16.89273 26.02326 21.45800
#
# Velocity S-wave (km/s) = 2.86704 3.55849 3.23131
# Velocity P-wave (km/s) = 4.82682 6.07486 5.48644
#
# Compressibility (1/GPa) = 0.03943782
#
# Stress axis : x y z
#
# Youngs Moduli (GPa) = 91.19165 25.87470 89.24249
#
# Poissons Ratio (x) = 0.06424 0.17354
# Poissons Ratio (y) = 0.22642 0.55894
# Poissons Ratio (z) = 0.17733 0.16206
#
# Static dielectric constant tensor:
#      x y z
#    x 1.725410 0.000000 -0.009260 
#    y 0.000000 1.707890 0.000000 
#    z -0.009260 0.000000 1.758150 
# 
# From -- ./inp_files/327340.got.cif
#   From: 2010.05.17/outbox.cif.g08.bks.cpg/sg12_164_cif.got.tgz:327340.got - 2010.06.03 13:09:07.
