data_PCOD9175058
_publ_section_title
;
Structure prediction by ZEFSAII (Michael W. Deem and Ramdas Pophale) SiO2 
 PCOD9175058
Probable space group: C 2/M
;
_chemical_formula_sum "Si O2"
_cell_formula_units_Z 44
_cell_length_a 19.572128
_cell_length_b 7.493853
_cell_length_c 18.794980
_cell_angle_alpha 90.000000
_cell_angle_beta 43.696685
_cell_angle_gamma 90.000000
_cell_volume 1904.420841
_symmetry_space_group_name_H-M "C 2/M"
_symmetry_group_IT_number 12
_symmetry_cell_setting 'monoclinic'
loop_
_space_group_symop_operation_xyz
x,y,z
-x,y,-z
-x,-y,-z
x,-y,z
1/2+x,1/2+y,z
1/2-x,1/2+y,-z
1/2-x,1/2-y,-z
1/2+x,1/2-y,z
loop_
_atom_site_type_symbol
_atom_site_label
_atom_site_fract_x
_atom_site_fract_y
_atom_site_fract_z
Si Si1 0.591439 0.782217 0.723313
Si Si2 0.783796 0.209229 0.655896
Si Si3 0.000000 0.252672 0.500000
Si Si4 0.253589 0.712697 0.155149
Si Si5 0.469461 0.218297 0.680012
Si Si6 0.463912 0.791134 0.951721
O O1 0.702268 0.729667 0.660993
O O2 0.547403 0.728326 0.680985
O O3 0.519112 0.718742 0.841067
O O4 0.590782 0.000000 0.723494
O O5 0.885918 0.315997 0.578666
O O6 0.737670 0.221125 0.769837
O O7 0.808701 0.000000 0.624991
O O8 0.988215 0.190034 0.590405
O O9 0.259059 0.500000 0.153221
O O10 0.143286 0.760257 0.212587
O O11 0.345619 0.777816 0.039940
O O12 0.474771 0.000000 0.664801
O O13 0.490923 0.000000 0.932925
O O14 0.500000 0.712530 0.000000
#
# Coordination Sequence:
#
# PCOD9175058 Si02
#       6
#     8   8   4   8   8   8
#     4   9  18  33  54  76 105 142 181 215 253 315
#     4  10  19  35  56  79 105 139 180 221 262 312
#     4  10  20  32  56  80 103 134 177 224 271 316
#     4  10  20  33  53  80 111 142 174 215 263 313
#     4   9  19  35  52  76 108 143 176 214 266 320
#     4  10  18  32  55  81 105 142 183 210 252 313
#
# _framework density 23.104137999999999
#
# number of rings (size 3 to 8) (size 9 to 14) (size 15 to 20)
#    0.000    2.364    1.818    1.091    0.000    2.545 
#    0.000    0.000    0.000   12.000    0.000    0.000 
#    0.000    0.000    0.000    0.000    0.000    0.000 
#
# Total GULP energy -122638.824118 kJ/mol
# GULP energy per Si atom -5574.492005 kJ/mol
# Density = 2.305155 g / cm^3
# Si number density = 23.104138 Si / 1000 Ang^3
#
#
#
# Elastic Constant Matrix: (Units=GPa)
#
#
# Indices 1 2 3 4 5 6 
#
# 1 227.4846 18.2616 73.1372 -0.0012 -4.0305 0.0004
# 2 18.2616 78.3776 8.2425 -0.0107 3.7947 0.0039
# 3 73.1372 8.2425 116.1933 -0.0006 -15.0488 0.0002
# 4 -0.0012 -0.0107 -0.0006 288.9660 0.0015 -85.0351
# 5 -4.0305 3.7947 -15.0488 0.0015 28.2996 -0.0005
# 6 0.0004 0.0039 0.0002 -85.0351 -0.0005 29.5843
#
#
#
# Elastic Compliance Matrix: (Units=1/GPa)
#
#
# Indices 1 2 3 4 5 6 
#
# 1 0.005604 -0.000880 -0.003594 0.000000 -0.000995 0.000000
# 2 -0.000880 0.013143 -0.000669 0.000000 -0.002243 -0.000002
# 3 -0.003594 -0.000669 0.011665 0.000000 0.005781 0.000000
# 4 0.000000 0.000000 0.000000 0.022449 0.000000 0.064525
# 5 -0.000995 -0.002243 0.005781 0.000000 0.038569 0.000001
# 6 0.000000 -0.000002 0.000000 0.064525 0.000001 0.219267
#
#
# Mechanical properties :
#
#
# Convention : Reuss Voigt Hill
#
# Bulk Modulus (GPa) = 49.68700 69.03756 59.36228
# Shear Modulus (GPa) = 15.25825 90.86424 53.06124
#
# Velocity S-wave (km/s) = 2.57264 6.27802 4.79750
# Velocity P-wave (km/s) = 5.51153 9.08280 7.51246
#
# Compressibility (1/GPa) = 0.02012599
#
# Stress axis : x y z
#
# Youngs Moduli (GPa) = 178.43057 76.08791 85.72773
#
# Poissons Ratio (x) = 0.06693 0.30812
# Poissons Ratio (y) = 0.15696 0.05737
# Poissons Ratio (z) = 0.64131 0.05092
#
# Static dielectric constant tensor:
#      x y z
#    x 1.840100 0.000000 -0.017300 
#    y 0.000000 1.992430 0.000000 
#    z -0.017300 0.000000 1.825110 
# 
# From -- ./inp_files/274853.got.cif
#   From: 2010.05.17/outbox.cif.g08.bks.cpg/sg12_138_cif.got.tgz:274853.got - 2010.06.03 13:09:07.
