data_PCOD9175567
_publ_section_title
;
Structure prediction by ZEFSAII (Michael W. Deem and Ramdas Pophale) SiO2 
 PCOD9175567
Probable space group: C 2/M
;
_chemical_formula_sum "Si O2"
_cell_formula_units_Z 64
_cell_length_a 19.869717
_cell_length_b 18.976973
_cell_length_c 11.076466
_cell_angle_alpha 90.000000
_cell_angle_beta 123.344707
_cell_angle_gamma 90.000000
_cell_volume 3489.018277
_symmetry_space_group_name_H-M "C 2/M"
_symmetry_group_IT_number 12
_symmetry_cell_setting 'monoclinic'
loop_
_space_group_symop_operation_xyz
x,y,z
-x,y,-z
-x,-y,-z
x,-y,z
1/2+x,1/2+y,z
1/2-x,1/2+y,-z
1/2-x,1/2-y,-z
1/2+x,1/2-y,z
loop_
_atom_site_type_symbol
_atom_site_label
_atom_site_fract_x
_atom_site_fract_y
_atom_site_fract_z
Si Si1 0.311795 0.816422 0.468812
Si Si2 0.041957 0.790915 0.417914
Si Si3 0.626494 0.306005 0.837736
Si Si4 0.468631 0.918853 0.847323
Si Si5 0.123956 0.080887 0.627282
Si Si6 0.771261 0.763035 0.839352
Si Si7 0.548222 0.915584 0.428904
Si Si8 0.292655 0.129796 0.709852
O O1 0.380041 0.755057 0.535979
O O2 0.246489 0.803080 0.302006
O O3 0.362687 0.884881 0.480237
O O4 0.278968 0.828840 0.570388
O O5 0.000000 0.763744 0.500000
O O6 0.071711 0.869326 0.485849
O O7 0.968360 0.787895 0.251435
O O8 0.626401 0.378176 0.758629
O O9 0.684037 0.253396 0.815572
O O10 0.670669 0.302564 0.010084
O O11 0.488997 0.889063 0.735320
O O12 0.372493 0.914920 0.766201
O O13 0.497242 0.000000 0.875075
O O14 0.500000 0.883255 0.000000
O O15 0.214729 0.085447 0.666555
O O16 0.097930 0.000000 0.609735
O O17 0.804444 0.686998 0.828383
O O18 0.500000 0.895325 0.500000
O O19 0.550126 0.000000 0.424545
#
# Coordination Sequence:
#
# PCOD9175567 Si02
#       8
#     8   8   8   8   8   8   8   8
#     4  11  19  33  58  77 111 143 181 225 264 326
#     4  10  18  33  54  84 107 137 184 228 272 322
#     4   9  20  35  52  81 112 135 178 223 284 326
#     4   9  18  33  50  74 107 142 182 227 268 320
#     4  10  20  36  58  81 106 143 190 236 276 322
#     4  10  19  34  52  78 111 140 168 223 273 332
#     4   9  19  33  49  74 105 143 185 220 265 322
#     4  10  20  33  54  79 109 142 185 217 273 326
#
# _framework density 18.343268999999999
#
# number of rings (size 3 to 8) (size 9 to 14) (size 15 to 20)
#    0.000    2.250    3.750    1.125    0.000    4.750 
#    4.500    0.625    0.000    0.000    0.000    0.875 
#    0.000    0.000    0.000    0.000    0.000    0.000 
#
# Total GULP energy -178213.880925 kJ/mol
# GULP energy per Si atom -5569.183779 kJ/mol
# Density = 1.830152 g / cm^3
# Si number density = 18.343269 Si / 1000 Ang^3
#
#
#
# Elastic Constant Matrix: (Units=GPa)
#
#
# Indices 1 2 3 4 5 6 
#
# 1 68.3502 8.7684 28.5787 0.0000 -4.7749 0.0000
# 2 8.7684 77.0637 35.2386 0.0000 2.3188 0.0000
# 3 28.5787 35.2386 132.9724 0.0000 -0.7031 0.0000
# 4 0.0000 0.0000 0.0000 0.4677 0.0000 5.7584
# 5 -4.7749 2.3188 -0.7031 0.0000 26.0757 0.0000
# 6 0.0000 0.0000 0.0000 5.7584 0.0000 18.7319
#
#
#
# Elastic Compliance Matrix: (Units=1/GPa)
#
#
# Indices 1 2 3 4 5 6 
#
# 1 0.016300 -0.000396 -0.003383 0.000000 0.002929 0.000000
# 2 -0.000396 0.014828 -0.003852 0.000000 -0.001495 0.000000
# 3 -0.003383 -0.003852 0.009268 0.000000 -0.000027 0.000000
# 4 0.000000 0.000000 0.000000 -0.767744 0.000000 0.236012
# 5 0.002929 -0.001495 -0.000027 0.000000 0.039018 0.000000
# 6 0.000000 0.000000 0.000000 0.236012 0.000000 -0.019168
#
#
# Mechanical properties :
#
#
# Convention : Reuss Voigt Hill
#
# Bulk Modulus (GPa) = 39.78651 47.06197 43.42424
# Shear Modulus (GPa) = -7.31148 22.77509 7.73181
#
# Velocity S-wave (km/s) = -1.99864 3.52746 2.05529
# Velocity P-wave (km/s) = 4.05105 6.50405 5.41819
#
# Compressibility (1/GPa) = 0.02513415
#
# Stress axis : x y z
#
# Youngs Moduli (GPa) = 61.34821 67.44076 107.89627
#
# Poissons Ratio (x) = 0.02670 0.36500
# Poissons Ratio (y) = 0.02429 0.41565
# Poissons Ratio (z) = 0.20754 0.25980
#
# Static dielectric constant tensor:
#      x y z
#    x 1.647920 0.000000 -0.008310 
#    y 0.000000 1.661040 0.000000 
#    z -0.008310 0.000000 1.667070 
# 
# From -- ./inp_files/177138.got.cif
#   From: 2010.05.17/outbox.cif.g08.bks.cpg/sg12_89_cif.got.tgz:177138.got - 2010.06.03 13:09:07.
