data_PCOD9175463
_publ_section_title
;
Structure prediction by ZEFSAII (Michael W. Deem and Ramdas Pophale) SiO2 
 PCOD9175463
Probable space group: C 2/M
;
_chemical_formula_sum "Si O2"
_cell_formula_units_Z 56
_cell_length_a 7.756607
_cell_length_b 25.507795
_cell_length_c 15.159674
_cell_angle_alpha 90.000000
_cell_angle_beta 52.374786
_cell_angle_gamma 90.000000
_cell_volume 2375.588962
_symmetry_space_group_name_H-M "C 2/M"
_symmetry_group_IT_number 12
_symmetry_cell_setting 'monoclinic'
loop_
_space_group_symop_operation_xyz
x,y,z
-x,y,-z
-x,-y,-z
x,-y,z
1/2+x,1/2+y,z
1/2-x,1/2+y,-z
1/2-x,1/2-y,-z
1/2+x,1/2-y,z
loop_
_atom_site_type_symbol
_atom_site_label
_atom_site_fract_x
_atom_site_fract_y
_atom_site_fract_z
Si Si1 0.833396 0.088720 0.975497
Si Si2 0.634141 0.739489 0.381430
Si Si3 0.436730 0.635362 0.682398
Si Si4 0.014657 0.590295 0.216178
Si Si5 0.664511 0.442294 0.729453
Si Si6 0.756042 0.806600 0.910166
Si Si7 0.896195 0.292671 0.776303
O O1 0.602378 0.072643 0.091647
O O2 0.846611 0.151110 0.950561
O O3 0.000000 0.074652 0.000000
O O4 0.938334 0.062442 0.856472
O O5 0.500000 0.766416 0.500000
O O6 0.503230 0.686383 0.394373
O O7 0.863711 0.716076 0.338886
O O8 0.725289 0.776717 0.274727
O O9 0.631123 0.602154 0.665194
O O10 0.310647 0.665859 0.800092
O O11 0.247014 0.597913 0.700221
O O12 0.136713 0.563955 0.261833
O O13 0.115447 0.648537 0.191419
O O14 0.680140 0.500000 0.685027
O O15 0.833531 0.746984 0.873782
O O16 0.500000 0.805996 0.000000
#
# Coordination Sequence:
#
# PCOD9175463 Si02
#       7
#     8   8   8   8   8   8   8
#     4   9  19  31  50  73 112 151 195 234 270 325
#     4  10  21  39  59  83 116 150 193 238 290 347
#     4   9  20  38  56  82 112 150 194 237 287 347
#     4  10  20  36  52  78 118 149 190 237 278 334
#     4  10  22  37  57  81 111 151 196 243 293 337
#     4  10  18  33  52  77 120 160 194 226 275 335
#     4  10  23  33  53  87 114 156 195 229 282 345
#
# _framework density 23.573101999999999
#
# number of rings (size 3 to 8) (size 9 to 14) (size 15 to 20)
#    0.000    2.286    1.429    0.429    8.000    5.429 
#    0.000    0.714    0.000    0.429    0.000    4.000 
#    0.000    0.000    0.000    0.000    0.000    0.000 
#
# Total GULP energy -156070.188705 kJ/mol
# GULP energy per Si atom -5573.935311 kJ/mol
# Density = 2.351945 g / cm^3
# Si number density = 23.573102 Si / 1000 Ang^3
#
#
#
# Elastic Constant Matrix: (Units=GPa)
#
#
# Indices 1 2 3 4 5 6 
#
# 1 54.8503 5.0952 -4.7176 0.0000 3.6528 0.0000
# 2 5.0952 80.9908 -18.0659 0.0000 3.1524 0.0000
# 3 -4.7176 -18.0659 29.2888 0.0000 5.8266 0.0000
# 4 0.0000 0.0000 0.0000 4.5416 0.0000 -2.9906
# 5 3.6528 3.1524 5.8266 0.0000 22.1705 0.0000
# 6 0.0000 0.0000 0.0000 -2.9906 0.0000 13.7514
#
#
#
# Elastic Compliance Matrix: (Units=1/GPa)
#
#
# Indices 1 2 3 4 5 6 
#
# 1 0.018840 -0.000198 0.003719 0.000000 -0.004053 0.000000
# 2 -0.000198 0.014777 0.010018 0.000000 -0.004701 0.000000
# 3 0.003719 0.010018 0.043606 0.000000 -0.013497 0.000000
# 4 0.000000 0.000000 0.000000 0.256987 0.000000 0.055889
# 5 -0.004053 -0.004701 -0.013497 0.000000 0.049989 0.000000
# 6 0.000000 0.000000 0.000000 0.055889 0.000000 0.084875
#
#
# Mechanical properties :
#
#
# Convention : Reuss Voigt Hill
#
# Bulk Modulus (GPa) = 9.58761 14.41703 12.00232
# Shear Modulus (GPa) = 10.48741 20.28058 15.38399
#
# Velocity S-wave (km/s) = 2.11153 2.93632 2.55739
# Velocity P-wave (km/s) = 3.16556 4.19822 3.71792
#
# Compressibility (1/GPa) = 0.10430124
#
# Stress axis : x y z
#
# Youngs Moduli (GPa) = 53.07974 67.67171 22.93247
#
# Poissons Ratio (x) = 0.01339 -0.08528
# Poissons Ratio (y) = 0.01051 -0.22974
# Poissons Ratio (z) = -0.19739 -0.67795
#
# Static dielectric constant tensor:
#      x y z
#    x 2.071520 0.000000 0.082320 
#    y 0.000000 1.938350 0.000000 
#    z 0.082320 0.000000 1.899130 
# 
# From -- ./inp_files/259162.got.cif
#   From: 2010.05.17/outbox.cif.g08.bks.cpg/sg12_130_cif.got.tgz:259162.got - 2010.06.03 13:09:07.
