data_PCOD9175209
_publ_section_title
;
Structure prediction by ZEFSAII (Michael W. Deem and Ramdas Pophale) SiO2 
 PCOD9175209
Probable space group: C 2/M
;
_chemical_formula_sum "Si O2"
_cell_formula_units_Z 52
_cell_length_a 28.912866
_cell_length_b 17.224781
_cell_length_c 6.656473
_cell_angle_alpha 90.000000
_cell_angle_beta 66.960420
_cell_angle_gamma 90.000000
_cell_volume 3050.616678
_symmetry_space_group_name_H-M "C 2/M"
_symmetry_group_IT_number 12
_symmetry_cell_setting 'monoclinic'
loop_
_space_group_symop_operation_xyz
x,y,z
-x,y,-z
-x,-y,-z
x,-y,z
1/2+x,1/2+y,z
1/2-x,1/2+y,-z
1/2-x,1/2-y,-z
1/2+x,1/2-y,z
loop_
_atom_site_type_symbol
_atom_site_label
_atom_site_fract_x
_atom_site_fract_y
_atom_site_fract_z
Si Si1 0.000000 0.210831 0.000000
Si Si2 0.746207 0.831252 0.628768
Si Si3 0.354077 0.331969 0.543252
Si Si4 0.339535 0.908639 0.492393
Si Si5 0.327674 0.803651 0.894784
Si Si6 0.459225 0.588550 0.389820
Si Si7 0.897923 0.291911 0.153476
O O1 0.019553 0.153137 0.795777
O O2 0.045875 0.265566 0.981811
O O3 0.750000 0.750000 0.500000
O O4 0.801286 0.868451 0.561418
O O5 0.707160 0.883617 0.570937
O O6 0.722388 0.810871 0.886024
O O7 0.337526 0.274289 0.750673
O O8 0.401320 0.384899 0.528732
O O9 0.372258 0.278102 0.325423
O O10 0.330368 0.871749 0.726555
O O11 0.387712 0.866175 0.311303
O O12 0.344827 0.000000 0.491042
O O13 0.370618 0.806503 0.990407
O O14 0.500000 0.588363 0.500000
O O15 0.457805 0.500000 0.312381
#
# Coordination Sequence:
#
# PCOD9175209 Si02
#       7
#     4   8   8   8   8   8   8
#     4  10  19  36  61  82  98 138 188 226 271 312
#     4  11  19  34  57  82 108 142 185 227 261 312
#     4  10  19  32  54  80 107 143 186 226 258 314
#     4  10  22  36  51  78 112 142 173 217 275 329
#     4  10  18  32  57  77 104 145 179 220 267 315
#     4  10  21  36  53  79 115 146 177 223 274 321
#     4   9  19  34  56  80 103 135 182 226 262 316
#
# _framework density 17.045732999999998
#
# number of rings (size 3 to 8) (size 9 to 14) (size 15 to 20)
#    0.000    2.000    4.615    1.615    0.000    3.077 
#    0.000    0.385    0.000    0.923    0.000    0.000 
#    0.000    0.000    0.000    0.000    0.000    0.000 
#
# Total GULP energy -144816.186230 kJ/mol
# GULP energy per Si atom -5569.853317 kJ/mol
# Density = 1.700694 g / cm^3
# Si number density = 17.045733 Si / 1000 Ang^3
#
#
#
# Elastic Constant Matrix: (Units=GPa)
#
#
# Indices 1 2 3 4 5 6 
#
# 1 131.0958 45.0690 43.4793 0.0000 -17.9422 0.0000
# 2 45.0690 95.4065 31.9371 0.0000 -5.7927 0.0000
# 3 43.4793 31.9371 84.0876 0.0000 0.1765 0.0000
# 4 0.0000 0.0000 0.0000 18.1457 0.0000 14.5040
# 5 -17.9422 -5.7927 0.1765 0.0000 29.2791 0.0000
# 6 0.0000 0.0000 0.0000 14.5040 0.0000 38.3915
#
#
#
# Elastic Compliance Matrix: (Units=1/GPa)
#
#
# Indices 1 2 3 4 5 6 
#
# 1 0.011120 -0.003379 -0.004480 0.000000 0.006173 0.000000
# 2 -0.003379 0.013206 -0.003270 0.000000 0.000562 0.000000
# 3 -0.004480 -0.003270 0.015458 0.000000 -0.003485 0.000000
# 4 0.000000 0.000000 0.000000 0.078950 0.000000 -0.029827
# 5 0.006173 0.000562 -0.003485 0.000000 0.038069 0.000000
# 6 0.000000 0.000000 0.000000 -0.029827 0.000000 0.037316
#
#
# Mechanical properties :
#
#
# Convention : Reuss Voigt Hill
#
# Bulk Modulus (GPa) = 57.05243 61.28452 59.16848
# Shear Modulus (GPa) = 22.50035 29.83688 26.16861
#
# Velocity S-wave (km/s) = 3.63712 4.18832 3.92241
# Velocity P-wave (km/s) = 7.15409 7.70846 7.43645
#
# Compressibility (1/GPa) = 0.01752774
#
# Stress axis : x y z
#
# Youngs Moduli (GPa) = 89.92701 75.72156 64.69173
#
# Poissons Ratio (x) = 0.25584 0.28979
# Poissons Ratio (y) = 0.30384 0.21154
# Poissons Ratio (z) = 0.40284 0.24761
#
# Static dielectric constant tensor:
#      x y z
#    x 1.607640 0.000000 -0.010000 
#    y 0.000000 1.553320 0.000000 
#    z -0.010000 0.000000 1.579730 
# 
# From -- ./inp_files/28461.got.cif
#   From: 2010.05.17/outbox.cif.g08.bks.cpg/sg12_15_cif.got.tgz:28461.got - 2010.06.03 13:09:07.
