data_PCOD9175751
_publ_section_title
;
Structure prediction by ZEFSAII (Michael W. Deem and Ramdas Pophale) SiO2 
 PCOD9175751
Probable space group: C 2/M
;
_chemical_formula_sum "Si O2"
_cell_formula_units_Z 64
_cell_length_a 20.866015
_cell_length_b 8.326697
_cell_length_c 25.311385
_cell_angle_alpha 90.000000
_cell_angle_beta 126.264910
_cell_angle_gamma 90.000000
_cell_volume 3545.845737
_symmetry_space_group_name_H-M "C 2/M"
_symmetry_group_IT_number 12
_symmetry_cell_setting 'monoclinic'
loop_
_space_group_symop_operation_xyz
x,y,z
-x,y,-z
-x,-y,-z
x,-y,z
1/2+x,1/2+y,z
1/2-x,1/2+y,-z
1/2-x,1/2-y,-z
1/2+x,1/2-y,z
loop_
_atom_site_type_symbol
_atom_site_label
_atom_site_fract_x
_atom_site_fract_y
_atom_site_fract_z
Si Si1 0.742889 0.194237 0.163204
Si Si2 0.471459 0.805683 0.176320
Si Si3 0.033197 0.304037 0.322441
Si Si4 0.707473 0.691606 0.926535
Si Si5 0.129037 0.305957 0.198119
Si Si6 0.786499 0.308095 0.572528
Si Si7 0.267470 0.807660 0.343400
Si Si8 0.618628 0.194031 0.691570
O O1 0.749946 0.251762 0.106562
O O2 0.667451 0.248458 0.161435
O O3 0.820429 0.249915 0.233334
O O4 0.742238 0.000000 0.162599
O O5 0.500041 0.755461 0.248847
O O6 0.384364 0.743180 0.120925
O O7 0.540401 0.752600 0.169381
O O8 0.468459 0.000000 0.174494
O O9 0.034976 0.500000 0.323212
O O10 0.122744 0.247778 0.375775
O O11 0.969396 0.252035 0.335360
O O12 0.711011 0.500000 0.927383
O O13 0.750000 0.750000 0.000000
O O14 0.128701 0.500000 0.198174
O O15 0.189798 0.252076 0.273609
O O16 0.789052 0.500000 0.573572
O O17 0.750000 0.250000 0.500000
O O18 0.736777 0.253415 0.599223
O O19 0.343022 0.752699 0.345187
O O20 0.266648 0.000000 0.343338
O O21 0.618567 0.000000 0.691628
#
# Coordination Sequence:
#
# PCOD9175751 Si02
#       8
#     8   8   8   8   8   8   8   8
#     4   9  18  32  51  77 106 135 173 216 262 310
#     4  10  18  33  57  81 104 136 176 218 262 312
#     4   9  17  32  55  80 104 135 177 216 258 310
#     4  11  23  37  53  77 108 144 178 218 266 319
#     4   9  17  32  54  79 106 137 172 216 264 310
#     4  11  22  38  56  77 107 144 180 219 265 317
#     4  10  19  31  51  80 109 138 172 213 261 312
#     4   9  17  31  53  79 105 134 172 215 259 309
#
# _framework density 18.049291
#
# number of rings (size 3 to 8) (size 9 to 14) (size 15 to 20)
#    0.000    2.250    2.500    1.125    0.000    1.500 
#    0.000    2.500    0.000    7.500    0.000    0.000 
#    0.000    0.000    0.000    0.000    0.000    0.000 
#
# Total GULP energy -178480.849753 kJ/mol
# GULP energy per Si atom -5577.526555 kJ/mol
# Density = 1.800821 g / cm^3
# Si number density = 18.049291 Si / 1000 Ang^3
#
#
#
# Elastic Constant Matrix: (Units=GPa)
#
#
# Indices 1 2 3 4 5 6 
#
# 1 166.0460 22.1392 79.3456 0.0000 -19.5938 0.0000
# 2 22.1392 8.1461 11.5521 0.0000 -2.0686 0.0000
# 3 79.3456 11.5521 112.6461 0.0000 -13.5913 0.0000
# 4 0.0000 0.0000 0.0000 26.6956 0.0000 0.1557
# 5 -19.5938 -2.0686 -13.5913 0.0000 28.8539 0.0000
# 6 0.0000 0.0000 0.0000 0.1557 0.0000 19.9293
#
#
#
# Elastic Compliance Matrix: (Units=1/GPa)
#
#
# Indices 1 2 3 4 5 6 
#
# 1 0.012622 -0.024997 -0.005841 0.000000 0.004028 0.000000
# 2 -0.024997 0.193500 -0.002768 0.000000 -0.004406 0.000000
# 3 -0.005841 -0.002768 0.013543 0.000000 0.002214 0.000000
# 4 0.000000 0.000000 0.000000 0.037461 0.000000 -0.000293
# 5 0.004028 -0.004406 0.002214 0.000000 0.038119 0.000000
# 6 0.000000 0.000000 0.000000 -0.000293 0.000000 0.050180
#
#
# Mechanical properties :
#
#
# Convention : Reuss Voigt Hill
#
# Bulk Modulus (GPa) = 6.55944 56.99022 31.77483
# Shear Modulus (GPa) = 10.78856 26.68252 18.73554
#
# Velocity S-wave (km/s) = 2.44750 3.84906 3.22533
# Velocity P-wave (km/s) = 3.41014 7.16917 5.61365
#
# Compressibility (1/GPa) = 0.15245212
#
# Stress axis : x y z
#
# Youngs Moduli (GPa) = 79.22856 5.16796 73.84032
#
# Poissons Ratio (x) = 0.12918 0.43131
# Poissons Ratio (y) = 1.98045 0.20441
# Poissons Ratio (z) = 0.46278 0.01431
#
# Static dielectric constant tensor:
#      x y z
#    x 1.668730 0.000000 -0.022240 
#    y 0.000000 1.634920 0.000000 
#    z -0.022240 0.000000 1.578590 
# 
# From -- ./inp_files/320104.got.cif
#   From: 2010.05.17/outbox.cif.g08.bks.cpg/sg12_161_cif.got.tgz:320104.got - 2010.06.03 13:09:07.
