data_PCOD9175213
_publ_section_title
;
Structure prediction by ZEFSAII (Michael W. Deem and Ramdas Pophale) SiO2 
 PCOD9175213
Probable space group: C 2/M
;
_chemical_formula_sum "Si O2"
_cell_formula_units_Z 64
_cell_length_a 18.697536
_cell_length_b 21.349552
_cell_length_c 9.355361
_cell_angle_alpha 90.000000
_cell_angle_beta 100.340772
_cell_angle_gamma 90.000000
_cell_volume 3673.852992
_symmetry_space_group_name_H-M "C 2/M"
_symmetry_group_IT_number 12
_symmetry_cell_setting 'monoclinic'
loop_
_space_group_symop_operation_xyz
x,y,z
-x,y,-z
-x,-y,-z
x,-y,z
1/2+x,1/2+y,z
1/2-x,1/2+y,-z
1/2-x,1/2-y,-z
1/2+x,1/2-y,z
loop_
_atom_site_type_symbol
_atom_site_label
_atom_site_fract_x
_atom_site_fract_y
_atom_site_fract_z
Si Si1 0.673534 0.743747 0.295997
Si Si2 0.600447 0.799529 0.852592
Si Si3 0.701432 0.574708 0.041822
Si Si4 0.685684 0.135322 0.132998
Si Si5 0.373077 0.926845 0.604980
Si Si6 0.213906 0.641703 0.670268
Si Si7 0.913360 0.823576 0.987080
Si Si8 0.961276 0.688804 0.627273
O O1 0.710045 0.800107 0.218764
O O2 0.733402 0.695636 0.372963
O O3 0.623303 0.704535 0.168591
O O4 0.615579 0.776817 0.378351
O O5 0.650405 0.824015 0.739800
O O6 0.516409 0.804697 0.778433
O O7 0.624709 0.841450 0.997260
O O8 0.610021 0.727120 0.900881
O O9 0.696827 0.500000 0.039558
O O10 0.740713 0.600275 0.199778
O O11 0.624242 0.609715 0.001130
O O12 0.751962 0.600696 0.932198
O O13 0.654923 0.091608 0.247043
O O14 0.317579 0.901615 0.465052
O O15 0.443781 0.884384 0.606492
O O16 0.384921 0.000000 0.596111
O O17 0.000000 0.826040 0.000000
O O18 0.000000 0.713369 0.500000
#
# Coordination Sequence:
#
# PCOD9175213 Si02
#       8
#     8   8   8   8   8   8   8   8
#     4   9  19  34  56  82 106 136 181 223 274 312
#     4  10  19  37  57  80 109 139 176 222 279 312
#     4  10  20  35  54  79 108 143 183 218 261 319
#     4   9  20  35  57  77 106 141 178 226 264 313
#     4  11  23  37  53  77 111 146 182 217 261 315
#     4  10  20  37  56  79 106 143 182 224 265 313
#     4  10  18  32  57  79 108 140 172 223 272 321
#     4  11  21  36  54  83 111 141 173 225 267 324
#
# _framework density 17.420404000000001
#
# number of rings (size 3 to 8) (size 9 to 14) (size 15 to 20)
#    0.000    2.000    2.500    1.500    0.000    5.500 
#    2.250    1.875    0.000    0.000    0.000    0.000 
#    0.000    8.000    0.000    0.000    0.000    0.000 
#
# Total GULP energy -178480.206404 kJ/mol
# GULP energy per Si atom -5577.506450 kJ/mol
# Density = 1.738075 g / cm^3
# Si number density = 17.420404 Si / 1000 Ang^3
#
#
#
# Elastic Constant Matrix: (Units=GPa)
#
#
# Indices 1 2 3 4 5 6 
#
# 1 67.9211 44.0536 21.1604 0.0000 -7.1909 0.0000
# 2 44.0536 124.1238 28.3720 0.0000 -8.7201 0.0000
# 3 21.1604 28.3720 67.9037 0.0000 -10.9960 0.0000
# 4 0.0000 0.0000 0.0000 19.1767 0.0000 3.7114
# 5 -7.1909 -8.7201 -10.9960 0.0000 26.4667 0.0000
# 6 0.0000 0.0000 0.0000 3.7114 0.0000 21.1239
#
#
#
# Elastic Compliance Matrix: (Units=1/GPa)
#
#
# Indices 1 2 3 4 5 6 
#
# 1 0.019986 -0.006195 -0.003314 0.000000 0.002012 0.000000
# 2 -0.006195 0.010882 -0.002475 0.000000 0.000874 0.000000
# 3 -0.003314 -0.002475 0.017707 0.000000 0.005641 0.000000
# 4 0.000000 0.000000 0.000000 0.053982 0.000000 -0.009485
# 5 0.002012 0.000874 0.005641 0.000000 0.040962 0.000000
# 6 0.000000 0.000000 0.000000 -0.009485 0.000000 0.049006
#
#
# Mechanical properties :
#
#
# Convention : Reuss Voigt Hill
#
# Bulk Modulus (GPa) = 40.63668 49.68009 45.15838
# Shear Modulus (GPa) = 22.25235 24.44430 23.34832
#
# Velocity S-wave (km/s) = 3.57791 3.74999 3.66496
# Velocity P-wave (km/s) = 6.35974 6.87969 6.62482
#
# Compressibility (1/GPa) = 0.02460831
#
# Stress axis : x y z
#
# Youngs Moduli (GPa) = 50.03435 91.89357 56.47476
#
# Poissons Ratio (x) = 0.56924 0.18716
# Poissons Ratio (y) = 0.30994 0.13977
# Poissons Ratio (z) = 0.16582 0.22743
#
# Static dielectric constant tensor:
#      x y z
#    x 1.594020 0.000000 -0.001660 
#    y 0.000000 1.571820 0.000000 
#    z -0.001660 0.000000 1.625910 
# 
# From -- ./inp_files/77500.got.cif
#   From: 2010.05.17/outbox.cif.g08.bks.cpg/sg12_39_cif.got.tgz:77500.got - 2010.06.03 13:09:07.
