data_PCOD9175334
_publ_section_title
;
Structure prediction by ZEFSAII (Michael W. Deem and Ramdas Pophale) SiO2 
 PCOD9175334
Probable space group: C 2/M
;
_chemical_formula_sum "Si O2"
_cell_formula_units_Z 56
_cell_length_a 14.834072
_cell_length_b 16.701414
_cell_length_c 14.352276
_cell_angle_alpha 90.000000
_cell_angle_beta 132.076600
_cell_angle_gamma 90.000000
_cell_volume 2639.273309
_symmetry_space_group_name_H-M "C 2/M"
_symmetry_group_IT_number 12
_symmetry_cell_setting 'monoclinic'
loop_
_space_group_symop_operation_xyz
x,y,z
-x,y,-z
-x,-y,-z
x,-y,z
1/2+x,1/2+y,z
1/2-x,1/2+y,-z
1/2-x,1/2-y,-z
1/2+x,1/2-y,z
loop_
_atom_site_type_symbol
_atom_site_label
_atom_site_fract_x
_atom_site_fract_y
_atom_site_fract_z
Si Si1 0.585081 0.256363 0.320807
Si Si2 0.707401 0.697149 0.674933
Si Si3 0.637803 0.883281 0.485498
Si Si4 0.171060 0.323673 0.907921
Si Si5 0.374166 0.588970 0.544275
Si Si6 0.858588 0.407024 0.923452
Si Si7 0.364499 0.135828 0.311205
O O1 0.682025 0.238351 0.306620
O O2 0.632210 0.208500 0.444885
O O3 0.461230 0.214304 0.203929
O O4 0.571059 0.348230 0.342750
O O5 0.636377 0.634400 0.561128
O O6 0.770826 0.648846 0.802214
O O7 0.625019 0.769256 0.656417
O O8 0.733888 0.918835 0.481400
O O9 0.680274 0.897558 0.620766
O O10 0.495535 0.904310 0.383745
O O11 0.210037 0.362767 0.836061
O O12 0.250000 0.250000 0.000000
O O13 0.162846 0.388630 0.983144
O O14 0.428132 0.500000 0.578047
O O15 0.837994 0.500000 0.886519
O O16 0.000000 0.388474 0.000000
#
# Coordination Sequence:
#
# PCOD9175334 Si02
#       7
#     8   8   8   8   8   8   8
#     4  10  19  35  58  83 110 154 206 237 276 358
#     4  11  18  36  62  86 114 157 199 240 288 353
#     4   9  18  34  55  83 113 151 194 237 279 343
#     4  11  22  36  58  84 111 158 203 235 285 355
#     4  11  21  35  57  91 125 154 189 243 302 348
#     4  11  23  39  59  90 121 148 193 258 305 338
#     4  10  18  32  59  81 110 148 201 236 277 333
#
# _framework density 21.217962
#
# number of rings (size 3 to 8) (size 9 to 14) (size 15 to 20)
#    0.000    1.571    5.714    1.286    0.000    0.000 
#    0.000    2.857    0.000    3.429    0.000    2.000 
#    0.000    0.000    0.000    0.000    0.000    0.000 
#
# Total GULP energy -156201.895807 kJ/mol
# GULP energy per Si atom -5578.639136 kJ/mol
# Density = 2.116967 g / cm^3
# Si number density = 21.217962 Si / 1000 Ang^3
#
#
#
# Elastic Constant Matrix: (Units=GPa)
#
#
# Indices 1 2 3 4 5 6 
#
# 1 59.7938 -4.7891 19.4006 0.0000 -12.1463 0.0000
# 2 -4.7891 95.8978 17.3966 0.0000 -0.8965 0.0000
# 3 19.4006 17.3966 102.2548 0.0000 -23.7011 0.0000
# 4 0.0000 0.0000 0.0000 5.9109 0.0000 -3.2581
# 5 -12.1463 -0.8965 -23.7011 0.0000 38.8588 0.0000
# 6 0.0000 0.0000 0.0000 -3.2581 0.0000 6.9126
#
#
#
# Elastic Compliance Matrix: (Units=1/GPa)
#
#
# Indices 1 2 3 4 5 6 
#
# 1 0.018597 0.001480 -0.002824 0.000000 0.004125 0.000000
# 2 0.001480 0.010912 -0.002296 0.000000 -0.000686 0.000000
# 3 -0.002824 -0.002296 0.012216 0.000000 0.006515 0.000000
# 4 0.000000 0.000000 0.000000 0.228559 0.000000 0.107726
# 5 0.004125 -0.000686 0.006515 0.000000 0.030981 0.000000
# 6 0.000000 0.000000 0.000000 0.107726 0.000000 0.195438
#
#
# Mechanical properties :
#
#
# Convention : Reuss Voigt Hill
#
# Bulk Modulus (GPa) = 29.03322 35.77361 32.40342
# Shear Modulus (GPa) = 9.69998 25.39902 17.54950
#
# Velocity S-wave (km/s) = 2.14045 3.46360 2.87906
# Velocity P-wave (km/s) = 4.45216 5.73516 5.13389
#
# Compressibility (1/GPa) = 0.03444330
#
# Stress axis : x y z
#
# Youngs Moduli (GPa) = 53.77280 91.64393 81.85933
#
# Poissons Ratio (x) = -0.13559 0.23117
# Poissons Ratio (y) = -0.07956 0.18797
# Poissons Ratio (z) = 0.15186 0.21043
#
# Static dielectric constant tensor:
#      x y z
#    x 1.809160 0.000000 -0.016880 
#    y 0.000000 1.803670 0.000000 
#    z -0.016880 0.000000 1.773020 
# 
# From -- ./inp_files/225372.got.cif
#   From: 2010.05.17/outbox.cif.g08.bks.cpg/sg12_113_cif.got.tgz:225372.got - 2010.06.03 13:09:07.
