data_PCOD9175749
_publ_section_title
;
Structure prediction by ZEFSAII (Michael W. Deem and Ramdas Pophale) SiO2 
 PCOD9175749
Probable space group: C 2/M
;
_chemical_formula_sum "Si O2"
_cell_formula_units_Z 56
_cell_length_a 24.784346
_cell_length_b 7.537639
_cell_length_c 16.242278
_cell_angle_alpha 90.000000
_cell_angle_beta 54.440438
_cell_angle_gamma 90.000000
_cell_volume 2468.444595
_symmetry_space_group_name_H-M "C 2/M"
_symmetry_group_IT_number 12
_symmetry_cell_setting 'monoclinic'
loop_
_space_group_symop_operation_xyz
x,y,z
-x,y,-z
-x,-y,-z
x,-y,z
1/2+x,1/2+y,z
1/2-x,1/2+y,-z
1/2-x,1/2-y,-z
1/2+x,1/2-y,z
loop_
_atom_site_type_symbol
_atom_site_label
_atom_site_fract_x
_atom_site_fract_y
_atom_site_fract_z
Si Si1 0.573454 0.785505 0.462787
Si Si2 0.435495 0.294398 0.343008
Si Si3 0.919873 0.295122 0.837731
Si Si4 0.669184 0.217188 0.229713
Si Si5 0.798657 0.214846 0.200892
Si Si6 0.560858 0.791744 0.998016
Si Si7 0.802302 0.787197 0.381679
O O1 0.500000 0.730677 0.500000
O O2 0.586674 0.718871 0.542575
O O3 0.625062 0.729627 0.347524
O O4 0.574753 0.000000 0.465578
O O5 0.445157 0.500000 0.312712
O O6 0.507207 0.207315 0.268075
O O7 0.375519 0.219489 0.341435
O O8 0.899670 0.500000 0.867318
O O9 0.866534 0.217778 0.821336
O O10 0.927389 0.213676 0.921546
O O11 0.743788 0.273615 0.183542
O O12 0.667701 0.000000 0.228982
O O13 0.871596 0.275810 0.112322
O O14 0.781735 0.273782 0.308946
O O15 0.798237 0.000000 0.200770
O O16 0.544749 0.000000 0.025493
O O17 0.500000 0.714304 0.000000
O O18 0.750000 0.750000 0.500000
O O19 0.807741 0.000000 0.372885
#
# Coordination Sequence:
#
# PCOD9175749 Si02
#       7
#     8   8   8   8   8   8   8
#     4  10  18  33  57  80 108 152 195 220 260 328
#     4  11  22  34  52  83 117 143 179 233 288 328
#     4  10  20  37  58  79 107 145 188 228 270 332
#     4   9  18  34  56  82 108 142 189 229 264 322
#     4  10  21  38  59  81 111 146 182 228 278 328
#     4  10  22  39  59  83 109 140 183 233 280 329
#     4  10  22  38  56  81 112 148 186 228 276 332
#
# _framework density 22.686349
#
# number of rings (size 3 to 8) (size 9 to 14) (size 15 to 20)
#    0.000    2.000    1.429    2.143    0.000    4.571 
#    0.000    1.429    0.000    0.000    0.000    0.000 
#    0.000    0.000    0.000    0.000    0.000    0.000 
#
# Total GULP energy -156495.010981 kJ/mol
# GULP energy per Si atom -5589.107535 kJ/mol
# Density = 2.263471 g / cm^3
# Si number density = 22.686349 Si / 1000 Ang^3
#
#
#
# Elastic Constant Matrix: (Units=GPa)
#
#
# Indices 1 2 3 4 5 6 
#
# 1 200.4105 2.4182 64.5095 -0.0001 17.4543 0.0000
# 2 2.4182 53.8651 -10.1196 -0.0004 6.8989 0.0003
# 3 64.5095 -10.1196 108.3634 -0.0004 22.4822 0.0001
# 4 -0.0001 -0.0004 -0.0004 7.4833 0.0001 -4.1260
# 5 17.4543 6.8989 22.4822 0.0001 41.5663 0.0000
# 6 0.0000 0.0003 0.0001 -4.1260 0.0000 -1.8413
#
#
#
# Elastic Compliance Matrix: (Units=1/GPa)
#
#
# Indices 1 2 3 4 5 6 
#
# 1 0.006232 -0.000915 -0.003699 0.000000 -0.000464 0.000000
# 2 -0.000915 0.019848 0.003382 0.000001 -0.004739 0.000000
# 3 -0.003699 0.003382 0.012999 0.000001 -0.006039 0.000000
# 4 0.000000 0.000001 0.000001 0.059778 -0.000001 -0.133948
# 5 -0.000464 -0.004739 -0.006039 -0.000001 0.028306 0.000001
# 6 0.000000 0.000000 0.000000 -0.133948 0.000001 -0.242944
#
#
# Mechanical properties :
#
#
# Convention : Reuss Voigt Hill
#
# Bulk Modulus (GPa) = 27.31223 52.91727 40.11475
# Shear Modulus (GPa) = -49.45049 29.83038 -9.81006
#
# Velocity S-wave (km/s) = -4.67384 3.63010 -2.08173
# Velocity P-wave (km/s) = 4.13052 6.39893 3.45580
#
# Compressibility (1/GPa) = 0.03661364
#
# Stress axis : x y z
#
# Youngs Moduli (GPa) = 160.46441 50.38235 76.92929
#
# Poissons Ratio (x) = 0.04611 0.28457
# Poissons Ratio (y) = 0.14687 -0.26014
# Poissons Ratio (z) = 0.59357 -0.17037
#
# Static dielectric constant tensor:
#      x y z
#    x 1.846870 0.000000 0.029050 
#    y 0.000000 1.871220 0.000000 
#    z 0.029050 0.000000 1.794100 
# 
# From -- ./inp_files/238270.got.cif
#   From: 2010.05.17/outbox.cif.g08.bks.cpg/sg12_120_cif.got.tgz:238270.got - 2010.06.03 13:09:07.
