data_PCOD9175939
_publ_section_title
;
Structure prediction by ZEFSAII (Michael W. Deem and Ramdas Pophale) SiO2 
 PCOD9175939
Probable space group: C 2/M
;
_chemical_formula_sum "Si O2"
_cell_formula_units_Z 40
_cell_length_a 20.983948
_cell_length_b 10.618797
_cell_length_c 19.273562
_cell_angle_alpha 90.000000
_cell_angle_beta 153.290644
_cell_angle_gamma 90.000000
_cell_volume 1930.279782
_symmetry_space_group_name_H-M "C 2/M"
_symmetry_group_IT_number 12
_symmetry_cell_setting 'monoclinic'
loop_
_space_group_symop_operation_xyz
x,y,z
-x,y,-z
-x,-y,-z
x,-y,z
1/2+x,1/2+y,z
1/2-x,1/2+y,-z
1/2-x,1/2-y,-z
1/2+x,1/2-y,z
loop_
_atom_site_type_symbol
_atom_site_label
_atom_site_fract_x
_atom_site_fract_y
_atom_site_fract_z
Si Si1 0.159858 0.500000 0.129211
Si Si2 0.600734 0.500000 0.531536
Si Si3 0.174179 0.000000 0.166933
Si Si4 0.402534 0.752216 0.561541
Si Si5 0.391866 0.260993 0.960541
Si Si6 0.580634 0.347051 0.273462
Si Si7 0.429265 0.000000 0.506671
O O1 0.246429 0.500000 0.284171
O O2 0.183765 0.626773 0.108958
O O3 0.000000 0.500000 0.000000
O O4 0.500000 0.500000 0.500000
O O5 0.584407 0.626791 0.471675
O O6 0.259518 0.000000 0.321493
O O7 0.210809 0.873599 0.161810
O O8 0.000000 0.000000 0.000000
O O9 0.462229 0.716230 0.695106
O O10 0.236838 0.790836 0.409974
O O11 0.464131 0.874913 0.583602
O O12 0.478372 0.303296 0.111906
O O13 0.500000 0.249996 0.000000
O O14 0.582813 0.500000 0.282077
O O15 0.500000 0.000000 0.500000
#
# Coordination Sequence:
#
# PCOD9175939 Si02
#       7
#     4   4   4   8   8   8   4
#     4  10  20  35  56  92 122 150 207 271 306 357
#     4  12  24  42  64  90 133 175 207 251 324 399
#     4  10  18  33  60  86 114 156 207 253 298 363
#     4  11  23  38  62  91 126 172 209 258 321 380
#     4  10  19  32  58  87 119 153 199 259 317 363
#     4  11  21  38  63  94 129 161 212 273 322 374
#     4  12  24  40  62  94 133 163 207 263 312 377
#
# _framework density 20.722384000000002
#
# number of rings (size 3 to 8) (size 9 to 14) (size 15 to 20)
#    0.000    1.200    3.000    6.600    0.000    0.800 
#    0.000    0.000    0.000    7.200    0.000    0.000 
#    0.000    0.000    0.000    0.000    0.000    0.000 
#
# Total GULP energy -111658.790027 kJ/mol
# GULP energy per Si atom -5582.939501 kJ/mol
# Density = 2.067522 g / cm^3
# Si number density = 20.722384 Si / 1000 Ang^3
#
#
#
# Elastic Constant Matrix: (Units=GPa)
#
#
# Indices 1 2 3 4 5 6 
#
# 1 115.1551 65.7960 36.9756 0.0000 -35.8747 0.0000
# 2 65.7960 249.0359 36.9252 0.0000 -41.5104 0.0000
# 3 36.9756 36.9252 76.2931 0.0000 -39.6499 0.0000
# 4 0.0000 0.0000 0.0000 71.0526 0.0000 -44.8472
# 5 -35.8747 -41.5104 -39.6499 0.0000 43.1256 0.0000
# 6 0.0000 0.0000 0.0000 -44.8472 0.0000 30.9973
#
#
#
# Elastic Compliance Matrix: (Units=1/GPa)
#
#
# Indices 1 2 3 4 5 6 
#
# 1 0.012469 -0.001872 -0.001308 0.000000 0.007368 0.000000
# 2 -0.001872 0.005065 0.000345 0.000000 0.003635 0.000000
# 3 -0.001308 0.000345 0.025243 -0.000001 0.022453 -0.000001
# 4 0.000000 0.000000 -0.000001 0.162145 -0.000001 0.234592
# 5 0.007368 0.003635 0.022453 -0.000001 0.053460 -0.000001
# 6 0.000000 0.000000 -0.000001 0.234592 -0.000001 0.371671
#
#
# Mechanical properties :
#
#
# Convention : Reuss Voigt Hill
#
# Bulk Modulus (GPa) = 26.94897 79.98641 53.46769
# Shear Modulus (GPa) = 7.71496 49.08758 28.40127
#
# Velocity S-wave (km/s) = 1.93160 4.87233 3.70612
# Velocity P-wave (km/s) = 4.24356 8.38664 6.64618
#
# Compressibility (1/GPa) = 0.03710717
#
# Stress axis : x y z
#
# Youngs Moduli (GPa) = 80.19880 197.43796 39.61490
#
# Poissons Ratio (x) = 0.36967 0.05181
# Poissons Ratio (y) = 0.15016 -0.01368
# Poissons Ratio (z) = 0.10488 -0.06816
#
# Static dielectric constant tensor:
#      x y z
#    x 1.863310 0.000000 0.086320 
#    y 0.000000 0.366690 0.000000 
#    z 0.086320 0.000000 1.736650 
# 
# From -- ./inp_files/283455.got.cif
#   From: 2010.05.17/outbox.cif.g08.bks.cpg/sg12_142_cif.got.tgz:283455.got - 2010.06.03 13:09:07.
