data_PCOD9175473
_publ_section_title
;
Structure prediction by ZEFSAII (Michael W. Deem and Ramdas Pophale) SiO2 
 PCOD9175473
Probable space group: C 2/M
;
_chemical_formula_sum "Si O2"
_cell_formula_units_Z 58
_cell_length_a 22.240916
_cell_length_b 24.170492
_cell_length_c 6.124953
_cell_angle_alpha 90.000000
_cell_angle_beta 65.712129
_cell_angle_gamma 90.000000
_cell_volume 3001.186649
_symmetry_space_group_name_H-M "C 2/M"
_symmetry_group_IT_number 12
_symmetry_cell_setting 'monoclinic'
loop_
_space_group_symop_operation_xyz
x,y,z
-x,y,-z
-x,-y,-z
x,-y,z
1/2+x,1/2+y,z
1/2-x,1/2+y,-z
1/2-x,1/2-y,-z
1/2+x,1/2-y,z
loop_
_atom_site_type_symbol
_atom_site_label
_atom_site_fract_x
_atom_site_fract_y
_atom_site_fract_z
Si Si1 0.000000 0.500000 0.500000
Si Si2 0.256511 0.937132 0.228429
Si Si3 0.704488 0.146295 0.449654
Si Si4 0.430410 0.309125 0.032868
Si Si5 0.840424 0.238445 0.539869
Si Si6 0.184844 0.851024 0.086740
Si Si7 0.115166 0.409479 0.237538
Si Si8 0.563896 0.797392 0.258676
O O1 0.056426 0.451853 0.365045
O O2 0.270669 0.895897 0.406296
O O3 0.196875 0.910099 0.180772
O O4 0.244459 0.000000 0.314832
O O5 0.321978 0.935013 0.979136
O O6 0.690523 0.209526 0.543341
O O7 0.642501 0.116542 0.423453
O O8 0.760346 0.154003 0.182119
O O9 0.384574 0.297372 0.309995
O O10 0.500000 0.335266 0.000000
O O11 0.386031 0.340813 0.919502
O O12 0.447692 0.249144 0.903946
O O13 0.800844 0.195546 0.750318
O O14 0.883836 0.270065 0.655613
O O15 0.090584 0.356070 0.136788
O O16 0.500000 0.808204 0.500000
#
# Coordination Sequence:
#
# PCOD9175473 Si02
#       8
#     2   8   8   8   8   8   8   8
#     4  12  20  36  58  80 120 166 210 252 288 326
#     4  11  23  41  60  83 116 158 209 257 296 339
#     4  10  22  39  60  84 113 159 206 251 294 352
#     4  11  21  34  59  89 121 152 188 237 301 379
#     4  10  20  36  57  86 119 150 193 242 300 360
#     4  10  23  38  60  87 116 155 194 246 306 357
#     4  10  22  37  56  81 119 163 208 255 290 335
#     4  10  18  33  52  80 119 160 191 234 293 346
#
# _framework density 19.325688
#
# number of rings (size 3 to 8) (size 9 to 14) (size 15 to 20)
#    0.000    1.655    2.759    2.069    0.966    4.966 
#    0.000    1.379    0.000    0.414    0.000    3.862 
#    0.000    0.000    0.000    0.000    0.000    0.000 
#
# Total GULP energy -161546.747393 kJ/mol
# GULP energy per Si atom -5570.577496 kJ/mol
# Density = 1.928170 g / cm^3
# Si number density = 19.325688 Si / 1000 Ang^3
#
#
#
# Elastic Constant Matrix: (Units=GPa)
#
#
# Indices 1 2 3 4 5 6 
#
# 1 98.0386 62.2616 29.7167 0.0000 5.6777 0.0000
# 2 62.2616 117.2181 37.0067 0.0000 -4.5671 0.0000
# 3 29.7167 37.0067 67.3834 0.0000 -0.1466 0.0000
# 4 0.0000 0.0000 0.0000 20.0006 0.0000 -13.2323
# 5 5.6777 -4.5671 -0.1466 0.0000 13.3588 0.0000
# 6 0.0000 0.0000 0.0000 -13.2323 0.0000 23.3274
#
#
#
# Elastic Compliance Matrix: (Units=1/GPa)
#
#
# Indices 1 2 3 4 5 6 
#
# 1 0.017111 -0.008587 -0.002852 0.000000 -0.010240 0.000000
# 2 -0.008587 0.014793 -0.004318 0.000000 0.008660 0.000000
# 3 -0.002852 -0.004318 0.018470 0.000000 -0.000061 0.000000
# 4 0.000000 0.000000 0.000000 0.080034 0.000000 0.045399
# 5 -0.010240 0.008660 -0.000061 0.000000 0.082169 0.000000
# 6 0.000000 0.000000 0.000000 0.045399 0.000000 0.068620
#
#
# Mechanical properties :
#
#
# Convention : Reuss Voigt Hill
#
# Bulk Modulus (GPa) = 53.02763 60.06778 56.54771
# Shear Modulus (GPa) = 15.67401 21.58101 18.62751
#
# Velocity S-wave (km/s) = 2.85098 3.34533 3.10800
# Velocity P-wave (km/s) = 6.19160 6.78756 6.49642
#
# Compressibility (1/GPa) = 0.01885809
#
# Stress axis : x y z
#
# Youngs Moduli (GPa) = 58.44142 67.59932 54.14216
#
# Poissons Ratio (x) = 0.58049 0.15443
# Poissons Ratio (y) = 0.50185 0.23381
# Poissons Ratio (z) = 0.16670 0.29192
#
# Static dielectric constant tensor:
#      x y z
#    x 1.732950 0.000000 0.016760 
#    y 0.000000 1.671110 0.000000 
#    z 0.016760 0.000000 1.672190 
# 
# From -- ./inp_files/26034.got.cif
#   From: 2010.05.17/outbox.cif.g08.bks.cpg/sg12_14_cif.got.tgz:26034.got - 2010.06.03 13:09:07.
