data_PCOD9175862
_publ_section_title
;
Structure prediction by ZEFSAII (Michael W. Deem and Ramdas Pophale) SiO2 
 PCOD9175862
Probable space group: C 2/M
;
_chemical_formula_sum "Si O2"
_cell_formula_units_Z 58
_cell_length_a 29.874480
_cell_length_b 7.500827
_cell_length_c 12.001213
_cell_angle_alpha 90.000000
_cell_angle_beta 101.703827
_cell_angle_gamma 90.000000
_cell_volume 2633.359553
_symmetry_space_group_name_H-M "C 2/M"
_symmetry_group_IT_number 12
_symmetry_cell_setting 'monoclinic'
loop_
_space_group_symop_operation_xyz
x,y,z
-x,y,-z
-x,-y,-z
x,-y,z
1/2+x,1/2+y,z
1/2-x,1/2+y,-z
1/2-x,1/2-y,-z
1/2+x,1/2-y,z
loop_
_atom_site_type_symbol
_atom_site_label
_atom_site_fract_x
_atom_site_fract_y
_atom_site_fract_z
Si Si1 0.500000 0.000000 0.000000
Si Si2 0.050473 0.214660 0.865669
Si Si3 0.999453 0.783929 0.626585
Si Si4 0.768408 0.211010 0.887544
Si Si5 0.769205 0.206036 0.357177
Si Si6 0.083229 0.202593 0.266762
Si Si7 0.175713 0.295910 0.418535
Si Si8 0.127810 0.784032 0.067112
O O1 0.482450 0.841594 0.079213
O O2 0.041996 0.250590 0.730522
O O3 0.042182 0.000000 0.879522
O O4 0.100955 0.253226 0.939892
O O5 0.955840 0.717195 0.675562
O O6 0.000000 0.717357 0.500000
O O7 0.995243 0.000000 0.616486
O O8 0.734320 0.281107 0.776166
O O9 0.820249 0.282090 0.900300
O O10 0.770506 0.000000 0.872895
O O11 0.750000 0.250000 0.000000
O O12 0.810652 0.291782 0.444990
O O13 0.720606 0.278749 0.378476
O O14 0.770692 0.000000 0.390580
O O15 0.129954 0.199356 0.360591
O O16 0.097042 0.285259 0.154760
O O17 0.068370 0.000000 0.234384
O O18 0.169706 0.500000 0.379498
O O19 0.130040 0.000000 0.079969
#
# Coordination Sequence:
#
# PCOD9175862 Si02
#       8
#     2   8   8   8   8   8   8   8
#     4  12  22  36  62 106 124 160 218 254 328 370
#     4  10  21  41  63  91 131 168 208 264 317 376
#     4   9  19  38  64  89 120 163 205 246 309 375
#     4  11  22  39  59  85 119 158 202 251 313 371
#     4  10  20  36  57  83 113 151 193 241 295 354
#     4  10  18  33  58  87 113 150 200 247 296 358
#     4  10  20  34  55  85 116 149 189 239 297 346
#     4   9  19  37  62  86 116 159 206 254 307 368
#
# _framework density 22.025096999999999
#
# number of rings (size 3 to 8) (size 9 to 14) (size 15 to 20)
#    0.000    2.069    1.379    2.276    0.000    3.310 
#    9.931    0.345    0.000    0.000    0.000    0.000 
#    0.000    0.000    0.000    0.000    0.000    0.000 
#
# Total GULP energy -161624.987838 kJ/mol
# GULP energy per Si atom -5573.275443 kJ/mol
# Density = 2.197497 g / cm^3
# Si number density = 22.025097 Si / 1000 Ang^3
#
#
#
# Elastic Constant Matrix: (Units=GPa)
#
#
# Indices 1 2 3 4 5 6 
#
# 1 47.9219 -9.0097 33.8077 0.0000 8.2807 0.0000
# 2 -9.0097 85.5388 0.7147 0.0000 -1.3576 0.0000
# 3 33.8077 0.7147 166.3338 0.0000 9.9488 0.0000
# 4 0.0000 0.0000 0.0000 14.6148 0.0000 -4.9008
# 5 8.2807 -1.3576 9.9488 0.0000 35.5357 0.0000
# 6 0.0000 0.0000 0.0000 -4.9008 0.0000 6.9439
#
#
#
# Elastic Compliance Matrix: (Units=1/GPa)
#
#
# Indices 1 2 3 4 5 6 
#
# 1 0.025640 0.002671 -0.004955 0.000000 -0.004486 0.000000
# 2 0.002671 0.011977 -0.000594 0.000000 0.000002 0.000000
# 3 -0.004955 -0.000594 0.007072 0.000000 -0.000848 0.000000
# 4 0.000000 0.000000 0.000000 0.089638 0.000000 0.063264
# 5 -0.004486 0.000002 -0.000848 0.000000 0.029424 0.000000
# 6 0.000000 0.000000 0.000000 0.063264 0.000000 0.188660
#
#
# Mechanical properties :
#
#
# Convention : Reuss Voigt Hill
#
# Bulk Modulus (GPa) = 25.68531 38.97999 32.33265
# Shear Modulus (GPa) = 13.47183 29.70433 21.58808
#
# Velocity S-wave (km/s) = 2.47586 3.67639 3.13414
# Velocity P-wave (km/s) = 4.45649 5.97976 5.27342
#
# Compressibility (1/GPa) = 0.03893275
#
# Stress axis : x y z
#
# Youngs Moduli (GPa) = 39.00190 83.49405 141.39651
#
# Poissons Ratio (x) = -0.22300 0.70055
# Poissons Ratio (y) = -0.10417 0.08405
# Poissons Ratio (z) = 0.19324 0.04963
#
# Static dielectric constant tensor:
#      x y z
#    x 1.803130 0.000000 0.013890 
#    y 0.000000 1.856860 0.000000 
#    z 0.013890 0.000000 1.812390 
# 
# From -- ./inp_files/186748.got.cif
#   From: 2010.05.17/outbox.cif.g08.bks.cpg/sg12_94_cif.got.tgz:186748.got - 2010.06.03 13:09:07.
