data_PCOD9175838
_publ_section_title
;
Structure prediction by ZEFSAII (Michael W. Deem and Ramdas Pophale) SiO2 
 PCOD9175838
Probable space group: C 2/M
;
_chemical_formula_sum "Si O2"
_cell_formula_units_Z 64
_cell_length_a 20.698802
_cell_length_b 7.720687
_cell_length_c 22.926300
_cell_angle_alpha 90.000000
_cell_angle_beta 118.200398
_cell_angle_gamma 90.000000
_cell_volume 3228.932611
_symmetry_space_group_name_H-M "C 2/M"
_symmetry_group_IT_number 12
_symmetry_cell_setting 'monoclinic'
loop_
_space_group_symop_operation_xyz
x,y,z
-x,y,-z
-x,-y,-z
x,-y,z
1/2+x,1/2+y,z
1/2-x,1/2+y,-z
1/2-x,1/2-y,-z
1/2+x,1/2-y,z
loop_
_atom_site_type_symbol
_atom_site_label
_atom_site_fract_x
_atom_site_fract_y
_atom_site_fract_z
Si Si1 0.952616 0.708494 0.673764
Si Si2 0.699787 0.292797 0.034123
Si Si3 0.177752 0.288647 0.828137
Si Si4 0.419883 0.201974 0.454693
Si Si5 0.475657 0.211929 0.177979
Si Si6 0.392732 0.789222 0.318198
Si Si7 0.665583 0.299895 0.469020
Si Si8 0.532208 0.798456 0.954203
O O1 0.950774 0.500000 0.673497
O O2 0.880405 0.768350 0.609565
O O3 0.968757 0.766437 0.746940
O O4 0.024828 0.758007 0.667163
O O5 0.690047 0.500000 0.033009
O O6 0.747294 0.232060 0.109913
O O7 0.750000 0.250000 0.000000
O O8 0.620141 0.210759 0.994749
O O9 0.178498 0.500000 0.829271
O O10 0.106255 0.237766 0.835746
O O11 0.162211 0.228560 0.755723
O O12 0.500000 0.281584 0.500000
O O13 0.382528 0.272434 0.379949
O O14 0.373187 0.207749 0.493234
O O15 0.432815 0.000000 0.446102
O O16 0.490116 0.275182 0.118643
O O17 0.475884 0.000000 0.177060
O O18 0.388230 0.000000 0.313844
O O19 0.660832 0.500000 0.481366
O O20 0.750000 0.250000 0.500000
O O21 0.508981 0.000000 0.943308
O O22 0.500000 0.719786 0.000000
#
# Coordination Sequence:
#
# PCOD9175838 Si02
#       8
#     8   8   8   8   8   8   8   8
#     4   9  16  32  57  80 103 138 182 219 262 318
#     4  11  20  32  53  78 108 140 180 226 269 317
#     4   8  14  26  48  77 105 136 177 218 262 315
#     4  10  18  33  58  84 108 135 174 217 266 324
#     4   8  14  28  53  79 103 137 179 218 260 321
#     4   8  14  27  52  81 106 137 174 214 261 322
#     4  12  25  39  55  78 111 145 181 222 268 316
#     4  10  20  35  54  78 110 147 184 220 267 324
#
# _framework density 19.820792999999998
#
# number of rings (size 3 to 8) (size 9 to 14) (size 15 to 20)
#    0.000    2.500    2.500    3.000    0.000    0.500 
#    0.000    1.875    0.000    4.500    0.000    0.000 
#    0.000    0.000    0.000    0.000    0.000    0.000 
#
# Total GULP energy -178428.705527 kJ/mol
# GULP energy per Si atom -5575.897048 kJ/mol
# Density = 1.977568 g / cm^3
# Si number density = 19.820793 Si / 1000 Ang^3
#
#
#
# Elastic Constant Matrix: (Units=GPa)
#
#
# Indices 1 2 3 4 5 6 
#
# 1 65.3705 -18.3213 48.3662 0.0000 -9.5553 0.0000
# 2 -18.3213 29.6641 -6.1329 0.0000 -2.1467 0.0000
# 3 48.3662 -6.1329 179.8370 0.0000 -11.9589 0.0000
# 4 0.0000 0.0000 0.0000 10.9684 0.0000 8.3814
# 5 -9.5553 -2.1467 -11.9589 0.0000 32.3864 0.0000
# 6 0.0000 0.0000 0.0000 8.3814 0.0000 5.8966
#
#
#
# Elastic Compliance Matrix: (Units=1/GPa)
#
#
# Indices 1 2 3 4 5 6 
#
# 1 0.024394 0.014332 -0.005669 0.000000 0.006054 -0.000001
# 2 0.014332 0.042610 -0.001981 0.000002 0.006321 -0.000002
# 3 -0.005669 -0.001981 0.007071 0.000000 0.000807 0.000000
# 4 0.000000 0.000002 0.000000 -1.058323 0.000000 1.504296
# 5 0.006054 0.006321 0.000807 0.000000 0.033380 0.000000
# 6 -0.000001 -0.000002 0.000000 1.504296 0.000000 -1.968612
#
#
# Mechanical properties :
#
#
# Convention : Reuss Voigt Hill
#
# Bulk Modulus (GPa) = 11.43653 35.85509 23.64581
# Shear Modulus (GPa) = -1.72194 26.58091 12.42948
#
# Velocity S-wave (km/s) = -0.93308 3.66602 2.50690
# Velocity P-wave (km/s) = 2.14980 6.00404 4.50944
#
# Compressibility (1/GPa) = 0.08743914
#
# Stress axis : x y z
#
# Youngs Moduli (GPa) = 40.99429 23.46841 141.41432
#
# Poissons Ratio (x) = -0.33635 0.80171
# Poissons Ratio (y) = -0.58753 0.28015
# Poissons Ratio (z) = 0.23241 0.04649
#
# Static dielectric constant tensor:
#      x y z
#    x 1.629790 0.000000 -0.010180 
#    y 0.000000 1.728420 0.000000 
#    z -0.010180 0.000000 1.749740 
# 
# From -- ./inp_files/320028.got.cif
#   From: 2010.05.17/outbox.cif.g08.bks.cpg/sg12_161_cif.got.tgz:320028.got - 2010.06.03 13:09:07.
