data_PCOD9175359
_publ_section_title
;
Structure prediction by ZEFSAII (Michael W. Deem and Ramdas Pophale) SiO2 
 PCOD9175359
Probable space group: C 2/M
;
_chemical_formula_sum "Si O2"
_cell_formula_units_Z 64
_cell_length_a 9.353153
_cell_length_b 14.901497
_cell_length_c 23.959605
_cell_angle_alpha 90.000000
_cell_angle_beta 106.305087
_cell_angle_gamma 90.000000
_cell_volume 3205.084288
_symmetry_space_group_name_H-M "C 2/M"
_symmetry_group_IT_number 12
_symmetry_cell_setting 'monoclinic'
loop_
_space_group_symop_operation_xyz
x,y,z
-x,y,-z
-x,-y,-z
x,-y,z
1/2+x,1/2+y,z
1/2-x,1/2+y,-z
1/2-x,1/2-y,-z
1/2+x,1/2-y,z
loop_
_atom_site_type_symbol
_atom_site_label
_atom_site_fract_x
_atom_site_fract_y
_atom_site_fract_z
Si Si1 0.255424 0.104842 0.954429
Si Si2 0.754138 0.771988 0.589811
Si Si3 0.745227 0.758525 0.222913
Si Si4 0.060273 0.394987 0.916752
Si Si5 0.475078 0.092218 0.396160
Si Si6 0.049952 0.319293 0.301288
Si Si7 0.220249 0.895573 0.512848
Si Si8 0.940374 0.214433 0.144249
O O1 0.403302 0.118286 0.932278
O O2 0.120291 0.163772 0.916680
O O3 0.216549 0.000000 0.946284
O O4 0.310367 0.122532 0.023366
O O5 0.625265 0.822943 0.607224
O O6 0.882311 0.754014 0.648578
O O7 0.805605 0.839488 0.546328
O O8 0.686322 0.678958 0.557156
O O9 0.661134 0.817401 0.260753
O O10 0.828174 0.810604 0.182043
O O11 0.610694 0.700105 0.181503
O O12 0.882709 0.703188 0.263858
O O13 0.067634 0.500000 0.900742
O O14 0.071035 0.321036 0.869948
O O15 0.545823 0.096509 0.342346
O O16 0.603150 0.096420 0.456349
O O17 0.388185 0.000000 0.394133
O O18 0.165974 0.000000 0.508606
#
# Coordination Sequence:
#
# PCOD9175359 Si02
#       8
#     8   8   8   8   8   8   8   8
#     4   9  18  34  57  88 123 153 187 234 291 355
#     4  10  18  32  60  84 115 155 186 235 297 338
#     4  10  22  36  59  81 112 152 201 246 284 331
#     4   9  18  34  58  88 120 155 191 229 287 360
#     4  10  19  34  60  89 116 148 193 236 284 357
#     4  10  20  39  57  81 109 154 196 240 291 338
#     4   9  19  33  55  90 119 147 190 232 291 366
#     4  11  19  37  60  86 113 158 194 240 291 339
#
# _framework density 19.968273
#
# number of rings (size 3 to 8) (size 9 to 14) (size 15 to 20)
#    0.000    2.250    2.500    1.875    0.000    1.000 
#    0.000    4.375    0.000   21.000    0.000    0.000 
#    0.000    0.000    0.000    0.000    0.000    0.000 
#
# Total GULP energy -178157.455457 kJ/mol
# GULP energy per Si atom -5567.420483 kJ/mol
# Density = 1.992282 g / cm^3
# Si number density = 19.968273 Si / 1000 Ang^3
#
#
#
# Elastic Constant Matrix: (Units=GPa)
#
#
# Indices 1 2 3 4 5 6 
#
# 1 87.4697 26.1146 30.7906 0.0000 9.5508 0.0000
# 2 26.1146 104.6937 37.0945 0.0000 1.6748 0.0000
# 3 30.7906 37.0945 98.7745 0.0000 19.2989 0.0000
# 4 0.0000 0.0000 0.0000 -209.4913 0.0000 20.6937
# 5 9.5508 1.6748 19.2989 0.0000 34.5847 0.0000
# 6 0.0000 0.0000 0.0000 20.6937 0.0000 11.5484
#
#
#
# Elastic Compliance Matrix: (Units=1/GPa)
#
#
# Indices 1 2 3 4 5 6 
#
# 1 0.013352 -0.002260 -0.002934 0.000000 -0.001940 0.000000
# 2 -0.002260 0.011524 -0.004081 0.000000 0.002343 0.000000
# 3 -0.002934 -0.004081 0.013889 0.000000 -0.006742 0.000000
# 4 0.000000 0.000000 0.000000 -0.004056 0.000000 0.007267
# 5 -0.001940 0.002343 -0.006742 0.000000 0.033099 0.000000
# 6 0.000000 0.000000 0.000000 0.007267 0.000000 0.073570
#
#
# Mechanical properties :
#
#
# Convention : Reuss Voigt Hill
#
# Bulk Modulus (GPa) = 49.47072 53.21526 51.34299
# Shear Modulus (GPa) = 29.99995 -19.54243 5.22876
#
# Velocity S-wave (km/s) = 3.88026 -3.13177 1.61994
# Velocity P-wave (km/s) = 6.70102 3.69194 5.40990
#
# Compressibility (1/GPa) = 0.02021398
#
# Stress axis : x y z
#
# Youngs Moduli (GPa) = 74.89508 86.77628 72.00037
#
# Poissons Ratio (x) = 0.19609 0.21128
# Poissons Ratio (y) = 0.16924 0.29385
# Poissons Ratio (z) = 0.21977 0.35415
#
# Static dielectric constant tensor:
#      x y z
#    x 1.752680 0.000000 -0.027520 
#    y 0.000000 1.716920 0.000000 
#    z -0.027520 0.000000 1.743220 
# 
# From -- ./inp_files/356187.got.cif
#   From: 2010.05.17/outbox.cif.g08.bks.cpg/sg12_179_cif.got.tgz:356187.got - 2010.06.03 13:09:07.
