data_PCOD9175543
_publ_section_title
;
Structure prediction by ZEFSAII (Michael W. Deem and Ramdas Pophale) SiO2 
 PCOD9175543
Probable space group: C 2/M
;
_chemical_formula_sum "Si O2"
_cell_formula_units_Z 64
_cell_length_a 17.812847
_cell_length_b 14.447894
_cell_length_c 26.001410
_cell_angle_alpha 90.000000
_cell_angle_beta 147.758587
_cell_angle_gamma 90.000000
_cell_volume 3569.926240
_symmetry_space_group_name_H-M "C 2/M"
_symmetry_group_IT_number 12
_symmetry_cell_setting 'monoclinic'
loop_
_space_group_symop_operation_xyz
x,y,z
-x,y,-z
-x,-y,-z
x,-y,z
1/2+x,1/2+y,z
1/2-x,1/2+y,-z
1/2-x,1/2-y,-z
1/2+x,1/2-y,z
loop_
_atom_site_type_symbol
_atom_site_label
_atom_site_fract_x
_atom_site_fract_y
_atom_site_fract_z
Si Si1 0.305110 0.892150 0.530199
Si Si2 0.328407 0.103377 0.126762
Si Si3 0.349695 0.892149 0.677986
Si Si4 0.024451 0.215637 0.375214
Si Si5 0.208797 0.344212 0.004298
Si Si6 0.655017 0.606183 0.650743
Si Si7 0.912272 0.392858 0.880779
Si Si8 0.725222 0.287799 0.852392
O O1 0.318237 0.888212 0.599816
O O2 0.155635 0.845337 0.431045
O O3 0.423181 0.818976 0.581145
O O4 0.316990 0.000000 0.521613
O O5 0.490897 0.139834 0.219569
O O6 0.280211 0.093200 0.039810
O O7 0.247302 0.183128 0.111189
O O8 0.327247 0.000000 0.149884
O O9 0.222666 0.852680 0.638111
O O10 0.353388 0.000000 0.696346
O O11 0.962404 0.165957 0.389415
O O12 0.906300 0.216372 0.262463
O O13 0.050016 0.350919 0.933817
O O14 0.250000 0.250000 0.000000
O O15 0.297355 0.348173 0.108548
O O16 0.604003 0.500000 0.614277
O O17 0.786962 0.604873 0.766433
O O18 0.941776 0.500000 0.911516
O O19 0.850700 0.334671 0.892675
#
# Coordination Sequence:
#
# PCOD9175543 Si02
#       8
#     8   8   8   8   8   8   8   8
#     4  10  20  34  53  75 102 137 178 213 256 317
#     4  10  18  33  54  77 103 135 173 211 253 308
#     4   9  16  29  52  75  99 129 165 209 256 304
#     4  10  20  33  49  76 109 137 168 215 269 304
#     4  10  20  32  51  77 107 139 171 209 249 311
#     4   9  17  30  51  80 108 130 161 212 264 310
#     4  10  19  33  52  76 107 140 172 208 258 313
#     4  10  21  33  50  79 109 136 174 217 260 308
#
# _framework density 17.927541000000002
#
# number of rings (size 3 to 8) (size 9 to 14) (size 15 to 20)
#    0.000    2.250    2.500    1.125    0.000    2.500 
#    0.000    1.875    0.000    6.750    0.000    8.750 
#    0.000    0.250    0.000    0.000    0.000    0.000 
#
# Total GULP energy -178134.766110 kJ/mol
# GULP energy per Si atom -5566.711441 kJ/mol
# Density = 1.788674 g / cm^3
# Si number density = 17.927541 Si / 1000 Ang^3
#
#
#
# Elastic Constant Matrix: (Units=GPa)
#
#
# Indices 1 2 3 4 5 6 
#
# 1 80.3464 57.6238 0.6998 0.0000 14.0207 0.0000
# 2 57.6238 120.9467 40.8754 0.0001 17.3078 0.0000
# 3 0.6998 40.8754 40.1596 0.0004 11.0837 0.0000
# 4 0.0000 0.0001 0.0004 5.2435 0.0001 -9.5377
# 5 14.0207 17.3078 11.0837 0.0001 22.8070 0.0000
# 6 0.0000 0.0000 0.0000 -9.5377 0.0000 -2.9342
#
#
#
# Elastic Compliance Matrix: (Units=1/GPa)
#
#
# Indices 1 2 3 4 5 6 
#
# 1 0.028712 -0.019520 0.023272 0.000000 -0.014147 0.000001
# 2 -0.019520 0.026174 -0.027868 0.000000 0.005680 -0.000001
# 3 0.023272 -0.027868 0.058867 0.000000 -0.021766 0.000002
# 4 0.000000 0.000000 0.000000 0.027589 0.000000 -0.089679
# 5 -0.014147 0.005680 -0.021766 0.000000 0.058810 0.000000
# 6 0.000001 -0.000001 0.000002 -0.089679 0.000000 -0.049302
#
#
# Mechanical properties :
#
#
# Convention : Reuss Voigt Hill
#
# Bulk Modulus (GPa) = 15.26234 48.87229 32.06732
# Shear Modulus (GPa) = 22.63259 14.50684 18.56971
#
# Velocity S-wave (km/s) = 3.55695 2.84772 3.22191
# Velocity P-wave (km/s) = 5.03994 6.17518 5.63622
#
# Compressibility (1/GPa) = 0.06552076
#
# Stress axis : x y z
#
# Youngs Moduli (GPa) = 34.82906 38.20658 16.98752
#
# Poissons Ratio (x) = 0.74579 -0.39533
# Poissons Ratio (y) = 0.67986 0.47340
# Poissons Ratio (z) = -0.81054 1.06473
#
# Static dielectric constant tensor:
#      x y z
#    x 1.631110 0.000000 -0.015370 
#    y 0.000000 1.661970 0.000000 
#    z -0.015370 0.000000 1.662430 
# 
# From -- ./inp_files/379374.got.cif
#   From: 2010.05.17/outbox.cif.g08.bks.cpg/sg12_190_cif.got.tgz:379374.got - 2010.06.03 13:09:07.
