data_PCOD9175043
_publ_section_title
;
Structure prediction by ZEFSAII (Michael W. Deem and Ramdas Pophale) SiO2 
 PCOD9175043
Probable space group: C 2/M
;
_chemical_formula_sum "Si O2"
_cell_formula_units_Z 48
_cell_length_a 22.207127
_cell_length_b 9.593699
_cell_length_c 10.880390
_cell_angle_alpha 90.000000
_cell_angle_beta 110.628303
_cell_angle_gamma 90.000000
_cell_volume 2169.430297
_symmetry_space_group_name_H-M "C 2/M"
_symmetry_group_IT_number 12
_symmetry_cell_setting 'monoclinic'
loop_
_space_group_symop_operation_xyz
x,y,z
-x,y,-z
-x,-y,-z
x,-y,z
1/2+x,1/2+y,z
1/2-x,1/2+y,-z
1/2-x,1/2-y,-z
1/2+x,1/2-y,z
loop_
_atom_site_type_symbol
_atom_site_label
_atom_site_fract_x
_atom_site_fract_y
_atom_site_fract_z
Si Si1 0.838355 0.166245 0.679132
Si Si2 0.906993 0.156535 0.486041
Si Si3 0.044389 0.345913 0.148350
Si Si4 0.771399 0.336065 0.821574
Si Si5 0.341209 0.344072 0.070203
Si Si6 0.964659 0.233350 0.293445
O O1 0.852398 0.193937 0.545025
O O2 0.781091 0.248307 0.704554
O O3 0.901675 0.230260 0.790864
O O4 0.833717 0.000000 0.690897
O O5 0.923040 0.260566 0.386388
O O6 0.973859 0.149645 0.610982
O O7 0.894140 0.000000 0.427177
O O8 0.073283 0.500000 0.152637
O O9 0.999030 0.348421 0.235965
O O10 0.000000 0.315165 0.000000
O O11 0.780674 0.500000 0.807305
O O12 0.703390 0.319424 0.842039
O O13 0.821618 0.271190 0.956669
O O14 0.325649 0.500000 0.012031
O O15 0.414664 0.337951 0.165228
#
# Coordination Sequence:
#
# PCOD9175043 Si02
#       6
#     8   8   8   8   8   8
#     4  10  20  35  55  76 101 138 181 219 259 312
#     4   9  18  33  54  79 106 137 171 218 269 308
#     4  10  21  35  52  78 111 141 169 212 271 321
#     4  10  21  36  53  77 110 142 174 220 271 310
#     4  10  20  34  56  81 105 140 181 217 258 316
#     4  10  18  32  55  80 106 137 176 215 258 315
#
# _framework density 22.125623000000001
#
# number of rings (size 3 to 8) (size 9 to 14) (size 15 to 20)
#    0.000    2.167    0.000    4.000    0.000    4.333 
#    0.000    8.333    0.000    0.000    0.000    0.000 
#    0.000    0.000    0.000    0.000    0.000    0.000 
#
# Total GULP energy -133848.602159 kJ/mol
# GULP energy per Si atom -5577.025090 kJ/mol
# Density = 2.207526 g / cm^3
# Si number density = 22.125623 Si / 1000 Ang^3
#
#
#
# Elastic Constant Matrix: (Units=GPa)
#
#
# Indices 1 2 3 4 5 6 
#
# 1 87.3294 39.0295 41.2729 0.0000 -30.1646 0.0000
# 2 39.0295 96.4373 26.6046 0.0000 -14.8097 0.0000
# 3 41.2729 26.6046 60.8566 0.0000 -8.9902 0.0000
# 4 0.0000 0.0000 0.0000 1.3952 0.0000 -18.7215
# 5 -30.1646 -14.8097 -8.9902 0.0000 51.7109 0.0000
# 6 0.0000 0.0000 0.0000 -18.7215 0.0000 7.0697
#
#
#
# Elastic Compliance Matrix: (Units=1/GPa)
#
#
# Indices 1 2 3 4 5 6 
#
# 1 0.022313 -0.004272 -0.011826 0.000000 0.009736 0.000000
# 2 -0.004272 0.012946 -0.002650 0.000000 0.000755 0.000000
# 3 -0.011826 -0.002650 0.025125 0.000000 -0.003290 0.000000
# 4 0.000000 0.000000 0.000000 -0.020755 0.000000 -0.054961
# 5 0.009736 0.000755 -0.003290 0.000000 0.024662 0.000000
# 6 0.000000 0.000000 0.000000 -0.054961 0.000000 -0.004096
#
#
# Mechanical properties :
#
#
# Convention : Reuss Voigt Hill
#
# Bulk Modulus (GPa) = 43.69633 50.93749 47.31691
# Shear Modulus (GPa) = 47.47373 21.21624 34.34498
#
# Velocity S-wave (km/s) = 4.63714 3.09997 3.94416
# Velocity P-wave (km/s) = 6.96152 5.99041 6.49414
#
# Compressibility (1/GPa) = 0.02288522
#
# Stress axis : x y z
#
# Youngs Moduli (GPa) = 44.81784 77.24635 39.80042
#
# Poissons Ratio (x) = 0.33003 0.47069
# Poissons Ratio (y) = 0.19148 0.10548
# Poissons Ratio (z) = 0.53003 0.20473
#
# Static dielectric constant tensor:
#      x y z
#    x 1.863780 0.000000 -0.030170 
#    y 0.000000 1.746190 0.000000 
#    z -0.030170 0.000000 1.839260 
# 
# From -- ./inp_files/173041.got.cif
#   From: 2010.05.17/outbox.cif.g08.bks.cpg/sg12_87_cif.got.tgz:173041.got - 2010.06.03 13:09:07.
