data_PCOD9175250
_publ_section_title
;
Structure prediction by ZEFSAII (Michael W. Deem and Ramdas Pophale) SiO2 
 PCOD9175250
Probable space group: C 2/M
;
_chemical_formula_sum "Si O2"
_cell_formula_units_Z 40
_cell_length_a 20.699627
_cell_length_b 13.800438
_cell_length_c 20.575753
_cell_angle_alpha 90.000000
_cell_angle_beta 20.928967
_cell_angle_gamma 90.000000
_cell_volume 2099.592685
_symmetry_space_group_name_H-M "C 2/M"
_symmetry_group_IT_number 12
_symmetry_cell_setting 'monoclinic'
loop_
_space_group_symop_operation_xyz
x,y,z
-x,y,-z
-x,-y,-z
x,-y,z
1/2+x,1/2+y,z
1/2-x,1/2+y,-z
1/2-x,1/2-y,-z
1/2+x,1/2-y,z
loop_
_atom_site_type_symbol
_atom_site_label
_atom_site_fract_x
_atom_site_fract_y
_atom_site_fract_z
Si Si1 0.492042 0.197390 0.635564
Si Si2 0.139146 0.884662 0.927343
Si Si3 0.395713 0.697381 0.268499
Si Si4 0.950185 0.110413 0.749096
Si Si5 0.041837 0.389196 0.188519
O O1 0.337376 0.160766 0.732999
O O2 0.699519 0.179795 0.422570
O O3 0.468873 0.310241 0.675488
O O4 0.461370 0.141192 0.732993
O O5 0.155654 0.000000 0.920123
O O6 0.000000 0.865397 0.000000
O O7 0.050088 0.838767 0.075213
O O8 0.417528 0.640486 0.316128
O O9 0.426525 0.809605 0.258017
O O10 0.981029 0.000000 0.700209
O O11 0.747567 0.118450 0.969081
O O12 0.981705 0.500000 0.237217
#
# Coordination Sequence:
#
# PCOD9175250 Si02
#       5
#     8   8   8   8   8
#     4  11  21  35  56  82 113 143 176 220 269 320
#     4  11  24  41  57  75 105 143 185 228 264 309
#     4  11  21  35  56  82 113 143 176 220 269 320
#     4  10  18  32  57  85 114 145 173 211 270 329
#     4  10  18  32  57  85 114 145 173 211 270 329
#
# _framework density 19.051314999999999
#
# number of rings (size 3 to 8) (size 9 to 14) (size 15 to 20)
#    0.000    1.400    4.000    4.800    0.000    6.400 
#    0.000    2.000    0.000    2.400    0.000    2.800 
#    0.000    0.000    0.000    0.000    0.000    0.000 
#
# Total GULP energy -111779.643321 kJ/mol
# GULP energy per Si atom -5588.982166 kJ/mol
# Density = 1.900795 g / cm^3
# Si number density = 19.051315 Si / 1000 Ang^3
#
#
#
# Elastic Constant Matrix: (Units=GPa)
#
#
# Indices 1 2 3 4 5 6 
#
# 1 55.8584 42.0743 15.6958 0.0003 -27.8113 -0.0003
# 2 42.0743 99.1312 15.3963 0.0021 -23.6067 0.0003
# 3 15.6958 15.3963 84.2306 -0.0042 -39.0023 0.0039
# 4 0.0003 0.0021 -0.0042 6.6306 -0.0001 -6.3547
# 5 -27.8113 -23.6067 -39.0023 -0.0001 32.8449 0.0005
# 6 -0.0003 0.0003 0.0039 -6.3547 0.0005 13.0537
#
#
#
# Elastic Compliance Matrix: (Units=1/GPa)
#
#
# Indices 1 2 3 4 5 6 
#
# 1 0.047672 -0.009975 0.018464 0.000015 0.055122 0.000001
# 2 -0.009975 0.014915 0.000412 -0.000009 0.002763 -0.000005
# 3 0.018464 0.000412 0.034949 0.000020 0.057431 -0.000003
# 4 0.000015 -0.000009 0.000020 0.282718 0.000029 0.137630
# 5 0.055122 0.002763 0.057431 0.000029 0.147304 -0.000008
# 6 0.000001 -0.000005 -0.000003 0.137630 -0.000008 0.143606
#
#
# Mechanical properties :
#
#
# Convention : Reuss Voigt Hill
#
# Bulk Modulus (GPa) = 8.67013 42.83921 25.75467
# Shear Modulus (GPa) = 7.22743 21.57611 14.40177
#
# Velocity S-wave (km/s) = 1.94985 3.36895 2.75243
# Velocity P-wave (km/s) = 3.10323 6.13744 4.86303
#
# Compressibility (1/GPa) = 0.11533859
#
# Stress axis : x y z
#
# Youngs Moduli (GPa) = 20.97657 67.04573 28.61285
#
# Poissons Ratio (x) = 0.66876 -0.52830
# Poissons Ratio (y) = 0.20923 -0.01178
# Poissons Ratio (z) = -0.38731 -0.02761
#
# Static dielectric constant tensor:
#      x y z
#    x 1.644110 0.000000 -0.027910 
#    y 0.000000 1.650920 0.000000 
#    z -0.027910 0.000000 1.688290 
# 
# From -- ./inp_files/217320.got.cif
#   From: 2010.05.17/outbox.cif.g08.bks.cpg/sg12_109_cif.got.tgz:217320.got - 2010.06.03 13:09:07.
