data_PCOD9175076
_publ_section_title
;
Structure prediction by ZEFSAII (Michael W. Deem and Ramdas Pophale) SiO2 
 PCOD9175076
Probable space group: C 2/M
;
_chemical_formula_sum "Si O2"
_cell_formula_units_Z 48
_cell_length_a 28.327330
_cell_length_b 9.831545
_cell_length_c 9.830866
_cell_angle_alpha 90.000000
_cell_angle_beta 57.932877
_cell_angle_gamma 90.000000
_cell_volume 2320.178165
_symmetry_space_group_name_H-M "C 2/M"
_symmetry_group_IT_number 12
_symmetry_cell_setting 'monoclinic'
loop_
_space_group_symop_operation_xyz
x,y,z
-x,y,-z
-x,-y,-z
x,-y,z
1/2+x,1/2+y,z
1/2-x,1/2+y,-z
1/2-x,1/2-y,-z
1/2+x,1/2-y,z
loop_
_atom_site_type_symbol
_atom_site_label
_atom_site_fract_x
_atom_site_fract_y
_atom_site_fract_z
Si Si1 0.761163 0.158716 0.700385
Si Si2 0.681359 0.353325 0.681514
Si Si3 0.426192 0.839186 0.832363
Si Si4 0.846302 0.665233 0.728695
Si Si5 0.439143 0.734586 0.111865
Si Si6 0.046968 0.658205 0.612902
O O1 0.704853 0.233048 0.738910
O O2 0.797754 0.165170 0.505038
O O3 0.793406 0.248368 0.762312
O O4 0.753861 0.000000 0.748516
O O5 0.703890 0.500000 0.694146
O O6 0.615068 0.354831 0.784426
O O7 0.370778 0.794721 0.838817
O O8 0.485009 0.781554 0.683474
O O9 0.428127 0.000000 0.805742
O O10 0.427886 0.813612 0.989491
O O11 0.837046 0.500000 0.733829
O O12 0.898510 0.705679 0.550532
O O13 0.443251 0.826010 0.240651
O O14 0.500000 0.668103 0.000000
O O15 0.043498 0.500000 0.581976
#
# Coordination Sequence:
#
# PCOD9175076 Si02
#       6
#     8   8   8   8   8   8
#     4  10  21  37  59  84 110 143 187 237 281 324
#     4  10  21  38  58  84 113 143 185 233 278 328
#     4   9  18  30  48  80 119 151 183 226 274 328
#     4  10  18  32  55  82 112 147 187 230 277 325
#     4  10  19  33  54  83 114 149 182 224 275 333
#     4   9  16  28  50  79 111 149 190 229 270 321
#
# _framework density 20.688065999999999
#
# number of rings (size 3 to 8) (size 9 to 14) (size 15 to 20)
#    0.000    2.333    1.667    1.500    0.000    6.333 
#    0.000    1.667    0.000    3.000    0.000    0.000 
#    0.000    0.000    0.000    0.000    0.000    0.000 
#
# Total GULP energy -133725.435485 kJ/mol
# GULP energy per Si atom -5571.893145 kJ/mol
# Density = 2.064098 g / cm^3
# Si number density = 20.688066 Si / 1000 Ang^3
#
#
#
# Elastic Constant Matrix: (Units=GPa)
#
#
# Indices 1 2 3 4 5 6 
#
# 1 130.8663 54.0624 17.0718 0.0000 9.4758 0.0000
# 2 54.0624 76.4221 2.9093 0.0000 8.3360 0.0000
# 3 17.0718 2.9093 46.8809 0.0000 8.9168 0.0000
# 4 0.0000 0.0000 0.0000 -52.6898 0.0000 9.4595
# 5 9.4758 8.3360 8.9168 0.0000 36.9055 0.0000
# 6 0.0000 0.0000 0.0000 9.4595 0.0000 25.4306
#
#
#
# Elastic Compliance Matrix: (Units=1/GPa)
#
#
# Indices 1 2 3 4 5 6 
#
# 1 0.011392 -0.007892 -0.003607 0.000000 -0.000271 0.000000
# 2 -0.007892 0.018886 0.002230 0.000000 -0.002778 0.000000
# 3 -0.003607 0.002230 0.023506 0.000000 -0.005257 0.000000
# 4 0.000000 0.000000 0.000000 -0.017791 0.000000 0.006618
# 5 -0.000271 -0.002778 -0.005257 0.000000 0.029064 0.000000
# 6 0.000000 0.000000 0.000000 0.006618 0.000000 0.036861
#
#
# Mechanical properties :
#
#
# Convention : Reuss Voigt Hill
#
# Bulk Modulus (GPa) = 28.37176 44.69516 36.53346
# Shear Modulus (GPa) = 37.82046 13.93763 25.87905
#
# Velocity S-wave (km/s) = 4.28030 2.59840 3.54067
# Velocity P-wave (km/s) = 6.17833 5.53655 5.86623
#
# Compressibility (1/GPa) = 0.03524631
#
# Stress axis : x y z
#
# Youngs Moduli (GPa) = 87.78255 52.94853 42.54297
#
# Poissons Ratio (x) = 0.41786 0.15346
# Poissons Ratio (y) = 0.69277 -0.09488
# Poissons Ratio (z) = 0.31664 -0.11809
#
# Static dielectric constant tensor:
#      x y z
#    x 1.768670 0.000000 -0.018320 
#    y 0.000000 1.719050 0.000000 
#    z -0.018320 0.000000 1.778020 
# 
# From -- ./inp_files/94888.got.cif
#   From: 2010.05.17/outbox.cif.g08.bks.cpg/sg12_48_cif.got.tgz:94888.got - 2010.06.03 13:09:07.
