data_PCOD9175095
_publ_section_title
;
Structure prediction by ZEFSAII (Michael W. Deem and Ramdas Pophale) SiO2 
 PCOD9175095
Probable space group: C 2/M
;
_chemical_formula_sum "Si O2"
_cell_formula_units_Z 64
_cell_length_a 24.000559
_cell_length_b 9.010240
_cell_length_c 27.366264
_cell_angle_alpha 90.000000
_cell_angle_beta 146.539543
_cell_angle_gamma 90.000000
_cell_volume 3262.943412
_symmetry_space_group_name_H-M "C 2/M"
_symmetry_group_IT_number 12
_symmetry_cell_setting 'monoclinic'
loop_
_space_group_symop_operation_xyz
x,y,z
-x,y,-z
-x,-y,-z
x,-y,z
1/2+x,1/2+y,z
1/2-x,1/2+y,-z
1/2-x,1/2-y,-z
1/2+x,1/2-y,z
loop_
_atom_site_type_symbol
_atom_site_label
_atom_site_fract_x
_atom_site_fract_y
_atom_site_fract_z
Si Si1 0.375150 0.170755 0.954609
Si Si2 0.958108 0.174963 0.868380
Si Si3 0.921572 0.324129 0.326147
Si Si4 0.186698 0.325326 0.857660
Si Si5 0.022536 0.324204 0.818145
Si Si6 0.134330 0.172553 0.470800
Si Si7 0.770835 0.327103 0.771883
Si Si8 0.342331 0.328117 0.629859
O O1 0.284484 0.223988 0.923297
O O2 0.328319 0.182339 0.866348
O O3 0.403794 0.000000 0.984349
O O4 0.471301 0.271654 0.035514
O O5 0.015634 0.233500 0.862761
O O6 0.848415 0.251032 0.791569
O O7 0.946888 0.000000 0.860129
O O8 0.931637 0.500000 0.341374
O O9 0.881759 0.302750 0.241095
O O10 0.835035 0.255758 0.297431
O O11 0.028465 0.242957 0.409434
O O12 0.215707 0.500000 0.879149
O O13 0.120370 0.292483 0.856613
O O14 0.019425 0.500000 0.825501
O O15 0.925651 0.273713 0.716027
O O16 0.230870 0.265782 0.559038
O O17 0.139972 0.177986 0.415647
O O18 0.141856 0.000000 0.490705
O O19 0.755377 0.500000 0.749177
O O20 0.352593 0.500000 0.652752
#
# Coordination Sequence:
#
# PCOD9175095 Si02
#       8
#     8   8   8   8   8   8   8   8
#     4  10  21  37  59  83 108 139 179 230 280 325
#     4  12  25  39  56  79 107 145 188 228 274 328
#     4  10  18  32  55  84 114 143 180 227 276 323
#     4   9  19  34  54  80 110 144 180 221 274 328
#     4  11  22  38  57  78 111 150 185 225 273 329
#     4  10  19  31  52  82 115 148 183 222 270 322
#     4  10  21  38  59  83 109 140 182 231 279 325
#     4  10  20  33  52  80 114 148 184 225 269 321
#
# _framework density 19.614191999999999
#
# number of rings (size 3 to 8) (size 9 to 14) (size 15 to 20)
#    0.000    1.750    1.250    3.750    0.000    6.000 
#    0.000    0.000    0.000    0.750    0.000    5.250 
#    0.000    0.000    0.000    0.000    0.000    0.000 
#
# Total GULP energy -178837.528229 kJ/mol
# GULP energy per Si atom -5588.672757 kJ/mol
# Density = 1.956955 g / cm^3
# Si number density = 19.614192 Si / 1000 Ang^3
#
#
#
# Elastic Constant Matrix: (Units=GPa)
#
#
# Indices 1 2 3 4 5 6 
#
# 1 49.4233 33.1612 4.7883 0.0000 19.5718 0.0000
# 2 33.1612 90.0994 13.5341 0.0001 23.6505 -0.0002
# 3 4.7883 13.5341 35.1061 -0.0001 24.8497 0.0000
# 4 0.0000 0.0001 -0.0001 32.3358 0.0000 8.3413
# 5 19.5718 23.6505 24.8497 0.0000 29.3766 0.0000
# 6 0.0000 -0.0002 0.0000 8.3413 0.0000 26.1872
#
#
#
# Elastic Compliance Matrix: (Units=1/GPa)
#
#
# Indices 1 2 3 4 5 6 
#
# 1 0.040919 -0.007210 0.030872 0.000000 -0.047571 0.000000
# 2 -0.007210 0.015958 0.001309 0.000000 -0.009151 0.000000
# 3 0.030872 0.001309 0.097387 0.000000 -0.104001 0.000000
# 4 0.000000 0.000000 0.000000 0.033694 0.000000 -0.010732
# 5 -0.047571 -0.009151 -0.104001 0.000000 0.161077 0.000000
# 6 0.000000 0.000000 0.000000 -0.010732 0.000000 0.041605
#
#
# Mechanical properties :
#
#
# Convention : Reuss Voigt Hill
#
# Bulk Modulus (GPa) = 4.89708 30.84401 17.87055
# Shear Modulus (GPa) = 12.23191 25.78959 19.01075
#
# Velocity S-wave (km/s) = 2.49996 3.63001 3.11663
# Velocity P-wave (km/s) = 3.29168 5.77311 4.69915
#
# Compressibility (1/GPa) = 0.20420321
#
# Stress axis : x y z
#
# Youngs Moduli (GPa) = 24.43873 62.66427 10.26835
#
# Poissons Ratio (x) = 0.45183 -0.31700
# Poissons Ratio (y) = 0.17621 -0.01344
# Poissons Ratio (z) = -0.75446 -0.08200
#
# Static dielectric constant tensor:
#      x y z
#    x 1.701000 0.000000 -0.023740 
#    y 0.000000 1.650280 0.000000 
#    z -0.023740 0.000000 1.681910 
# 
# From -- ./inp_files/238664.got.cif
#   From: 2010.05.17/outbox.cif.g08.bks.cpg/sg12_120_cif.got.tgz:238664.got - 2010.06.03 13:09:07.
