data_PCOD9175099
_publ_section_title
;
Structure prediction by ZEFSAII (Michael W. Deem and Ramdas Pophale) SiO2 
 PCOD9175099
Probable space group: C 2/M
;
_chemical_formula_sum "Si O2"
_cell_formula_units_Z 58
_cell_length_a 23.867517
_cell_length_b 14.895049
_cell_length_c 15.587326
_cell_angle_alpha 90.000000
_cell_angle_beta 148.188931
_cell_angle_gamma 90.000000
_cell_volume 2920.991349
_symmetry_space_group_name_H-M "C 2/M"
_symmetry_group_IT_number 12
_symmetry_cell_setting 'monoclinic'
loop_
_space_group_symop_operation_xyz
x,y,z
-x,y,-z
-x,-y,-z
x,-y,z
1/2+x,1/2+y,z
1/2-x,1/2+y,-z
1/2-x,1/2-y,-z
1/2+x,1/2-y,z
loop_
_atom_site_type_symbol
_atom_site_label
_atom_site_fract_x
_atom_site_fract_y
_atom_site_fract_z
Si Si1 0.215970 0.897733 0.482235
Si Si2 0.250901 0.778763 0.364067
Si Si3 0.000000 0.000000 0.000000
Si Si4 0.063640 0.226131 0.503361
Si Si5 0.483344 0.366196 0.138324
Si Si6 0.072888 0.300320 0.019648
Si Si7 0.240424 0.895322 0.827210
Si Si8 0.612390 0.394736 0.818694
O O1 0.236435 0.858505 0.413291
O O2 0.253448 0.818874 0.594260
O O3 0.088542 0.899257 0.324043
O O4 0.255769 0.000000 0.546390
O O5 0.363919 0.786650 0.463644
O O6 0.156389 0.769116 0.172624
O O7 0.021017 0.923249 0.953298
O O8 0.149899 0.158487 0.657773
O O9 0.000000 0.269800 0.500000
O O10 0.978101 0.169042 0.338755
O O11 0.386127 0.377090 0.077775
O O12 0.497828 0.262018 0.133513
O O13 0.145351 0.366037 0.058948
O O14 0.000000 0.340149 0.000000
O O15 0.217212 0.877688 0.897701
O O16 0.225388 0.000000 0.791299
O O17 0.586001 0.500000 0.771644
#
# Coordination Sequence:
#
# PCOD9175099 Si02
#       8
#     8   8   2   8   8   8   8   8
#     4  11  21  36  59  86 112 146 189 243 284 332
#     4  10  21  36  56  85 117 143 189 236 285 339
#     4  12  20  32  52  88 112 140 174 220 292 352
#     4   9  17  31  56  84 113 143 182 238 290 329
#     4  12  21  34  58  83 114 147 182 229 290 341
#     4  11  22  37  53  79 119 156 186 230 280 339
#     4   9  20  35  53  79 113 153 195 227 276 342
#     4  10  18  32  55  85 110 142 187 242 285 329
#
# _framework density 19.856273000000002
#
# number of rings (size 3 to 8) (size 9 to 14) (size 15 to 20)
#    0.000    1.655    4.828    0.414    0.000    4.690 
#    0.000    0.000    0.000    0.414    0.000    0.000 
#    0.000    0.000    0.000    0.000    0.000    0.000 
#
# Total GULP energy -161465.893489 kJ/mol
# GULP energy per Si atom -5567.789431 kJ/mol
# Density = 1.981108 g / cm^3
# Si number density = 19.856273 Si / 1000 Ang^3
#
#
#
# Elastic Constant Matrix: (Units=GPa)
#
#
# Indices 1 2 3 4 5 6 
#
# 1 162.1719 16.6175 14.4099 0.0000 27.4489 0.0000
# 2 16.6175 51.2597 0.9871 0.0000 6.7521 0.0000
# 3 14.4099 0.9871 23.2117 0.0000 9.0132 0.0000
# 4 0.0000 0.0000 0.0000 4.9065 0.0000 8.7641
# 5 27.4489 6.7521 9.0132 0.0000 34.0727 0.0000
# 6 0.0000 0.0000 0.0000 8.7641 0.0000 27.3953
#
#
#
# Elastic Compliance Matrix: (Units=1/GPa)
#
#
# Indices 1 2 3 4 5 6 
#
# 1 0.007409 -0.001701 -0.002608 0.000000 -0.004941 0.000000
# 2 -0.001701 0.020434 0.001368 0.000000 -0.003041 0.000000
# 3 -0.002608 0.001368 0.048961 0.000000 -0.011122 0.000000
# 4 0.000000 0.000000 0.000000 0.475563 0.000000 -0.152139
# 5 -0.004941 -0.003041 -0.011122 0.000000 0.036875 0.000000
# 6 0.000000 0.000000 0.000000 -0.152139 0.000000 0.085174
#
#
# Mechanical properties :
#
#
# Convention : Reuss Voigt Hill
#
# Bulk Modulus (GPa) = 14.10004 33.40801 23.75403
# Shear Modulus (GPa) = 7.10290 26.91682 17.00986
#
# Velocity S-wave (km/s) = 1.89339 3.68582 2.93003
# Velocity P-wave (km/s) = 3.44911 5.91398 4.84105
#
# Compressibility (1/GPa) = 0.07092176
#
# Stress axis : x y z
#
# Youngs Moduli (GPa) = 134.97646 48.93785 20.42428
#
# Poissons Ratio (x) = 0.08323 0.05327
# Poissons Ratio (y) = 0.22955 -0.02793
# Poissons Ratio (z) = 0.35205 -0.06693
#
# Static dielectric constant tensor:
#      x y z
#    x 1.785610 0.000000 -0.005310 
#    y 0.000000 1.683950 0.000000 
#    z -0.005310 0.000000 1.715270 
# 
# From -- ./inp_files/233421.got.cif
#   From: 2010.05.17/outbox.cif.g08.bks.cpg/sg12_117_cif.got.tgz:233421.got - 2010.06.03 13:09:07.
