data_PCOD9175938
_publ_section_title
;
Structure prediction by ZEFSAII (Michael W. Deem and Ramdas Pophale) SiO2 
 PCOD9175938
Probable space group: C 2/M
;
_chemical_formula_sum "Si O2"
_cell_formula_units_Z 52
_cell_length_a 15.403023
_cell_length_b 8.180698
_cell_length_c 33.270638
_cell_angle_alpha 90.000000
_cell_angle_beta 32.103944
_cell_angle_gamma 90.000000
_cell_volume 2228.052888
_symmetry_space_group_name_H-M "C 2/M"
_symmetry_group_IT_number 12
_symmetry_cell_setting 'monoclinic'
loop_
_space_group_symop_operation_xyz
x,y,z
-x,y,-z
-x,-y,-z
x,-y,z
1/2+x,1/2+y,z
1/2-x,1/2+y,-z
1/2-x,1/2-y,-z
1/2+x,1/2-y,z
loop_
_atom_site_type_symbol
_atom_site_label
_atom_site_fract_x
_atom_site_fract_y
_atom_site_fract_z
Si Si1 0.500000 0.746762 0.500000
Si Si2 0.925206 0.804079 0.071112
Si Si3 0.430522 0.318564 0.436202
Si Si4 0.640163 0.812527 0.287134
Si Si5 0.425120 0.800469 0.816472
Si Si6 0.839758 0.301294 0.344126
Si Si7 0.490697 0.187801 0.130894
O O1 0.537648 0.671687 0.528936
O O2 0.316047 0.805519 0.582278
O O3 0.736185 0.749254 0.144376
O O4 0.013557 0.759822 0.077749
O O5 0.925361 0.000000 0.069062
O O6 0.000000 0.742081 0.000000
O O7 0.442026 0.500000 0.414238
O O8 0.250000 0.250000 0.500000
O O9 0.564162 0.211515 0.360949
O O10 0.487673 0.780743 0.317394
O O11 0.797616 0.703855 0.216806
O O12 0.692408 0.000000 0.259859
O O13 0.586015 0.757888 0.728272
O O14 0.424498 0.739547 0.862529
O O15 0.424325 0.000000 0.818024
O O16 0.798295 0.500000 0.361064
O O17 0.539967 0.000000 0.109278
#
# Coordination Sequence:
#
# PCOD9175938 Si02
#       7
#     4   8   8   8   8   8   8
#     4  12  23  38  63  90 117 166 215 248 307 382
#     4  10  21  40  66  93 125 166 207 245 296 368
#     4  12  24  40  62  88 119 158 207 258 313 373
#     4  11  22  40  64  88 119 161 208 259 309 364
#     4   9  19  37  61  89 121 164 206 245 303 373
#     4  10  18  33  60  86 113 155 208 250 293 363
#     4  11  22  38  64  93 123 160 203 253 305 363
#
# _framework density 23.338764000000001
#
# number of rings (size 3 to 8) (size 9 to 14) (size 15 to 20)
#    0.000    1.385    3.077    3.692    0.000    2.154 
#    0.000    3.077    0.000    0.000    0.000    0.000 
#    0.000    0.000    0.000    0.000    0.000    0.000 
#
# Total GULP energy -145121.130056 kJ/mol
# GULP energy per Si atom -5581.581925 kJ/mol
# Density = 2.328564 g / cm^3
# Si number density = 23.338764 Si / 1000 Ang^3
#
#
#
# Elastic Constant Matrix: (Units=GPa)
#
#
# Indices 1 2 3 4 5 6 
#
# 1 107.1119 8.2348 -1.4894 -0.0232 35.6727 -0.0178
# 2 8.2348 23.2720 -4.6712 -0.2484 2.4235 -0.1484
# 3 -1.4894 -4.6712 78.4176 -0.0593 37.0583 -0.0441
# 4 -0.0232 -0.2484 -0.0593 4.5810 -0.0361 -4.1584
# 5 35.6727 2.4235 37.0583 -0.0361 42.4320 -0.0271
# 6 -0.0178 -0.1484 -0.0441 -4.1584 -0.0271 -0.0971
#
#
#
# Elastic Compliance Matrix: (Units=1/GPa)
#
#
# Indices 1 2 3 4 5 6 
#
# 1 0.018555 -0.001162 0.012981 -0.000001 -0.026870 0.000013
# 2 -0.001162 0.045207 0.005837 -0.001524 -0.006707 -0.004398
# 3 0.012981 0.005837 0.031776 -0.000325 -0.038999 -0.000894
# 4 -0.000001 -0.001524 -0.000325 0.005525 0.000227 -0.234296
# 5 -0.026870 -0.006707 -0.038999 0.000227 0.080601 0.000657
# 6 0.000013 -0.004398 -0.000894 -0.234296 0.000657 -0.257836
#
#
# Mechanical properties :
#
#
# Convention : Reuss Voigt Hill
#
# Bulk Modulus (GPa) = 7.64231 23.66108 15.65170
# Shear Modulus (GPa) = -73.67158 23.16500 -25.25329
#
# Velocity S-wave (km/s) = -5.62447 3.15390 -3.29299
# Velocity P-wave (km/s) = 6.23683 4.83972 2.78164
#
# Compressibility (1/GPa) = 0.13085052
#
# Stress axis : x y z
#
# Youngs Moduli (GPa) = 53.89490 22.12048 31.47031
#
# Poissons Ratio (x) = 0.02570 -0.40853
# Poissons Ratio (y) = 0.06261 -0.18369
# Poissons Ratio (z) = -0.69963 -0.12911
#
# Static dielectric constant tensor:
#      x y z
#    x 1.876440 0.000000 0.019280 
#    y 0.000000 1.851130 -0.000010 
#    z 0.019280 -0.000010 1.921670 
# 
# From -- ./inp_files/375314.got.cif
#   From: 2010.05.17/outbox.cif.g08.bks.cpg/sg12_188_cif.got.tgz:375314.got - 2010.06.03 13:09:07.
