data_PCOD9175268
_publ_section_title
;
Structure prediction by ZEFSAII (Michael W. Deem and Ramdas Pophale) SiO2 
 PCOD9175268
Probable space group: C 2/M
;
_chemical_formula_sum "Si O2"
_cell_formula_units_Z 48
_cell_length_a 23.131782
_cell_length_b 14.674509
_cell_length_c 7.322703
_cell_angle_alpha 90.000000
_cell_angle_beta 64.984106
_cell_angle_gamma 90.000000
_cell_volume 2252.493792
_symmetry_space_group_name_H-M "C 2/M"
_symmetry_group_IT_number 12
_symmetry_cell_setting 'monoclinic'
loop_
_space_group_symop_operation_xyz
x,y,z
-x,y,-z
-x,-y,-z
x,-y,z
1/2+x,1/2+y,z
1/2-x,1/2+y,-z
1/2-x,1/2-y,-z
1/2+x,1/2-y,z
loop_
_atom_site_type_symbol
_atom_site_label
_atom_site_fract_x
_atom_site_fract_y
_atom_site_fract_z
Si Si1 0.302866 0.363981 0.537566
Si Si2 0.383684 0.396243 0.095990
Si Si3 0.667990 0.154842 0.573290
Si Si4 0.564739 0.795639 0.011260
Si Si5 0.870652 0.606016 0.765632
Si Si6 0.270613 0.394975 0.989382
O O1 0.360301 0.399443 0.336355
O O2 0.311063 0.255384 0.519055
O O3 0.234473 0.391530 0.542573
O O4 0.301221 0.391312 0.749629
O O5 0.400468 0.500000 0.016255
O O6 0.432538 0.314732 0.996067
O O7 0.320933 0.361315 0.069682
O O8 0.622458 0.167152 0.807694
O O9 0.631262 0.111627 0.451258
O O10 0.500000 0.825444 0.000000
O O11 0.577279 0.835326 0.195792
O O12 0.876831 0.500000 0.813444
O O13 0.800268 0.645098 0.914745
O O14 0.259891 0.500000 0.056729
#
# Coordination Sequence:
#
# PCOD9175268 Si02
#       6
#     8   8   8   8   8   8
#     4  10  18  32  57  88 121 150 182 238 301 356
#     4  10  21  37  61  93 123 151 189 241 301 360
#     4  10  21  35  57  85 114 154 196 240 295 343
#     4  11  25  43  60  82 118 164 208 243 282 343
#     4  11  23  38  60  88 119 155 196 247 300 350
#     4  10  19  31  55  89 120 147 180 235 301 358
#
# _framework density 21.309714
#
# number of rings (size 3 to 8) (size 9 to 14) (size 15 to 20)
#    0.000    1.667    3.333    1.500    0.000    4.000 
#    0.000    0.833    0.000    0.000    0.000    9.333 
#    0.000    0.000    0.000    0.000    0.000    0.000 
#
# Total GULP energy -134004.833337 kJ/mol
# GULP energy per Si atom -5583.534722 kJ/mol
# Density = 2.126121 g / cm^3
# Si number density = 21.309714 Si / 1000 Ang^3
#
#
#
# Elastic Constant Matrix: (Units=GPa)
#
#
# Indices 1 2 3 4 5 6 
#
# 1 58.1726 7.9520 -2.0503 0.0000 17.7044 0.0000
# 2 7.9520 74.6114 7.3406 0.0000 -1.4675 0.0000
# 3 -2.0503 7.3406 71.7734 0.0000 23.1740 0.0000
# 4 0.0000 0.0000 0.0000 38.1638 0.0000 20.3347
# 5 17.7044 -1.4675 23.1740 0.0000 18.0063 0.0000
# 6 0.0000 0.0000 0.0000 20.3347 0.0000 24.8283
#
#
#
# Elastic Compliance Matrix: (Units=1/GPa)
#
#
# Indices 1 2 3 4 5 6 
#
# 1 0.043451 -0.008910 0.027686 0.000000 -0.079080 0.000000
# 2 -0.008910 0.015628 -0.008713 0.000000 0.021249 0.000000
# 3 0.027686 -0.008713 0.042147 0.000000 -0.082174 0.000000
# 4 0.000000 0.000000 0.000000 0.046491 0.000000 -0.038077
# 5 -0.079080 0.021249 -0.082174 0.000000 0.240779 0.000000
# 6 0.000000 0.000000 0.000000 -0.038077 0.000000 0.071462
#
#
# Mechanical properties :
#
#
# Convention : Reuss Voigt Hill
#
# Bulk Modulus (GPa) = 8.24064 25.67131 16.95597
# Shear Modulus (GPa) = 10.41051 28.95403 19.68227
#
# Velocity S-wave (km/s) = 2.21268 3.69009 3.04242
# Velocity P-wave (km/s) = 3.22543 5.49805 4.50733
#
# Compressibility (1/GPa) = 0.12134987
#
# Stress axis : x y z
#
# Youngs Moduli (GPa) = 23.01423 63.98934 23.72653
#
# Poissons Ratio (x) = 0.57016 -0.65688
# Poissons Ratio (y) = 0.20506 0.20674
# Poissons Ratio (z) = -0.63716 0.55757
#
# Static dielectric constant tensor:
#      x y z
#    x 1.774490 0.000000 0.001680 
#    y 0.000000 1.823450 0.000000 
#    z 0.001680 0.000000 1.760090 
# 
# From -- ./inp_files/24728.got.cif
#   From: 2010.05.17/outbox.cif.g08.bks.cpg/sg12_13_cif.got.tgz:24728.got - 2010.06.03 13:09:07.
