data_PCOD9175156
_publ_section_title
;
Structure prediction by ZEFSAII (Michael W. Deem and Ramdas Pophale) SiO2 
 PCOD9175156
Probable space group: C 2/M
;
_chemical_formula_sum "Si O2"
_cell_formula_units_Z 48
_cell_length_a 29.940201
_cell_length_b 7.958530
_cell_length_c 8.164045
_cell_angle_alpha 90.000000
_cell_angle_beta 102.093180
_cell_angle_gamma 90.000000
_cell_volume 1902.158165
_symmetry_space_group_name_H-M "C 2/M"
_symmetry_group_IT_number 12
_symmetry_cell_setting 'monoclinic'
loop_
_space_group_symop_operation_xyz
x,y,z
-x,y,-z
-x,-y,-z
x,-y,z
1/2+x,1/2+y,z
1/2-x,1/2+y,-z
1/2-x,1/2-y,-z
1/2+x,1/2-y,z
loop_
_atom_site_type_symbol
_atom_site_label
_atom_site_fract_x
_atom_site_fract_y
_atom_site_fract_z
Si Si1 0.889837 0.703132 0.954711
Si Si2 0.220926 0.807519 0.823673
Si Si3 0.694978 0.301990 0.290215
Si Si4 0.528360 0.200650 0.185463
Si Si5 0.638742 0.292505 0.562083
Si Si6 0.554256 0.697358 0.677019
O O1 0.888822 0.500000 0.957207
O O2 0.839318 0.771627 0.888590
O O3 0.921261 0.763022 0.823750
O O4 0.915591 0.765366 0.136613
O O5 0.257092 0.787326 0.702980
O O6 0.172871 0.730401 0.732526
O O7 0.210833 0.000000 0.844336
O O8 0.250000 0.750000 0.000000
O O9 0.703549 0.500000 0.313316
O O10 0.665323 0.238359 0.420191
O O11 0.496954 0.248645 0.314878
O O12 0.530412 0.000000 0.188749
O O13 0.500000 0.251147 0.000000
O O14 0.637831 0.500000 0.558290
O O15 0.587318 0.231780 0.559494
O O16 0.551402 0.500000 0.648212
#
# Coordination Sequence:
#
# PCOD9175156 Si02
#       6
#     8   8   8   8   8   8
#     4  10  20  35  54  79 110 144 183 226 272 323
#     4  11  22  39  61  85 111 141 179 221 267 320
#     4  11  22  38  57  79 109 144 181 223 271 319
#     4   8  16  31  50  75 109 143 178 225 274 318
#     4   9  21  38  55  78 111 145 177 219 269 323
#     4  10  18  32  56  83 108 140 184 228 271 321
#
# _framework density 25.234494999999999
#
# number of rings (size 3 to 8) (size 9 to 14) (size 15 to 20)
#    0.000    2.167    0.000    4.500    0.000    5.000 
#    0.000    9.167    0.000    5.000    0.000    0.000 
#    0.000    0.000    0.000    0.000    0.000    0.000 
#
# Total GULP energy -134141.872529 kJ/mol
# GULP energy per Si atom -5589.244689 kJ/mol
# Density = 2.517706 g / cm^3
# Si number density = 25.234495 Si / 1000 Ang^3
#
#
#
# Elastic Constant Matrix: (Units=GPa)
#
#
# Indices 1 2 3 4 5 6 
#
# 1 172.7055 -5.8311 14.9088 0.0000 -10.1204 0.0000
# 2 -5.8311 29.6434 -15.3063 0.0000 4.9187 0.0000
# 3 14.9088 -15.3063 79.8151 0.0000 -15.9746 0.0000
# 4 0.0000 0.0000 0.0000 13.4614 0.0000 -13.8590
# 5 -10.1204 4.9187 -15.9746 0.0000 48.0616 0.0000
# 6 0.0000 0.0000 0.0000 -13.8590 0.0000 21.0752
#
#
#
# Elastic Compliance Matrix: (Units=1/GPa)
#
#
# Indices 1 2 3 4 5 6 
#
# 1 0.005934 0.000596 -0.000810 0.000000 0.000919 0.000000
# 2 0.000596 0.037610 0.006809 0.000000 -0.001460 0.000000
# 3 -0.000810 0.006809 0.014797 0.000000 0.004051 0.000000
# 4 0.000000 0.000000 0.000000 0.230000 0.000000 0.151247
# 5 0.000919 -0.001460 0.004051 0.000000 0.022496 0.000000
# 6 0.000000 0.000000 0.000000 0.151247 0.000000 0.146909
#
#
# Mechanical properties :
#
#
# Convention : Reuss Voigt Hill
#
# Bulk Modulus (GPa) = 13.97995 29.96743 21.97369
# Shear Modulus (GPa) = 10.67467 35.74582 23.21024
#
# Velocity S-wave (km/s) = 2.05897 3.76779 3.03608
# Velocity P-wave (km/s) = 3.34732 5.55244 4.58444
#
# Compressibility (1/GPa) = 0.07153101
#
# Stress axis : x y z
#
# Youngs Moduli (GPa) = 168.51642 26.58886 67.58249
#
# Poissons Ratio (x) = -0.01586 0.05475
# Poissons Ratio (y) = -0.10052 -0.46016
# Poissons Ratio (z) = 0.13651 -0.18104
#
# Static dielectric constant tensor:
#      x y z
#    x 2.025770 0.000000 -0.025340 
#    y 0.000000 1.875840 0.000000 
#    z -0.025340 0.000000 2.211980 
# 
# From -- ./inp_files/108769.got.cif
#   From: 2010.05.17/outbox.cif.g08.bks.cpg/sg12_55_cif.got.tgz:108769.got - 2010.06.03 13:09:07.
