data_PCOD9175865
_publ_section_title
;
Structure prediction by ZEFSAII (Michael W. Deem and Ramdas Pophale) SiO2 
 PCOD9175865
Probable space group: C 2/M
;
_chemical_formula_sum "Si O2"
_cell_formula_units_Z 60
_cell_length_a 18.899883
_cell_length_b 26.605975
_cell_length_c 6.313958
_cell_angle_alpha 90.000000
_cell_angle_beta 104.878986
_cell_angle_gamma 90.000000
_cell_volume 3068.516798
_symmetry_space_group_name_H-M "C 2/M"
_symmetry_group_IT_number 12
_symmetry_cell_setting 'monoclinic'
loop_
_space_group_symop_operation_xyz
x,y,z
-x,y,-z
-x,-y,-z
x,-y,z
1/2+x,1/2+y,z
1/2-x,1/2+y,-z
1/2-x,1/2-y,-z
1/2+x,1/2-y,z
loop_
_atom_site_type_symbol
_atom_site_label
_atom_site_fract_x
_atom_site_fract_y
_atom_site_fract_z
Si Si1 0.720467 0.914819 0.403479
Si Si2 0.000000 0.105750 0.500000
Si Si3 0.148177 0.943559 0.787743
Si Si4 0.581922 0.105016 0.537058
Si Si5 0.557716 0.690772 0.230855
Si Si6 0.934437 0.299162 0.783257
Si Si7 0.166182 0.655929 0.989489
Si Si8 0.199200 0.142259 0.158422
O O1 0.788269 0.944331 0.345463
O O2 0.646192 0.929577 0.479570
O O3 0.688265 0.885861 0.177644
O O4 0.761392 0.880314 0.605668
O O5 0.069012 0.073420 0.635939
O O6 0.032435 0.144195 0.352159
O O7 0.143258 0.000000 0.872296
O O8 0.170541 0.902953 0.984524
O O9 0.500000 0.082677 0.500000
O O10 0.571542 0.153721 0.377105
O O11 0.612472 0.128594 0.780100
O O12 0.561443 0.746256 0.335063
O O13 0.633910 0.676305 0.185169
O O14 0.500000 0.696469 0.000000
O O15 0.866880 0.300071 0.894669
O O16 0.000000 0.306728 0.000000
O O17 0.238698 0.671360 0.922222
#
# Coordination Sequence:
#
# PCOD9175865 Si02
#       8
#     8   4   8   8   8   8   8   8
#     4   9  20  37  58  84 116 149 182 236 295 342
#     4  12  23  40  58  84 116 152 194 244 293 340
#     4  11  23  40  63  86 110 144 193 245 297 353
#     4  10  18  33  58  87 118 151 195 230 270 337
#     4  11  23  37  56  77 116 159 195 238 287 332
#     4  10  20  32  52  85 114 157 198 233 273 321
#     4   9  19  35  56  82 117 146 197 236 275 333
#     4  10  20  40  57  80 110 151 190 235 297 344
#
# _framework density 19.553419000000002
#
# number of rings (size 3 to 8) (size 9 to 14) (size 15 to 20)
#    0.000    1.867    4.000    0.200    0.933    1.067 
#    0.000    6.667    0.000    0.400    0.000    8.400 
#    0.000    0.000    0.000    0.000    0.000    0.000 
#
# Total GULP energy -167006.865677 kJ/mol
# GULP energy per Si atom -5566.895523 kJ/mol
# Density = 1.950891 g / cm^3
# Si number density = 19.553419 Si / 1000 Ang^3
#
#
#
# Elastic Constant Matrix: (Units=GPa)
#
#
# Indices 1 2 3 4 5 6 
#
# 1 131.5278 11.4033 27.6023 0.0000 6.8303 0.0000
# 2 11.4033 47.1580 10.0978 0.0000 4.1061 0.0000
# 3 27.6023 10.0978 85.9064 0.0000 11.2577 0.0000
# 4 0.0000 0.0000 0.0000 5.5925 0.0000 -5.4602
# 5 6.8303 4.1061 11.2577 0.0000 31.4095 0.0000
# 6 0.0000 0.0000 0.0000 -5.4602 0.0000 -9.2209
#
#
#
# Elastic Compliance Matrix: (Units=1/GPa)
#
#
# Indices 1 2 3 4 5 6 
#
# 1 0.008267 -0.001421 -0.002390 0.000000 -0.000755 0.000000
# 2 -0.001421 0.022120 -0.001894 0.000000 -0.001904 0.000000
# 3 -0.002390 -0.001894 0.013148 0.000000 -0.003945 0.000000
# 4 0.000000 0.000000 0.000000 0.113305 0.000000 -0.067093
# 5 -0.000755 -0.001904 -0.003945 0.000000 0.033665 0.000000
# 6 0.000000 0.000000 0.000000 -0.067093 0.000000 -0.068720
#
#
# Mechanical properties :
#
#
# Convention : Reuss Voigt Hill
#
# Bulk Modulus (GPa) = 31.12901 40.31101 35.72001
# Shear Modulus (GPa) = 34.74521 19.92214 27.33367
#
# Velocity S-wave (km/s) = 4.21995 3.19542 3.74290
# Velocity P-wave (km/s) = 6.30067 5.85447 6.08167
#
# Compressibility (1/GPa) = 0.03212437
#
# Stress axis : x y z
#
# Youngs Moduli (GPa) = 120.96253 45.20722 76.05619
#
# Poissons Ratio (x) = 0.06426 0.18179
# Poissons Ratio (y) = 0.17195 0.14404
# Poissons Ratio (z) = 0.28912 0.08562
#
# Static dielectric constant tensor:
#      x y z
#    x 1.770700 0.000000 -0.020990 
#    y 0.000000 1.653240 0.000000 
#    z -0.020990 0.000000 1.660200 
# 
# From -- ./inp_files/18349.got.cif
#   From: 2010.05.17/outbox.cif.g08.bks.cpg/sg12_10_cif.got.tgz:18349.got - 2010.06.03 13:09:07.
