data_PCOD9175784
_publ_section_title
;
Structure prediction by ZEFSAII (Michael W. Deem and Ramdas Pophale) SiO2 
 PCOD9175784
Probable space group: C 2/M
;
_chemical_formula_sum "Si O2"
_cell_formula_units_Z 48
_cell_length_a 20.736890
_cell_length_b 16.332384
_cell_length_c 10.036262
_cell_angle_alpha 90.000000
_cell_angle_beta 37.624589
_cell_angle_gamma 90.000000
_cell_volume 2075.105988
_symmetry_space_group_name_H-M "C 2/M"
_symmetry_group_IT_number 12
_symmetry_cell_setting 'monoclinic'
loop_
_space_group_symop_operation_xyz
x,y,z
-x,y,-z
-x,-y,-z
x,-y,z
1/2+x,1/2+y,z
1/2-x,1/2+y,-z
1/2-x,1/2-y,-z
1/2+x,1/2-y,z
loop_
_atom_site_type_symbol
_atom_site_label
_atom_site_fract_x
_atom_site_fract_y
_atom_site_fract_z
Si Si1 0.023011 0.649399 0.316028
Si Si2 0.758627 0.092599 0.975250
Si Si3 0.410110 0.805965 0.066117
Si Si4 0.891144 0.128190 0.233048
Si Si5 0.795847 0.630436 0.642241
Si Si6 0.182515 0.826439 0.379010
O O1 0.000000 0.686495 0.500000
O O2 0.916742 0.599472 0.452802
O O3 0.132341 0.600444 0.153559
O O4 0.049024 0.709343 0.150628
O O5 0.821019 0.150121 0.769945
O O6 0.792604 0.000000 0.897517
O O7 0.765383 0.115269 0.119176
O O8 0.391792 0.722636 0.177890
O O9 0.300481 0.851616 0.232467
O O10 0.500000 0.852710 0.000000
O O11 0.781126 0.099079 0.347585
O O12 0.891072 0.130522 0.392712
O O13 0.000000 0.091993 0.000000
O O14 0.817024 0.728557 0.602301
#
# Coordination Sequence:
#
# PCOD9175784 Si02
#       6
#     8   8   8   8   8   8
#     4   9  18  30  51  81 114 143 172 215 274 337
#     4  10  22  38  56  81 115 150 183 224 277 334
#     4   9  15  27  48  78 112 139 171 220 280 330
#     4  10  19  32  53  81 108 139 183 236 281 318
#     4  10  18  33  57  85 112 144 183 225 276 331
#     4  10  19  33  55  82 112 146 185 230 277 324
#
# _framework density 23.131350000000001
#
# number of rings (size 3 to 8) (size 9 to 14) (size 15 to 20)
#    0.000    2.333    0.000    5.500    0.000    4.333 
#    0.000    1.667    0.000   20.000    0.000    0.000 
#    0.000    0.000    0.000    0.000    0.000    0.000 
#
# Total GULP energy -133784.627436 kJ/mol
# GULP energy per Si atom -5574.359477 kJ/mol
# Density = 2.307870 g / cm^3
# Si number density = 23.131350 Si / 1000 Ang^3
#
#
#
# Elastic Constant Matrix: (Units=GPa)
#
#
# Indices 1 2 3 4 5 6 
#
# 1 52.2692 -5.9189 10.8032 0.0000 9.6819 0.0000
# 2 -5.9189 47.6465 16.0916 0.0000 9.2175 0.0000
# 3 10.8032 16.0916 127.3216 0.0000 26.6438 0.0000
# 4 0.0000 0.0000 0.0000 -18.9284 0.0000 -21.5262
# 5 9.6819 9.2175 26.6438 0.0000 39.2109 0.0000
# 6 0.0000 0.0000 0.0000 -21.5262 0.0000 -32.9442
#
#
#
# Elastic Compliance Matrix: (Units=1/GPa)
#
#
# Indices 1 2 3 4 5 6 
#
# 1 0.020805 0.004000 -0.001165 0.000000 -0.005286 0.000000
# 2 0.004000 0.023193 -0.002242 0.000000 -0.004917 0.000000
# 3 -0.001165 -0.002242 0.009403 0.000000 -0.005575 0.000000
# 4 0.000000 0.000000 0.000000 -0.205638 0.000000 0.134367
# 5 -0.005286 -0.004917 -0.005575 0.000000 0.031752 0.000000
# 6 0.000000 0.000000 0.000000 0.134367 0.000000 -0.118152
#
#
# Mechanical properties :
#
#
# Convention : Reuss Voigt Hill
#
# Bulk Modulus (GPa) = 18.31890 29.90989 24.11439
# Shear Modulus (GPa) = -22.56025 11.21841 -5.67092
#
# Velocity S-wave (km/s) = -3.12638 2.20463 -1.56746
# Velocity P-wave (km/s) = 2.25736 4.40898 2.67800
#
# Compressibility (1/GPa) = 0.05458844
#
# Stress axis : x y z
#
# Youngs Moduli (GPa) = 48.06626 43.11614 106.35062
#
# Poissons Ratio (x) = -0.17248 0.12387
# Poissons Ratio (y) = -0.19229 0.23842
# Poissons Ratio (z) = 0.05598 0.09666
#
# Static dielectric constant tensor:
#      x y z
#    x 1.965450 0.000000 -0.036330 
#    y 0.000000 1.886280 0.000000 
#    z -0.036330 0.000000 1.930740 
# 
# From -- ./inp_files/89420.got.cif
#   From: 2010.05.17/outbox.cif.g08.bks.cpg/sg12_45_cif.got.tgz:89420.got - 2010.06.03 13:09:07.
