data_PCOD9175051
_publ_section_title
;
Structure prediction by ZEFSAII (Michael W. Deem and Ramdas Pophale) SiO2 
 PCOD9175051
Probable space group: C 2/M
;
_chemical_formula_sum "Si O2"
_cell_formula_units_Z 48
_cell_length_a 24.253170
_cell_length_b 16.603255
_cell_length_c 19.021233
_cell_angle_alpha 90.000000
_cell_angle_beta 160.459381
_cell_angle_gamma 90.000000
_cell_volume 2561.911588
_symmetry_space_group_name_H-M "C 2/M"
_symmetry_group_IT_number 12
_symmetry_cell_setting 'monoclinic'
loop_
_space_group_symop_operation_xyz
x,y,z
-x,y,-z
-x,-y,-z
x,-y,z
1/2+x,1/2+y,z
1/2-x,1/2+y,-z
1/2-x,1/2-y,-z
1/2+x,1/2-y,z
loop_
_atom_site_type_symbol
_atom_site_label
_atom_site_fract_x
_atom_site_fract_y
_atom_site_fract_z
Si Si1 0.945999 0.311580 0.362184
Si Si2 0.157750 0.911206 0.040559
Si Si3 0.625357 0.247992 0.458086
Si Si4 0.502936 0.251703 0.919997
Si Si5 0.167579 0.312770 0.992528
Si Si6 0.435280 0.590772 0.235950
O O1 0.000000 0.272180 0.500000
O O2 0.098264 0.309611 0.493062
O O3 0.853089 0.393468 0.269101
O O4 0.802997 0.258928 0.153320
O O5 0.093585 0.908006 0.882925
O O6 0.080387 0.838419 0.992193
O O7 0.123742 0.000000 0.028080
O O8 0.815300 0.248499 0.667055
O O9 0.494465 0.213961 0.244717
O O10 0.567224 0.338534 0.408231
O O11 0.608694 0.186223 0.002772
O O12 0.500000 0.238949 0.000000
O O13 0.266524 0.384949 0.074367
O O14 0.484622 0.500000 0.314839
#
# Coordination Sequence:
#
# PCOD9175051 Si02
#       6
#     8   8   8   8   8   8
#     4  10  18  32  55  80 108 144 182 222 264 317
#     4  10  20  36  53  79 117 147 177 219 272 327
#     4  11  18  35  59  81 107 145 187 227 262 322
#     4  11  23  36  56  82 112 149 182 222 275 328
#     4  10  19  36  56  81 107 144 187 227 259 323
#     4  10  19  35  59  85 108 136 182 237 278 310
#
# _framework density 18.73601
#
# number of rings (size 3 to 8) (size 9 to 14) (size 15 to 20)
#    0.000    1.667    5.000    3.500    0.000    0.667 
#    0.000    2.500    0.000   19.000    0.000    0.000 
#    0.000    0.000    0.000    0.000    0.000    0.000 
#
# Total GULP energy -133668.156686 kJ/mol
# GULP energy per Si atom -5569.506529 kJ/mol
# Density = 1.869337 g / cm^3
# Si number density = 18.736010 Si / 1000 Ang^3
#
#
#
# Elastic Constant Matrix: (Units=GPa)
#
#
# Indices 1 2 3 4 5 6 
#
# 1 108.5623 13.3297 0.0354 0.0007 0.0826 0.0004
# 2 13.3297 73.8297 7.8830 0.0006 4.3585 0.0003
# 3 0.0354 7.8830 44.1330 0.0008 4.1634 0.0006
# 4 0.0007 0.0006 0.0008 10.1617 0.0008 3.8365
# 5 0.0826 4.3585 4.1634 0.0008 31.9205 0.0005
# 6 0.0004 0.0003 0.0006 3.8365 0.0005 17.9074
#
#
#
# Elastic Compliance Matrix: (Units=1/GPa)
#
#
# Indices 1 2 3 4 5 6 
#
# 1 0.009425 -0.001743 0.000287 -0.000001 0.000176 0.000000
# 2 -0.001743 0.014210 -0.002383 0.000000 -0.001625 0.000000
# 3 0.000287 -0.002383 0.023341 -0.000001 -0.002720 0.000000
# 4 -0.000001 0.000000 -0.000001 0.107069 -0.000002 -0.022939
# 5 0.000176 -0.001625 -0.002720 -0.000002 0.031904 0.000000
# 6 0.000000 0.000000 0.000000 -0.022939 0.000000 0.060757
#
#
# Mechanical properties :
#
#
# Convention : Reuss Voigt Hill
#
# Bulk Modulus (GPa) = 25.44691 29.89125 27.66908
# Shear Modulus (GPa) = 18.69274 25.68305 22.18789
#
# Velocity S-wave (km/s) = 3.16205 3.70643 3.44501
# Velocity P-wave (km/s) = 5.19064 5.85708 5.53390
#
# Compressibility (1/GPa) = 0.03929750
#
# Stress axis : x y z
#
# Youngs Moduli (GPa) = 106.10019 70.37426 42.84338
#
# Poissons Ratio (x) = 0.12264 -0.01230
# Poissons Ratio (y) = 0.18490 0.10212
# Poissons Ratio (z) = -0.03046 0.16773
#
# Static dielectric constant tensor:
#      x y z
#    x 1.710050 0.000000 -0.025400 
#    y 0.000000 1.659450 0.000000 
#    z -0.025400 0.000000 1.685930 
# 
# From -- ./inp_files/74470.got.cif
#   From: 2010.05.17/outbox.cif.g08.bks.cpg/sg12_38_cif.got.tgz:74470.got - 2010.06.03 13:09:07.
