data_PCOD9175571
_publ_section_title
;
Structure prediction by ZEFSAII (Michael W. Deem and Ramdas Pophale) SiO2 
 PCOD9175571
Probable space group: C 2/M
;
_chemical_formula_sum "Si O2"
_cell_formula_units_Z 48
_cell_length_a 12.374325
_cell_length_b 19.085726
_cell_length_c 16.492338
_cell_angle_alpha 90.000000
_cell_angle_beta 135.848554
_cell_angle_gamma 90.000000
_cell_volume 2713.121807
_symmetry_space_group_name_H-M "C 2/M"
_symmetry_group_IT_number 12
_symmetry_cell_setting 'monoclinic'
loop_
_space_group_symop_operation_xyz
x,y,z
-x,y,-z
-x,-y,-z
x,-y,z
1/2+x,1/2+y,z
1/2-x,1/2+y,-z
1/2-x,1/2-y,-z
1/2+x,1/2-y,z
loop_
_atom_site_type_symbol
_atom_site_label
_atom_site_fract_x
_atom_site_fract_y
_atom_site_fract_z
Si Si1 0.836840 0.500000 0.632989
Si Si2 0.987647 0.000000 0.611826
Si Si3 0.049575 0.359070 0.220906
Si Si4 0.500000 0.123520 0.500000
Si Si5 0.339443 0.358618 0.265009
Si Si6 0.207515 0.500000 0.574049
Si Si7 0.569605 0.770232 0.391373
Si Si8 0.152052 0.418032 0.022937
O O1 0.649997 0.500000 0.527761
O O2 0.899148 0.431813 0.710128
O O3 0.879922 0.500000 0.560953
O O4 0.089934 0.931075 0.664298
O O5 0.886108 0.000000 0.641763
O O6 0.189103 0.337923 0.236102
O O7 0.037210 0.303856 0.286200
O O8 0.900827 0.377498 0.086081
O O9 0.647143 0.070364 0.584342
O O10 0.476667 0.173344 0.564897
O O11 0.467372 0.299314 0.342541
O O12 0.282398 0.377259 0.143690
O O13 0.750000 0.750000 0.500000
O O14 0.192409 0.500000 0.029883
O O15 0.000000 0.419857 0.000000
#
# Coordination Sequence:
#
# PCOD9175571 Si02
#       8
#     4   4   8   4   8   4   8   8
#     4  10  18  33  54  85 110 136 187 240 269 336
#     4  10  20  35  53  83 114 142 190 231 284 342
#     4  11  21  36  58  85 114 146 191 241 278 337
#     4  11  20  38  56  75 116 156 182 223 284 340
#     4  11  22  36  57  82 115 154 185 238 293 331
#     4   9  20  36  56  80 110 149 193 220 271 351
#     4  12  24  37  54  84 122 152 190 231 286 351
#     4   9  18  35  58  83 109 143 192 238 286 335
#
# _framework density 17.691797999999999
#
# number of rings (size 3 to 8) (size 9 to 14) (size 15 to 20)
#    0.500    1.000    3.333    3.500    0.000    3.333 
#    0.000    0.000    0.000    0.000    0.000    1.167 
#    0.000    0.000    0.000    0.000    0.000    0.000 
#
# Total GULP energy -133904.398152 kJ/mol
# GULP energy per Si atom -5579.349923 kJ/mol
# Density = 1.765153 g / cm^3
# Si number density = 17.691798 Si / 1000 Ang^3
#
#
#
# Elastic Constant Matrix: (Units=GPa)
#
#
# Indices 1 2 3 4 5 6 
#
# 1 72.5782 37.8645 25.1351 0.0000 -10.0590 0.0000
# 2 37.8645 119.8361 48.1881 0.0000 -5.1084 0.0000
# 3 25.1351 48.1881 95.2611 0.0001 -15.4572 0.0001
# 4 0.0000 0.0000 0.0001 23.9165 0.0000 -2.5735
# 5 -10.0590 -5.1084 -15.4572 0.0000 25.4627 0.0000
# 6 0.0000 0.0000 0.0001 -2.5735 0.0000 25.4057
#
#
#
# Elastic Compliance Matrix: (Units=1/GPa)
#
#
# Indices 1 2 3 4 5 6 
#
# 1 0.017433 -0.004738 -0.001375 0.000000 0.005102 0.000000
# 2 -0.004738 0.011798 -0.005145 0.000000 -0.002628 0.000000
# 3 -0.001375 -0.005145 0.014650 0.000000 0.007318 0.000000
# 4 0.000000 0.000000 0.000000 0.042273 0.000000 0.004282
# 5 0.005102 -0.002628 0.007318 0.000000 0.045204 0.000000
# 6 0.000000 0.000000 0.000000 0.004282 0.000000 0.039795
#
#
# Mechanical properties :
#
#
# Convention : Reuss Voigt Hill
#
# Bulk Modulus (GPa) = 46.80258 56.67230 51.73744
# Shear Modulus (GPa) = 24.90148 26.72284 25.81216
#
# Velocity S-wave (km/s) = 3.75576 3.89069 3.82382
# Velocity P-wave (km/s) = 6.73197 7.23090 6.98589
#
# Compressibility (1/GPa) = 0.02136634
#
# Stress axis : x y z
#
# Youngs Moduli (GPa) = 57.36119 84.75709 68.25857
#
# Poissons Ratio (x) = 0.40157 0.09389
# Poissons Ratio (y) = 0.27177 0.35116
# Poissons Ratio (z) = 0.07890 0.43603
#
# Static dielectric constant tensor:
#      x y z
#    x 1.641240 0.000000 -0.016730 
#    y 0.000000 1.578710 0.000000 
#    z -0.016730 0.000000 1.597770 
# 
# From -- ./inp_files/264030.got.cif
#   From: 2010.05.17/outbox.cif.g08.bks.cpg/sg12_133_cif.got.tgz:264030.got - 2010.06.03 13:09:07.
