data_PCOD9175971
_publ_section_title
;
Structure prediction by ZEFSAII (Michael W. Deem and Ramdas Pophale) SiO2 
 PCOD9175971
Probable space group: C 2/M
;
_chemical_formula_sum "Si O2"
_cell_formula_units_Z 52
_cell_length_a 31.202852
_cell_length_b 15.634937
_cell_length_c 9.736842
_cell_angle_alpha 90.000000
_cell_angle_beta 143.564207
_cell_angle_gamma 90.000000
_cell_volume 2821.224614
_symmetry_space_group_name_H-M "C 2/M"
_symmetry_group_IT_number 12
_symmetry_cell_setting 'monoclinic'
loop_
_space_group_symop_operation_xyz
x,y,z
-x,y,-z
-x,-y,-z
x,-y,z
1/2+x,1/2+y,z
1/2-x,1/2+y,-z
1/2-x,1/2-y,-z
1/2+x,1/2-y,z
loop_
_atom_site_type_symbol
_atom_site_label
_atom_site_fract_x
_atom_site_fract_y
_atom_site_fract_z
Si Si1 0.071235 0.000000 0.278683
Si Si2 0.770685 0.728948 0.897103
Si Si3 0.389634 0.903384 0.245370
Si Si4 0.000000 0.694566 0.000000
Si Si5 0.364056 0.318440 0.636121
Si Si6 0.013797 0.338895 0.738801
Si Si7 0.031256 0.000000 0.732089
Si Si8 0.884712 0.175881 0.007484
O O1 0.115074 0.913877 0.358953
O O2 0.036933 0.000000 0.341178
O O3 0.000000 0.000000 0.000000
O O4 0.702051 0.717162 0.622252
O O5 0.825839 0.796541 0.968859
O O6 0.750000 0.750000 0.000000
O O7 0.814498 0.640173 0.017461
O O8 0.434222 0.846767 0.470076
O O9 0.437408 0.899266 0.230216
O O10 0.383545 0.000000 0.279009
O O11 0.933022 0.756794 0.793824
O O12 0.015199 0.641169 0.902746
O O13 0.351589 0.319020 0.768549
O O14 0.050302 0.245534 0.817757
O O15 0.000000 0.000000 0.500000
O O16 0.080026 0.083602 0.882155
#
# Coordination Sequence:
#
# PCOD9175971 Si02
#       8
#     4   8   8   4   8   8   4   8
#     4  12  20  40  62  96 122 159 200 259 310 373
#     4  11  25  39  61  86 122 162 201 249 305 363
#     4  10  21  39  57  82 113 155 194 235 288 350
#     4  10  18  33  61  90 108 148 194 242 292 340
#     4  11  21  38  63  86 122 159 205 243 299 375
#     4   9  18  34  63  82 115 145 194 240 286 346
#     4  12  26  36  64  98 132 155 204 267 320 364
#     4  10  22  41  59  92 120 162 202 249 308 362
#
# _framework density 18.431712000000001
#
# number of rings (size 3 to 8) (size 9 to 14) (size 15 to 20)
#    0.000    1.538    2.308    3.231    7.538    0.000 
#    1.385    1.538    0.000    0.000    0.000    0.000 
#    0.000    0.000    0.000    0.000    0.000    0.000 
#
# Total GULP energy -145147.990919 kJ/mol
# GULP energy per Si atom -5582.615035 kJ/mol
# Density = 1.838976 g / cm^3
# Si number density = 18.431712 Si / 1000 Ang^3
#
#
#
# Elastic Constant Matrix: (Units=GPa)
#
#
# Indices 1 2 3 4 5 6 
#
# 1 114.0441 29.7162 41.2287 0.0000 -23.4397 0.0000
# 2 29.7162 82.7945 39.0431 0.0000 -4.6781 0.0000
# 3 41.2287 39.0431 134.6337 0.0000 -4.4177 0.0000
# 4 0.0000 0.0000 0.0000 7.4878 0.0000 -2.7918
# 5 -23.4397 -4.6781 -4.4177 0.0000 35.6820 0.0000
# 6 0.0000 0.0000 0.0000 -2.7918 0.0000 15.3264
#
#
#
# Elastic Compliance Matrix: (Units=1/GPa)
#
#
# Indices 1 2 3 4 5 6 
#
# 1 0.011870 -0.002611 -0.002644 0.000000 0.007128 0.000000
# 2 -0.002611 0.014630 -0.003450 0.000000 -0.000224 0.000000
# 3 -0.002644 -0.003450 0.009203 0.000000 -0.001050 0.000000
# 4 0.000000 0.000000 0.000000 0.143282 0.000000 0.026100
# 5 0.007128 -0.000224 -0.001050 0.000000 0.032548 0.000000
# 6 0.000000 0.000000 0.000000 0.026100 0.000000 0.070001
#
#
# Mechanical properties :
#
#
# Convention : Reuss Voigt Hill
#
# Bulk Modulus (GPa) = 54.66694 61.27204 57.96949
# Shear Modulus (GPa) = 16.39124 26.46486 21.42805
#
# Velocity S-wave (km/s) = 2.98534 3.79335 3.41334
# Velocity P-wave (km/s) = 6.45032 7.24575 6.85957
#
# Compressibility (1/GPa) = 0.01829259
#
# Stress axis : x y z
#
# Youngs Moduli (GPa) = 84.24942 68.35490 108.65638
#
# Poissons Ratio (x) = 0.17845 0.28727
# Poissons Ratio (y) = 0.21995 0.37491
# Poissons Ratio (z) = 0.22274 0.23585
#
# Static dielectric constant tensor:
#      x y z
#    x 1.698060 0.000000 -0.020070 
#    y 0.000000 1.604370 0.000000 
#    z -0.020070 0.000000 1.630660 
# 
# From -- ./inp_files/112112.got.cif
#   From: 2010.05.17/outbox.cif.g08.bks.cpg/sg12_57_cif.got.tgz:112112.got - 2010.06.03 13:09:07.
