data_PCOD9175880
_publ_section_title
;
Structure prediction by ZEFSAII (Michael W. Deem and Ramdas Pophale) SiO2 
 PCOD9175880
Probable space group: C 2/M
;
_chemical_formula_sum "Si O2"
_cell_formula_units_Z 56
_cell_length_a 29.322202
_cell_length_b 15.156146
_cell_length_c 12.533578
_cell_angle_alpha 90.000000
_cell_angle_beta 33.929667
_cell_angle_gamma 90.000000
_cell_volume 3109.071129
_symmetry_space_group_name_H-M "C 2/M"
_symmetry_group_IT_number 12
_symmetry_cell_setting 'monoclinic'
loop_
_space_group_symop_operation_xyz
x,y,z
-x,y,-z
-x,-y,-z
x,-y,z
1/2+x,1/2+y,z
1/2-x,1/2+y,-z
1/2-x,1/2-y,-z
1/2+x,1/2-y,z
loop_
_atom_site_type_symbol
_atom_site_label
_atom_site_fract_x
_atom_site_fract_y
_atom_site_fract_z
Si Si1 0.298588 0.101801 0.213809
Si Si2 0.083203 0.604391 0.406645
Si Si3 0.930774 0.751587 0.389508
Si Si4 0.735639 0.106605 0.964080
Si Si5 0.321287 0.305190 0.416345
Si Si6 0.917473 0.894456 0.594607
Si Si7 0.435298 0.768675 0.038977
O O1 0.278856 0.133711 0.131302
O O2 0.220162 0.112996 0.443452
O O3 0.369693 0.159955 0.127898
O O4 0.322751 0.000000 0.160018
O O5 0.092490 0.500000 0.413973
O O6 0.073969 0.665899 0.527189
O O7 0.000000 0.613464 0.500000
O O8 0.161923 0.634890 0.184363
O O9 0.861220 0.749780 0.434742
O O10 0.920942 0.837525 0.481190
O O11 0.014713 0.758831 0.161620
O O12 0.828622 0.129124 0.817749
O O13 0.731494 0.000000 0.971712
O O14 0.250000 0.250000 0.500000
O O15 0.389930 0.310308 0.191303
O O16 0.000000 0.873790 0.500000
O O17 0.916849 0.000000 0.576602
O O18 0.500000 0.805913 0.000000
#
# Coordination Sequence:
#
# PCOD9175880 Si02
#       7
#     8   8   8   8   8   8   8
#     4  10  18  33  59  81 106 148 189 227 285 353
#     4  10  21  36  55  85 124 150 180 229 280 347
#     4  11  20  36  58  81 108 153 189 226 282 350
#     4   9  18  34  54  80 112 146 182 229 280 330
#     4   9  19  37  53  76 108 141 182 238 277 321
#     4  10  21  37  55  80 113 146 191 243 281 329
#     4   9  20  35  53  78 112 142 182 240 291 327
#
# _framework density 18.011811000000002
#
# number of rings (size 3 to 8) (size 9 to 14) (size 15 to 20)
#    0.000    2.286    1.429    1.286    0.000    2.571 
#    5.143    6.429    0.000    2.571    0.000    0.000 
#    0.000    0.000    0.000    0.000    0.000    0.000 
#
# Total GULP energy -155916.293348 kJ/mol
# GULP energy per Si atom -5568.439048 kJ/mol
# Density = 1.797082 g / cm^3
# Si number density = 18.011811 Si / 1000 Ang^3
#
#
#
# Elastic Constant Matrix: (Units=GPa)
#
#
# Indices 1 2 3 4 5 6 
#
# 1 82.9204 12.1476 42.8049 0.0000 -11.8213 0.0000
# 2 12.1476 15.0827 15.1679 0.0000 -0.3791 0.0000
# 3 42.8049 15.1679 146.2205 0.0000 1.5969 0.0000
# 4 0.0000 0.0000 0.0000 21.1014 0.0000 4.1431
# 5 -11.8213 -0.3791 1.5969 0.0000 30.8484 0.0000
# 6 0.0000 0.0000 0.0000 4.1431 0.0000 2.7759
#
#
#
# Elastic Compliance Matrix: (Units=1/GPa)
#
#
# Indices 1 2 3 4 5 6 
#
# 1 0.016304 -0.009046 -0.003904 0.000000 0.006339 0.000000
# 2 -0.009046 0.079095 -0.005532 0.000000 -0.002208 0.000000
# 3 -0.003904 -0.005532 0.008578 0.000000 -0.002008 0.000000
# 4 0.000000 0.000000 0.000000 0.067034 0.000000 -0.100049
# 5 0.006339 -0.002208 -0.002008 0.000000 0.034922 0.000000
# 6 0.000000 0.000000 0.000000 -0.100049 0.000000 0.509565
#
#
# Mechanical properties :
#
#
# Convention : Reuss Voigt Hill
#
# Bulk Modulus (GPa) = 14.92273 42.71828 28.82051
# Shear Modulus (GPa) = 6.45329 22.55203 14.50266
#
# Velocity S-wave (km/s) = 1.89488 3.54230 2.84064
# Velocity P-wave (km/s) = 3.61807 6.36387 5.17635
#
# Compressibility (1/GPa) = 0.06701186
#
# Stress axis : x y z
#
# Youngs Moduli (GPa) = 61.33559 12.64305 116.58299
#
# Poissons Ratio (x) = 0.11437 0.45510
# Poissons Ratio (y) = 0.55484 0.64499
# Poissons Ratio (z) = 0.23943 0.06995
#
# Static dielectric constant tensor:
#      x y z
#    x 1.615840 0.000000 -0.027960 
#    y 0.000000 1.584960 0.000000 
#    z -0.027960 0.000000 1.681800 
# 
# From -- ./inp_files/189631.got.cif
#   From: 2010.05.17/outbox.cif.g08.bks.cpg/sg12_95_cif.got.tgz:189631.got - 2010.06.03 13:09:07.
