data_PCOD9175019
_publ_section_title
;
Structure prediction by ZEFSAII (Michael W. Deem and Ramdas Pophale) SiO2 
 PCOD9175019
Probable space group: C 2/M
;
_chemical_formula_sum "Si O2"
_cell_formula_units_Z 64
_cell_length_a 14.977852
_cell_length_b 7.740943
_cell_length_c 25.900553
_cell_angle_alpha 90.000000
_cell_angle_beta 95.253803
_cell_angle_gamma 90.000000
_cell_volume 2990.364046
_symmetry_space_group_name_H-M "C 2/M"
_symmetry_group_IT_number 12
_symmetry_cell_setting 'monoclinic'
loop_
_space_group_symop_operation_xyz
x,y,z
-x,y,-z
-x,-y,-z
x,-y,z
1/2+x,1/2+y,z
1/2-x,1/2+y,-z
1/2-x,1/2-y,-z
1/2+x,1/2-y,z
loop_
_atom_site_type_symbol
_atom_site_label
_atom_site_fract_x
_atom_site_fract_y
_atom_site_fract_z
Si Si1 0.750935 0.706549 0.940044
Si Si2 0.271265 0.199897 0.681688
Si Si3 0.070216 0.711647 0.374747
Si Si4 0.285744 0.200531 0.211802
Si Si5 0.916734 0.201631 0.135583
Si Si6 0.617206 0.703053 0.139353
Si Si7 0.645641 0.793032 0.488441
Si Si8 0.117483 0.709377 0.600117
O O1 0.753700 0.500000 0.933820
O O2 0.660378 0.773105 0.906795
O O3 0.837337 0.778534 0.914346
O O4 0.750000 0.750000 0.000000
O O5 0.367059 0.272055 0.668472
O O6 0.224350 0.287314 0.727629
O O7 0.207693 0.215527 0.628459
O O8 0.281681 0.000000 0.696169
O O9 0.074801 0.500000 0.374656
O O10 0.108791 0.772569 0.432101
O O11 0.966562 0.759950 0.369169
O O12 0.371770 0.285656 0.189730
O O13 0.194024 0.275095 0.181753
O O14 0.291943 0.000000 0.197390
O O15 0.016867 0.277293 0.137759
O O16 0.925514 0.000000 0.121971
O O17 0.609509 0.500000 0.152031
O O18 0.750000 0.750000 0.500000
O O19 0.601731 0.735232 0.540072
O O20 0.634048 0.000000 0.486083
O O21 0.124791 0.500000 0.600698
#
# Coordination Sequence:
#
# PCOD9175019 Si02
#       8
#     8   8   8   8   8   8   8   8
#     4  10  20  34  54  82 118 154 188 226 268 317
#     4  11  22  37  55  76 107 139 171 217 268 320
#     4   9  19  35  54  77 105 138 173 210 262 320
#     4  10  21  37  57  80 106 136 176 225 271 320
#     4   9  19  37  59  82 109 145 185 224 272 321
#     4   9  19  37  59  81 108 143 184 228 272 320
#     4  10  18  32  55  78 104 136 171 211 259 315
#     4  10  20  35  56  79 103 136 176 216 258 315
#
# _framework density 21.402077999999999
#
# number of rings (size 3 to 8) (size 9 to 14) (size 15 to 20)
#    0.000    2.250    1.250    1.500    0.000    4.500 
#    0.000    6.875    0.000    1.500    0.000    0.000 
#    0.000    0.000    0.000    0.000    0.000    0.000 
#
# Total GULP energy -178580.039348 kJ/mol
# GULP energy per Si atom -5580.626230 kJ/mol
# Density = 2.135337 g / cm^3
# Si number density = 21.402078 Si / 1000 Ang^3
#
#
#
# Elastic Constant Matrix: (Units=GPa)
#
#
# Indices 1 2 3 4 5 6 
#
# 1 129.5995 -0.2769 13.0550 0.0000 -23.6494 0.0000
# 2 -0.2769 30.6968 -7.9228 0.0000 5.1582 0.0000
# 3 13.0550 -7.9228 74.5175 0.0000 -16.8152 0.0000
# 4 0.0000 0.0000 0.0000 16.3773 0.0000 0.3712
# 5 -23.6494 5.1582 -16.8152 0.0000 17.2145 0.0000
# 6 0.0000 0.0000 0.0000 0.3712 0.0000 10.9028
#
#
#
# Elastic Compliance Matrix: (Units=1/GPa)
#
#
# Indices 1 2 3 4 5 6 
#
# 1 0.010638 -0.002314 0.001725 0.000000 0.016993 0.000000
# 2 -0.002314 0.034977 0.001336 0.000000 -0.012355 0.000000
# 3 0.001725 0.001336 0.017579 0.000000 0.019140 0.000000
# 4 0.000000 0.000000 0.000000 0.061107 0.000000 -0.002081
# 5 0.016993 -0.012355 0.019140 0.000000 0.103834 0.000000
# 6 0.000000 0.000000 0.000000 -0.002081 0.000000 0.091790
#
#
# Mechanical properties :
#
#
# Convention : Reuss Voigt Hill
#
# Bulk Modulus (GPa) = 15.45902 27.16938 21.31420
# Shear Modulus (GPa) = 14.70615 24.22950 19.46783
#
# Velocity S-wave (km/s) = 2.62417 3.36833 3.01927
# Velocity P-wave (km/s) = 4.05223 5.27730 4.70481
#
# Compressibility (1/GPa) = 0.06468717
#
# Stress axis : x y z
#
# Youngs Moduli (GPa) = 93.99966 28.59044 56.88745
#
# Poissons Ratio (x) = 0.06617 -0.09812
# Poissons Ratio (y) = 0.21755 -0.07602
# Poissons Ratio (z) = -0.16213 -0.03821
#
# Static dielectric constant tensor:
#      x y z
#    x 1.790880 0.000000 0.004910 
#    y 0.000000 1.816270 0.000000 
#    z 0.004910 0.000000 1.772290 
# 
# From -- ./inp_files/338716.got.cif
#   From: 2010.05.17/outbox.cif.g08.bks.cpg/sg12_170_cif.got.tgz:338716.got - 2010.06.03 13:09:07.
