data_PCOD9175447
_publ_section_title
;
Structure prediction by ZEFSAII (Michael W. Deem and Ramdas Pophale) SiO2 
 PCOD9175447
Probable space group: C 2/M
;
_chemical_formula_sum "Si O2"
_cell_formula_units_Z 52
_cell_length_a 13.630548
_cell_length_b 27.504789
_cell_length_c 15.657131
_cell_angle_alpha 90.000000
_cell_angle_beta 155.335388
_cell_angle_gamma 90.000000
_cell_volume 2449.561281
_symmetry_space_group_name_H-M "C 2/M"
_symmetry_group_IT_number 12
_symmetry_cell_setting 'monoclinic'
loop_
_space_group_symop_operation_xyz
x,y,z
-x,y,-z
-x,-y,-z
x,-y,z
1/2+x,1/2+y,z
1/2-x,1/2+y,-z
1/2-x,1/2-y,-z
1/2+x,1/2-y,z
loop_
_atom_site_type_symbol
_atom_site_label
_atom_site_fract_x
_atom_site_fract_y
_atom_site_fract_z
Si Si1 0.510808 0.765377 0.917842
Si Si2 0.500000 0.273183 0.500000
Si Si3 0.331643 0.604596 0.066994
Si Si4 0.604322 0.652055 0.431412
Si Si5 0.908909 0.688934 0.202620
Si Si6 0.174879 0.443778 0.568926
Si Si7 0.375375 0.944758 0.671892
O O1 0.245716 0.744148 0.696608
O O2 0.547469 0.795870 0.861616
O O3 0.500000 0.792415 0.000000
O O4 0.731223 0.728823 0.098141
O O5 0.479505 0.309454 0.564972
O O6 0.404372 0.635854 0.207576
O O7 0.571609 0.580048 0.229775
O O8 0.235944 0.639652 0.917748
O O9 0.119738 0.566794 0.912713
O O10 0.826616 0.677343 0.557154
O O11 0.705178 0.601791 0.552574
O O12 0.207956 0.500000 0.618431
O O13 0.000000 0.421431 0.500000
O O14 0.086815 0.442735 0.401225
O O15 0.291981 0.000000 0.624890
#
# Coordination Sequence:
#
# PCOD9175447 Si02
#       7
#     8   4   8   8   8   8   8
#     4  10  20  36  55  77 104 139 176 222 272 323
#     4  10  20  36  59  82  98 136 185 224 270 322
#     4  10  18  33  52  74 102 143 175 217 264 315
#     4   9  19  35  56  78 107 139 178 224 268 316
#     4   9  20  36  51  76 109 136 177 222 269 322
#     4   9  18  32  49  74 105 138 178 219 257 305
#     4   9  18  33  53  77 106 142 180 215 261 317
#
# _framework density 21.228292
#
# number of rings (size 3 to 8) (size 9 to 14) (size 15 to 20)
#    0.000    2.615    0.000    1.385    0.000    2.462 
#    9.692    7.308    0.000    0.923    0.000    0.000 
#    0.000    0.000    0.000    0.000    0.000    0.000 
#
# Total GULP energy -144840.085748 kJ/mol
# GULP energy per Si atom -5570.772529 kJ/mol
# Density = 2.117998 g / cm^3
# Si number density = 21.228292 Si / 1000 Ang^3
#
#
#
# Elastic Constant Matrix: (Units=GPa)
#
#
# Indices 1 2 3 4 5 6 
#
# 1 52.4646 8.1262 22.4025 -0.0001 6.8710 0.0004
# 2 8.1262 53.7957 18.6133 -0.0002 6.5450 -0.0001
# 3 22.4025 18.6133 116.7417 -0.0010 15.7452 0.0004
# 4 -0.0001 -0.0002 -0.0010 21.6475 -0.0004 -7.8116
# 5 6.8710 6.5450 15.7452 -0.0004 16.8334 0.0003
# 6 0.0004 -0.0001 0.0004 -7.8116 0.0003 -3.9545
#
#
#
# Elastic Compliance Matrix: (Units=1/GPa)
#
#
# Indices 1 2 3 4 5 6 
#
# 1 0.021316 -0.001500 -0.003155 0.000000 -0.005167 0.000001
# 2 -0.001500 0.020218 -0.002241 0.000000 -0.005153 -0.000001
# 3 -0.003155 -0.002241 0.010571 0.000000 -0.007729 0.000000
# 4 0.000000 0.000000 0.000000 0.026970 0.000001 -0.053276
# 5 -0.005167 -0.005153 -0.007729 0.000001 0.070747 0.000001
# 6 0.000001 -0.000001 0.000000 -0.053276 0.000001 -0.147637
#
#
# Mechanical properties :
#
#
# Convention : Reuss Voigt Hill
#
# Bulk Modulus (GPa) = 26.09964 35.69844 30.89904
# Shear Modulus (GPa) = 173.93005 18.49596 96.21301
#
# Velocity S-wave (km/s) = 9.06151 2.95496 6.73954
# Velocity P-wave (km/s) = 11.03643 5.33810 8.66886
#
# Compressibility (1/GPa) = 0.03831471
#
# Stress axis : x y z
#
# Youngs Moduli (GPa) = 46.91209 49.46189 94.59916
#
# Poissons Ratio (x) = 0.07419 0.29842
# Poissons Ratio (y) = 0.07036 0.21197
# Poissons Ratio (z) = 0.14799 0.11083
#
# Static dielectric constant tensor:
#      x y z
#    x 1.802390 0.000000 -0.001990 
#    y 0.000000 1.806360 0.000000 
#    z -0.001990 0.000000 1.814300 
# 
# From -- ./inp_files/273253.got.cif
#   From: 2010.05.17/outbox.cif.g08.bks.cpg/sg12_137_cif.got.tgz:273253.got - 2010.06.03 13:09:07.
