data_PCOD9175083
_publ_section_title
;
Structure prediction by ZEFSAII (Michael W. Deem and Ramdas Pophale) SiO2 
 PCOD9175083
Probable space group: C 2/M
;
_chemical_formula_sum "Si O2"
_cell_formula_units_Z 48
_cell_length_a 14.619599
_cell_length_b 13.160381
_cell_length_c 17.971398
_cell_angle_alpha 90.000000
_cell_angle_beta 41.203670
_cell_angle_gamma 90.000000
_cell_volume 2277.709189
_symmetry_space_group_name_H-M "C 2/M"
_symmetry_group_IT_number 12
_symmetry_cell_setting 'monoclinic'
loop_
_space_group_symop_operation_xyz
x,y,z
-x,y,-z
-x,-y,-z
x,-y,z
1/2+x,1/2+y,z
1/2-x,1/2+y,-z
1/2-x,1/2-y,-z
1/2+x,1/2-y,z
loop_
_atom_site_type_symbol
_atom_site_label
_atom_site_fract_x
_atom_site_fract_y
_atom_site_fract_z
Si Si1 0.828814 0.614698 0.866571
Si Si2 0.901541 0.331884 0.666156
Si Si3 0.699923 0.884624 0.439352
Si Si4 0.365676 0.614995 0.636339
Si Si5 0.108388 0.730181 0.730691
Si Si6 0.518271 0.618362 0.077155
O O1 0.859225 0.500000 0.871896
O O2 0.817325 0.617634 0.783921
O O3 0.961381 0.682862 0.801412
O O4 0.680936 0.643224 0.991639
O O5 0.851706 0.367662 0.614796
O O6 0.886216 0.209899 0.678930
O O7 0.063206 0.362840 0.571333
O O8 0.822243 0.803670 0.373129
O O9 0.744962 0.000000 0.422755
O O10 0.500000 0.619804 0.500000
O O11 0.356390 0.500000 0.671409
O O12 0.224494 0.645851 0.679280
O O13 0.076643 0.803670 0.820260
O O14 0.493257 0.500000 0.113590
O O15 0.500000 0.626646 0.000000
#
# Coordination Sequence:
#
# PCOD9175083 Si02
#       6
#     8   8   8   8   8   8
#     4  11  23  37  57  85 117 151 188 232 288 342
#     4  10  18  35  56  83 111 149 192 238 279 329
#     4  10  18  32  55  83 111 147 191 238 282 326
#     4  10  19  36  57  80 111 152 195 228 270 336
#     4  11  21  36  56  83 119 152 182 233 285 339
#     4  10  21  39  64  88 109 145 193 237 282 335
#
# _framework density 21.073805
#
# number of rings (size 3 to 8) (size 9 to 14) (size 15 to 20)
#    0.000    1.667    3.333    5.500    0.000    2.000 
#    0.000    1.667    0.000   11.000    0.000    0.000 
#    0.000    0.000    0.000    0.000    0.000    0.000 
#
# Total GULP energy -134042.222968 kJ/mol
# GULP energy per Si atom -5585.092624 kJ/mol
# Density = 2.102584 g / cm^3
# Si number density = 21.073805 Si / 1000 Ang^3
#
#
#
# Elastic Constant Matrix: (Units=GPa)
#
#
# Indices 1 2 3 4 5 6 
#
# 1 33.2317 8.6233 8.7235 0.0000 -17.2809 0.0000
# 2 8.6233 115.7848 31.8731 0.0000 -18.2693 0.0000
# 3 8.7235 31.8731 106.8512 0.0000 -20.6774 0.0000
# 4 0.0000 0.0000 0.0000 13.9389 0.0000 2.2999
# 5 -17.2809 -18.2693 -20.6774 0.0000 34.5306 0.0000
# 6 0.0000 0.0000 0.0000 2.2999 0.0000 16.9990
#
#
#
# Elastic Compliance Matrix: (Units=1/GPa)
#
#
# Indices 1 2 3 4 5 6 
#
# 1 0.040725 0.000064 0.000686 0.000000 0.020825 0.000000
# 2 0.000064 0.009854 -0.002182 0.000000 0.003939 0.000000
# 3 0.000686 -0.002182 0.011081 0.000000 0.005824 0.000000
# 4 0.000000 0.000000 0.000000 0.073380 0.000000 -0.009928
# 5 0.020825 0.003939 0.005824 0.000000 0.044953 0.000000
# 6 0.000000 0.000000 0.000000 -0.009928 0.000000 0.060170
#
#
# Mechanical properties :
#
#
# Convention : Reuss Voigt Hill
#
# Bulk Modulus (GPa) = 17.00820 39.36749 28.18784
# Shear Modulus (GPa) = 19.03847 26.87022 22.95434
#
# Velocity S-wave (km/s) = 3.00895 3.57466 3.30394
# Velocity P-wave (km/s) = 4.48999 5.97988 5.28767
#
# Compressibility (1/GPa) = 0.05879516
#
# Stress axis : x y z
#
# Youngs Moduli (GPa) = 24.55518 101.47941 90.24568
#
# Poissons Ratio (x) = -0.00650 -0.06192
# Poissons Ratio (y) = -0.00157 0.19696
# Poissons Ratio (z) = -0.01685 0.22148
#
# Static dielectric constant tensor:
#      x y z
#    x 1.821020 0.000000 -0.032530 
#    y 0.000000 1.752750 0.000000 
#    z -0.032530 0.000000 1.757140 
# 
# From -- ./inp_files/343554.got.cif
#   From: 2010.05.17/outbox.cif.g08.bks.cpg/sg12_172_cif.got.tgz:343554.got - 2010.06.03 13:09:07.
