data_PCOD9175767
_publ_section_title
;
Structure prediction by ZEFSAII (Michael W. Deem and Ramdas Pophale) SiO2 
 PCOD9175767
Probable space group: C 2/M
;
_chemical_formula_sum "Si O2"
_cell_formula_units_Z 64
_cell_length_a 33.201482
_cell_length_b 7.485839
_cell_length_c 16.953276
_cell_angle_alpha 90.000000
_cell_angle_beta 43.060510
_cell_angle_gamma 90.000000
_cell_volume 2876.909794
_symmetry_space_group_name_H-M "C 2/M"
_symmetry_group_IT_number 12
_symmetry_cell_setting 'monoclinic'
loop_
_space_group_symop_operation_xyz
x,y,z
-x,y,-z
-x,-y,-z
x,-y,z
1/2+x,1/2+y,z
1/2-x,1/2+y,-z
1/2-x,1/2-y,-z
1/2+x,1/2-y,z
loop_
_atom_site_type_symbol
_atom_site_label
_atom_site_fract_x
_atom_site_fract_y
_atom_site_fract_z
Si Si1 0.889349 0.218927 0.965445
Si Si2 0.501060 0.714721 0.908951
Si Si3 0.037048 0.204048 0.561994
Si Si4 0.587784 0.210899 0.651088
Si Si5 0.407198 0.718223 0.760418
Si Si6 0.346136 0.283617 0.692359
Si Si7 0.221631 0.714284 0.456257
Si Si8 0.774746 0.792526 0.220864
O O1 0.894051 0.277358 0.867963
O O2 0.945665 0.276962 0.936036
O O3 0.889474 0.000000 0.963309
O O4 0.829706 0.281603 0.093514
O O5 0.497056 0.500000 0.918056
O O6 0.559916 0.759388 0.776483
O O7 0.500000 0.781793 0.000000
O O8 0.047301 0.204278 0.641412
O O9 0.096512 0.280762 0.438915
O O10 0.972320 0.281628 0.640292
O O11 0.034868 0.000000 0.536054
O O12 0.654352 0.281022 0.549417
O O13 0.587882 0.000000 0.635017
O O14 0.409870 0.500000 0.757635
O O15 0.359069 0.767403 0.764084
O O16 0.343696 0.500000 0.690400
O O17 0.285461 0.216345 0.742868
O O18 0.218050 0.500000 0.452224
O O19 0.250000 0.750000 0.500000
O O20 0.259542 0.785436 0.328546
O O21 0.790036 0.000000 0.212393
#
# Coordination Sequence:
#
# PCOD9175767 Si02
#       8
#     8   8   8   8   8   8   8   8
#     4   9  18  34  56  80 107 143 183 227 271 317
#     4  10  21  37  61  88 109 141 190 229 265 327
#     4  10  18  33  57  82 110 145 185 227 272 323
#     4  11  22  37  57  84 117 147 176 223 285 330
#     4   9  17  32  55  83 110 137 183 236 276 319
#     4  10  20  33  55  84 110 142 184 231 277 325
#     4  10  23  39  57  81 111 146 185 226 272 325
#     4  10  21  38  56  77 111 149 181 223 277 330
#
# _framework density 22.246092999999998
#
# number of rings (size 3 to 8) (size 9 to 14) (size 15 to 20)
#    0.000    2.125    2.500    0.750    1.750    3.750 
#    0.000    1.250    0.000    1.500    0.000    0.000 
#    0.000    0.000    0.000    0.000    0.000    0.000 
#
# Total GULP energy -178823.531930 kJ/mol
# GULP energy per Si atom -5588.235373 kJ/mol
# Density = 2.219546 g / cm^3
# Si number density = 22.246093 Si / 1000 Ang^3
#
#
#
# Elastic Constant Matrix: (Units=GPa)
#
#
# Indices 1 2 3 4 5 6 
#
# 1 71.5034 -6.9895 30.1084 -0.0009 15.4840 0.0000
# 2 -6.9895 62.2173 2.6196 0.0065 1.8597 -0.0004
# 3 30.1084 2.6196 146.3641 0.0003 3.2763 0.0000
# 4 -0.0009 0.0065 0.0003 3.7379 -0.0004 -4.1714
# 5 15.4840 1.8597 3.2763 -0.0004 38.5965 -0.0002
# 6 0.0000 -0.0004 0.0000 -4.1714 -0.0002 8.8754
#
#
#
# Elastic Compliance Matrix: (Units=1/GPa)
#
#
# Indices 1 2 3 4 5 6 
#
# 1 0.017086 0.002262 -0.003406 -0.000001 -0.006674 -0.000001
# 2 0.002262 0.016406 -0.000722 -0.000058 -0.001637 -0.000027
# 3 -0.003406 -0.000722 0.007529 0.000000 0.000762 0.000000
# 4 -0.000001 -0.000058 0.000000 0.562618 0.000010 0.264426
# 5 -0.006674 -0.001637 0.000762 0.000010 0.028601 0.000005
# 6 -0.000001 -0.000027 0.000000 0.264426 0.000005 0.236949
#
#
# Mechanical properties :
#
#
# Convention : Reuss Voigt Hill
#
# Bulk Modulus (GPa) = 26.81744 36.84020 31.82882
# Shear Modulus (GPa) = 5.64748 27.19838 16.42293
#
# Velocity S-wave (km/s) = 1.59504 3.50038 2.72000
# Velocity P-wave (km/s) = 3.93361 5.73874 4.91968
#
# Compressibility (1/GPa) = 0.03728917
#
# Stress axis : x y z
#
# Youngs Moduli (GPa) = 58.52765 60.95260 132.82413
#
# Poissons Ratio (x) = -0.13790 0.45237
# Poissons Ratio (y) = -0.13241 0.09595
# Poissons Ratio (z) = 0.19933 0.04403
#
# Static dielectric constant tensor:
#      x y z
#    x 1.774720 0.000000 0.008490 
#    y 0.000000 1.856830 0.000000 
#    z 0.008490 0.000000 1.812320 
# 
# From -- ./inp_files/249657.got.cif
#   From: 2010.05.17/outbox.cif.g08.bks.cpg/sg12_125_cif.got.tgz:249657.got - 2010.06.03 13:09:07.
