data_PCOD9175324
_publ_section_title
;
Structure prediction by ZEFSAII (Michael W. Deem and Ramdas Pophale) SiO2 
 PCOD9175324
Probable space group: C 2/M
;
_chemical_formula_sum "Si O2"
_cell_formula_units_Z 40
_cell_length_a 14.480479
_cell_length_b 11.505392
_cell_length_c 26.598624
_cell_angle_alpha 90.000000
_cell_angle_beta 23.334094
_cell_angle_gamma 90.000000
_cell_volume 1755.252263
_symmetry_space_group_name_H-M "C 2/M"
_symmetry_group_IT_number 12
_symmetry_cell_setting 'monoclinic'
loop_
_space_group_symop_operation_xyz
x,y,z
-x,y,-z
-x,-y,-z
x,-y,z
1/2+x,1/2+y,z
1/2-x,1/2+y,-z
1/2-x,1/2-y,-z
1/2+x,1/2-y,z
loop_
_atom_site_type_symbol
_atom_site_label
_atom_site_fract_x
_atom_site_fract_y
_atom_site_fract_z
Si Si1 0.833717 0.500000 0.652239
Si Si2 0.155257 0.000000 0.340095
Si Si3 0.889376 0.000000 0.376061
Si Si4 0.527489 0.500000 0.894693
Si Si5 0.076143 0.191043 0.713195
Si Si6 0.000000 0.826885 0.500000
Si Si7 0.843258 0.244905 0.011025
Si Si8 0.570148 0.000000 0.053912
O O1 0.709556 0.610501 0.687908
O O2 0.111195 0.500000 0.504918
O O3 0.768127 0.500000 0.743621
O O4 0.127844 0.106018 0.391546
O O5 0.386071 0.000000 0.191543
O O6 0.943512 0.000000 0.407038
O O7 0.008699 0.892162 0.288487
O O8 0.489551 0.624491 0.941343
O O9 0.326616 0.500000 0.951544
O O10 0.285275 0.260552 0.583296
O O11 0.873010 0.259553 0.842427
O O12 0.750000 0.250000 0.000000
O O13 0.948982 0.375533 0.964730
#
# Coordination Sequence:
#
# PCOD9175324 Si02
#       8
#     4   4   4   4   8   4   8   4
#     4  11  18  36  62  92 125 164 223 262 317 386
#     4  11  27  40  58  94 133 167 211 269 341 383
#     4  11  24  40  60  96 132 164 211 282 323 381
#     4  10  19  31  61  96 119 164 223 271 307 382
#     4  11  19  37  64  91 122 165 223 261 318 393
#     4  11  22  41  64  86 122 173 218 263 320 409
#     4  10  18  32  58  92 125 157 215 270 313 375
#     4  10  18  35  58  85 127 160 213 258 317 387
#
# _framework density 22.788747999999998
#
# number of rings (size 3 to 8) (size 9 to 14) (size 15 to 20)
#    0.000    1.400    6.000    3.600    0.000    1.600 
#    0.000    2.000    0.000    0.000    0.000   12.600 
#    0.000    0.000    0.000    0.000    0.000    0.000 
#
# Total GULP energy -111604.889762 kJ/mol
# GULP energy per Si atom -5580.244488 kJ/mol
# Density = 2.273688 g / cm^3
# Si number density = 22.788748 Si / 1000 Ang^3
#
#
#
# Elastic Constant Matrix: (Units=GPa)
#
#
# Indices 1 2 3 4 5 6 
#
# 1 51.3878 -3.4148 -10.1915 -0.0101 -1.8631 -0.0068
# 2 -3.4148 129.1802 33.7103 0.0031 6.2694 0.0033
# 3 -10.1915 33.7103 145.0706 0.0171 9.6387 0.0227
# 4 -0.0101 0.0031 0.0171 66.2569 -0.0119 35.9303
# 5 -1.8631 6.2694 9.6387 -0.0119 20.9828 -0.0048
# 6 -0.0068 0.0033 0.0227 35.9303 -0.0048 11.3319
#
#
#
# Elastic Compliance Matrix: (Units=1/GPa)
#
#
# Indices 1 2 3 4 5 6 
#
# 1 0.019764 0.000133 0.001283 0.000003 0.001126 -0.000001
# 2 0.000133 0.008296 -0.001810 0.000001 -0.001636 -0.000002
# 3 0.001283 -0.001810 0.007592 -0.000008 -0.002833 0.000011
# 4 0.000003 0.000001 -0.000008 -0.020978 0.000007 0.066516
# 5 0.001126 -0.001636 -0.002833 0.000007 0.049548 0.000005
# 6 -0.000001 -0.000002 0.000011 0.066516 0.000005 -0.122659
#
#
# Mechanical properties :
#
#
# Convention : Reuss Voigt Hill
#
# Bulk Modulus (GPa) = 28.68261 40.64962 34.66612
# Shear Modulus (GPa) = -108.63097 40.08329 -34.27384
#
# Velocity S-wave (km/s) = -6.91174 4.19848 -3.88233
# Velocity P-wave (km/s) = 7.14721 6.43268 2.20264
#
# Compressibility (1/GPa) = 0.03486433
#
# Stress axis : x y z
#
# Youngs Moduli (GPa) = 50.59719 120.53559 131.71628
#
# Poissons Ratio (x) = -0.01604 -0.16896
# Poissons Ratio (y) = -0.00673 0.23838
# Poissons Ratio (z) = -0.06490 0.21815
#
# Static dielectric constant tensor:
#      x y z
#    x 1.811300 -0.000010 -0.007360 
#    y -0.000010 1.988660 0.000000 
#    z -0.007360 0.000000 1.805600 
# 
# From -- ./inp_files/378868.got.cif
#   From: 2010.05.17/outbox.cif.g08.bks.cpg/sg12_190_cif.got.tgz:378868.got - 2010.06.03 13:09:07.
