data_PCOD9175733
_publ_section_title
;
Structure prediction by ZEFSAII (Michael W. Deem and Ramdas Pophale) SiO2 
 PCOD9175733
Probable space group: C 2/M
;
_chemical_formula_sum "Si O2"
_cell_formula_units_Z 56
_cell_length_a 29.843176
_cell_length_b 7.665913
_cell_length_c 12.282505
_cell_angle_alpha 90.000000
_cell_angle_beta 112.041522
_cell_angle_gamma 90.000000
_cell_volume 2604.560465
_symmetry_space_group_name_H-M "C 2/M"
_symmetry_group_IT_number 12
_symmetry_cell_setting 'monoclinic'
loop_
_space_group_symop_operation_xyz
x,y,z
-x,y,-z
-x,-y,-z
x,-y,z
1/2+x,1/2+y,z
1/2-x,1/2+y,-z
1/2-x,1/2-y,-z
1/2+x,1/2-y,z
loop_
_atom_site_type_symbol
_atom_site_label
_atom_site_fract_x
_atom_site_fract_y
_atom_site_fract_z
Si Si1 0.451188 0.289637 0.015579
Si Si2 0.409423 0.711344 0.366171
Si Si3 0.322899 0.295808 0.139376
Si Si4 0.009838 0.299447 0.721251
Si Si5 0.096797 0.199890 0.396352
Si Si6 0.361125 0.286115 0.786731
Si Si7 0.280377 0.711947 0.872956
O O1 0.450831 0.500000 0.012979
O O2 0.455432 0.236262 0.144622
O O3 0.500000 0.228974 0.000000
O O4 0.404161 0.230266 0.907306
O O5 0.407083 0.500000 0.368017
O O6 0.367806 0.778223 0.246916
O O7 0.460816 0.755990 0.360567
O O8 0.401721 0.778469 0.481569
O O9 0.333837 0.500000 0.132175
O O10 0.274031 0.278119 0.165141
O O11 0.309269 0.225793 0.007520
O O12 0.995912 0.500000 0.708110
O O13 0.959769 0.197566 0.688311
O O14 0.126710 0.277572 0.323319
O O15 0.113567 0.000000 0.422336
O O16 0.362523 0.500000 0.785938
O O17 0.310465 0.235558 0.794461
O O18 0.278461 0.500000 0.875239
#
# Coordination Sequence:
#
# PCOD9175733 Si02
#       7
#     8   8   8   8   8   8   8
#     4  10  18  33  57  78 103 139 179 219 255 303
#     4  10  21  37  58  77  99 138 187 229 259 306
#     4   9  18  34  54  78 104 130 171 222 266 309
#     4  12  24  35  51  78 113 143 173 219 273 322
#     4  10  20  37  57  76 101 140 188 224 256 309
#     4   9  17  32  55  81 105 135 177 220 260 307
#     4   9  17  31  54  79 105 134 165 209 268 327
#
# _framework density 21.500747
#
# number of rings (size 3 to 8) (size 9 to 14) (size 15 to 20)
#    0.000    2.143    1.429    2.571    0.000    5.429 
#    0.000    5.000    0.000    0.000    0.000    0.000 
#    0.000    0.000    0.000    0.000    0.000    0.000 
#
# Total GULP energy -156393.935975 kJ/mol
# GULP energy per Si atom -5585.497713 kJ/mol
# Density = 2.145181 g / cm^3
# Si number density = 21.500747 Si / 1000 Ang^3
#
#
#
# Elastic Constant Matrix: (Units=GPa)
#
#
# Indices 1 2 3 4 5 6 
#
# 1 91.1801 -11.6337 26.1827 0.0000 -39.3465 0.0000
# 2 -11.6337 43.7174 -3.0140 0.0000 1.2173 0.0000
# 3 26.1827 -3.0140 69.0715 0.0000 -31.5481 0.0000
# 4 0.0000 0.0000 0.0000 -10.6364 0.0000 -1.7803
# 5 -39.3465 1.2173 -31.5481 0.0000 31.9509 0.0000
# 6 0.0000 0.0000 0.0000 -1.7803 0.0000 12.8891
#
#
#
# Elastic Compliance Matrix: (Units=1/GPa)
#
#
# Indices 1 2 3 4 5 6 
#
# 1 0.027896 0.006874 0.009647 0.000000 0.043616 0.000000
# 2 0.006874 0.024638 0.003474 0.000000 0.010956 0.000000
# 3 0.009647 0.003474 0.029759 0.000000 0.041132 0.000000
# 4 0.000000 0.000000 0.000000 -0.091893 0.000000 -0.012693
# 5 0.043616 0.010956 0.041132 0.000000 0.125206 0.000000
# 6 0.000000 0.000000 0.000000 -0.012693 0.000000 0.075832
#
#
# Mechanical properties :
#
#
# Convention : Reuss Voigt Hill
#
# Bulk Modulus (GPa) = 8.17783 25.22657 16.70220
# Shear Modulus (GPa) = 26.01339 19.66966 22.84153
#
# Velocity S-wave (km/s) = 3.48211 3.02791 3.26292
# Velocity P-wave (km/s) = 4.46974 4.89721 4.68835
#
# Compressibility (1/GPa) = 0.12228177
#
# Stress axis : x y z
#
# Youngs Moduli (GPa) = 35.84797 40.58802 33.60304
#
# Poissons Ratio (x) = -0.27900 -0.32417
# Poissons Ratio (y) = -0.24642 -0.11672
# Poissons Ratio (z) = -0.34583 -0.14098
#
# Static dielectric constant tensor:
#      x y z
#    x 1.757950 0.000000 -0.016500 
#    y 0.000000 1.800640 0.000000 
#    z -0.016500 0.000000 1.789190 
# 
# From -- ./inp_files/186428.got.cif
#   From: 2010.05.17/outbox.cif.g08.bks.cpg/sg12_94_cif.got.tgz:186428.got - 2010.06.03 13:09:07.
