data_PCOD9175847
_publ_section_title
;
Structure prediction by ZEFSAII (Michael W. Deem and Ramdas Pophale) SiO2 
 PCOD9175847
Probable space group: C 2/M
;
_chemical_formula_sum "Si O2"
_cell_formula_units_Z 56
_cell_length_a 10.092744
_cell_length_b 27.265141
_cell_length_c 21.459683
_cell_angle_alpha 90.000000
_cell_angle_beta 147.315511
_cell_angle_gamma 90.000000
_cell_volume 3188.923578
_symmetry_space_group_name_H-M "C 2/M"
_symmetry_group_IT_number 12
_symmetry_cell_setting 'monoclinic'
loop_
_space_group_symop_operation_xyz
x,y,z
-x,y,-z
-x,-y,-z
x,-y,z
1/2+x,1/2+y,z
1/2-x,1/2+y,-z
1/2-x,1/2-y,-z
1/2+x,1/2-y,z
loop_
_atom_site_type_symbol
_atom_site_label
_atom_site_fract_x
_atom_site_fract_y
_atom_site_fract_z
Si Si1 0.495873 0.617303 0.708948
Si Si2 0.826039 0.941536 0.758398
Si Si3 0.730854 0.781232 0.635375
Si Si4 0.495386 0.634710 0.925516
Si Si5 0.988115 0.325500 0.920088
Si Si6 0.337986 0.056003 0.499703
Si Si7 0.292901 0.229395 0.227569
O O1 0.471973 0.578372 0.755606
O O2 0.325427 0.663385 0.660627
O O3 0.768388 0.638388 0.812242
O O4 0.382895 0.592643 0.602462
O O5 0.537506 0.930444 0.630807
O O6 0.923819 0.911942 0.855796
O O7 0.850281 0.000000 0.772720
O O8 0.500000 0.771485 0.500000
O O9 0.670431 0.774659 0.683854
O O10 0.958673 0.746930 0.706982
O O11 0.301703 0.677993 0.835667
O O12 0.500000 0.623265 0.000000
O O13 0.755708 0.656181 0.005551
O O14 0.909913 0.271375 0.866599
O O15 0.000000 0.325191 0.000000
O O16 0.500000 0.056215 0.500000
O O17 0.254401 0.000000 0.476384
#
# Coordination Sequence:
#
# PCOD9175847 Si02
#       7
#     8   8   8   8   8   8   8
#     4  10  18  33  58  85 113 142 182 236 290 322
#     4  10  19  35  58  85 113 146 187 230 282 337
#     4  11  21  35  55  85 119 146 180 230 285 338
#     4  12  23  38  57  79 115 154 194 227 273 330
#     4  11  21  38  58  83 110 148 194 237 271 326
#     4   8  15  29  54  84 111 138 179 230 282 335
#     4  11  22  37  56  81 112 153 192 228 273 333
#
# _framework density 17.560784999999999
#
# number of rings (size 3 to 8) (size 9 to 14) (size 15 to 20)
#    0.000    1.571    2.857    5.571    0.000    0.286 
#    0.000    2.143    0.000    0.000    0.000    2.000 
#    0.000    0.000    0.000    0.000    0.000    0.000 
#
# Total GULP energy -156348.208448 kJ/mol
# GULP energy per Si atom -5583.864587 kJ/mol
# Density = 1.752082 g / cm^3
# Si number density = 17.560785 Si / 1000 Ang^3
#
#
#
# Elastic Constant Matrix: (Units=GPa)
#
#
# Indices 1 2 3 4 5 6 
#
# 1 32.6588 7.8460 11.2653 0.0020 -9.9141 -0.0013
# 2 7.8460 84.5901 28.0138 0.0010 9.4485 0.0017
# 3 11.2653 28.0138 70.1635 0.0003 -3.2767 -0.0045
# 4 0.0020 0.0010 0.0003 26.6666 -0.0011 6.1756
# 5 -9.9141 9.4485 -3.2767 -0.0011 19.1216 -0.0001
# 6 -0.0013 0.0017 -0.0045 6.1756 -0.0001 7.7726
#
#
#
# Elastic Compliance Matrix: (Units=1/GPa)
#
#
# Indices 1 2 3 4 5 6 
#
# 1 0.039862 -0.005136 -0.003292 -0.000004 0.022642 0.000009
# 2 -0.005136 0.015519 -0.005901 0.000002 -0.011343 -0.000009
# 3 -0.003292 -0.005901 0.017332 -0.000003 0.004179 0.000013
# 4 -0.000004 0.000002 -0.000003 0.045956 -0.000001 -0.036514
# 5 0.022642 -0.011343 0.004179 -0.000001 0.070357 0.000011
# 6 0.000009 -0.000009 0.000013 -0.036514 0.000011 0.157669
#
#
# Mechanical properties :
#
#
# Convention : Reuss Voigt Hill
#
# Bulk Modulus (GPa) = 22.69900 31.29585 26.99742
# Shear Modulus (GPa) = 12.81917 20.06464 16.44191
#
# Velocity S-wave (km/s) = 2.70476 3.38388 3.06320
# Velocity P-wave (km/s) = 4.76533 5.75566 5.28375
#
# Compressibility (1/GPa) = 0.04405481
#
# Stress axis : x y z
#
# Youngs Moduli (GPa) = 25.08629 64.43514 57.69527
#
# Poissons Ratio (x) = 0.33095 0.18994
# Poissons Ratio (y) = 0.12885 0.34049
# Poissons Ratio (z) = 0.08259 0.38026
#
# Static dielectric constant tensor:
#      x y z
#    x 1.567500 0.000000 0.001530 
#    y 0.000000 1.592460 0.000000 
#    z 0.001530 0.000000 1.617720 
# 
# From -- ./inp_files/185169.got.cif
#   From: 2010.05.17/outbox.cif.g08.bks.cpg/sg12_93_cif.got.tgz:185169.got - 2010.06.03 13:09:07.
