data_PCOD9175803
_publ_section_title
;
Structure prediction by ZEFSAII (Michael W. Deem and Ramdas Pophale) SiO2 
 PCOD9175803
Probable space group: C 2/M
;
_chemical_formula_sum "Si O2"
_cell_formula_units_Z 40
_cell_length_a 20.879126
_cell_length_b 8.768121
_cell_length_c 14.987091
_cell_angle_alpha 90.000000
_cell_angle_beta 49.113289
_cell_angle_gamma 90.000000
_cell_volume 2074.249711
_symmetry_space_group_name_H-M "C 2/M"
_symmetry_group_IT_number 12
_symmetry_cell_setting 'monoclinic'
loop_
_space_group_symop_operation_xyz
x,y,z
-x,y,-z
-x,-y,-z
x,-y,z
1/2+x,1/2+y,z
1/2-x,1/2+y,-z
1/2-x,1/2-y,-z
1/2+x,1/2-y,z
loop_
_atom_site_type_symbol
_atom_site_label
_atom_site_fract_x
_atom_site_fract_y
_atom_site_fract_z
Si Si1 0.444039 0.664264 0.964060
Si Si2 0.231845 0.173563 0.777686
Si Si3 0.506831 0.174272 0.242007
Si Si4 0.675314 0.683532 0.628406
Si Si5 0.184178 0.180779 0.135613
O O1 0.460702 0.500000 0.901334
O O2 0.467041 0.808479 0.885208
O O3 0.500000 0.663286 0.000000
O O4 0.349482 0.664872 0.084211
O O5 0.198425 0.224828 0.710741
O O6 0.291995 0.275769 0.784087
O O7 0.265780 0.000000 0.736472
O O8 0.414227 0.251780 0.326077
O O9 0.588315 0.257333 0.210412
O O10 0.501374 0.000000 0.276742
O O11 0.672443 0.500000 0.627673
O O12 0.750000 0.750000 0.500000
O O13 0.187582 0.000000 0.120220
O O14 0.250000 0.250000 0.000000
#
# Coordination Sequence:
#
# PCOD9175803 Si02
#       5
#     8   8   8   8   8
#     4  10  18  33  57  87 123 161 197 245 309 367
#     4  10  21  38  62  90 126 164 200 248 309 367
#     4  12  24  38  60  91 126 164 205 251 304 365
#     4  11  24  45  68  91 121 161 209 261 308 359
#     4  12  24  38  59  91 131 167 202 248 306 373
#
# _framework density 19.284082000000001
#
# number of rings (size 3 to 8) (size 9 to 14) (size 15 to 20)
#    0.000    1.000    4.000    4.200    0.000    2.000 
#    0.000    1.000    0.000    6.000    0.000    0.000 
#    0.000    0.000    0.000    0.000    0.000    0.000 
#
# Total GULP energy -111452.824261 kJ/mol
# GULP energy per Si atom -5572.641213 kJ/mol
# Density = 1.924019 g / cm^3
# Si number density = 19.284082 Si / 1000 Ang^3
#
#
#
# Elastic Constant Matrix: (Units=GPa)
#
#
# Indices 1 2 3 4 5 6 
#
# 1 134.2509 68.1184 41.4230 0.0000 -40.5334 0.0000
# 2 68.1184 123.4564 41.5842 -0.0002 -20.4244 0.0002
# 3 41.4230 41.5842 92.5223 -0.0001 -23.5382 0.0001
# 4 0.0000 -0.0002 -0.0001 27.3961 0.0000 -3.9833
# 5 -40.5334 -20.4244 -23.5382 0.0000 21.7659 0.0000
# 6 0.0000 0.0002 0.0001 -3.9833 0.0000 32.7293
#
#
#
# Elastic Compliance Matrix: (Units=1/GPa)
#
#
# Indices 1 2 3 4 5 6 
#
# 1 0.020378 -0.006361 0.002582 0.000000 0.034772 0.000000
# 2 -0.006361 0.012125 -0.003753 0.000000 -0.004527 0.000000
# 3 0.002582 -0.003753 0.016094 0.000000 0.018690 0.000000
# 4 0.000000 0.000000 0.000000 0.037159 0.000000 0.004522
# 5 0.034772 -0.004527 0.018690 0.000000 0.126663 0.000000
# 6 0.000000 0.000000 0.000000 0.004522 0.000000 0.031104
#
#
# Mechanical properties :
#
#
# Convention : Reuss Voigt Hill
#
# Bulk Modulus (GPa) = 29.82194 72.49785 51.15989
# Shear Modulus (GPa) = 18.53458 29.65187 24.09322
#
# Velocity S-wave (km/s) = 3.10358 3.92552 3.53850
# Velocity P-wave (km/s) = 5.32363 7.63037 6.57889
#
# Compressibility (1/GPa) = 0.03353236
#
# Stress axis : x y z
#
# Youngs Moduli (GPa) = 49.07201 82.47376 62.13377
#
# Poissons Ratio (x) = 0.52460 -0.16041
# Poissons Ratio (y) = 0.31214 0.23322
# Poissons Ratio (z) = -0.12669 0.30956
#
# Static dielectric constant tensor:
#      x y z
#    x 1.734870 0.000000 -0.003160 
#    y 0.000000 1.825590 0.000000 
#    z -0.003160 0.000000 1.661760 
# 
# From -- ./inp_files/280718.got.cif
#   From: 2010.05.17/outbox.cif.g08.bks.cpg/sg12_141_cif.got.tgz:280718.got - 2010.06.03 13:09:07.
