data_PCOD9175808
_publ_section_title
;
Structure prediction by ZEFSAII (Michael W. Deem and Ramdas Pophale) SiO2 
 PCOD9175808
Probable space group: C 2/M
;
_chemical_formula_sum "Si O2"
_cell_formula_units_Z 44
_cell_length_a 8.130403
_cell_length_b 16.788470
_cell_length_c 15.185087
_cell_angle_alpha 90.000000
_cell_angle_beta 118.082857
_cell_angle_gamma 90.000000
_cell_volume 1828.693338
_symmetry_space_group_name_H-M "C 2/M"
_symmetry_group_IT_number 12
_symmetry_cell_setting 'monoclinic'
loop_
_space_group_symop_operation_xyz
x,y,z
-x,y,-z
-x,-y,-z
x,-y,z
1/2+x,1/2+y,z
1/2-x,1/2+y,-z
1/2-x,1/2-y,-z
1/2+x,1/2-y,z
loop_
_atom_site_type_symbol
_atom_site_label
_atom_site_fract_x
_atom_site_fract_y
_atom_site_fract_z
Si Si1 0.280960 0.850476 0.970187
Si Si2 0.336138 0.361721 0.586538
Si Si3 0.129359 0.302173 0.829643
Si Si4 0.240359 0.500000 0.699232
Si Si5 0.449862 0.500000 0.089194
Si Si6 0.360093 0.000000 0.550425
Si Si7 0.225993 0.776967 0.676256
O O1 0.164077 0.777971 0.897702
O O2 0.174274 0.926499 0.909977
O O3 0.500000 0.842699 0.000000
O O4 0.279438 0.859788 0.076381
O O5 0.304863 0.423509 0.658529
O O6 0.254340 0.417359 0.487106
O O7 0.236384 0.279554 0.592598
O O8 0.548347 0.334081 0.629002
O O9 0.213772 0.282944 0.756569
O O10 0.917558 0.320704 0.749496
O O11 0.353920 0.500000 0.814868
O O12 0.019595 0.500000 0.663043
O O13 0.500000 0.500000 0.000000
O O14 0.500000 0.000000 0.500000
#
# Coordination Sequence:
#
# PCOD9175808 Si02
#       7
#     8   8   8   4   4   4   8
#     4  11  23  39  54  81 123 166 209 244 299 365
#     4   9  19  35  65  91 120 154 206 248 308 363
#     4  10  21  34  57  81 123 166 196 238 315 358
#     4  10  22  43  61  80 127 170 199 235 316 386
#     4  12  27  37  61  92 119 153 214 262 289 347
#     4   8  18  42  62  86 115 173 198 233 311 392
#     4  10  18  33  57  97 119 151 200 256 302 357
#
# _framework density 24.060896
#
# number of rings (size 3 to 8) (size 9 to 14) (size 15 to 20)
#    0.000    2.182    1.818    2.455    5.091    0.000 
#    0.000    8.182    0.000   13.091    0.000   53.455 
#    0.000    0.000    0.000    0.000    0.000    0.000 
#
# Total GULP energy -122769.301954 kJ/mol
# GULP energy per Si atom -5580.422816 kJ/mol
# Density = 2.400613 g / cm^3
# Si number density = 24.060896 Si / 1000 Ang^3
#
#
#
# Elastic Constant Matrix: (Units=GPa)
#
#
# Indices 1 2 3 4 5 6 
#
# 1 49.6970 21.7881 53.6874 0.0000 11.9306 0.0000
# 2 21.7881 108.1301 56.9615 0.0000 28.0176 0.0000
# 3 53.6874 56.9615 166.1952 0.0000 31.2519 0.0000
# 4 0.0000 0.0000 0.0000 43.5966 0.0000 -2.7031
# 5 11.9306 28.0176 31.2519 0.0000 47.6811 0.0000
# 6 0.0000 0.0000 0.0000 -2.7031 0.0000 12.6546
#
#
#
# Elastic Compliance Matrix: (Units=1/GPa)
#
#
# Indices 1 2 3 4 5 6 
#
# 1 0.031067 -0.001002 -0.009514 0.000000 -0.000949 0.000000
# 2 -0.001002 0.012311 -0.002946 0.000000 -0.005053 0.000000
# 3 -0.009514 -0.002946 0.010638 0.000000 -0.002861 0.000000
# 4 0.000000 0.000000 0.000000 0.023245 0.000000 0.004965
# 5 -0.000949 -0.005053 -0.002861 0.000000 0.026054 0.000000
# 6 0.000000 0.000000 0.000000 0.004965 0.000000 0.080083
#
#
# Mechanical properties :
#
#
# Convention : Reuss Voigt Hill
#
# Bulk Modulus (GPa) = 36.91086 65.43292 51.17189
# Shear Modulus (GPa) = 22.79432 33.55881 28.17656
#
# Velocity S-wave (km/s) = 3.08126 3.73868 3.42578
# Velocity P-wave (km/s) = 5.29460 6.77427 6.07962
#
# Compressibility (1/GPa) = 0.02709230
#
# Stress axis : x y z
#
# Youngs Moduli (GPa) = 32.18857 81.22870 94.00319
#
# Poissons Ratio (x) = 0.08142 0.89433
# Poissons Ratio (y) = 0.03226 0.27689
# Poissons Ratio (z) = 0.30624 0.23926
#
# Static dielectric constant tensor:
#      x y z
#    x 1.949320 0.000000 -0.035170 
#    y 0.000000 1.940940 0.000000 
#    z -0.035170 0.000000 2.017250 
# 
# From -- ./inp_files/257336.got.cif
#   From: 2010.05.17/outbox.cif.g08.bks.cpg/sg12_129_cif.got.tgz:257336.got - 2010.06.03 13:09:07.
