data_PCOD9175684
_publ_section_title
;
Structure prediction by ZEFSAII (Michael W. Deem and Ramdas Pophale) SiO2 
 PCOD9175684
Probable space group: C 2/M
;
_chemical_formula_sum "Si O2"
_cell_formula_units_Z 64
_cell_length_a 31.981320
_cell_length_b 15.354494
_cell_length_c 21.907298
_cell_angle_alpha 90.000000
_cell_angle_beta 18.696083
_cell_angle_gamma 90.000000
_cell_volume 3448.371910
_symmetry_space_group_name_H-M "C 2/M"
_symmetry_group_IT_number 12
_symmetry_cell_setting 'monoclinic'
loop_
_space_group_symop_operation_xyz
x,y,z
-x,y,-z
-x,-y,-z
x,-y,z
1/2+x,1/2+y,z
1/2-x,1/2+y,-z
1/2-x,1/2-y,-z
1/2+x,1/2-y,z
loop_
_atom_site_type_symbol
_atom_site_label
_atom_site_fract_x
_atom_site_fract_y
_atom_site_fract_z
Si Si1 0.060938 0.598538 0.292378
Si Si2 0.729943 0.853603 0.528270
Si Si3 0.109399 0.098845 0.586632
Si Si4 0.806888 0.600416 0.562417
Si Si5 0.741083 0.774024 0.713087
Si Si6 0.978610 0.596637 0.956757
Si Si7 0.366027 0.400756 0.843455
Si Si8 0.995677 0.771429 0.438392
O O1 0.039212 0.500000 0.343922
O O2 0.038804 0.671612 0.373245
O O3 0.955198 0.613691 0.383856
O O4 0.211708 0.606618 0.065097
O O5 0.750000 0.750000 0.500000
O O6 0.855537 0.890335 0.390969
O O7 0.705794 0.885549 0.492729
O O8 0.607399 0.882644 0.739630
O O9 0.197213 0.166814 0.426838
O O10 0.958824 0.111773 0.774842
O O11 0.146115 0.000000 0.517772
O O12 0.771236 0.500000 0.625853
O O13 0.724185 0.676831 0.709746
O O14 0.851347 0.772967 0.611602
O O15 0.619483 0.822704 0.910874
O O16 0.929694 0.500000 0.005420
O O17 0.000000 0.591442 0.000000
O O18 0.392841 0.500000 0.785486
O O19 0.415223 0.329829 0.728119
O O20 0.000000 0.805510 0.500000
#
# Coordination Sequence:
#
# PCOD9175684 Si02
#       8
#     8   8   8   8   8   8   8   8
#     4   9  19  37  59  81 107 144 191 235 274 323
#     4  12  22  36  56  86 118 146 185 233 276 333
#     4  10  18  33  56  81 112 148 184 224 278 332
#     4  10  20  36  59  83 112 149 188 233 282 328
#     4  10  20  37  55  81 112 148 187 226 278 331
#     4  11  21  35  58  84 111 145 186 230 274 329
#     4   9  19  35  57  81 110 147 185 227 275 330
#     4  10  21  35  53  82 111 148 179 223 281 336
#
# _framework density 18.559484000000001
#
# number of rings (size 3 to 8) (size 9 to 14) (size 15 to 20)
#    0.000    1.875    2.500    1.875    0.000    2.000 
#    2.250    1.250    0.000    4.875    0.000    0.000 
#    0.000    0.000    0.000    0.000    0.000    0.000 
#
# Total GULP energy -178332.873010 kJ/mol
# GULP energy per Si atom -5572.902282 kJ/mol
# Density = 1.851724 g / cm^3
# Si number density = 18.559484 Si / 1000 Ang^3
#
#
#
# Elastic Constant Matrix: (Units=GPa)
#
#
# Indices 1 2 3 4 5 6 
#
# 1 55.5383 26.7900 19.9126 0.0000 -2.1340 0.0000
# 2 26.7900 122.0010 44.3480 0.0000 -7.5842 0.0000
# 3 19.9126 44.3480 47.3162 0.0001 -6.9675 0.0001
# 4 0.0000 0.0000 0.0001 39.1409 0.0000 23.5256
# 5 -2.1340 -7.5842 -6.9675 0.0000 12.1333 0.0000
# 6 0.0000 0.0000 0.0001 23.5256 0.0000 72.8158
#
#
#
# Elastic Compliance Matrix: (Units=1/GPa)
#
#
# Indices 1 2 3 4 5 6 
#
# 1 0.021615 -0.002207 -0.007288 0.000000 -0.001763 0.000000
# 2 -0.002207 0.012673 -0.010749 0.000000 0.001361 0.000000
# 3 -0.007288 -0.010749 0.036155 0.000000 0.012761 0.000000
# 4 0.000000 0.000000 0.000000 0.031706 0.000000 -0.010244
# 5 -0.001763 0.001361 0.012761 0.000000 0.090286 0.000000
# 6 0.000000 0.000000 0.000000 -0.010244 0.000000 0.017043
#
#
# Mechanical properties :
#
#
# Convention : Reuss Voigt Hill
#
# Bulk Modulus (GPa) = 33.38176 45.21740 39.29958
# Shear Modulus (GPa) = 19.23437 33.73833 26.48635
#
# Velocity S-wave (km/s) = 3.22275 4.26825 3.78180
# Velocity P-wave (km/s) = 5.64567 6.97904 6.34746
#
# Compressibility (1/GPa) = 0.02995648
#
# Stress axis : x y z
#
# Youngs Moduli (GPa) = 46.26351 78.90669 27.65854
#
# Poissons Ratio (x) = 0.17414 0.20157
# Poissons Ratio (y) = 0.10210 0.29730
# Poissons Ratio (z) = 0.33715 0.84817
#
# Static dielectric constant tensor:
#      x y z
#    x 1.638710 0.000000 -0.040440 
#    y 0.000000 1.683400 0.000000 
#    z -0.040440 0.000000 1.655480 
# 
# From -- ./inp_files/330331.got.cif
#   From: 2010.05.17/outbox.cif.g08.bks.cpg/sg12_166_cif.got.tgz:330331.got - 2010.06.03 13:09:07.
