data_PCOD9175255
_publ_section_title
;
Structure prediction by ZEFSAII (Michael W. Deem and Ramdas Pophale) SiO2 
 PCOD9175255
Probable space group: C 2/M
;
_chemical_formula_sum "Si O2"
_cell_formula_units_Z 64
_cell_length_a 31.889295
_cell_length_b 7.537354
_cell_length_c 12.049256
_cell_angle_alpha 90.000000
_cell_angle_beta 90.467348
_cell_angle_gamma 90.000000
_cell_volume 2896.073735
_symmetry_space_group_name_H-M "C 2/M"
_symmetry_group_IT_number 12
_symmetry_cell_setting 'monoclinic'
loop_
_space_group_symop_operation_xyz
x,y,z
-x,y,-z
-x,-y,-z
x,-y,z
1/2+x,1/2+y,z
1/2-x,1/2+y,-z
1/2-x,1/2-y,-z
1/2+x,1/2-y,z
loop_
_atom_site_type_symbol
_atom_site_label
_atom_site_fract_x
_atom_site_fract_y
_atom_site_fract_z
Si Si1 0.463068 0.704890 0.738495
Si Si2 0.170878 0.714085 0.500921
Si Si3 0.873201 0.715505 0.093083
Si Si4 0.925656 0.284695 0.506934
Si Si5 0.056180 0.295243 0.738930
Si Si6 0.206756 0.206881 0.272119
Si Si7 0.299407 0.216982 0.254293
Si Si8 0.122491 0.793182 0.163402
O O1 0.466830 0.500000 0.771679
O O2 0.454440 0.717559 0.606807
O O3 0.507504 0.789139 0.768148
O O4 0.421468 0.784269 0.794439
O O5 0.172358 0.500000 0.499319
O O6 0.122851 0.766145 0.474549
O O7 0.200885 0.781300 0.404452
O O8 0.183634 0.772415 0.624367
O O9 0.873765 0.500000 0.086406
O O10 0.912880 0.778099 0.167147
O O11 0.831529 0.769464 0.159054
O O12 0.874784 0.782955 0.968402
O O13 0.928656 0.500000 0.509899
O O14 0.938048 0.219689 0.384645
O O15 0.069630 0.500000 0.727524
O O16 0.251824 0.281052 0.239029
O O17 0.164704 0.286318 0.217493
O O18 0.207648 0.000000 0.239528
O O19 0.299042 0.000000 0.255990
O O20 0.121328 0.000000 0.199006
#
# Coordination Sequence:
#
# PCOD9175255 Si02
#       8
#     8   8   8   8   8   8   8   8
#     4  11  23  38  56  81 115 149 183 221 270 332
#     4  10  18  32  57  86 114 143 180 225 273 325
#     4  10  21  39  61  82 105 141 190 236 274 321
#     4  10  19  34  58  84 113 145 178 224 277 326
#     4  10  21  38  59  84 112 141 180 229 281 327
#     4  10  20  36  57  81 115 152 182 218 272 332
#     4   9  18  35  59  85 112 144 181 226 278 325
#     4  10  23  40  54  76 112 150 184 226 277 323
#
# _framework density 22.098884999999999
#
# number of rings (size 3 to 8) (size 9 to 14) (size 15 to 20)
#    0.000    2.000    2.500    1.125    0.000    5.000 
#    0.000    3.750    0.000    0.000    0.000    0.000 
#    0.000    0.000    0.000    0.000    0.000    0.000 
#
# Total GULP energy -178827.766313 kJ/mol
# GULP energy per Si atom -5588.367697 kJ/mol
# Density = 2.204859 g / cm^3
# Si number density = 22.098885 Si / 1000 Ang^3
#
#
#
# Elastic Constant Matrix: (Units=GPa)
#
#
# Indices 1 2 3 4 5 6 
#
# 1 118.6704 -3.1051 32.9326 0.0000 -6.3731 0.0000
# 2 -3.1051 52.5964 -13.6967 0.0000 0.2938 0.0000
# 3 32.9326 -13.6967 104.9603 0.0000 -5.9910 0.0000
# 4 0.0000 0.0000 0.0000 24.8781 0.0000 -4.0646
# 5 -6.3731 0.2938 -5.9910 0.0000 7.9950 0.0000
# 6 0.0000 0.0000 0.0000 -4.0646 0.0000 4.8316
#
#
#
# Elastic Compliance Matrix: (Units=1/GPa)
#
#
# Indices 1 2 3 4 5 6 
#
# 1 0.009462 -0.000169 -0.002674 0.000000 0.005545 0.000000
# 2 -0.000169 0.019697 0.002689 0.000000 0.001157 0.000000
# 3 -0.002674 0.002689 0.011063 0.000000 0.006059 0.000000
# 4 0.000000 0.000000 0.000000 0.046601 0.000000 0.039203
# 5 0.005545 0.001157 0.006059 0.000000 0.133995 0.000000
# 6 0.000000 0.000000 0.000000 0.039203 0.000000 0.239950
#
#
# Mechanical properties :
#
#
# Convention : Reuss Voigt Hill
#
# Bulk Modulus (GPa) = 25.05371 34.27652 29.66512
# Shear Modulus (GPa) = 10.54005 24.88071 17.71038
#
# Velocity S-wave (km/s) = 2.18629 3.35906 2.83400
# Velocity P-wave (km/s) = 4.21127 5.53069 4.91545
#
# Compressibility (1/GPa) = 0.03991424
#
# Stress axis : x y z
#
# Youngs Moduli (GPa) = 105.68301 50.77022 90.38861
#
# Poissons Ratio (x) = 0.00857 0.24174
# Poissons Ratio (y) = 0.01784 -0.24308
# Poissons Ratio (z) = 0.28264 -0.13653
#
# Static dielectric constant tensor:
#      x y z
#    x 1.815740 0.000000 -0.002000 
#    y 0.000000 1.827710 0.000000 
#    z -0.002000 0.000000 1.756140 
# 
# From -- ./inp_files/187434.got.cif
#   From: 2010.05.17/outbox.cif.g08.bks.cpg/sg12_94_cif.got.tgz:187434.got - 2010.06.03 13:09:07.
