data_PCOD9175426
_publ_section_title
;
Structure prediction by ZEFSAII (Michael W. Deem and Ramdas Pophale) SiO2 
 PCOD9175426
Probable space group: C 2/M
;
_chemical_formula_sum "Si O2"
_cell_formula_units_Z 56
_cell_length_a 14.405161
_cell_length_b 28.379682
_cell_length_c 10.951965
_cell_angle_alpha 90.000000
_cell_angle_beta 43.341895
_cell_angle_gamma 90.000000
_cell_volume 3073.006860
_symmetry_space_group_name_H-M "C 2/M"
_symmetry_group_IT_number 12
_symmetry_cell_setting 'monoclinic'
loop_
_space_group_symop_operation_xyz
x,y,z
-x,y,-z
-x,-y,-z
x,-y,z
1/2+x,1/2+y,z
1/2-x,1/2+y,-z
1/2-x,1/2-y,-z
1/2+x,1/2-y,z
loop_
_atom_site_type_symbol
_atom_site_label
_atom_site_fract_x
_atom_site_fract_y
_atom_site_fract_z
Si Si1 0.455709 0.807176 0.172206
Si Si2 0.785881 0.735087 0.651975
Si Si3 0.724580 0.859969 0.477120
Si Si4 0.711868 0.553559 0.733005
Si Si5 0.430067 0.742248 0.753152
Si Si6 0.086150 0.053856 0.108591
Si Si7 0.990836 0.137897 0.655760
O O1 0.330246 0.772086 0.266810
O O2 0.402435 0.845620 0.318324
O O3 0.567051 0.773559 0.128517
O O4 0.500000 0.826935 0.000000
O O5 0.748335 0.683431 0.640940
O O6 0.827140 0.737242 0.753035
O O7 0.920027 0.750104 0.448943
O O8 0.705250 0.907048 0.417616
O O9 0.856878 0.863589 0.436094
O O10 0.762733 0.500000 0.673676
O O11 0.563144 0.554593 0.811255
O O12 0.686834 0.564486 0.899682
O O13 0.420141 0.685958 0.770774
O O14 0.084479 0.092475 0.216401
O O15 0.109737 0.000000 0.127602
O O16 0.000000 0.139019 0.500000
#
# Coordination Sequence:
#
# PCOD9175426 Si02
#       7
#     8   8   8   8   8   8   8
#     4  11  21  32  47  72 105 136 171 211 250 297
#     4  10  18  34  51  70  96 134 176 209 245 293
#     4  10  18  33  51  70  97 134 172 207 251 305
#     4   8  15  30  51  71  93 122 164 215 254 295
#     4  10  18  33  52  69  97 137 172 210 247 296
#     4   8  16  28  44  73 102 124 160 206 250 301
#     4  11  17  28  49  71 102 140 164 194 249 313
#
# _framework density 18.223193999999999
#
# number of rings (size 3 to 8) (size 9 to 14) (size 15 to 20)
#    0.000    2.286    4.286    1.714    0.000    2.000 
#    0.000    1.429    0.000    0.429    0.000    8.000 
#    0.000    0.000    0.000    0.000    0.000    2.000 
#
# Total GULP energy -156182.375426 kJ/mol
# GULP energy per Si atom -5577.941979 kJ/mol
# Density = 1.818172 g / cm^3
# Si number density = 18.223194 Si / 1000 Ang^3
#
#
#
# Elastic Constant Matrix: (Units=GPa)
#
#
# Indices 1 2 3 4 5 6 
#
# 1 62.4249 25.9936 15.0385 0.0000 13.8605 0.0000
# 2 25.9936 131.1755 59.7158 0.0000 27.7205 0.0000
# 3 15.0385 59.7158 75.4355 0.0000 20.5048 0.0000
# 4 0.0000 0.0000 0.0000 20.7026 0.0000 7.1243
# 5 13.8605 27.7205 20.5048 0.0000 15.7797 0.0000
# 6 0.0000 0.0000 0.0000 7.1243 0.0000 14.2837
#
#
#
# Elastic Compliance Matrix: (Units=1/GPa)
#
#
# Indices 1 2 3 4 5 6 
#
# 1 0.020026 -0.000871 0.001643 0.000000 -0.018195 0.000000
# 2 -0.000871 0.014128 -0.006914 0.000000 -0.015069 0.000000
# 3 0.001643 -0.006914 0.023954 0.000000 -0.020423 0.000000
# 4 0.000000 0.000000 0.000000 0.058312 0.000000 -0.029084
# 5 -0.018195 -0.015069 -0.020423 0.000000 0.132365 0.000000
# 6 0.000000 0.000000 0.000000 -0.029084 0.000000 0.084516
#
#
# Mechanical properties :
#
#
# Convention : Reuss Voigt Hill
#
# Bulk Modulus (GPa) = 21.82314 52.28131 37.05223
# Shear Modulus (GPa) = 13.85580 21.37242 17.61411
#
# Velocity S-wave (km/s) = 2.76042 3.42835 3.11235
# Velocity P-wave (km/s) = 4.70758 6.66507 5.76994
#
# Compressibility (1/GPa) = 0.04582291
#
# Stress axis : x y z
#
# Youngs Moduli (GPa) = 49.93486 70.78096 41.74732
#
# Poissons Ratio (x) = 0.06168 -0.06860
# Poissons Ratio (y) = 0.04351 0.28865
# Poissons Ratio (z) = -0.08205 0.48940
#
# Static dielectric constant tensor:
#      x y z
#    x 1.647960 0.000000 0.004670 
#    y 0.000000 1.625450 0.000000 
#    z 0.004670 0.000000 1.658800 
# 
# From -- ./inp_files/149432.got.cif
#   From: 2010.05.17/outbox.cif.g08.bks.cpg/sg12_75_cif.got.tgz:149432.got - 2010.06.03 13:09:07.
