data_PCOD9175284
_publ_section_title
;
Structure prediction by ZEFSAII (Michael W. Deem and Ramdas Pophale) SiO2 
 PCOD9175284
Probable space group: C 2/M
;
_chemical_formula_sum "Si O2"
_cell_formula_units_Z 36
_cell_length_a 14.600571
_cell_length_b 16.088110
_cell_length_c 15.760881
_cell_angle_alpha 90.000000
_cell_angle_beta 152.189377
_cell_angle_gamma 90.000000
_cell_volume 1727.245804
_symmetry_space_group_name_H-M "C 2/M"
_symmetry_group_IT_number 12
_symmetry_cell_setting 'monoclinic'
loop_
_space_group_symop_operation_xyz
x,y,z
-x,y,-z
-x,-y,-z
x,-y,z
1/2+x,1/2+y,z
1/2-x,1/2+y,-z
1/2-x,1/2-y,-z
1/2+x,1/2-y,z
loop_
_atom_site_type_symbol
_atom_site_label
_atom_site_fract_x
_atom_site_fract_y
_atom_site_fract_z
Si Si1 0.418742 0.906767 0.568024
Si Si2 0.993182 0.176738 0.764671
Si Si3 0.500000 0.149928 0.000000
Si Si4 0.588781 0.738481 0.661474
Si Si5 0.939165 0.365113 0.132575
O O1 0.564233 0.837359 0.649910
O O2 0.456218 0.903747 0.700396
O O3 0.198662 0.874528 0.368554
O O4 0.449275 0.000000 0.562889
O O5 0.979631 0.199745 0.653543
O O6 0.006907 0.266291 0.821632
O O7 0.202420 0.131764 0.949579
O O8 0.691354 0.207163 0.152985
O O9 0.498072 0.102257 0.088157
O O10 0.500000 0.710699 0.500000
#
# Coordination Sequence:
#
# PCOD9175284 Si02
#       5
#     8   8   4   8   8
#     4  11  22  34  50  76 111 142 165 199 254 315
#     4   9  18  34  55  75  98 133 177 216 248 291
#     4  10  18  32  58  80  96 124 176 228 254 284
#     4  10  19  33  55  79 100 129 172 216 255 297
#     4   9  18  34  55  76  97 131 177 217 251 290
#
# _framework density 20.842431000000001
#
# number of rings (size 3 to 8) (size 9 to 14) (size 15 to 20)
#    0.000    2.222    0.000    6.667    0.000    1.333 
#    0.000    1.111    0.000   12.667    0.000    0.000 
#    0.000    0.000    0.000    0.000    0.000    0.000 
#
# Total GULP energy -100543.806565 kJ/mol
# GULP energy per Si atom -5585.767031 kJ/mol
# Density = 2.079499 g / cm^3
# Si number density = 20.842431 Si / 1000 Ang^3
#
#
#
# Elastic Constant Matrix: (Units=GPa)
#
#
# Indices 1 2 3 4 5 6 
#
# 1 57.1739 -4.5048 15.1735 -0.0011 -16.0967 -0.0008
# 2 -4.5048 61.9098 16.9840 0.0025 21.8259 0.0018
# 3 15.1735 16.9840 99.8114 0.0004 -8.8261 0.0010
# 4 -0.0011 0.0025 0.0004 -6.7191 -0.0015 1.3657
# 5 -16.0967 21.8259 -8.8261 -0.0015 35.8985 -0.0012
# 6 -0.0008 0.0018 0.0010 1.3657 -0.0012 0.6597
#
#
#
# Elastic Compliance Matrix: (Units=1/GPa)
#
#
# Indices 1 2 3 4 5 6 
#
# 1 0.020619 -0.001286 -0.002074 0.000003 0.009517 0.000042
# 2 -0.001286 0.023056 -0.005130 -0.000004 -0.015856 -0.000078
# 3 -0.002074 -0.005130 0.011654 -0.000001 0.005054 0.000006
# 4 0.000003 -0.000004 -0.000001 -0.104750 0.000006 0.216863
# 5 0.009517 -0.015856 0.005054 0.000006 0.043007 0.000112
# 6 0.000042 -0.000078 0.000006 0.216863 0.000112 1.066921
#
#
# Mechanical properties :
#
#
# Convention : Reuss Voigt Hill
#
# Bulk Modulus (GPa) = 26.07602 30.46671 28.27136
# Shear Modulus (GPa) = 4.58602 18.71731 11.65166
#
# Velocity S-wave (km/s) = 1.48496 2.99998 2.36696
# Velocity P-wave (km/s) = 3.93425 5.16229 4.58953
#
# Compressibility (1/GPa) = 0.03834942
#
# Stress axis : x y z
#
# Youngs Moduli (GPa) = 48.49857 43.37245 85.80711
#
# Poissons Ratio (x) = 0.05578 0.17797
# Poissons Ratio (y) = 0.06237 0.44018
# Poissons Ratio (z) = 0.10059 0.22249
#
# Static dielectric constant tensor:
#      x y z
#    x 1.791720 0.000000 -0.029130 
#    y 0.000000 1.728680 0.000000 
#    z -0.029130 0.000000 1.762260 
# 
# From -- ./inp_files/216155.got.cif
#   From: 2010.05.17/outbox.cif.g08.bks.cpg/sg12_109_cif.got.tgz:216155.got - 2010.06.03 13:09:07.
