data_PCOD9175198
_publ_section_title
;
Structure prediction by ZEFSAII (Michael W. Deem and Ramdas Pophale) SiO2 
 PCOD9175198
Probable space group: C 2/M
;
_chemical_formula_sum "Si O2"
_cell_formula_units_Z 48
_cell_length_a 11.059629
_cell_length_b 26.593594
_cell_length_c 10.061510
_cell_angle_alpha 90.000000
_cell_angle_beta 44.035511
_cell_angle_gamma 90.000000
_cell_volume 2056.982461
_symmetry_space_group_name_H-M "C 2/M"
_symmetry_group_IT_number 12
_symmetry_cell_setting 'monoclinic'
loop_
_space_group_symop_operation_xyz
x,y,z
-x,y,-z
-x,-y,-z
x,-y,z
1/2+x,1/2+y,z
1/2-x,1/2+y,-z
1/2-x,1/2-y,-z
1/2+x,1/2-y,z
loop_
_atom_site_type_symbol
_atom_site_label
_atom_site_fract_x
_atom_site_fract_y
_atom_site_fract_z
Si Si1 0.362925 0.588701 0.904096
Si Si2 0.384315 0.797765 0.727204
Si Si3 0.324590 0.860330 0.417823
Si Si4 0.965970 0.813149 0.683438
Si Si5 0.771385 0.106430 0.244168
Si Si6 0.692506 0.054845 0.785005
O O1 0.356044 0.643896 0.842183
O O2 0.551994 0.587576 0.824264
O O3 0.322995 0.555922 0.807321
O O4 0.240823 0.578455 0.128407
O O5 0.500000 0.794592 0.500000
O O6 0.505150 0.827164 0.737222
O O7 0.372557 0.740040 0.777855
O O8 0.228016 0.835289 0.811340
O O9 0.164818 0.822151 0.574337
O O10 0.353538 0.891812 0.530337
O O11 0.279849 0.899395 0.337955
O O12 0.000000 0.820469 0.500000
O O13 0.704615 0.000000 0.709633
O O14 0.500000 0.060454 0.000000
#
# Coordination Sequence:
#
# PCOD9175198 Si02
#       6
#     8   8   8   8   8   8
#     4  10  20  39  58  83 125 157 197 250 295 349
#     4   9  18  32  56  87 120 162 202 240 288 345
#     4  10  19  37  61  85 121 159 198 245 298 351
#     4  10  18  32  56  88 121 159 201 240 288 352
#     4   9  20  36  58  84 118 165 193 239 294 348
#     4  11  24  42  65  90 115 150 198 256 311 357
#
# _framework density 23.335151
#
# number of rings (size 3 to 8) (size 9 to 14) (size 15 to 20)
#    0.000    2.167    1.667    1.500    0.000    2.000 
#    0.000    9.167    0.000    7.500    0.000    0.000 
#    0.000    0.000    0.000    0.000    0.000    0.000 
#
# Total GULP energy -133612.232631 kJ/mol
# GULP energy per Si atom -5567.176360 kJ/mol
# Density = 2.328204 g / cm^3
# Si number density = 23.335151 Si / 1000 Ang^3
#
#
#
# Elastic Constant Matrix: (Units=GPa)
#
#
# Indices 1 2 3 4 5 6 
#
# 1 108.5998 28.2463 11.9777 0.0000 22.1067 0.0000
# 2 28.2463 86.4062 4.0463 0.0000 9.0076 0.0000
# 3 11.9777 4.0463 57.9582 0.0000 18.5801 0.0000
# 4 0.0000 0.0000 0.0000 -90.2538 0.0000 74.1956
# 5 22.1067 9.0076 18.5801 0.0000 47.5154 0.0000
# 6 0.0000 0.0000 0.0000 74.1956 0.0000 -43.7499
#
#
#
# Elastic Compliance Matrix: (Units=1/GPa)
#
#
# Indices 1 2 3 4 5 6 
#
# 1 0.010955 -0.003107 -0.000688 0.000000 -0.004239 0.000000
# 2 -0.003107 0.012689 0.000073 0.000000 -0.000988 0.000000
# 3 -0.000688 0.000073 0.019771 0.000000 -0.007425 0.000000
# 4 0.000000 0.000000 0.000000 0.028110 0.000000 0.047671
# 5 -0.004239 -0.000988 -0.007425 0.000000 0.026109 0.000000
# 6 0.000000 0.000000 0.000000 0.047671 0.000000 0.057989
#
#
# Mechanical properties :
#
#
# Convention : Reuss Voigt Hill
#
# Bulk Modulus (GPa) = 27.80066 37.94500 32.87283
# Shear Modulus (GPa) = 28.56223 -3.38473 12.58875
#
# Velocity S-wave (km/s) = 3.50237 -1.20567 2.32518
# Velocity P-wave (km/s) = 5.31930 3.78919 4.61806
#
# Compressibility (1/GPa) = 0.03597037
#
# Stress axis : x y z
#
# Youngs Moduli (GPa) = 91.28249 78.81103 50.57869
#
# Poissons Ratio (x) = 0.24487 0.03481
# Poissons Ratio (y) = 0.28362 -0.00370
# Poissons Ratio (z) = 0.06282 -0.00576
#
# Static dielectric constant tensor:
#      x y z
#    x 1.966570 0.000000 -0.042800 
#    y 0.000000 1.881930 0.000000 
#    z -0.042800 0.000000 1.975820 
# 
# From -- ./inp_files/136501.got.cif
#   From: 2010.05.17/outbox.cif.g08.bks.cpg/sg12_69_cif.got.tgz:136501.got - 2010.06.03 13:09:07.
