data_PCOD9175977
_publ_section_title
;
Structure prediction by ZEFSAII (Michael W. Deem and Ramdas Pophale) SiO2 
 PCOD9175977
Probable space group: C 2/M
;
_chemical_formula_sum "Si O2"
_cell_formula_units_Z 48
_cell_length_a 23.682128
_cell_length_b 18.770844
_cell_length_c 11.838142
_cell_angle_alpha 90.000000
_cell_angle_beta 155.810256
_cell_angle_gamma 90.000000
_cell_volume 2156.340665
_symmetry_space_group_name_H-M "C 2/M"
_symmetry_group_IT_number 12
_symmetry_cell_setting 'monoclinic'
loop_
_space_group_symop_operation_xyz
x,y,z
-x,y,-z
-x,-y,-z
x,-y,z
1/2+x,1/2+y,z
1/2-x,1/2+y,-z
1/2-x,1/2-y,-z
1/2+x,1/2-y,z
loop_
_atom_site_type_symbol
_atom_site_label
_atom_site_fract_x
_atom_site_fract_y
_atom_site_fract_z
Si Si1 0.858377 0.689495 0.777365
Si Si2 0.883248 0.415676 0.383153
Si Si3 0.226250 0.417729 0.227599
Si Si4 0.487180 0.420989 0.112246
Si Si5 0.767945 0.674195 0.364895
Si Si6 0.155071 0.085539 0.785959
O O1 0.888111 0.624925 0.914145
O O2 0.796923 0.657924 0.549819
O O3 0.757842 0.741287 0.664656
O O4 0.000000 0.727952 0.000000
O O5 0.895055 0.500000 0.438543
O O6 0.875989 0.360544 0.474577
O O7 0.000000 0.403675 0.500000
O O8 0.740133 0.404817 0.054384
O O9 0.188525 0.500000 0.150136
O O10 0.368322 0.412219 0.559444
O O11 0.258165 0.387880 0.162420
O O12 0.434363 0.500000 0.049977
O O13 0.500000 0.421767 0.000000
O O14 0.376598 0.360702 0.935069
O O15 0.000000 0.114171 0.500000
O O16 0.144614 0.000000 0.749098
#
# Coordination Sequence:
#
# PCOD9175977 Si02
#       6
#     8   8   8   8   8   8
#     4  11  26  41  60  89 126 171 208 256 330 382
#     4  10  22  40  66  97 127 166 214 265 319 377
#     4  10  21  38  63  94 126 159 209 271 324 379
#     4  10  18  33  61  94 121 155 211 263 310 373
#     4  11  23  41  62  86 127 166 209 260 314 386
#     4   9  18  36  60  90 125 160 201 256 318 375
#
# _framework density 22.259936
#
# number of rings (size 3 to 8) (size 9 to 14) (size 15 to 20)
#    0.000    1.833    1.667    2.000    4.667    3.667 
#    0.000    1.667    0.000    0.000    0.000    0.000 
#    0.000    0.000    0.000    0.000    0.000    0.000 
#
# Total GULP energy -133863.816448 kJ/mol
# GULP energy per Si atom -5577.659019 kJ/mol
# Density = 2.220927 g / cm^3
# Si number density = 22.259936 Si / 1000 Ang^3
#
#
#
# Elastic Constant Matrix: (Units=GPa)
#
#
# Indices 1 2 3 4 5 6 
#
# 1 120.8082 78.2469 10.5041 0.0000 -8.3221 0.0000
# 2 78.2469 65.0630 16.4973 0.0000 2.0451 0.0000
# 3 10.5041 16.4973 64.5298 0.0000 -5.6585 0.0000
# 4 0.0000 0.0000 0.0000 12.4304 0.0000 3.9929
# 5 -8.3221 2.0451 -5.6585 0.0000 29.5365 0.0000
# 6 0.0000 0.0000 0.0000 3.9929 0.0000 38.7757
#
#
#
# Elastic Compliance Matrix: (Units=1/GPa)
#
#
# Indices 1 2 3 4 5 6 
#
# 1 0.048817 -0.061764 0.009586 0.000000 0.019867 0.000000
# 2 -0.061764 0.094694 -0.016534 0.000000 -0.027126 0.000000
# 3 0.009586 -0.016534 0.018817 0.000000 0.007450 0.000000
# 4 0.000000 0.000000 0.000000 0.083200 0.000000 -0.008567
# 5 0.019867 -0.027126 0.007450 0.000000 0.042760 0.000000
# 6 0.000000 0.000000 0.000000 -0.008567 0.000000 0.026672
#
#
# Mechanical properties :
#
#
# Convention : Reuss Voigt Hill
#
# Bulk Modulus (GPa) = 40.15401 51.21083 45.68242
# Shear Modulus (GPa) = 10.85346 25.82537 18.33941
#
# Velocity S-wave (km/s) = 2.21051 3.40983 2.87344
# Velocity P-wave (km/s) = 4.95913 6.20954 5.61922
#
# Compressibility (1/GPa) = 0.02490411
#
# Stress axis : x y z
#
# Youngs Moduli (GPa) = 20.48477 10.56037 53.14464
#
# Poissons Ratio (x) = 0.65225 -0.50944
# Poissons Ratio (y) = 1.26522 0.87868
# Poissons Ratio (z) = -0.19637 0.17460
#
# Static dielectric constant tensor:
#      x y z
#    x 1.866370 0.000000 0.037370 
#    y 0.000000 1.819430 0.000000 
#    z 0.037370 0.000000 1.873420 
# 
# From -- ./inp_files/177420.got.cif
#   From: 2010.05.17/outbox.cif.g08.bks.cpg/sg12_89_cif.got.tgz:177420.got - 2010.06.03 13:09:07.
