data_PCOD9175105
_publ_section_title
;
Structure prediction by ZEFSAII (Michael W. Deem and Ramdas Pophale) SiO2 
 PCOD9175105
Probable space group: C 2/M
;
_chemical_formula_sum "Si O2"
_cell_formula_units_Z 60
_cell_length_a 30.578515
_cell_length_b 14.123934
_cell_length_c 15.416839
_cell_angle_alpha 90.000000
_cell_angle_beta 26.752919
_cell_angle_gamma 90.000000
_cell_volume 2997.221295
_symmetry_space_group_name_H-M "C 2/M"
_symmetry_group_IT_number 12
_symmetry_cell_setting 'monoclinic'
loop_
_space_group_symop_operation_xyz
x,y,z
-x,y,-z
-x,-y,-z
x,-y,z
1/2+x,1/2+y,z
1/2-x,1/2+y,-z
1/2-x,1/2-y,-z
1/2+x,1/2-y,z
loop_
_atom_site_type_symbol
_atom_site_label
_atom_site_fract_x
_atom_site_fract_y
_atom_site_fract_z
Si Si1 0.549124 0.113743 0.322551
Si Si2 0.500000 0.765237 0.000000
Si Si3 0.675634 0.187314 0.574713
Si Si4 0.862792 0.893690 0.158146
Si Si5 0.730058 0.385673 0.048858
Si Si6 0.428866 0.609804 0.543504
Si Si7 0.588392 0.776802 0.545247
Si Si8 0.231909 0.888626 0.854195
O O1 0.500000 0.146127 0.500000
O O2 0.659750 0.143430 0.135993
O O3 0.499824 0.153784 0.323573
O O4 0.543485 0.000000 0.330749
O O5 0.579871 0.827193 0.805063
O O6 0.567185 0.691218 0.935677
O O7 0.750000 0.250000 0.500000
O O8 0.754791 0.113671 0.394355
O O9 0.626270 0.231412 0.575955
O O10 0.844714 0.883093 0.087458
O O11 0.900410 0.000000 0.109147
O O12 0.724081 0.500000 0.063081
O O13 0.694584 0.360959 0.015414
O O14 0.670118 0.354435 0.237221
O O15 0.500000 0.616177 0.500000
O O16 0.425788 0.500000 0.522928
O O17 0.445050 0.677274 0.434571
O O18 0.677211 0.825316 0.335136
O O19 0.263723 0.000000 0.803450
#
# Coordination Sequence:
#
# PCOD9175105 Si02
#       8
#     8   4   8   8   8   8   8   8
#     4  10  18  32  55  86 117 138 171 227 280 329
#     4  10  19  38  59  80 108 148 188 238 295 350
#     4   9  21  40  58  82 113 144 182 240 297 340
#     4   9  18  34  59  87 112 142 188 239 289 343
#     4   9  18  34  53  75 110 150 179 219 269 314
#     4  10  23  40  52  72 114 158 194 226 260 315
#     4  11  20  35  56  84 106 148 186 222 279 340
#     4   9  17  31  54  84 113 140 178 230 279 327
#
# _framework density 20.018540999999999
#
# number of rings (size 3 to 8) (size 9 to 14) (size 15 to 20)
#    0.000    2.400    1.333    1.000    0.000    2.133 
#    7.200    5.000    0.000    0.000    0.000    0.000 
#    0.000    0.000    0.000    0.000    0.000    0.000 
#
# Total GULP energy -167117.934728 kJ/mol
# GULP energy per Si atom -5570.597824 kJ/mol
# Density = 1.997298 g / cm^3
# Si number density = 20.018541 Si / 1000 Ang^3
#
#
#
# Elastic Constant Matrix: (Units=GPa)
#
#
# Indices 1 2 3 4 5 6 
#
# 1 112.0388 30.6329 9.0309 0.0000 -2.0948 0.0000
# 2 30.6329 67.9413 2.4212 0.0000 3.7416 0.0000
# 3 9.0309 2.4212 60.1155 0.0000 -14.2000 0.0000
# 4 0.0000 0.0000 0.0000 8.4802 0.0000 0.1125
# 5 -2.0948 3.7416 -14.2000 0.0000 17.7220 0.0000
# 6 0.0000 0.0000 0.0000 0.1125 0.0000 9.9076
#
#
#
# Elastic Compliance Matrix: (Units=1/GPa)
#
#
# Indices 1 2 3 4 5 6 
#
# 1 0.010317 -0.004691 -0.001035 0.000000 0.001381 0.000000
# 2 -0.004691 0.017159 -0.001200 0.000000 -0.005139 0.000000
# 3 -0.001035 -0.001200 0.020808 0.000000 0.016804 0.000000
# 4 0.000000 0.000000 0.000000 0.117939 0.000000 -0.001339
# 5 0.001381 -0.005139 0.016804 0.000000 0.071139 0.000000
# 6 0.000000 0.000000 0.000000 -0.001339 0.000000 0.100948
#
#
# Mechanical properties :
#
#
# Convention : Reuss Voigt Hill
#
# Bulk Modulus (GPa) = 29.04263 36.02949 32.53606
# Shear Modulus (GPa) = 13.74985 20.42266 17.08626
#
# Velocity S-wave (km/s) = 2.62364 3.19750 2.92468
# Velocity P-wave (km/s) = 4.87004 5.62754 5.26244
#
# Compressibility (1/GPa) = 0.03443214
#
# Stress axis : x y z
#
# Youngs Moduli (GPa) = 96.92480 58.27712 48.05923
#
# Poissons Ratio (x) = 0.27337 0.04973
# Poissons Ratio (y) = 0.45467 0.05769
# Poissons Ratio (z) = 0.10030 0.06995
#
# Static dielectric constant tensor:
#      x y z
#    x 1.692970 0.000000 0.007790 
#    y 0.000000 1.717740 0.000000 
#    z 0.007790 0.000000 1.811310 
# 
# From -- ./inp_files/251308.got.cif
#   From: 2010.05.17/outbox.cif.g08.bks.cpg/sg12_126_cif.got.tgz:251308.got - 2010.06.03 13:09:07.
