data_PCOD9175694
_publ_section_title
;
Structure prediction by ZEFSAII (Michael W. Deem and Ramdas Pophale) SiO2 
 PCOD9175694
Probable space group: C 2/M
;
_chemical_formula_sum "Si O2"
_cell_formula_units_Z 64
_cell_length_a 9.188383
_cell_length_b 19.292412
_cell_length_c 20.235747
_cell_angle_alpha 90.000000
_cell_angle_beta 92.108017
_cell_angle_gamma 90.000000
_cell_volume 3584.683800
_symmetry_space_group_name_H-M "C 2/M"
_symmetry_group_IT_number 12
_symmetry_cell_setting 'monoclinic'
loop_
_space_group_symop_operation_xyz
x,y,z
-x,y,-z
-x,-y,-z
x,-y,z
1/2+x,1/2+y,z
1/2-x,1/2+y,-z
1/2-x,1/2-y,-z
1/2+x,1/2-y,z
loop_
_atom_site_type_symbol
_atom_site_label
_atom_site_fract_x
_atom_site_fract_y
_atom_site_fract_z
Si Si1 0.097706 0.579527 0.237670
Si Si2 0.094688 0.797343 0.255611
Si Si3 0.207272 0.419349 0.690805
Si Si4 0.340649 0.313172 0.470971
Si Si5 0.148215 0.416970 0.538572
Si Si6 0.385179 0.725287 0.047291
Si Si7 0.126444 0.299451 0.133602
Si Si8 0.210807 0.819753 0.684081
O O1 0.126120 0.500000 0.219798
O O2 0.097727 0.632866 0.176879
O O3 0.216672 0.608594 0.291334
O O4 0.940894 0.583677 0.269926
O O5 0.175148 0.868850 0.274310
O O6 0.123360 0.767303 0.182746
O O7 0.167351 0.738782 0.302863
O O8 0.925529 0.803102 0.270864
O O9 0.255461 0.500000 0.689115
O O10 0.166976 0.396102 0.615465
O O11 0.500000 0.303038 0.500000
O O12 0.250000 0.250000 0.500000
O O13 0.276906 0.383811 0.499382
O O14 0.336149 0.317325 0.392155
O O15 0.149428 0.500000 0.537069
O O16 0.000000 0.393201 0.500000
O O17 0.287190 0.692328 0.103954
O O18 0.492680 0.783378 0.081043
O O19 0.500000 0.686323 0.000000
O O20 0.250000 0.750000 0.000000
#
# Coordination Sequence:
#
# PCOD9175694 Si02
#       8
#     8   8   8   8   8   8   8   8
#     4  10  21  36  56  81 109 143 182 226 274 323
#     4  11  21  36  55  79 107 136 176 220 271 322
#     4  10  20  35  53  75 104 136 175 224 276 326
#     4  12  24  36  52  74 101 136 179 228 284 340
#     4  10  21  37  55  72  96 135 179 224 276 334
#     4   9  18  32  55  85 114 139 170 211 248 295
#     4  10  18  33  56  83 109 141 176 214 259 306
#     4  11  22  35  53  75 104 138 177 231 281 330
#
# _framework density 17.853736000000001
#
# number of rings (size 3 to 8) (size 9 to 14) (size 15 to 20)
#    0.000    1.625    0.000    7.125    0.000    2.250 
#    0.000    0.000    0.000    3.750    0.000    3.500 
#    0.000    0.000    0.000    0.000    0.000    0.000 
#
# Total GULP energy -178449.699916 kJ/mol
# GULP energy per Si atom -5576.553122 kJ/mol
# Density = 1.781310 g / cm^3
# Si number density = 17.853736 Si / 1000 Ang^3
#
#
#
# Elastic Constant Matrix: (Units=GPa)
#
#
# Indices 1 2 3 4 5 6 
#
# 1 86.5532 18.1533 15.7194 0.0000 5.4717 0.0000
# 2 18.1533 54.8452 18.3887 0.0000 10.2010 0.0000
# 3 15.7194 18.3887 88.6831 0.0000 5.5364 0.0000
# 4 0.0000 0.0000 0.0000 8.2371 0.0000 -4.7598
# 5 5.4717 10.2010 5.5364 0.0000 36.8998 0.0000
# 6 0.0000 0.0000 0.0000 -4.7598 0.0000 26.6758
#
#
#
# Elastic Compliance Matrix: (Units=1/GPa)
#
#
# Indices 1 2 3 4 5 6 
#
# 1 0.012607 -0.003561 -0.001455 0.000000 -0.000667 0.000000
# 2 -0.003561 0.021502 -0.003522 0.000000 -0.004888 0.000000
# 3 -0.001455 -0.003522 0.012305 0.000000 -0.000657 0.000000
# 4 0.000000 0.000000 0.000000 0.135358 0.000000 0.024152
# 5 -0.000667 -0.004888 -0.000657 0.000000 0.028649 0.000000
# 6 0.000000 0.000000 0.000000 0.024152 0.000000 0.041797
#
#
# Mechanical properties :
#
#
# Convention : Reuss Voigt Hill
#
# Bulk Modulus (GPa) = 34.08507 37.17827 35.63167
# Shear Modulus (GPa) = 17.91646 26.21722 22.06684
#
# Velocity S-wave (km/s) = 3.17126 3.83619 3.51946
# Velocity P-wave (km/s) = 5.70456 6.36324 6.04288
#
# Compressibility (1/GPa) = 0.02933835
#
# Stress axis : x y z
#
# Youngs Moduli (GPa) = 79.32238 46.50776 81.26606
#
# Poissons Ratio (x) = 0.16562 0.11821
# Poissons Ratio (y) = 0.28247 0.28623
# Poissons Ratio (z) = 0.11538 0.16381
#
# Static dielectric constant tensor:
#      x y z
#    x 1.599330 0.000000 -0.006160 
#    y 0.000000 1.602690 0.000000 
#    z -0.006160 0.000000 1.665850 
# 
# From -- ./inp_files/300782.got.cif
#   From: 2010.05.17/outbox.cif.g08.bks.cpg/sg12_151_cif.got.tgz:300782.got - 2010.06.03 13:09:07.
