data_PCOD9175797
_publ_section_title
;
Structure prediction by ZEFSAII (Michael W. Deem and Ramdas Pophale) SiO2 
 PCOD9175797
Probable space group: C 2/M
;
_chemical_formula_sum "Si O2"
_cell_formula_units_Z 52
_cell_length_a 8.648155
_cell_length_b 17.351068
_cell_length_c 21.485992
_cell_angle_alpha 90.000000
_cell_angle_beta 131.683187
_cell_angle_gamma 90.000000
_cell_volume 2407.846479
_symmetry_space_group_name_H-M "C 2/M"
_symmetry_group_IT_number 12
_symmetry_cell_setting 'monoclinic'
loop_
_space_group_symop_operation_xyz
x,y,z
-x,y,-z
-x,-y,-z
x,-y,z
1/2+x,1/2+y,z
1/2-x,1/2+y,-z
1/2-x,1/2-y,-z
1/2+x,1/2-y,z
loop_
_atom_site_type_symbol
_atom_site_label
_atom_site_fract_x
_atom_site_fract_y
_atom_site_fract_z
Si Si1 0.715867 0.591456 0.529394
Si Si2 0.500000 0.650180 0.000000
Si Si3 0.624264 0.411261 0.374745
Si Si4 0.321248 0.239725 0.850938
Si Si5 0.554071 0.085718 0.870497
Si Si6 0.134670 0.206182 0.265041
Si Si7 0.170228 0.622833 0.310206
O O1 0.500000 0.623218 0.500000
O O2 0.687429 0.500000 0.512643
O O3 0.752331 0.620335 0.469205
O O4 0.866281 0.600766 0.627983
O O5 0.458853 0.706935 0.931119
O O6 0.293697 0.599691 0.949712
O O7 0.679994 0.500000 0.376328
O O8 0.646883 0.361180 0.318591
O O9 0.386623 0.408944 0.337693
O O10 0.431104 0.158925 0.864812
O O11 0.253673 0.287928 0.771333
O O12 0.102694 0.216068 0.821623
O O13 0.504884 0.093342 0.783768
O O14 0.488368 0.000000 0.873380
O O15 0.196980 0.285562 0.314576
#
# Coordination Sequence:
#
# PCOD9175797 Si02
#       7
#     8   4   8   8   8   8   8
#     4   8  15  28  52  85 118 154 196 239 286 336
#     4  12  23  44  63  88 116 156 190 246 297 358
#     4  10  19  35  59  87 121 156 197 246 285 336
#     4  11  23  41  64  86 118 155 196 234 302 354
#     4  11  22  37  62  89 118 152 194 243 289 346
#     4  11  21  37  61  89 115 156 199 237 287 357
#     4  10  18  33  57  86 118 154 198 237 287 340
#
# _framework density 21.596062
#
# number of rings (size 3 to 8) (size 9 to 14) (size 15 to 20)
#    0.000    1.692    6.154    3.000    0.000    0.615 
#    0.000    1.923    0.000    0.000    0.000    2.154 
#    0.000    0.000    0.000    0.000    0.000    0.000 
#
# Total GULP energy -144977.714812 kJ/mol
# GULP energy per Si atom -5576.065954 kJ/mol
# Density = 2.154691 g / cm^3
# Si number density = 21.596062 Si / 1000 Ang^3
#
#
#
# Elastic Constant Matrix: (Units=GPa)
#
#
# Indices 1 2 3 4 5 6 
#
# 1 35.5550 11.8659 -1.4497 0.0000 -11.2454 0.0000
# 2 11.8659 110.9123 16.5712 0.0000 -25.4119 0.0000
# 3 -1.4497 16.5712 71.5077 0.0000 -24.8876 0.0000
# 4 0.0000 0.0000 0.0000 50.2561 0.0000 -3.5152
# 5 -11.2454 -25.4119 -24.8876 0.0000 31.6960 0.0000
# 6 0.0000 0.0000 0.0000 -3.5152 0.0000 20.2434
#
#
#
# Elastic Compliance Matrix: (Units=1/GPa)
#
#
# Indices 1 2 3 4 5 6 
#
# 1 0.033922 -0.000819 0.006657 0.000000 0.016605 0.000000
# 2 -0.000819 0.011092 0.000560 0.000000 0.009042 0.000000
# 3 0.006657 0.000560 0.020597 0.000000 0.018983 0.000000
# 4 0.000000 0.000000 0.000000 0.020143 0.000000 0.003498
# 5 0.016605 0.009042 0.018983 0.000000 0.059596 0.000000
# 6 0.000000 0.000000 0.000000 0.003498 0.000000 0.050006
#
#
# Mechanical properties :
#
#
# Convention : Reuss Voigt Hill
#
# Bulk Modulus (GPa) = 12.75417 30.21665 21.48541
# Shear Modulus (GPa) = 23.95841 33.17162 28.56502
#
# Velocity S-wave (km/s) = 3.33436 3.92344 3.64083
# Velocity P-wave (km/s) = 4.55440 5.87764 5.25781
#
# Compressibility (1/GPa) = 0.07840574
#
# Stress axis : x y z
#
# Youngs Moduli (GPa) = 29.47922 90.15750 48.55161
#
# Poissons Ratio (x) = 0.07386 -0.32321
# Poissons Ratio (y) = 0.02415 -0.02718
# Poissons Ratio (z) = -0.19624 -0.05047
#
# Static dielectric constant tensor:
#      x y z
#    x 1.837050 0.000000 0.028590 
#    y 0.000000 1.772690 0.000000 
#    z 0.028590 0.000000 1.839700 
# 
# From -- ./inp_files/301203.got.cif
#   From: 2010.05.17/outbox.cif.g08.bks.cpg/sg12_151_cif.got.tgz:301203.got - 2010.06.03 13:09:07.
