data_PCOD9175316
_publ_section_title
;
Structure prediction by ZEFSAII (Michael W. Deem and Ramdas Pophale) SiO2 
 PCOD9175316
Probable space group: C 2/M
;
_chemical_formula_sum "Si O2"
_cell_formula_units_Z 40
_cell_length_a 14.655949
_cell_length_b 26.014347
_cell_length_c 14.366961
_cell_angle_alpha 90.000000
_cell_angle_beta 159.902001
_cell_angle_gamma 90.000000
_cell_volume 1882.257073
_symmetry_space_group_name_H-M "C 2/M"
_symmetry_group_IT_number 12
_symmetry_cell_setting 'monoclinic'
loop_
_space_group_symop_operation_xyz
x,y,z
-x,y,-z
-x,-y,-z
x,-y,z
1/2+x,1/2+y,z
1/2-x,1/2+y,-z
1/2-x,1/2-y,-z
1/2+x,1/2-y,z
loop_
_atom_site_type_symbol
_atom_site_label
_atom_site_fract_x
_atom_site_fract_y
_atom_site_fract_z
Si Si1 0.024790 0.060038 0.915947
Si Si2 0.400309 0.200626 0.106300
Si Si3 0.233628 0.420886 0.295496
Si Si4 0.079792 0.806178 0.485017
Si Si5 0.068439 0.592121 0.345023
O O1 0.824137 0.089786 0.656020
O O2 0.946412 0.000000 0.838126
O O3 0.000000 0.076912 0.000000
O O4 0.321018 0.065396 0.158929
O O5 0.682696 0.220720 0.340224
O O6 0.475400 0.151042 0.239234
O O7 0.250000 0.250000 0.000000
O O8 0.185316 0.180753 0.824934
O O9 0.500000 0.441234 0.500000
O O10 0.284079 0.359534 0.352776
O O11 0.150574 0.432838 0.323067
O O12 0.000000 0.432044 0.000000
O O13 0.000000 0.775540 0.500000
#
# Coordination Sequence:
#
# PCOD9175316 Si02
#       5
#     8   8   8   8   8
#     4  11  24  43  67  92 119 161 220 275 323 375
#     4  11  22  36  56  86 123 158 196 245 309 376
#     4  10  18  32  58  90 117 150 195 240 291 362
#     4  10  18  33  54  79 110 153 205 242 276 348
#     4  11  21  39  65  91 122 163 205 259 321 375
#
# _framework density 21.251082
#
# number of rings (size 3 to 8) (size 9 to 14) (size 15 to 20)
#    0.000    1.400    0.000   10.800    0.000    1.600 
#    0.000    4.000    0.000   13.200    0.000    0.000 
#    0.000    0.000    0.000    0.000    0.000    0.000 
#
# Total GULP energy -111567.030348 kJ/mol
# GULP energy per Si atom -5578.351517 kJ/mol
# Density = 2.120271 g / cm^3
# Si number density = 21.251082 Si / 1000 Ang^3
#
#
#
# Elastic Constant Matrix: (Units=GPa)
#
#
# Indices 1 2 3 4 5 6 
#
# 1 175.4841 22.9090 73.4434 0.0005 6.0049 -0.0002
# 2 22.9090 52.6135 0.6309 -0.0023 -4.3425 -0.0038
# 3 73.4434 0.6309 155.7751 0.0037 2.2802 -0.0099
# 4 0.0005 -0.0023 0.0037 6.4117 -0.0003 -3.8188
# 5 6.0049 -4.3425 2.2802 -0.0003 34.2882 -0.0045
# 6 -0.0002 -0.0038 -0.0099 -3.8188 -0.0045 -16.6494
#
#
#
# Elastic Compliance Matrix: (Units=1/GPa)
#
#
# Indices 1 2 3 4 5 6 
#
# 1 0.007706 -0.003440 -0.003596 0.000002 -0.001546 0.000003
# 2 -0.003440 0.020745 0.001492 0.000003 0.003130 -0.000007
# 3 -0.003596 0.001492 0.008105 -0.000006 0.000280 -0.000004
# 4 0.000002 0.000003 -0.000006 0.137219 -0.000002 -0.031474
# 5 -0.001546 0.003130 0.000280 -0.000002 0.029813 -0.000008
# 6 0.000003 -0.000007 -0.000004 -0.031474 -0.000008 -0.052843
#
#
# Mechanical properties :
#
#
# Convention : Reuss Voigt Hill
#
# Bulk Modulus (GPa) = 39.26666 64.20437 51.73551
# Shear Modulus (GPa) = 29.35618 23.93606 26.64612
#
# Velocity S-wave (km/s) = 3.72075 3.35975 3.54485
# Velocity P-wave (km/s) = 6.08081 6.73264 6.41501
#
# Compressibility (1/GPa) = 0.02546690
#
# Stress axis : x y z
#
# Youngs Moduli (GPa) = 129.77520 48.20500 123.38092
#
# Poissons Ratio (x) = 0.16581 0.44373
# Poissons Ratio (y) = 0.44638 -0.18407
# Poissons Ratio (z) = 0.46673 -0.07192
#
# Static dielectric constant tensor:
#      x y z
#    x 1.935430 0.000000 0.019520 
#    y 0.000000 1.781680 -0.000010 
#    z 0.019520 -0.000010 1.761050 
# 
# From -- ./inp_files/219184.got.cif
#   From: 2010.05.17/outbox.cif.g08.bks.cpg/sg12_110_cif.got.tgz:219184.got - 2010.06.03 13:09:07.
