data_PCOD9175273
_publ_section_title
;
Structure prediction by ZEFSAII (Michael W. Deem and Ramdas Pophale) SiO2 
 PCOD9175273
Probable space group: C 2/M
;
_chemical_formula_sum "Si O2"
_cell_formula_units_Z 36
_cell_length_a 9.350782
_cell_length_b 13.656842
_cell_length_c 20.878166
_cell_angle_alpha 90.000000
_cell_angle_beta 34.856344
_cell_angle_gamma 90.000000
_cell_volume 1523.781176
_symmetry_space_group_name_H-M "C 2/M"
_symmetry_group_IT_number 12
_symmetry_cell_setting 'monoclinic'
loop_
_space_group_symop_operation_xyz
x,y,z
-x,y,-z
-x,-y,-z
x,-y,z
1/2+x,1/2+y,z
1/2-x,1/2+y,-z
1/2-x,1/2-y,-z
1/2+x,1/2-y,z
loop_
_atom_site_type_symbol
_atom_site_label
_atom_site_fract_x
_atom_site_fract_y
_atom_site_fract_z
Si Si1 0.159431 0.891273 0.093135
Si Si2 0.580435 0.831433 0.133778
Si Si3 0.500000 0.215087 0.500000
Si Si4 0.085598 0.399532 0.271490
Si Si5 0.504144 0.698004 0.358162
O O1 0.185098 0.779418 0.110624
O O2 0.861769 0.898503 0.198770
O O3 0.237305 0.000000 0.090228
O O4 0.282155 0.876261 0.977969
O O5 0.622908 0.890973 0.182257
O O6 0.279034 0.833763 0.233515
O O7 0.471652 0.280412 0.575155
O O8 0.748796 0.149537 0.425614
O O9 0.950927 0.500000 0.337259
O O10 0.958835 0.304692 0.344636
#
# Coordination Sequence:
#
# PCOD9175273 Si02
#       5
#     8   8   4   8   8
#     4   9  19  33  55  87 123 158 195 237 285 351
#     4  10  18  32  57  89 119 155 198 234 296 343
#     4  10  20  38  62  82 114 150 208 244 308 340
#     4  10  19  34  58  89 121 155 197 239 286 354
#     4  10  20  36  61  88 111 154 200 250 293 353
#
# _framework density 23.625439
#
# number of rings (size 3 to 8) (size 9 to 14) (size 15 to 20)
#    0.000    2.222    2.222    1.333    0.000    1.778 
#    0.000    1.111    0.000   32.000    0.000    0.000 
#    0.000    0.000    0.000    0.000    0.000    0.000 
#
# Total GULP energy -100214.330492 kJ/mol
# GULP energy per Si atom -5567.462805 kJ/mol
# Density = 2.357167 g / cm^3
# Si number density = 23.625439 Si / 1000 Ang^3
#
#
#
# Elastic Constant Matrix: (Units=GPa)
#
#
# Indices 1 2 3 4 5 6 
#
# 1 72.1972 -15.8037 -4.3923 -0.0015 -12.0442 0.0004
# 2 -15.8037 90.8670 -18.5227 0.0025 -0.9486 -0.0007
# 3 -4.3923 -18.5227 56.2145 -0.0044 0.2801 -0.0055
# 4 -0.0015 0.0025 -0.0044 -181.7475 0.0020 -159.7063
# 5 -12.0442 -0.9486 0.2801 0.0020 38.8236 0.0015
# 6 0.0004 -0.0007 -0.0055 -159.7063 0.0015 -135.5192
#
#
#
# Elastic Compliance Matrix: (Units=1/GPa)
#
#
# Indices 1 2 3 4 5 6 
#
# 1 0.015501 0.003204 0.002243 0.000002 0.004871 -0.000003
# 2 0.003204 0.012462 0.004350 -0.000007 0.001267 0.000008
# 3 0.002243 0.004350 0.019394 -0.000008 0.000662 0.000008
# 4 0.000002 -0.000007 -0.000008 0.154731 0.000000 -0.182347
# 5 0.004871 0.001267 0.000662 0.000000 0.027295 0.000001
# 6 -0.000003 0.000008 0.000008 -0.182347 0.000001 0.207513
#
#
# Mechanical properties :
#
#
# Convention : Reuss Voigt Hill
#
# Bulk Modulus (GPa) = 14.93604 15.76015 15.34809
# Shear Modulus (GPa) = 11.37346 -38.48879 -13.55767
#
# Velocity S-wave (km/s) = 2.19648 -4.04062 -2.39813
# Velocity P-wave (km/s) = 3.57330 3.88375 1.07589
#
# Compressibility (1/GPa) = 0.06695216
#
# Stress axis : x y z
#
# Youngs Moduli (GPa) = 64.51056 80.24156 51.56131
#
# Poissons Ratio (x) = -0.25710 -0.11563
# Poissons Ratio (y) = -0.20669 -0.22431
# Poissons Ratio (z) = -0.14467 -0.34908
#
# Static dielectric constant tensor:
#      x y z
#    x 1.940570 0.000000 -0.058700 
#    y 0.000000 2.255270 0.000000 
#    z -0.058700 0.000000 1.923570 
# 
# From -- ./inp_files/300082.got.cif
#   From: 2010.05.17/outbox.cif.g08.bks.cpg/sg12_151_cif.got.tgz:300082.got - 2010.06.03 13:09:07.
