data_PCOD9175266
_publ_section_title
;
Structure prediction by ZEFSAII (Michael W. Deem and Ramdas Pophale) SiO2 
 PCOD9175266
Probable space group: C 2/M
;
_chemical_formula_sum "Si O2"
_cell_formula_units_Z 64
_cell_length_a 28.766865
_cell_length_b 14.459496
_cell_length_c 11.193725
_cell_angle_alpha 90.000000
_cell_angle_beta 139.783435
_cell_angle_gamma 90.000000
_cell_volume 3006.329920
_symmetry_space_group_name_H-M "C 2/M"
_symmetry_group_IT_number 12
_symmetry_cell_setting 'monoclinic'
loop_
_space_group_symop_operation_xyz
x,y,z
-x,y,-z
-x,-y,-z
x,-y,z
1/2+x,1/2+y,z
1/2-x,1/2+y,-z
1/2-x,1/2-y,-z
1/2+x,1/2-y,z
loop_
_atom_site_type_symbol
_atom_site_label
_atom_site_fract_x
_atom_site_fract_y
_atom_site_fract_z
Si Si1 0.391952 0.107872 0.772004
Si Si2 0.180008 0.308754 0.824285
Si Si3 0.280024 0.395889 0.594578
Si Si4 0.956054 0.775470 0.309344
Si Si5 0.279781 0.901513 0.884877
Si Si6 0.579764 0.197384 0.419551
Si Si7 0.133174 0.897031 0.483747
Si Si8 0.370189 0.748554 0.921671
O O1 0.304945 0.118685 0.589613
O O2 0.423083 0.136511 0.704263
O O3 0.412207 0.184988 0.910665
O O4 0.407858 0.000000 0.831109
O O5 0.112093 0.259184 0.750742
O O6 0.153785 0.323475 0.637838
O O7 0.250000 0.250000 0.000000
O O8 0.194223 0.400116 0.928435
O O9 0.289869 0.500000 0.660910
O O10 0.320362 0.390803 0.546360
O O11 0.317927 0.320977 0.751119
O O12 0.000000 0.830073 0.500000
O O13 0.010110 0.694067 0.368989
O O14 0.920928 0.806370 0.114703
O O15 0.193994 0.890337 0.705805
O O16 0.320471 0.820037 0.897501
O O17 0.297072 0.000000 0.860007
O O18 0.584324 0.306991 0.396485
O O19 0.099792 0.000000 0.423332
#
# Coordination Sequence:
#
# PCOD9175266 Si02
#       8
#     8   8   8   8   8   8   8   8
#     4  11  22  34  57  93 126 154 196 248 303 356
#     4  10  20  36  63  85 108 154 203 247 294 348
#     4  10  20  34  56  95 129 154 196 249 298 356
#     4   9  23  41  60  86 117 157 203 241 292 361
#     4  10  19  32  56  90 117 149 201 246 286 350
#     4  11  21  39  57  81 127 160 188 246 308 347
#     4  10  18  32  57  87 119 155 195 239 293 358
#     4  11  19  36  63  83 120 165 197 240 304 347
#
# _framework density 21.288415000000001
#
# number of rings (size 3 to 8) (size 9 to 14) (size 15 to 20)
#    0.000    1.750    3.750    1.500    1.750    1.000 
#    0.000    4.375    0.000   26.250    0.000    0.000 
#    0.000    0.000    0.000    0.000    0.000    0.000 
#
# Total GULP energy -178322.867851 kJ/mol
# GULP energy per Si atom -5572.589620 kJ/mol
# Density = 2.123996 g / cm^3
# Si number density = 21.288415 Si / 1000 Ang^3
#
#
#
# Elastic Constant Matrix: (Units=GPa)
#
#
# Indices 1 2 3 4 5 6 
#
# 1 71.5695 15.9270 14.6797 0.0000 2.5754 0.0000
# 2 15.9270 83.3047 29.3976 0.0000 -2.7901 0.0000
# 3 14.6797 29.3976 75.9261 0.0000 -3.2773 0.0000
# 4 0.0000 0.0000 0.0000 5.6245 0.0000 -5.8826
# 5 2.5754 -2.7901 -3.2773 0.0000 35.7036 0.0000
# 6 0.0000 0.0000 0.0000 -5.8826 0.0000 16.7447
#
#
#
# Elastic Compliance Matrix: (Units=1/GPa)
#
#
# Indices 1 2 3 4 5 6 
#
# 1 0.014938 -0.002158 -0.002115 0.000000 -0.001440 0.000000
# 2 -0.002158 0.014228 -0.005057 0.000000 0.000803 0.000000
# 3 -0.002115 -0.005057 0.015589 0.000000 0.001188 0.000000
# 4 0.000000 0.000000 0.000000 0.281066 0.000000 0.098742
# 5 -0.001440 0.000803 0.001188 0.000000 0.028284 0.000000
# 6 0.000000 0.000000 0.000000 0.098742 0.000000 0.094410
#
#
# Mechanical properties :
#
#
# Convention : Reuss Voigt Hill
#
# Bulk Modulus (GPa) = 38.32058 38.97878 38.64968
# Shear Modulus (GPa) = 10.50700 23.00096 16.75398
#
# Velocity S-wave (km/s) = 2.22402 3.29058 2.80840
# Velocity P-wave (km/s) = 4.96334 5.72598 5.35824
#
# Compressibility (1/GPa) = 0.02609564
#
# Stress axis : x y z
#
# Youngs Moduli (GPa) = 66.94211 70.28287 64.14818
#
# Poissons Ratio (x) = 0.15167 0.13566
# Poissons Ratio (y) = 0.14446 0.32440
# Poissons Ratio (z) = 0.14157 0.35543
#
# Static dielectric constant tensor:
#      x y z
#    x 1.835630 0.000000 -0.033060 
#    y 0.000000 1.786430 0.000000 
#    z -0.033060 0.000000 1.841470 
# 
# From -- ./inp_files/189491.got.cif
#   From: 2010.05.17/outbox.cif.g08.bks.cpg/sg12_95_cif.got.tgz:189491.got - 2010.06.03 13:09:07.
