data_PCOD9175584
_publ_section_title
;
Structure prediction by ZEFSAII (Michael W. Deem and Ramdas Pophale) SiO2 
 PCOD9175584
Probable space group: C 2/M
;
_chemical_formula_sum "Si O2"
_cell_formula_units_Z 40
_cell_length_a 15.856655
_cell_length_b 16.705683
_cell_length_c 9.102080
_cell_angle_alpha 90.000000
_cell_angle_beta 93.402750
_cell_angle_gamma 90.000000
_cell_volume 2406.856047
_symmetry_space_group_name_H-M "C 2/M"
_symmetry_group_IT_number 12
_symmetry_cell_setting 'monoclinic'
loop_
_space_group_symop_operation_xyz
x,y,z
-x,y,-z
-x,-y,-z
x,-y,z
1/2+x,1/2+y,z
1/2-x,1/2+y,-z
1/2-x,1/2-y,-z
1/2+x,1/2-y,z
loop_
_atom_site_type_symbol
_atom_site_label
_atom_site_fract_x
_atom_site_fract_y
_atom_site_fract_z
Si Si1 0.595254 0.500000 0.573704
Si Si2 0.329590 0.092669 0.343834
Si Si3 0.993043 0.405747 0.169654
Si Si4 0.140261 0.121082 0.341605
Si Si5 0.513671 0.500000 0.175051
Si Si6 0.583964 0.202982 0.412200
O O1 0.500000 0.500000 0.500000
O O2 0.637742 0.576709 0.501327
O O3 0.575335 0.500000 0.744089
O O4 0.398365 0.105460 0.223009
O O5 0.233254 0.106343 0.287780
O O6 0.353526 0.152837 0.477220
O O7 0.339086 0.000000 0.393153
O O8 0.013575 0.500000 0.188545
O O9 0.054088 0.352804 0.275772
O O10 0.000000 0.384702 0.000000
O O11 0.069507 0.076011 0.236358
O O12 0.121050 0.213690 0.360971
O O13 0.500000 0.500000 0.000000
O O14 0.500000 0.220241 0.500000
#
# Coordination Sequence:
#
# PCOD9175584 Si02
#       6
#     4   8   8   8   4   8
#     4   8  16  32  52  68  96 135 168 205 247 304
#     4  10  18  33  55  76 103 134 174 217 262 298
#     4   9  19  35  52  72 103 142 172 206 257 317
#     4  10  18  34  53  77 105 132 171 221 264 292
#     4  10  20  34  52  74 104 145 175 199 253 320
#     4  10  19  31  53  80 101 134 176 215 253 309
#
# _framework density 16.619191000000001
#
# number of rings (size 3 to 8) (size 9 to 14) (size 15 to 20)
#    0.000    2.600    2.000    3.000    0.000    3.200 
#    0.000    3.000    0.000    0.000    0.000    0.000 
#    0.000    0.000    0.000    0.000    0.000    0.000 
#
# Total GULP energy -111424.389458 kJ/mol
# GULP energy per Si atom -5571.219473 kJ/mol
# Density = 1.658137 g / cm^3
# Si number density = 16.619191 Si / 1000 Ang^3
#
#
#
# Elastic Constant Matrix: (Units=GPa)
#
#
# Indices 1 2 3 4 5 6 
#
# 1 60.3825 35.2378 31.3234 0.0000 -3.4435 0.0000
# 2 35.2378 93.3530 53.8847 0.0000 -4.2662 0.0000
# 3 31.3234 53.8847 121.4532 0.0000 -8.8526 0.0000
# 4 0.0000 0.0000 0.0000 3.3716 0.0000 -7.7537
# 5 -3.4435 -4.2662 -8.8526 0.0000 11.3206 0.0000
# 6 0.0000 0.0000 0.0000 -7.7537 0.0000 22.2342
#
#
#
# Elastic Compliance Matrix: (Units=1/GPa)
#
#
# Indices 1 2 3 4 5 6 
#
# 1 0.021910 -0.006722 -0.002510 0.000000 0.002168 0.000000
# 2 -0.006722 0.016464 -0.005586 0.000000 -0.000208 0.000000
# 3 -0.002510 -0.005586 0.011824 0.000000 0.006378 0.000000
# 4 0.000000 0.000000 0.000000 1.497748 0.000000 0.522310
# 5 0.002168 -0.000208 0.006378 0.000000 0.093903 0.000000
# 6 0.000000 0.000000 0.000000 0.522310 0.000000 0.227121
#
#
# Mechanical properties :
#
#
# Convention : Reuss Voigt Hill
#
# Bulk Modulus (GPa) = 48.63513 57.34226 52.98869
# Shear Modulus (GPa) = 2.62404 17.70148 10.16276
#
# Velocity S-wave (km/s) = 1.25791 3.26716 2.47555
# Velocity P-wave (km/s) = 5.60694 6.98649 6.33438
#
# Compressibility (1/GPa) = 0.02056127
#
# Stress axis : x y z
#
# Youngs Moduli (GPa) = 45.64156 60.73726 84.57176
#
# Poissons Ratio (x) = 0.40829 0.21229
# Poissons Ratio (y) = 0.30681 0.47243
# Poissons Ratio (z) = 0.11457 0.33929
#
# Static dielectric constant tensor:
#      x y z
#    x 1.567460 0.000000 -0.021570 
#    y 0.000000 1.556450 0.000000 
#    z -0.021570 0.000000 1.558450 
# 
# From -- ./inp_files/59143.got.cif
#   From: 2010.05.17/outbox.cif.g08.bks.cpg/sg12_30_cif.got.tgz:59143.got - 2010.06.03 13:09:07.
