data_PCOD9175674
_publ_section_title
;
Structure prediction by ZEFSAII (Michael W. Deem and Ramdas Pophale) SiO2 
 PCOD9175674
Probable space group: C 2/M
;
_chemical_formula_sum "Si O2"
_cell_formula_units_Z 48
_cell_length_a 15.621618
_cell_length_b 7.722550
_cell_length_c 19.659254
_cell_angle_alpha 90.000000
_cell_angle_beta 90.308008
_cell_angle_gamma 90.000000
_cell_volume 2371.633089
_symmetry_space_group_name_H-M "C 2/M"
_symmetry_group_IT_number 12
_symmetry_cell_setting 'monoclinic'
loop_
_space_group_symop_operation_xyz
x,y,z
-x,y,-z
-x,-y,-z
x,-y,z
1/2+x,1/2+y,z
1/2-x,1/2+y,-z
1/2-x,1/2-y,-z
1/2+x,1/2-y,z
loop_
_atom_site_type_symbol
_atom_site_label
_atom_site_fract_x
_atom_site_fract_y
_atom_site_fract_z
Si Si1 0.588841 0.706828 0.825507
Si Si2 0.353516 0.708118 0.322587
Si Si3 0.005228 0.787707 0.422145
Si Si4 0.755204 0.705314 0.078983
Si Si5 0.104584 0.212540 0.176060
Si Si6 0.341921 0.292558 0.672506
O O1 0.582009 0.500000 0.818161
O O2 0.624399 0.774549 0.753249
O O3 0.656757 0.740072 0.884835
O O4 0.492509 0.770081 0.838438
O O5 0.360226 0.500000 0.320364
O O6 0.423867 0.768645 0.376992
O O7 0.256596 0.750964 0.341219
O O8 0.091081 0.730012 0.383603
O O9 0.000000 0.730446 0.500000
O O10 0.005231 0.000000 0.422731
O O11 0.751348 0.500000 0.084583
O O12 0.674673 0.774656 0.122154
O O13 0.750000 0.750000 0.000000
O O14 0.131816 0.268939 0.251947
O O15 0.105290 0.000000 0.175320
O O16 0.350223 0.500000 0.674335
#
# Coordination Sequence:
#
# PCOD9175674 Si02
#       6
#     8   8   8   8   8   8
#     4  10  19  35  58  81 104 139 184 226 265 314
#     4  10  19  32  54  82 109 138 180 229 271 314
#     4   9  18  33  54  80 111 147 184 222 266 320
#     4  11  23  39  57  81 112 142 175 221 273 323
#     4   9  18  34  57  79 103 141 184 217 257 320
#     4  10  18  33  56  80 106 142 186 223 261 321
#
# _framework density 20.239218999999999
#
# number of rings (size 3 to 8) (size 9 to 14) (size 15 to 20)
#    0.000    2.167    3.333    0.500    0.000    1.333 
#    0.000    6.667    0.000    1.000    0.000    0.000 
#    0.000    0.000    0.000    0.000    0.000    0.000 
#
# Total GULP energy -134022.231222 kJ/mol
# GULP energy per Si atom -5584.259634 kJ/mol
# Density = 2.019315 g / cm^3
# Si number density = 20.239219 Si / 1000 Ang^3
#
#
#
# Elastic Constant Matrix: (Units=GPa)
#
#
# Indices 1 2 3 4 5 6 
#
# 1 164.8313 9.0512 59.2173 0.0000 -0.5932 0.0000
# 2 9.0512 26.7147 7.6812 0.0000 -4.6117 0.0000
# 3 59.2173 7.6812 126.6925 0.0000 -1.7920 0.0000
# 4 0.0000 0.0000 0.0000 8.4622 0.0000 -0.1886
# 5 -0.5932 -4.6117 -1.7920 0.0000 33.8131 0.0000
# 6 0.0000 0.0000 0.0000 -0.1886 0.0000 23.9792
#
#
#
# Elastic Compliance Matrix: (Units=1/GPa)
#
#
# Indices 1 2 3 4 5 6 
#
# 1 0.007354 -0.001575 -0.003346 0.000000 -0.000263 0.000000
# 2 -0.001575 0.039326 -0.001574 0.000000 0.005252 0.000000
# 3 -0.003346 -0.001574 0.009556 0.000000 0.000233 0.000000
# 4 0.000000 0.000000 0.000000 0.118193 0.000000 0.000930
# 5 -0.000263 0.005252 0.000233 0.000000 0.030298 0.000000
# 6 0.000000 0.000000 0.000000 0.000930 0.000000 0.041710
#
#
# Mechanical properties :
#
#
# Convention : Reuss Voigt Hill
#
# Bulk Modulus (GPa) = 23.12334 52.23753 37.68043
# Shear Modulus (GPa) = 18.25873 29.40349 23.83111
#
# Velocity S-wave (km/s) = 3.00683 3.81569 3.43515
# Velocity P-wave (km/s) = 4.84815 6.72895 5.86444
#
# Compressibility (1/GPa) = 0.04324634
#
# Stress axis : x y z
#
# Youngs Moduli (GPa) = 135.97416 25.42878 104.65007
#
# Poissons Ratio (x) = 0.04005 0.35013
# Poissons Ratio (y) = 0.21418 0.16469
# Poissons Ratio (z) = 0.45493 0.04002
#
# Static dielectric constant tensor:
#      x y z
#    x 1.696770 0.000000 -0.027360 
#    y 0.000000 1.771500 0.000000 
#    z -0.027360 0.000000 1.660460 
# 
# From -- ./inp_files/267608.got.cif
#   From: 2010.05.17/outbox.cif.g08.bks.cpg/sg12_134_cif.got.tgz:267608.got - 2010.06.03 13:09:07.
