data_PCOD9175760
_publ_section_title
;
Structure prediction by ZEFSAII (Michael W. Deem and Ramdas Pophale) SiO2 
 PCOD9175760
Probable space group: C 2/M
;
_chemical_formula_sum "Si O2"
_cell_formula_units_Z 56
_cell_length_a 27.693298
_cell_length_b 18.716038
_cell_length_c 18.896840
_cell_angle_alpha 90.000000
_cell_angle_beta 18.189786
_cell_angle_gamma 90.000000
_cell_volume 3057.474025
_symmetry_space_group_name_H-M "C 2/M"
_symmetry_group_IT_number 12
_symmetry_cell_setting 'monoclinic'
loop_
_space_group_symop_operation_xyz
x,y,z
-x,y,-z
-x,-y,-z
x,-y,z
1/2+x,1/2+y,z
1/2-x,1/2+y,-z
1/2-x,1/2-y,-z
1/2+x,1/2-y,z
loop_
_atom_site_type_symbol
_atom_site_label
_atom_site_fract_x
_atom_site_fract_y
_atom_site_fract_z
Si Si1 0.626409 0.787200 0.120197
Si Si2 0.674494 0.307213 0.455402
Si Si3 0.210620 0.728164 0.850479
Si Si4 0.476632 0.922893 0.651384
Si Si5 0.905243 0.916624 0.314242
Si Si6 0.627072 0.281981 0.725908
Si Si7 0.230792 0.611180 0.196421
O O1 0.489987 0.729644 0.300257
O O2 0.552722 0.856673 0.257628
O O3 0.750000 0.750000 0.000000
O O4 0.695075 0.808039 0.948487
O O5 0.700935 0.314243 0.334475
O O6 0.673447 0.376697 0.508083
O O7 0.805986 0.249530 0.295010
O O8 0.286904 0.804299 0.764117
O O9 0.039064 0.749450 0.062109
O O10 0.363296 0.911514 0.741950
O O11 0.647791 0.922227 0.379919
O O12 0.444802 0.000000 0.728412
O O13 0.870753 0.866516 0.293633
O O14 0.862894 0.000000 0.367699
O O15 0.091466 0.909781 0.061613
O O16 0.750000 0.250000 0.500000
#
# Coordination Sequence:
#
# PCOD9175760 Si02
#       7
#     8   8   8   8   8   8   8
#     4  12  22  36  56  85 114 151 196 234 277 338
#     4  11  21  37  59  83 115 150 191 234 284 337
#     4  11  20  35  60  86 107 148 194 239 271 342
#     4  11  21  33  52  80 119 152 183 234 295 344
#     4  10  19  35  59  88 115 145 189 236 287 342
#     4   9  18  36  60  81 106 146 189 229 281 330
#     4  10  18  33  57  81 111 147 191 237 285 342
#
# _framework density 18.315773
#
# number of rings (size 3 to 8) (size 9 to 14) (size 15 to 20)
#    0.000    1.429    7.143    2.143    0.000    0.571 
#    0.000    1.429    0.000    8.571    0.000    4.000 
#    0.000    0.000    0.000    0.000    0.000    0.000 
#
# Total GULP energy -156064.634745 kJ/mol
# GULP energy per Si atom -5573.736955 kJ/mol
# Density = 1.827409 g / cm^3
# Si number density = 18.315773 Si / 1000 Ang^3
#
#
#
# Elastic Constant Matrix: (Units=GPa)
#
#
# Indices 1 2 3 4 5 6 
#
# 1 67.2061 16.8564 23.6360 -0.0008 20.9683 0.0000
# 2 16.8564 110.5306 20.0452 0.0021 6.4486 0.0006
# 3 23.6360 20.0452 60.6762 0.0009 17.7004 0.0013
# 4 -0.0008 0.0021 0.0009 13.0763 0.0027 -1.8782
# 5 20.9683 6.4486 17.7004 0.0027 36.1958 -0.0006
# 6 0.0000 0.0006 0.0013 -1.8782 -0.0006 10.6211
#
#
#
# Elastic Compliance Matrix: (Units=1/GPa)
#
#
# Indices 1 2 3 4 5 6 
#
# 1 0.019656 -0.001660 -0.004517 0.000004 -0.008882 0.000001
# 2 -0.001660 0.009765 -0.002744 -0.000002 0.000564 -0.000001
# 3 -0.004517 -0.002744 0.021276 0.000000 -0.007299 -0.000003
# 4 0.000004 -0.000002 0.000000 0.078467 -0.000007 0.013876
# 5 -0.008882 0.000564 -0.007299 -0.000007 0.036242 0.000001
# 6 0.000001 -0.000001 -0.000003 0.013876 0.000001 0.096606
#
#
# Mechanical properties :
#
#
# Convention : Reuss Voigt Hill
#
# Bulk Modulus (GPa) = 30.43707 39.94310 35.19009
# Shear Modulus (GPa) = 17.19358 23.83699 20.51529
#
# Velocity S-wave (km/s) = 3.06720 3.61147 3.35040
# Velocity P-wave (km/s) = 5.40348 6.26464 5.84993
#
# Compressibility (1/GPa) = 0.03285467
#
# Stress axis : x y z
#
# Youngs Moduli (GPa) = 50.87539 102.40486 47.00076
#
# Poissons Ratio (x) = 0.17001 0.21232
# Poissons Ratio (y) = 0.08446 0.12896
# Poissons Ratio (z) = 0.22982 0.28098
#
# Static dielectric constant tensor:
#      x y z
#    x 1.685490 0.000000 0.006870 
#    y 0.000000 1.625520 0.000000 
#    z 0.006870 0.000000 1.654640 
# 
# From -- ./inp_files/293847.got.cif
#   From: 2010.05.17/outbox.cif.g08.bks.cpg/sg12_147_cif.got.tgz:293847.got - 2010.06.03 13:09:07.
