data_PCOD9175258
_publ_section_title
;
Structure prediction by ZEFSAII (Michael W. Deem and Ramdas Pophale) SiO2 
 PCOD9175258
Probable space group: C 2/M
;
_chemical_formula_sum "Si O2"
_cell_formula_units_Z 64
_cell_length_a 26.810247
_cell_length_b 15.764719
_cell_length_c 12.478493
_cell_angle_alpha 90.000000
_cell_angle_beta 142.497530
_cell_angle_gamma 90.000000
_cell_volume 3210.855158
_symmetry_space_group_name_H-M "C 2/M"
_symmetry_group_IT_number 12
_symmetry_cell_setting 'monoclinic'
loop_
_space_group_symop_operation_xyz
x,y,z
-x,y,-z
-x,-y,-z
x,-y,z
1/2+x,1/2+y,z
1/2-x,1/2+y,-z
1/2-x,1/2-y,-z
1/2+x,1/2-y,z
loop_
_atom_site_type_symbol
_atom_site_label
_atom_site_fract_x
_atom_site_fract_y
_atom_site_fract_z
Si Si1 0.886170 0.726110 0.089237
Si Si2 0.390985 0.905350 0.727642
Si Si3 0.598314 0.319729 0.678014
Si Si4 0.016371 0.408942 0.338532
Si Si5 0.413597 0.268889 0.895410
Si Si6 0.257556 0.094091 0.923670
Si Si7 0.825638 0.643629 0.272914
Si Si8 0.274863 0.401297 0.690315
O O1 0.879134 0.802429 0.159543
O O2 0.954121 0.665002 0.258147
O O3 0.916772 0.754622 0.027320
O O4 0.805078 0.668811 0.942341
O O5 0.452936 0.899420 0.731956
O O6 0.399863 0.823496 0.817568
O O7 0.301975 0.902523 0.521155
O O8 0.402005 0.000000 0.795786
O O9 0.500000 0.329803 0.500000
O O10 0.659818 0.393768 0.747662
O O11 0.635584 0.236670 0.681812
O O12 0.975384 0.500000 0.280478
O O13 0.095980 0.406572 0.548562
O O14 0.342892 0.338371 0.759167
O O15 0.500000 0.301422 0.000000
O O16 0.280078 0.000000 0.926344
O O17 0.288323 0.108861 0.098767
O O18 0.759067 0.636151 0.254623
O O19 0.300573 0.500000 0.749683
#
# Coordination Sequence:
#
# PCOD9175258 Si02
#       8
#     8   8   8   8   8   8   8   8
#     4  11  22  38  54  87 118 148 193 236 287 351
#     4   9  20  37  57  84 115 151 193 236 289 349
#     4  11  22  39  59  84 118 152 190 237 288 347
#     4  10  18  32  57  86 117 146 181 233 288 345
#     4  12  23  37  59  86 118 158 193 238 300 345
#     4  11  23  37  58  86 116 153 193 234 285 345
#     4  10  19  38  61  86 115 148 191 236 294 345
#     4  10  21  39  62  85 114 154 202 245 280 339
#
# _framework density 19.932385
#
# number of rings (size 3 to 8) (size 9 to 14) (size 15 to 20)
#    0.000    1.500    2.500    5.625    0.000    1.750 
#    0.000    1.875    0.000    0.000    0.000    0.000 
#    0.000    0.000    0.000    0.000    0.000    0.000 
#
# Total GULP energy -178648.130177 kJ/mol
# GULP energy per Si atom -5582.754068 kJ/mol
# Density = 1.988702 g / cm^3
# Si number density = 19.932385 Si / 1000 Ang^3
#
#
#
# Elastic Constant Matrix: (Units=GPa)
#
#
# Indices 1 2 3 4 5 6 
#
# 1 84.3446 25.3455 20.7234 0.0000 16.6583 0.0000
# 2 25.3455 59.9838 24.3980 0.0000 11.5533 0.0000
# 3 20.7234 24.3980 47.4407 0.0000 18.4258 0.0000
# 4 0.0000 0.0000 0.0000 -5.4259 0.0000 -12.1025
# 5 16.6583 11.5533 18.4258 0.0000 39.0130 0.0000
# 6 0.0000 0.0000 0.0000 -12.1025 0.0000 -14.4968
#
#
#
# Elastic Compliance Matrix: (Units=1/GPa)
#
#
# Indices 1 2 3 4 5 6 
#
# 1 0.014546 -0.004344 -0.002703 0.000000 -0.003648 0.000000
# 2 -0.004344 0.022439 -0.009530 0.000000 -0.000289 0.000000
# 3 -0.002703 -0.009530 0.031371 0.000000 -0.010840 0.000000
# 4 0.000000 0.000000 0.000000 0.213784 0.000000 -0.178474
# 5 -0.003648 -0.000289 -0.010840 0.000000 0.032395 0.000000
# 6 0.000000 0.000000 0.000000 -0.178474 0.000000 0.080016
#
#
# Mechanical properties :
#
#
# Convention : Reuss Voigt Hill
#
# Bulk Modulus (GPa) = 28.40797 36.96700 32.68749
# Shear Modulus (GPa) = 11.37812 11.90487 11.64149
#
# Velocity S-wave (km/s) = 2.39181 2.44655 2.41933
# Velocity P-wave (km/s) = 4.68089 5.15434 4.92331
#
# Compressibility (1/GPa) = 0.03520139
#
# Stress axis : x y z
#
# Youngs Moduli (GPa) = 68.74643 44.56592 31.87641
#
# Poissons Ratio (x) = 0.19360 0.08617
# Poissons Ratio (y) = 0.29865 0.30378
# Poissons Ratio (z) = 0.18583 0.42471
#
# Static dielectric constant tensor:
#      x y z
#    x 1.701220 0.000000 0.018540 
#    y 0.000000 1.718850 0.000000 
#    z 0.018540 0.000000 1.710140 
# 
# From -- ./inp_files/183810.got.cif
#   From: 2010.05.17/outbox.cif.g08.bks.cpg/sg12_92_cif.got.tgz:183810.got - 2010.06.03 13:09:07.
