data_PCOD9175178
_publ_section_title
;
Structure prediction by ZEFSAII (Michael W. Deem and Ramdas Pophale) SiO2 
 PCOD9175178
Probable space group: C 2/M
;
_chemical_formula_sum "Si O2"
_cell_formula_units_Z 64
_cell_length_a 9.681017
_cell_length_b 26.446814
_cell_length_c 20.917360
_cell_angle_alpha 90.000000
_cell_angle_beta 136.760556
_cell_angle_gamma 90.000000
_cell_volume 3668.788833
_symmetry_space_group_name_H-M "C 2/M"
_symmetry_group_IT_number 12
_symmetry_cell_setting 'monoclinic'
loop_
_space_group_symop_operation_xyz
x,y,z
-x,y,-z
-x,-y,-z
x,-y,z
1/2+x,1/2+y,z
1/2-x,1/2+y,-z
1/2-x,1/2-y,-z
1/2+x,1/2-y,z
loop_
_atom_site_type_symbol
_atom_site_label
_atom_site_fract_x
_atom_site_fract_y
_atom_site_fract_z
Si Si1 0.353005 0.774615 0.097373
Si Si2 0.843458 0.557747 0.610267
Si Si3 0.895851 0.441732 0.768666
Si Si4 0.573564 0.411100 0.760254
Si Si5 0.313178 0.444450 0.786349
Si Si6 0.822387 0.686851 0.885391
Si Si7 0.769293 0.439004 0.445443
Si Si8 0.207238 0.880921 0.099870
O O1 0.328414 0.730010 0.139903
O O2 0.564495 0.794012 0.140547
O O3 0.240734 0.823143 0.089894
O O4 0.250000 0.750000 0.000000
O O5 0.769313 0.500000 0.588933
O O6 0.817671 0.579180 0.673287
O O7 0.751853 0.577960 0.513690
O O8 0.086277 0.556292 0.681730
O O9 0.950500 0.500000 0.775395
O O10 0.732900 0.439026 0.768857
O O11 0.094432 0.411089 0.854762
O O12 0.483299 0.439749 0.790632
O O13 0.691227 0.362132 0.825455
O O14 0.378648 0.406606 0.648669
O O15 0.335833 0.500000 0.825802
O O16 0.317461 0.396417 0.834582
O O17 0.000000 0.678559 0.000000
O O18 0.720415 0.500000 0.424283
O O19 0.000000 0.434295 0.500000
O O20 0.000000 0.899339 0.000000
#
# Coordination Sequence:
#
# PCOD9175178 Si02
#       8
#     8   8   8   8   8   8   8   8
#     4  10  21  41  63  86 106 141 191 259 307 341
#     4   8  16  33  52  76 109 154 200 234 272 327
#     4  10  21  36  53  81 123 156 189 240 289 348
#     4  12  22  34  57  89 121 154 194 245 293 343
#     4  10  21  34  53  82 120 163 197 224 273 351
#     4  10  23  39  60  86 116 142 191 248 303 355
#     4  10  18  32  56  84 119 159 200 242 283 338
#     4  11  22  37  59  81 112 153 199 233 290 353
#
# _framework density 17.444448999999999
#
# number of rings (size 3 to 8) (size 9 to 14) (size 15 to 20)
#    0.000    1.875    2.500    3.375    5.250    1.500 
#    0.000    1.875    0.000    4.125    0.000    7.875 
#    0.000    0.000    0.000    0.000    0.000    0.000 
#
# Total GULP energy -178137.524356 kJ/mol
# GULP energy per Si atom -5566.797636 kJ/mol
# Density = 1.740474 g / cm^3
# Si number density = 17.444449 Si / 1000 Ang^3
#
#
#
# Elastic Constant Matrix: (Units=GPa)
#
#
# Indices 1 2 3 4 5 6 
#
# 1 126.5031 36.8532 20.5493 0.0000 -5.9198 0.0000
# 2 36.8532 77.0500 39.1376 0.0000 -7.1546 0.0000
# 3 20.5493 39.1376 74.4379 0.0000 1.2856 0.0000
# 4 0.0000 0.0000 0.0000 4.3332 0.0000 2.9105
# 5 -5.9198 -7.1546 1.2856 0.0000 19.7479 0.0000
# 6 0.0000 0.0000 0.0000 2.9105 0.0000 20.9402
#
#
#
# Elastic Compliance Matrix: (Units=1/GPa)
#
#
# Indices 1 2 3 4 5 6 
#
# 1 0.009222 -0.004071 -0.000428 0.000000 0.001317 0.000000
# 2 -0.004071 0.020537 -0.009792 0.000000 0.006857 0.000000
# 3 -0.000428 -0.009792 0.018785 0.000000 -0.004899 0.000000
# 4 0.000000 0.000000 0.000000 0.254537 0.000000 -0.035378
# 5 0.001317 0.006857 -0.004899 0.000000 0.053836 0.000000
# 6 0.000000 0.000000 0.000000 -0.035378 0.000000 0.052672
#
#
# Mechanical properties :
#
#
# Convention : Reuss Voigt Hill
#
# Bulk Modulus (GPa) = 50.09742 52.34125 51.21934
# Shear Modulus (GPa) = 11.24034 21.10100 16.17067
#
# Velocity S-wave (km/s) = 2.54116 3.48172 3.04794
# Velocity P-wave (km/s) = 6.11478 6.79947 6.46620
#
# Compressibility (1/GPa) = 0.01996111
#
# Stress axis : x y z
#
# Youngs Moduli (GPa) = 108.43447 48.69377 53.23325
#
# Poissons Ratio (x) = 0.19824 0.02279
# Poissons Ratio (y) = 0.44146 0.52127
# Poissons Ratio (z) = 0.04642 0.47682
#
# Static dielectric constant tensor:
#      x y z
#    x 1.648270 0.000000 -0.021480 
#    y 0.000000 1.598340 0.000000 
#    z -0.021480 0.000000 1.627340 
# 
# From -- ./inp_files/302357.got.cif
#   From: 2010.05.17/outbox.cif.g08.bks.cpg/sg12_152_cif.got.tgz:302357.got - 2010.06.03 13:09:07.
