data_PCOD9175033
_publ_section_title
;
Structure prediction by ZEFSAII (Michael W. Deem and Ramdas Pophale) SiO2 
 PCOD9175033
Probable space group: C 2/M
;
_chemical_formula_sum "Si O2"
_cell_formula_units_Z 48
_cell_length_a 14.917824
_cell_length_b 8.343028
_cell_length_c 27.386864
_cell_angle_alpha 90.000000
_cell_angle_beta 137.278625
_cell_angle_gamma 90.000000
_cell_volume 2312.485176
_symmetry_space_group_name_H-M "C 2/M"
_symmetry_group_IT_number 12
_symmetry_cell_setting 'monoclinic'
loop_
_space_group_symop_operation_xyz
x,y,z
-x,y,-z
-x,-y,-z
x,-y,z
1/2+x,1/2+y,z
1/2-x,1/2+y,-z
1/2-x,1/2-y,-z
1/2+x,1/2-y,z
loop_
_atom_site_type_symbol
_atom_site_label
_atom_site_fract_x
_atom_site_fract_y
_atom_site_fract_z
Si Si1 0.404979 0.188326 0.750520
Si Si2 0.321315 0.195578 0.173277
Si Si3 0.417113 0.306561 0.860414
Si Si4 0.365307 0.813871 0.395145
Si Si5 0.672630 0.692742 0.016708
Si Si6 0.648518 0.688024 0.500484
O O1 0.527054 0.247775 0.766334
O O2 0.451916 0.218022 0.824626
O O3 0.268350 0.277333 0.687120
O O4 0.383928 0.000000 0.733326
O O5 0.229927 0.238861 0.182025
O O6 0.244335 0.253453 0.093965
O O7 0.323758 0.000000 0.172225
O O8 0.423726 0.500000 0.855756
O O9 0.520276 0.265744 0.944726
O O10 0.493644 0.719693 0.427019
O O11 0.336693 0.768682 0.440234
O O12 0.398900 0.000000 0.405676
O O13 0.677285 0.500000 0.021244
O O14 0.750000 0.750000 0.000000
O O15 0.670613 0.500000 0.515427
O O16 0.750000 0.750000 0.500000
#
# Coordination Sequence:
#
# PCOD9175033 Si02
#       6
#     8   8   8   8   8   8
#     4  11  22  38  57  81 117 154 191 240 298 356
#     4   9  19  35  55  78 108 148 192 237 294 354
#     4  10  20  35  56  80 107 146 196 244 293 356
#     4  11  23  41  63  91 125 161 202 247 294 347
#     4  10  18  32  55  79 105 142 189 243 297 353
#     4  11  22  41  68  98 127 159 198 239 290 348
#
# _framework density 20.756889999999999
#
# number of rings (size 3 to 8) (size 9 to 14) (size 15 to 20)
#    0.000    1.667    1.667    5.000    0.000    3.333 
#    0.000    7.500    0.000    2.000    0.000    0.000 
#    0.000    0.000    0.000    0.000    0.000    0.000 
#
# Total GULP energy -134025.401277 kJ/mol
# GULP energy per Si atom -5584.391720 kJ/mol
# Density = 2.070965 g / cm^3
# Si number density = 20.756890 Si / 1000 Ang^3
#
#
#
# Elastic Constant Matrix: (Units=GPa)
#
#
# Indices 1 2 3 4 5 6 
#
# 1 96.4561 -8.4948 0.8183 0.0000 24.3437 0.0000
# 2 -8.4948 18.6039 -4.3275 0.0000 -2.3475 0.0000
# 3 0.8183 -4.3275 61.9511 0.0000 17.9312 0.0000
# 4 0.0000 0.0000 0.0000 25.0211 0.0000 -2.0251
# 5 24.3437 -2.3475 17.9312 0.0000 22.2100 0.0000
# 6 0.0000 0.0000 0.0000 -2.0251 0.0000 25.4647
#
#
#
# Elastic Compliance Matrix: (Units=1/GPa)
#
#
# Indices 1 2 3 4 5 6 
#
# 1 0.016751 0.006328 0.006970 0.000000 -0.023318 0.000000
# 2 0.006328 0.057241 0.005443 0.000000 -0.005280 0.000000
# 3 0.006970 0.005443 0.024108 0.000000 -0.026528 0.000000
# 4 0.000000 0.000000 0.000000 0.040225 0.000000 0.003199
# 5 -0.023318 -0.005280 -0.026528 0.000000 0.091443 0.000000
# 6 0.000000 0.000000 0.000000 0.003199 0.000000 0.039525
#
#
# Mechanical properties :
#
#
# Convention : Reuss Voigt Hill
#
# Bulk Modulus (GPa) = 7.37561 17.00033 12.18797
# Shear Modulus (GPa) = 18.05019 27.14016 22.59518
#
# Velocity S-wave (km/s) = 2.95210 3.61989 3.30292
# Velocity P-wave (km/s) = 3.89627 5.06750 4.51998
#
# Compressibility (1/GPa) = 0.13558207
#
# Stress axis : x y z
#
# Youngs Moduli (GPa) = 59.69903 17.46989 41.47950
#
# Poissons Ratio (x) = -0.11054 -0.28912
# Poissons Ratio (y) = -0.37775 -0.22578
# Poissons Ratio (z) = -0.41611 -0.09509
#
# Static dielectric constant tensor:
#      x y z
#    x 1.742270 0.000000 0.014470 
#    y 0.000000 1.722990 0.000000 
#    z 0.014470 0.000000 1.775120 
# 
# From -- ./inp_files/375165.got.cif
#   From: 2010.05.17/outbox.cif.g08.bks.cpg/sg12_188_cif.got.tgz:375165.got - 2010.06.03 13:09:07.
