data_PCOD9175772
_publ_section_title
;
Structure prediction by ZEFSAII (Michael W. Deem and Ramdas Pophale) SiO2 
 PCOD9175772
Probable space group: C 2/M
;
_chemical_formula_sum "Si O2"
_cell_formula_units_Z 56
_cell_length_a 20.081367
_cell_length_b 7.758428
_cell_length_c 22.294058
_cell_angle_alpha 90.000000
_cell_angle_beta 133.047866
_cell_angle_gamma 90.000000
_cell_volume 2538.311873
_symmetry_space_group_name_H-M "C 2/M"
_symmetry_group_IT_number 12
_symmetry_cell_setting 'monoclinic'
loop_
_space_group_symop_operation_xyz
x,y,z
-x,y,-z
-x,-y,-z
x,-y,z
1/2+x,1/2+y,z
1/2-x,1/2+y,-z
1/2-x,1/2-y,-z
1/2+x,1/2-y,z
loop_
_atom_site_type_symbol
_atom_site_label
_atom_site_fract_x
_atom_site_fract_y
_atom_site_fract_z
Si Si1 0.737503 0.798721 0.881748
Si Si2 0.580699 0.206653 0.439043
Si Si3 0.074872 0.200757 0.855284
Si Si4 0.396984 0.292553 0.680783
Si Si5 0.443114 0.801460 0.021735
Si Si6 0.873291 0.710723 0.302490
Si Si7 0.287100 0.211130 0.373914
O O1 0.671797 0.784067 0.899069
O O2 0.834703 0.708334 0.944036
O O3 0.676348 0.733608 0.788659
O O4 0.758192 0.000000 0.885120
O O5 0.621911 0.247056 0.399564
O O6 0.477014 0.272132 0.373073
O O7 0.641142 0.270191 0.531430
O O8 0.576067 0.000000 0.442693
O O9 0.994417 0.274451 0.763771
O O10 0.086874 0.000000 0.849062
O O11 0.044477 0.216943 0.905513
O O12 0.400890 0.500000 0.687894
O O13 0.313578 0.231357 0.670037
O O14 0.471526 0.000000 0.045712
O O15 0.500000 0.728989 0.000000
O O16 0.876019 0.500000 0.302474
O O17 0.817747 0.763784 0.326947
O O18 0.287440 0.000000 0.375073
#
# Coordination Sequence:
#
# PCOD9175772 Si02
#       7
#     8   8   8   8   8   8   8
#     4  11  22  39  65  91 120 156 200 245 289 351
#     4  10  18  33  57  83 113 151 197 243 288 341
#     4  11  23  40  63  88 120 160 201 243 291 350
#     4  10  21  35  55  83 117 154 192 239 289 344
#     4  11  26  45  65  91 123 152 186 238 298 357
#     4   9  18  32  55  86 115 148 193 243 287 336
#     4   9  18  32  53  82 116 153 195 243 290 338
#
# _framework density 22.061907999999999
#
# number of rings (size 3 to 8) (size 9 to 14) (size 15 to 20)
#    0.000    1.857    1.429    2.571    2.000    3.429 
#    0.000    0.000    0.000    4.286    0.000    0.000 
#    0.000    0.000    0.000    0.000    0.000    0.000 
#
# Total GULP energy -156494.691663 kJ/mol
# GULP energy per Si atom -5589.096131 kJ/mol
# Density = 2.201169 g / cm^3
# Si number density = 22.061908 Si / 1000 Ang^3
#
#
#
# Elastic Constant Matrix: (Units=GPa)
#
#
# Indices 1 2 3 4 5 6 
#
# 1 131.7992 -6.6990 18.6841 0.0000 -8.4697 0.0000
# 2 -6.6990 34.3753 -1.1019 0.0000 2.5115 0.0000
# 3 18.6841 -1.1019 79.3962 0.0000 -4.8474 0.0000
# 4 0.0000 0.0000 0.0000 5.2377 0.0000 -6.8828
# 5 -8.4697 2.5115 -4.8474 0.0000 37.3106 0.0000
# 6 0.0000 0.0000 0.0000 -6.8828 0.0000 21.3209
#
#
#
# Elastic Compliance Matrix: (Units=1/GPa)
#
#
# Indices 1 2 3 4 5 6 
#
# 1 0.008006 0.001394 -0.001773 0.000000 0.001493 0.000000
# 2 0.001394 0.029484 -0.000021 0.000000 -0.001671 0.000000
# 3 -0.001773 -0.000021 0.013091 0.000000 0.001300 0.000000
# 4 0.000000 0.000000 0.000000 0.331583 0.000000 0.107041
# 5 0.001493 -0.001671 0.001300 0.000000 0.027422 0.000000
# 6 0.000000 0.000000 0.000000 0.107041 0.000000 0.081457
#
#
# Mechanical properties :
#
#
# Convention : Reuss Voigt Hill
#
# Bulk Modulus (GPa) = 20.08821 29.70410 24.89616
# Shear Modulus (GPa) = 9.83406 28.41969 19.12687
#
# Velocity S-wave (km/s) = 2.11357 3.59301 2.94762
# Velocity P-wave (km/s) = 3.88347 5.54132 4.78475
#
# Compressibility (1/GPa) = 0.04978044
#
# Stress axis : x y z
#
# Youngs Moduli (GPa) = 124.91400 33.91699 76.38567
#
# Poissons Ratio (x) = -0.04729 0.13546
# Poissons Ratio (y) = -0.17415 0.00160
# Poissons Ratio (z) = 0.22152 0.00071
#
# Static dielectric constant tensor:
#      x y z
#    x 1.782980 0.000000 0.007240 
#    y 0.000000 1.796350 0.000000 
#    z 0.007240 0.000000 1.793470 
# 
# From -- ./inp_files/342552.got.cif
#   From: 2010.05.17/outbox.cif.g08.bks.cpg/sg12_172_cif.got.tgz:342552.got - 2010.06.03 13:09:07.
