data_PCOD9175214
_publ_section_title
;
Structure prediction by ZEFSAII (Michael W. Deem and Ramdas Pophale) SiO2 
 PCOD9175214
Probable space group: C 2/M
;
_chemical_formula_sum "Si O2"
_cell_formula_units_Z 56
_cell_length_a 28.360993
_cell_length_b 15.353198
_cell_length_c 9.921557
_cell_angle_alpha 90.000000
_cell_angle_beta 30.347802
_cell_angle_gamma 90.000000
_cell_volume 2182.752680
_symmetry_space_group_name_H-M "C 2/M"
_symmetry_group_IT_number 12
_symmetry_cell_setting 'monoclinic'
loop_
_space_group_symop_operation_xyz
x,y,z
-x,y,-z
-x,-y,-z
x,-y,z
1/2+x,1/2+y,z
1/2-x,1/2+y,-z
1/2-x,1/2-y,-z
1/2+x,1/2-y,z
loop_
_atom_site_type_symbol
_atom_site_label
_atom_site_fract_x
_atom_site_fract_y
_atom_site_fract_z
Si Si1 0.414548 0.090808 0.820668
Si Si2 0.831091 0.144550 0.420641
Si Si3 0.458317 0.842839 0.284416
Si Si4 0.850060 0.730954 0.804736
Si Si5 0.382159 0.401631 0.871048
Si Si6 0.703599 0.854421 0.498985
Si Si7 0.490749 0.639996 0.199789
O O1 0.500000 0.091234 0.500000
O O2 0.459789 0.100488 0.854824
O O3 0.353555 0.172629 0.930134
O O4 0.363224 0.000000 0.931044
O O5 0.742333 0.114263 0.549605
O O6 0.812535 0.249110 0.464471
O O7 0.880602 0.120886 0.441933
O O8 0.922737 0.113651 0.110405
O O9 0.395122 0.822289 0.571578
O O10 0.395187 0.882769 0.322490
O O11 0.496104 0.745329 0.166767
O O12 0.750000 0.750000 0.000000
O O13 0.892372 0.822884 0.741502
O O14 0.375619 0.500000 0.834712
O O15 0.287086 0.380021 0.190377
O O16 0.468167 0.394088 0.762287
#
# Coordination Sequence:
#
# PCOD9175214 Si02
#       7
#     8   8   8   8   8   8   8
#     4   9  19  34  55  80 105 137 180 228 276 330
#     4   8  16  31  56  81 106 137 190 235 282 331
#     4  10  18  32  57  79 113 145 184 229 284 338
#     4  11  21  36  53  80 113 150 186 232 275 332
#     4  11  22  35  54  83 118 156 195 227 272 337
#     4   9  17  32  53  84 108 144 186 235 276 331
#     4   9  17  33  54  81 107 150 186 230 285 335
#
# _framework density 25.655676
#
# number of rings (size 3 to 8) (size 9 to 14) (size 15 to 20)
#    0.000    2.429    2.857    0.000    0.000    1.143 
#    0.000    7.143    0.000    0.857    0.000    5.000 
#    0.000    0.000    0.000    0.000    0.000    0.000 
#
# Total GULP energy -156148.754224 kJ/mol
# GULP energy per Si atom -5576.741222 kJ/mol
# Density = 2.559728 g / cm^3
# Si number density = 25.655676 Si / 1000 Ang^3
#
#
#
# Elastic Constant Matrix: (Units=GPa)
#
#
# Indices 1 2 3 4 5 6 
#
# 1 176.4987 46.5962 35.4758 0.0000 -57.2525 0.0000
# 2 46.5962 112.6174 16.7781 0.0000 -26.6581 0.0000
# 3 35.4758 16.7781 85.7672 0.0000 -28.6516 0.0000
# 4 0.0000 0.0000 0.0000 2.0375 0.0000 5.6323
# 5 -57.2525 -26.6581 -28.6516 0.0000 42.9877 0.0000
# 6 0.0000 0.0000 0.0000 5.6323 0.0000 -37.1593
#
#
#
# Elastic Compliance Matrix: (Units=1/GPa)
#
#
# Indices 1 2 3 4 5 6 
#
# 1 0.010114 -0.001164 0.000390 0.000000 0.013009 0.000000
# 2 -0.001164 0.010543 0.000110 0.000000 0.005061 0.000000
# 3 0.000390 0.000110 0.015016 0.000000 0.010596 0.000000
# 4 0.000000 0.000000 0.000000 0.345881 0.000000 0.052425
# 5 0.013009 0.005061 0.010596 0.000000 0.050789 0.000000
# 6 0.000000 0.000000 0.000000 0.052425 0.000000 -0.018965
#
#
# Mechanical properties :
#
#
# Convention : Reuss Voigt Hill
#
# Bulk Modulus (GPa) = 29.11590 63.62037 46.36814
# Shear Modulus (GPa) = 11.73280 19.97540 15.85410
#
# Velocity S-wave (km/s) = 2.14082 2.79336 2.48857
# Velocity P-wave (km/s) = 4.18141 5.93763 5.13515
#
# Compressibility (1/GPa) = 0.03434550
#
# Stress axis : x y z
#
# Youngs Moduli (GPa) = 98.86844 94.85130 66.59382
#
# Poissons Ratio (x) = 0.11037 -0.02596
# Poissons Ratio (y) = 0.11504 -0.00730
# Poissons Ratio (z) = -0.03854 -0.01040
#
# Static dielectric constant tensor:
#      x y z
#    x 2.142140 0.000000 0.062950 
#    y 0.000000 1.755680 0.000000 
#    z 0.062950 0.000000 1.957040 
# 
# From -- ./inp_files/189620.got.cif
#   From: 2010.05.17/outbox.cif.g08.bks.cpg/sg12_95_cif.got.tgz:189620.got - 2010.06.03 13:09:07.
