data_PCOD9175189
_publ_section_title
;
Structure prediction by ZEFSAII (Michael W. Deem and Ramdas Pophale) SiO2 
 PCOD9175189
Probable space group: C 2/M
;
_chemical_formula_sum "Si O2"
_cell_formula_units_Z 56
_cell_length_a 21.972770
_cell_length_b 11.525262
_cell_length_c 13.473993
_cell_angle_alpha 90.000000
_cell_angle_beta 57.561688
_cell_angle_gamma 90.000000
_cell_volume 2879.775667
_symmetry_space_group_name_H-M "C 2/M"
_symmetry_group_IT_number 12
_symmetry_cell_setting 'monoclinic'
loop_
_space_group_symop_operation_xyz
x,y,z
-x,y,-z
-x,-y,-z
x,-y,z
1/2+x,1/2+y,z
1/2-x,1/2+y,-z
1/2-x,1/2-y,-z
1/2+x,1/2-y,z
loop_
_atom_site_type_symbol
_atom_site_label
_atom_site_fract_x
_atom_site_fract_y
_atom_site_fract_z
Si Si1 0.806589 0.788567 0.719451
Si Si2 0.073756 0.633740 0.483365
Si Si3 0.566013 0.274957 0.669693
Si Si4 0.595368 0.368367 0.196665
Si Si5 0.429980 0.368569 0.127653
Si Si6 0.283445 0.633313 0.526045
Si Si7 0.192309 0.865408 0.929603
O O1 0.857545 0.693218 0.624223
O O2 0.860072 0.863563 0.740615
O O3 0.771247 0.851856 0.655392
O O4 0.753321 0.722472 0.840626
O O5 0.076262 0.500000 0.458048
O O6 0.074199 0.657828 0.600177
O O7 0.000000 0.682690 0.500000
O O8 0.483320 0.313016 0.726035
O O9 0.577632 0.278748 0.776761
O O10 0.630036 0.355457 0.569298
O O11 0.582169 0.500000 0.177227
O O12 0.646746 0.320924 0.064070
O O13 0.437599 0.500000 0.163162
O O14 0.362365 0.369242 0.114845
O O15 0.500000 0.345866 0.000000
O O16 0.261615 0.500000 0.514538
O O17 0.250000 0.750000 0.500000
O O18 0.216717 0.000000 0.926772
#
# Coordination Sequence:
#
# PCOD9175189 Si02
#       7
#     8   8   8   8   8   8   8
#     4  11  22  38  59  88 119 159 201 245 307 363
#     4  10  21  38  57  81 116 159 202 246 296 363
#     4  11  21  37  62  91 118 153 199 249 308 360
#     4  11  21  36  59  89 123 151 192 248 312 365
#     4  10  18  32  56  86 116 146 185 236 294 351
#     4  11  25  42  64  91 125 164 208 257 312 367
#     4  10  21  36  58  88 119 157 198 250 302 362
#
# _framework density 19.445961
#
# number of rings (size 3 to 8) (size 9 to 14) (size 15 to 20)
#    0.000    1.429    2.857    3.429    0.000    4.000 
#    0.000    2.143    0.000    1.286    0.000    0.000 
#    0.000    0.000    0.000    0.000    0.000    0.000 
#
# Total GULP energy -156051.894952 kJ/mol
# GULP energy per Si atom -5573.281963 kJ/mol
# Density = 1.940170 g / cm^3
# Si number density = 19.445961 Si / 1000 Ang^3
#
#
#
# Elastic Constant Matrix: (Units=GPa)
#
#
# Indices 1 2 3 4 5 6 
#
# 1 68.3345 24.0902 23.2635 0.0000 3.9336 0.0000
# 2 24.0902 62.0616 22.0180 0.0000 -8.1196 0.0000
# 3 23.2635 22.0180 95.5493 0.0000 -3.6198 0.0000
# 4 0.0000 0.0000 0.0000 15.2210 0.0000 12.7934
# 5 3.9336 -8.1196 -3.6198 0.0000 44.4834 0.0000
# 6 0.0000 0.0000 0.0000 12.7934 0.0000 3.0712
#
#
#
# Elastic Compliance Matrix: (Units=1/GPa)
#
#
# Indices 1 2 3 4 5 6 
#
# 1 0.018077 -0.006325 -0.003058 0.000000 -0.003002 0.000000
# 2 -0.006325 0.020137 -0.002949 0.000000 0.003995 0.000000
# 3 -0.003058 -0.002949 0.011916 0.000000 0.000702 0.000000
# 4 0.000000 0.000000 0.000000 -0.026266 0.000000 0.109416
# 5 -0.003002 0.003995 0.000702 0.000000 0.023532 0.000000
# 6 0.000000 0.000000 0.000000 0.109416 0.000000 -0.130178
#
#
# Mechanical properties :
#
#
# Convention : Reuss Voigt Hill
#
# Bulk Modulus (GPa) = 39.26541 40.52099 39.89320
# Shear Modulus (GPa) = -100.74800 22.99334 -38.87733
#
# Velocity S-wave (km/s) = -7.20567 3.44237 -4.47615
# Velocity P-wave (km/s) = 6.99950 6.05664 2.48095
#
# Compressibility (1/GPa) = 0.02546771
#
# Stress axis : x y z
#
# Youngs Moduli (GPa) = 55.31775 49.65957 83.91821
#
# Poissons Ratio (x) = 0.31410 0.25658
# Poissons Ratio (y) = 0.34989 0.24747
# Poissons Ratio (z) = 0.16914 0.14645
#
# Static dielectric constant tensor:
#      x y z
#    x 1.722920 0.000000 0.003430 
#    y 0.000000 1.688460 0.000000 
#    z 0.003430 0.000000 1.707010 
# 
# From -- ./inp_files/174497.got.cif
#   From: 2010.05.17/outbox.cif.g08.bks.cpg/sg12_88_cif.got.tgz:174497.got - 2010.06.03 13:09:07.
