data_PCOD9175404
_publ_section_title
;
Structure prediction by ZEFSAII (Michael W. Deem and Ramdas Pophale) SiO2 
 PCOD9175404
Probable space group: C 2/M
;
_chemical_formula_sum "Si O2"
_cell_formula_units_Z 28
_cell_length_a 12.482023
_cell_length_b 15.481481
_cell_length_c 10.808665
_cell_angle_alpha 90.000000
_cell_angle_beta 144.145827
_cell_angle_gamma 90.000000
_cell_volume 1223.383899
_symmetry_space_group_name_H-M "C 2/M"
_symmetry_group_IT_number 12
_symmetry_cell_setting 'monoclinic'
loop_
_space_group_symop_operation_xyz
x,y,z
-x,y,-z
-x,-y,-z
x,-y,z
1/2+x,1/2+y,z
1/2-x,1/2+y,-z
1/2-x,1/2-y,-z
1/2+x,1/2-y,z
loop_
_atom_site_type_symbol
_atom_site_label
_atom_site_fract_x
_atom_site_fract_y
_atom_site_fract_z
Si Si1 0.271561 0.093507 0.869813
Si Si2 0.500000 0.241455 0.000000
Si Si3 0.378520 0.632504 0.545096
Si Si4 0.156646 0.329002 0.556561
O O1 0.406920 0.174333 0.010330
O O2 0.199424 0.100744 0.659485
O O3 0.080601 0.098799 0.763824
O O4 0.357196 0.000000 0.971400
O O5 0.338043 0.300476 0.799950
O O6 0.230786 0.615572 0.512426
O O7 0.408787 0.735841 0.557611
O O8 0.000000 0.363614 0.500000
#
# Coordination Sequence:
#
# PCOD9175404 Si02
#       4
#     8   4   8   8
#     4  10  18  33  52  76 103 132 171 207 246 299
#     4  10  19  32  50  80 101 134 164 204 258 296
#     4   9  17  31  50  74 100 135 166 202 257 296
#     4  10  18  33  49  74 108 129 164 209 251 305
#
# _framework density 22.887336999999999
#
# number of rings (size 3 to 8) (size 9 to 14) (size 15 to 20)
#    0.000    2.286    5.714    2.143    0.000    1.143 
#    5.143    0.000    0.000    3.429    0.000    4.000 
#    0.000    0.000    0.000    0.000    0.000    0.000 
#
# Total GULP energy -78148.403323 kJ/mol
# GULP energy per Si atom -5582.028809 kJ/mol
# Density = 2.283524 g / cm^3
# Si number density = 22.887337 Si / 1000 Ang^3
#
#
#
# Elastic Constant Matrix: (Units=GPa)
#
#
# Indices 1 2 3 4 5 6 
#
# 1 175.4493 7.9280 23.9763 0.0000 32.7864 0.0000
# 2 7.9280 31.3714 9.6750 0.0000 -1.8745 0.0000
# 3 23.9763 9.6750 88.1293 0.0000 26.3089 0.0000
# 4 0.0000 0.0000 0.0000 14.2427 0.0000 -32.9530
# 5 32.7864 -1.8745 26.3089 0.0000 28.1623 0.0000
# 6 0.0000 0.0000 0.0000 -32.9530 0.0000 147.5128
#
#
#
# Elastic Compliance Matrix: (Units=1/GPa)
#
#
# Indices 1 2 3 4 5 6 
#
# 1 0.007564 -0.002930 0.001319 0.000000 -0.010233 0.000000
# 2 -0.002930 0.035390 -0.006670 0.000000 0.011997 0.000000
# 3 0.001319 -0.006670 0.017072 0.000000 -0.017928 0.000000
# 4 0.000000 0.000000 0.000000 0.145322 0.000000 0.032464
# 5 -0.010233 0.011997 -0.017928 0.000000 0.064968 0.000000
# 6 0.000000 0.000000 0.000000 0.032464 0.000000 0.014031
#
#
# Mechanical properties :
#
#
# Convention : Reuss Voigt Hill
#
# Bulk Modulus (GPa) = 23.00682 42.01205 32.50943
# Shear Modulus (GPa) = 15.85302 54.87493 35.36397
#
# Velocity S-wave (km/s) = 2.63469 4.90185 3.93508
# Velocity P-wave (km/s) = 4.39653 7.10165 5.90605
#
# Compressibility (1/GPa) = 0.04346538
#
# Stress axis : x y z
#
# Youngs Moduli (GPa) = 132.20414 28.25636 58.57416
#
# Poissons Ratio (x) = 0.08278 -0.07723
# Poissons Ratio (y) = 0.38730 0.39066
# Poissons Ratio (z) = -0.17431 0.18846
#
# Static dielectric constant tensor:
#      x y z
#    x 1.934330 0.000000 -0.005460 
#    y 0.000000 1.858740 0.000000 
#    z -0.005460 0.000000 1.876240 
# 
# From -- ./inp_files/47330.got.cif
#   From: 2010.05.17/outbox.cif.g08.bks.cpg/sg12_24_cif.got.tgz:47330.got - 2010.06.03 13:09:07.
