data_PCOD9175014
_publ_section_title
;
Structure prediction by ZEFSAII (Michael W. Deem and Ramdas Pophale) SiO2 
 PCOD9175014
Probable space group: C 2/M
;
_chemical_formula_sum "Si O2"
_cell_formula_units_Z 64
_cell_length_a 14.974018
_cell_length_b 8.359267
_cell_length_c 29.365380
_cell_angle_alpha 90.000000
_cell_angle_beta 63.751022
_cell_angle_gamma 90.000000
_cell_volume 3296.680187
_symmetry_space_group_name_H-M "C 2/M"
_symmetry_group_IT_number 12
_symmetry_cell_setting 'monoclinic'
loop_
_space_group_symop_operation_xyz
x,y,z
-x,y,-z
-x,-y,-z
x,-y,z
1/2+x,1/2+y,z
1/2-x,1/2+y,-z
1/2-x,1/2-y,-z
1/2+x,1/2-y,z
loop_
_atom_site_type_symbol
_atom_site_label
_atom_site_fract_x
_atom_site_fract_y
_atom_site_fract_z
Si Si1 0.411812 0.809444 0.323733
Si Si2 0.839431 0.693276 0.511688
Si Si3 0.195328 0.191302 0.057365
Si Si4 0.478071 0.305054 0.135100
Si Si5 0.940419 0.190762 0.785490
Si Si6 0.270503 0.691260 0.137572
Si Si7 0.985531 0.305300 0.403282
Si Si8 0.699380 0.193162 0.376236
O O1 0.496210 0.739328 0.272440
O O2 0.424995 0.750676 0.372889
O O3 0.301269 0.761140 0.334131
O O4 0.421282 0.000000 0.321539
O O5 0.842314 0.500000 0.513043
O O6 0.750000 0.750000 0.500000
O O7 0.820399 0.748602 0.567250
O O8 0.937730 0.746685 0.461961
O O9 0.079305 0.244705 0.086127
O O10 0.250916 0.247799 0.090703
O O11 0.194599 0.000000 0.057994
O O12 0.250000 0.250000 0.000000
O O13 0.474881 0.500000 0.135304
O O14 0.499319 0.255929 0.182593
O O15 0.373995 0.249234 0.136731
O O16 0.829000 0.260144 0.812535
O O17 0.931481 0.000000 0.790017
O O18 0.275569 0.500000 0.134954
O O19 0.982523 0.500000 0.404878
O O20 0.099922 0.258613 0.372338
O O21 0.706354 0.000000 0.374680
#
# Coordination Sequence:
#
# PCOD9175014 Si02
#       8
#     8   8   8   8   8   8   8   8
#     4  11  22  37  55  78 108 138 172 221 274 319
#     4  10  18  32  55  78 102 135 173 213 260 317
#     4  10  20  36  55  83 120 157 191 228 271 317
#     4   8  18  36  58  79 107 147 186 222 270 329
#     4  10  21  39  58  79 108 142 180 224 271 326
#     4  10  19  36  60  84 107 142 188 230 273 322
#     4   9  19  35  54  76 105 139 174 212 262 326
#     4  10  20  35  56  78 101 137 179 215 258 321
#
# _framework density 19.413468999999999
#
# number of rings (size 3 to 8) (size 9 to 14) (size 15 to 20)
#    0.000    2.250    1.250    2.625    0.000    3.000 
#    0.000   16.875    0.000    1.500    0.000    0.000 
#    0.000    0.000    0.000    0.000    0.000    0.000 
#
# Total GULP energy -178527.915264 kJ/mol
# GULP energy per Si atom -5578.997352 kJ/mol
# Density = 1.936928 g / cm^3
# Si number density = 19.413469 Si / 1000 Ang^3
#
#
#
# Elastic Constant Matrix: (Units=GPa)
#
#
# Indices 1 2 3 4 5 6 
#
# 1 125.8498 13.0981 31.0505 0.0000 -21.6744 0.0000
# 2 13.0981 26.2554 13.5582 0.0000 -3.0597 0.0000
# 3 31.0505 13.5582 98.3732 0.0000 -19.4713 0.0000
# 4 0.0000 0.0000 0.0000 27.4524 0.0000 -2.6023
# 5 -21.6744 -3.0597 -19.4713 0.0000 16.9466 0.0000
# 6 0.0000 0.0000 0.0000 -2.6023 0.0000 24.7708
#
#
#
# Elastic Compliance Matrix: (Units=1/GPa)
#
#
# Indices 1 2 3 4 5 6 
#
# 1 0.010553 -0.003625 -0.000375 0.000000 0.012413 0.000000
# 2 -0.003625 0.042269 -0.005292 0.000000 -0.003085 0.000000
# 3 -0.000375 -0.005292 0.013887 0.000000 0.014522 0.000000
# 4 0.000000 0.000000 0.000000 0.036793 0.000000 0.003865
# 5 0.012413 -0.003085 0.014522 0.000000 0.091013 0.000000
# 6 0.000000 0.000000 0.000000 0.003865 0.000000 0.040776
#
#
# Mechanical properties :
#
#
# Convention : Reuss Voigt Hill
#
# Bulk Modulus (GPa) = 20.77850 40.65467 30.71658
# Shear Modulus (GPa) = 18.52416 26.68538 22.60477
#
# Velocity S-wave (km/s) = 3.09235 3.71156 3.41601
# Velocity P-wave (km/s) = 4.84526 6.27331 5.60495
#
# Compressibility (1/GPa) = 0.04812668
#
# Stress axis : x y z
#
# Youngs Moduli (GPa) = 94.75565 23.65790 72.00811
#
# Poissons Ratio (x) = 0.08576 0.02697
# Poissons Ratio (y) = 0.34347 0.38108
# Poissons Ratio (z) = 0.03549 0.12520
#
# Static dielectric constant tensor:
#      x y z
#    x 1.638660 0.000000 0.012550 
#    y 0.000000 1.682810 0.000000 
#    z 0.012550 0.000000 1.670010 
# 
# From -- ./inp_files/375042.got.cif
#   From: 2010.05.17/outbox.cif.g08.bks.cpg/sg12_188_cif.got.tgz:375042.got - 2010.06.03 13:09:07.
