data_PCOD9175428
_publ_section_title
;
Structure prediction by ZEFSAII (Michael W. Deem and Ramdas Pophale) SiO2 
 PCOD9175428
Probable space group: C 2/M
;
_chemical_formula_sum "Si O2"
_cell_formula_units_Z 56
_cell_length_a 20.664302
_cell_length_b 18.410478
_cell_length_c 9.505907
_cell_angle_alpha 90.000000
_cell_angle_beta 56.198484
_cell_angle_gamma 90.000000
_cell_volume 3005.139106
_symmetry_space_group_name_H-M "C 2/M"
_symmetry_group_IT_number 12
_symmetry_cell_setting 'monoclinic'
loop_
_space_group_symop_operation_xyz
x,y,z
-x,y,-z
-x,-y,-z
x,-y,z
1/2+x,1/2+y,z
1/2-x,1/2+y,-z
1/2-x,1/2-y,-z
1/2+x,1/2-y,z
loop_
_atom_site_type_symbol
_atom_site_label
_atom_site_fract_x
_atom_site_fract_y
_atom_site_fract_z
Si Si1 0.572011 0.851196 0.833739
Si Si2 0.504368 0.268872 0.715663
Si Si3 0.354069 0.919198 0.533837
Si Si4 0.301740 0.638417 0.382320
Si Si5 0.625453 0.227783 0.326570
Si Si6 0.222027 0.714843 0.747835
Si Si7 0.526022 0.419241 0.806570
O O1 0.601457 0.896020 0.663137
O O2 0.643676 0.832833 0.851720
O O3 0.500000 0.886813 0.000000
O O4 0.461555 0.776481 0.194870
O O5 0.571214 0.263575 0.514672
O O6 0.425657 0.234015 0.750859
O O7 0.487759 0.351988 0.772874
O O8 0.263590 0.914147 0.600797
O O9 0.366939 0.855473 0.631524
O O10 0.375730 0.000000 0.552884
O O11 0.268112 0.675302 0.564359
O O12 0.307493 0.706545 0.269516
O O13 0.382315 0.598641 0.308927
O O14 0.709730 0.266962 0.223335
O O15 0.509829 0.500000 0.770470
O O16 0.500000 0.417209 0.000000
#
# Coordination Sequence:
#
# PCOD9175428 Si02
#       7
#     8   8   8   8   8   8   8
#     4  10  19  31  52  75 101 136 175 213 255 299
#     4  10  18  33  51  73 106 134 170 217 244 296
#     4   9  18  32  53  78 102 131 167 216 264 300
#     4   9  15  29  50  77 101 128 171 213 249 301
#     4   9  18  32  53  75 102 134 174 213 251 303
#     4   9  15  29  53  74  98 134 174 217 252 289
#     4  11  21  31  50  79 108 138 164 203 260 307
#
# _framework density 18.634746
#
# number of rings (size 3 to 8) (size 9 to 14) (size 15 to 20)
#    0.000    2.429    2.857    2.571    0.000    0.286 
#    0.000    7.857    0.000    0.000    0.000    0.000 
#    0.000    0.000    0.000    0.000    0.000    0.000 
#
# Total GULP energy -156011.907193 kJ/mol
# GULP energy per Si atom -5571.853828 kJ/mol
# Density = 1.859233 g / cm^3
# Si number density = 18.634746 Si / 1000 Ang^3
#
#
#
# Elastic Constant Matrix: (Units=GPa)
#
#
# Indices 1 2 3 4 5 6 
#
# 1 124.0624 27.3649 15.9403 0.0000 -9.3973 0.0000
# 2 27.3649 112.6742 6.6587 0.0000 7.5065 0.0000
# 3 15.9403 6.6587 25.8679 0.0000 -6.0944 0.0000
# 4 0.0000 0.0000 0.0000 -3.4953 0.0000 7.3189
# 5 -9.3973 7.5065 -6.0944 0.0000 14.4947 0.0000
# 6 0.0000 0.0000 0.0000 7.3189 0.0000 7.1147
#
#
#
# Elastic Compliance Matrix: (Units=1/GPa)
#
#
# Indices 1 2 3 4 5 6 
#
# 1 0.009547 -0.002480 -0.003867 0.000000 0.005848 0.000000
# 2 -0.002480 0.010199 -0.003020 0.000000 -0.008159 0.000000
# 3 -0.003867 -0.003020 0.046170 0.000000 0.018469 0.000000
# 4 0.000000 0.000000 0.000000 -0.090708 0.000000 0.093312
# 5 0.005848 -0.008159 0.018469 0.000000 0.084773 0.000000
# 6 0.000000 0.000000 0.000000 0.093312 0.000000 0.044563
#
#
# Mechanical properties :
#
#
# Convention : Reuss Voigt Hill
#
# Bulk Modulus (GPa) = 21.19406 40.28137 30.73771
# Shear Modulus (GPa) = 35.96984 17.79885 26.88435
#
# Velocity S-wave (km/s) = 4.39823 3.09389 3.80241
# Velocity P-wave (km/s) = 6.09842 5.86737 5.98401
#
# Compressibility (1/GPa) = 0.04718304
#
# Stress axis : x y z
#
# Youngs Moduli (GPa) = 104.74194 98.04445 21.65929
#
# Poissons Ratio (x) = 0.24313 0.08376
# Poissons Ratio (y) = 0.25974 0.06540
# Poissons Ratio (z) = 0.40505 0.29607
#
# Static dielectric constant tensor:
#      x y z
#    x 1.662610 0.000000 -0.014260 
#    y 0.000000 1.645490 0.000000 
#    z -0.014260 0.000000 1.676080 
# 
# From -- ./inp_files/87798.got.cif
#   From: 2010.05.17/outbox.cif.g08.bks.cpg/sg12_44_cif.got.tgz:87798.got - 2010.06.03 13:09:07.
