data_PCOD9175161
_publ_section_title
;
Structure prediction by ZEFSAII (Michael W. Deem and Ramdas Pophale) SiO2 
 PCOD9175161
Probable space group: C 2/M
;
_chemical_formula_sum "Si O2"
_cell_formula_units_Z 34
_cell_length_a 19.809310
_cell_length_b 10.137214
_cell_length_c 17.346370
_cell_angle_alpha 90.000000
_cell_angle_beta 28.460311
_cell_angle_gamma 90.000000
_cell_volume 1659.987963
_symmetry_space_group_name_H-M "C 2/M"
_symmetry_group_IT_number 12
_symmetry_cell_setting 'monoclinic'
loop_
_space_group_symop_operation_xyz
x,y,z
-x,y,-z
-x,-y,-z
x,-y,z
1/2+x,1/2+y,z
1/2-x,1/2+y,-z
1/2-x,1/2-y,-z
1/2+x,1/2-y,z
loop_
_atom_site_type_symbol
_atom_site_label
_atom_site_fract_x
_atom_site_fract_y
_atom_site_fract_z
Si Si1 0.920602 0.266590 0.649611
Si Si2 0.826934 0.344586 0.362546
Si Si3 0.168563 0.346715 0.819157
Si Si4 0.874979 0.648060 0.863872
Si Si5 0.000000 0.000000 0.500000
O O1 0.757347 0.242213 0.788351
O O2 0.933367 0.332652 0.718804
O O3 0.000000 0.339323 0.500000
O O4 0.987268 0.119477 0.578264
O O5 0.791829 0.500000 0.409333
O O6 0.750000 0.250000 0.500000
O O7 0.799630 0.309981 0.300923
O O8 0.995091 0.332243 0.208614
O O9 0.221883 0.500000 0.775894
O O10 0.000000 0.345661 0.000000
O O11 0.820920 0.500000 0.928607
O O12 0.750000 0.750000 0.000000
#
# Coordination Sequence:
#
# PCOD9175161 Si02
#       5
#     8   8   8   8   2
#     4  10  19  35  58  83 113 148 198 233 289 342
#     4  10  22  39  60  88 118 151 195 242 295 350
#     4  10  18  32  56  83 110 144 188 240 283 334
#     4  11  25  40  60  89 122 159 198 246 298 353
#     4   8  20  32  60  88 108 152 200 242 276 356
#
# _framework density 20.482075999999999
#
# number of rings (size 3 to 8) (size 9 to 14) (size 15 to 20)
#    0.706    1.176    1.176    2.824    1.647    3.294 
#    0.000    1.176    0.000    2.824    0.000    0.000 
#    0.000    0.000    0.000    0.000    0.000    0.000 
#
# Total GULP energy -94698.104684 kJ/mol
# GULP energy per Si atom -5570.476746 kJ/mol
# Density = 2.043546 g / cm^3
# Si number density = 20.482076 Si / 1000 Ang^3
#
#
#
# Elastic Constant Matrix: (Units=GPa)
#
#
# Indices 1 2 3 4 5 6 
#
# 1 81.5519 -0.2190 -2.3637 0.0000 -9.1077 0.0000
# 2 -0.2190 70.1597 17.2423 0.0000 -15.3990 0.0000
# 3 -2.3637 17.2423 52.3130 0.0000 1.5617 0.0000
# 4 0.0000 0.0000 0.0000 35.9384 0.0000 3.7771
# 5 -9.1077 -15.3990 1.5617 0.0000 27.1427 0.0000
# 6 0.0000 0.0000 0.0000 3.7771 0.0000 22.5013
#
#
#
# Elastic Compliance Matrix: (Units=1/GPa)
#
#
# Indices 1 2 3 4 5 6 
#
# 1 0.012817 0.001104 0.000068 0.000000 0.004923 0.000000
# 2 0.001104 0.018234 -0.006291 0.000000 0.011077 0.000000
# 3 0.000068 -0.006291 0.021335 0.000000 -0.004773 0.000000
# 4 0.000000 0.000000 0.000000 0.028325 0.000000 -0.004755
# 5 0.004923 0.011077 -0.004773 0.000000 0.045053 0.000000
# 6 0.000000 0.000000 0.000000 -0.004755 0.000000 0.045240
#
#
# Mechanical properties :
#
#
# Convention : Reuss Voigt Hill
#
# Bulk Modulus (GPa) = 23.72579 25.92710 24.82645
# Shear Modulus (GPa) = 25.60292 29.74082 27.67187
#
# Velocity S-wave (km/s) = 3.53939 3.81470 3.67962
# Velocity P-wave (km/s) = 5.32089 5.66467 5.49547
#
# Compressibility (1/GPa) = 0.04214823
#
# Stress axis : x y z
#
# Youngs Moduli (GPa) = 78.02222 54.84307 46.87206
#
# Poissons Ratio (x) = -0.06053 -0.00320
# Poissons Ratio (y) = -0.08611 0.29486
# Poissons Ratio (z) = -0.00533 0.34500
#
# Static dielectric constant tensor:
#      x y z
#    x 1.499320 0.000000 0.104400 
#    y 0.000000 1.702180 0.000000 
#    z 0.104400 0.000000 1.793240 
# 
# From -- ./inp_files/281973.got.cif
#   From: 2010.05.17/outbox.cif.g08.bks.cpg/sg12_141_cif.got.tgz:281973.got - 2010.06.03 13:09:07.
