data_PCOD9175731
_publ_section_title
;
Structure prediction by ZEFSAII (Michael W. Deem and Ramdas Pophale) SiO2 
 PCOD9175731
Probable space group: C 2/M
;
_chemical_formula_sum "Si O2"
_cell_formula_units_Z 64
_cell_length_a 21.127152
_cell_length_b 8.495064
_cell_length_c 22.342462
_cell_angle_alpha 90.000000
_cell_angle_beta 118.447731
_cell_angle_gamma 90.000000
_cell_volume 3525.754151
_symmetry_space_group_name_H-M "C 2/M"
_symmetry_group_IT_number 12
_symmetry_cell_setting 'monoclinic'
loop_
_space_group_symop_operation_xyz
x,y,z
-x,y,-z
-x,-y,-z
x,-y,z
1/2+x,1/2+y,z
1/2-x,1/2+y,-z
1/2-x,1/2-y,-z
1/2+x,1/2-y,z
loop_
_atom_site_type_symbol
_atom_site_label
_atom_site_fract_x
_atom_site_fract_y
_atom_site_fract_z
Si Si1 0.335130 0.812387 0.153869
Si Si2 0.670858 0.813649 0.449978
Si Si3 0.552258 0.311532 0.707272
Si Si4 0.528114 0.309534 0.447840
Si Si5 0.917679 0.190041 0.074890
Si Si6 0.099091 0.810758 0.299743
Si Si7 0.670112 0.692473 0.081627
Si Si8 0.916914 0.192322 0.841133
O O1 0.377767 0.765933 0.233005
O O2 0.377437 0.742269 0.116560
O O3 0.252772 0.755941 0.116540
O O4 0.334797 0.000000 0.148150
O O5 0.750000 0.750000 0.500000
O O6 0.607520 0.746704 0.464283
O O7 0.648433 0.765548 0.372494
O O8 0.670875 0.000000 0.455690
O O9 0.562076 0.500000 0.711240
O O10 0.526734 0.260359 0.629822
O O11 0.483688 0.277436 0.719112
O O12 0.500000 0.256942 0.500000
O O13 0.529873 0.500000 0.448319
O O14 0.000512 0.243394 0.112773
O O15 0.918872 0.000000 0.074427
O O16 0.874634 0.243946 0.996707
O O17 0.110457 0.758761 0.236731
O O18 0.108058 0.000000 0.307601
O O19 0.669628 0.500000 0.081246
O O20 0.631544 0.743683 0.125263
O O21 0.917265 0.000000 0.840881
#
# Coordination Sequence:
#
# PCOD9175731 Si02
#       8
#     8   8   8   8   8   8   8   8
#     4  11  21  32  48  75 110 141 170 214 268 316
#     4  11  22  37  58  84 115 148 185 225 269 322
#     4   9  17  33  56  80 103 137 180 214 254 314
#     4   9  19  38  62  85 112 143 179 227 277 326
#     4  10  18  33  57  77  95 133 184 222 260 316
#     4   9  17  33  57  81 104 135 180 225 268 315
#     4   9  19  32  49  77 107 133 170 223 273 314
#     4   9  16  31  55  79 101 130 176 227 268 309
#
# _framework density 18.152145000000001
#
# number of rings (size 3 to 8) (size 9 to 14) (size 15 to 20)
#    0.000    2.375    1.250    3.000    0.000    3.750 
#    2.250    0.625    0.000    4.500    0.000    0.000 
#    0.000    0.000    0.000    0.000    0.000    0.000 
#
# Total GULP energy -178544.861201 kJ/mol
# GULP energy per Si atom -5579.526913 kJ/mol
# Density = 1.811083 g / cm^3
# Si number density = 18.152145 Si / 1000 Ang^3
#
#
#
# Elastic Constant Matrix: (Units=GPa)
#
#
# Indices 1 2 3 4 5 6 
#
# 1 101.7625 6.7358 64.9962 0.0000 -2.7124 0.0000
# 2 6.7358 9.6854 16.6354 0.0000 1.9511 0.0000
# 3 64.9962 16.6354 128.5608 0.0000 -4.8308 0.0000
# 4 0.0000 0.0000 0.0000 23.7296 0.0000 4.6470
# 5 -2.7124 1.9511 -4.8308 0.0000 32.3183 0.0000
# 6 0.0000 0.0000 0.0000 4.6470 0.0000 16.7724
#
#
#
# Elastic Compliance Matrix: (Units=1/GPa)
#
#
# Indices 1 2 3 4 5 6 
#
# 1 0.014593 0.003292 -0.007809 0.000000 -0.000141 0.000000
# 2 0.003292 0.137237 -0.019835 0.000000 -0.010974 0.000000
# 3 -0.007809 -0.019835 0.014394 0.000000 0.002694 0.000000
# 4 0.000000 0.000000 0.000000 0.044559 0.000000 -0.012346
# 5 -0.000141 -0.010974 0.002694 0.000000 0.031996 0.000000
# 6 0.000000 0.000000 0.000000 -0.012346 0.000000 0.063043
#
#
# Mechanical properties :
#
#
# Convention : Reuss Voigt Hill
#
# Bulk Modulus (GPa) = 8.50912 46.30484 27.40698
# Shear Modulus (GPa) = 12.70007 24.67346 18.68676
#
# Velocity S-wave (km/s) = 2.64795 3.69081 3.21199
# Velocity P-wave (km/s) = 3.74789 6.61267 5.37467
#
# Compressibility (1/GPa) = 0.11752102
#
# Stress axis : x y z
#
# Youngs Moduli (GPa) = 68.52731 7.28664 69.47252
#
# Poissons Ratio (x) = -0.02399 0.54251
# Poissons Ratio (y) = -0.22561 1.37799
# Poissons Ratio (z) = 0.53512 0.14453
#
# Static dielectric constant tensor:
#      x y z
#    x 1.598760 0.000000 -0.003300 
#    y 0.000000 1.625400 0.000000 
#    z -0.003300 0.000000 1.621640 
# 
# From -- ./inp_files/320042.got.cif
#   From: 2010.05.17/outbox.cif.g08.bks.cpg/sg12_161_cif.got.tgz:320042.got - 2010.06.03 13:09:07.
