data_PCOD9175829
_publ_section_title
;
Structure prediction by ZEFSAII (Michael W. Deem and Ramdas Pophale) SiO2 
 PCOD9175829
Probable space group: C 2/M
;
_chemical_formula_sum "Si O2"
_cell_formula_units_Z 48
_cell_length_a 9.398130
_cell_length_b 29.069914
_cell_length_c 8.409824
_cell_angle_alpha 90.000000
_cell_angle_beta 94.978215
_cell_angle_gamma 90.000000
_cell_volume 2288.920682
_symmetry_space_group_name_H-M "C 2/M"
_symmetry_group_IT_number 12
_symmetry_cell_setting 'monoclinic'
loop_
_space_group_symop_operation_xyz
x,y,z
-x,y,-z
-x,-y,-z
x,-y,z
1/2+x,1/2+y,z
1/2-x,1/2+y,-z
1/2-x,1/2-y,-z
1/2+x,1/2-y,z
loop_
_atom_site_type_symbol
_atom_site_label
_atom_site_fract_x
_atom_site_fract_y
_atom_site_fract_z
Si Si1 0.608316 0.500000 0.162132
Si Si2 0.500000 0.328142 0.000000
Si Si3 0.162382 0.226618 0.757411
Si Si4 0.500000 0.340267 0.500000
Si Si5 0.476901 0.097270 0.189650
Si Si6 0.852616 0.897489 0.740078
Si Si7 0.544586 0.000000 0.821284
Si Si8 0.529092 0.804316 0.192428
O O1 0.588198 0.449990 0.243238
O O2 0.781832 0.500000 0.153144
O O3 0.500000 0.500000 0.000000
O O4 0.613366 0.295556 0.921429
O O5 0.428306 0.362764 0.869609
O O6 0.086990 0.193374 0.624312
O O7 0.331010 0.225046 0.760134
O O8 0.102540 0.278004 0.741864
O O9 0.388265 0.373789 0.577075
O O10 0.311787 0.102562 0.221792
O O11 0.516186 0.046956 0.258065
O O12 0.553006 0.143621 0.251949
O O13 0.500000 0.095494 0.000000
O O14 0.500000 0.000000 0.000000
O O15 0.500000 0.806249 0.000000
#
# Coordination Sequence:
#
# PCOD9175829 Si02
#       8
#     4   4   8   4   8   8   4   8
#     4  10  18  33  61 101 118 154 214 269 321 363
#     4  10  18  33  58  82 124 157 206 262 308 366
#     4  11  24  39  60  88 125 168 213 261 319 381
#     4  10  26  43  56  84 134 179 212 242 322 386
#     4   9  18  33  59  87 121 153 203 255 321 362
#     4  10  20  37  60  88 127 164 207 260 313 378
#     4   8  16  32  53  87 128 153 179 254 320 375
#     4  11  22  37  63  94 122 158 215 275 328 365
#
# _framework density 20.970583999999999
#
# number of rings (size 3 to 8) (size 9 to 14) (size 15 to 20)
#    0.000    2.000    1.667    2.500    4.667    1.000 
#    0.000    0.000    0.000    1.000    0.000    3.500 
#    0.000    0.000    0.000    0.000    0.000    0.000 
#
# Total GULP energy -133863.965483 kJ/mol
# GULP energy per Si atom -5577.665228 kJ/mol
# Density = 2.092285 g / cm^3
# Si number density = 20.970584 Si / 1000 Ang^3
#
#
#
# Elastic Constant Matrix: (Units=GPa)
#
#
# Indices 1 2 3 4 5 6 
#
# 1 56.3424 12.4069 6.4662 0.0000 -4.0107 0.0000
# 2 12.4069 157.9647 23.1933 0.0000 -3.3843 0.0000
# 3 6.4662 23.1933 36.8622 0.0000 -8.9067 0.0000
# 4 0.0000 0.0000 0.0000 8.3324 0.0000 -4.1646
# 5 -4.0107 -3.3843 -8.9067 0.0000 20.4822 0.0000
# 6 0.0000 0.0000 0.0000 -4.1646 0.0000 31.6426
#
#
#
# Elastic Compliance Matrix: (Units=1/GPa)
#
#
# Indices 1 2 3 4 5 6 
#
# 1 0.018396 -0.001110 -0.001902 0.000000 0.002591 0.000000
# 2 -0.001110 0.007055 -0.004486 0.000000 -0.001003 0.000000
# 3 -0.001902 -0.004486 0.033539 0.000000 0.013471 0.000000
# 4 0.000000 0.000000 0.000000 0.128465 0.000000 0.016908
# 5 0.002591 -0.001003 0.013471 0.000000 0.055022 0.000000
# 6 0.000000 0.000000 0.000000 0.016908 0.000000 0.033828
#
#
# Mechanical properties :
#
#
# Convention : Reuss Voigt Hill
#
# Bulk Modulus (GPa) = 22.73109 37.25582 29.99345
# Shear Modulus (GPa) = 16.34162 26.03163 21.18662
#
# Velocity S-wave (km/s) = 2.79456 3.52709 3.18197
# Velocity P-wave (km/s) = 4.61257 5.86442 5.27576
#
# Compressibility (1/GPa) = 0.04399260
#
# Stress axis : x y z
#
# Youngs Moduli (GPa) = 54.36005 141.74431 29.81566
#
# Poissons Ratio (x) = 0.15734 0.05672
# Poissons Ratio (y) = 0.06034 0.13377
# Poissons Ratio (z) = 0.10341 0.63593
#
# Static dielectric constant tensor:
#      x y z
#    x 1.714220 0.000000 -0.019140 
#    y 0.000000 1.806120 0.000000 
#    z -0.019140 0.000000 1.754410 
# 
# From -- ./inp_files/42324.got.cif
#   From: 2010.05.17/outbox.cif.g08.bks.cpg/sg12_22_cif.got.tgz:42324.got - 2010.06.03 13:09:07.
