data_PCOD9175507
_publ_section_title
;
Structure prediction by ZEFSAII (Michael W. Deem and Ramdas Pophale) SiO2 
 PCOD9175507
Probable space group: C 2/M
;
_chemical_formula_sum "Si O2"
_cell_formula_units_Z 52
_cell_length_a 18.753684
_cell_length_b 21.342539
_cell_length_c 5.605491
_cell_angle_alpha 90.000000
_cell_angle_beta 100.206785
_cell_angle_gamma 90.000000
_cell_volume 2208.098807
_symmetry_space_group_name_H-M "C 2/M"
_symmetry_group_IT_number 12
_symmetry_cell_setting 'monoclinic'
loop_
_space_group_symop_operation_xyz
x,y,z
-x,y,-z
-x,-y,-z
x,-y,z
1/2+x,1/2+y,z
1/2-x,1/2+y,-z
1/2-x,1/2-y,-z
1/2+x,1/2-y,z
loop_
_atom_site_type_symbol
_atom_site_label
_atom_site_fract_x
_atom_site_fract_y
_atom_site_fract_z
Si Si1 0.022828 0.357762 0.256475
Si Si2 0.417742 0.369675 0.672056
Si Si3 0.678627 0.300791 0.714955
Si Si4 0.656714 0.500000 0.823911
Si Si5 0.720404 0.612020 0.111209
Si Si6 0.430478 0.500000 0.728389
Si Si7 0.500000 0.263877 0.000000
Si Si8 0.821157 0.666644 0.489676
O O1 0.109229 0.348919 0.314122
O O2 0.000000 0.382934 0.500000
O O3 0.985953 0.288347 0.197533
O O4 0.000000 0.392290 0.000000
O O5 0.392631 0.340810 0.404974
O O6 0.343127 0.396744 0.735821
O O7 0.467511 0.431328 0.718173
O O8 0.443736 0.311909 0.848433
O O9 0.749372 0.319308 0.601280
O O10 0.662839 0.229545 0.647788
O O11 0.702966 0.319838 0.991595
O O12 0.620252 0.500000 0.543641
O O13 0.706840 0.560757 0.900904
O O14 0.600446 0.500000 0.016098
O O15 0.796689 0.613586 0.287624
#
# Coordination Sequence:
#
# PCOD9175507 Si02
#       8
#     8   8   8   4   8   4   4   8
#     4  10  23  38  55  78 117 154 184 231 276 345
#     4  10  20  35  52  80 108 160 194 243 281 329
#     4  10  18  33  53  80 113 141 185 236 290 338
#     4  10  20  38  58  85 112 148 187 234 294 329
#     4  10  21  32  59  79 114 147 184 242 283 345
#     4  10  20  37  56  76 114 149 199 241 280 325
#     4  10  22  35  54  76 114 155 206 232 280 330
#     4  10  21  33  53  86 110 146 187 228 290 341
#
# _framework density 23.549672000000001
#
# number of rings (size 3 to 8) (size 9 to 14) (size 15 to 20)
#    0.462    1.538    3.077    0.462    4.308    0.308 
#    0.000    0.000    0.000    1.846    0.000    1.077 
#    0.000    0.000    0.000    0.000    0.000    0.000 
#
# Total GULP energy -144911.802413 kJ/mol
# GULP energy per Si atom -5573.530862 kJ/mol
# Density = 2.349607 g / cm^3
# Si number density = 23.549672 Si / 1000 Ang^3
#
#
#
# Elastic Constant Matrix: (Units=GPa)
#
#
# Indices 1 2 3 4 5 6 
#
# 1 59.8966 2.3197 35.5608 0.0000 8.9761 0.0000
# 2 2.3197 20.6367 11.7336 0.0000 -8.1267 0.0000
# 3 35.5608 11.7336 156.3523 0.0000 21.4845 0.0000
# 4 0.0000 0.0000 0.0000 29.8976 0.0000 4.2817
# 5 8.9761 -8.1267 21.4845 0.0000 39.0854 0.0000
# 6 0.0000 0.0000 0.0000 4.2817 0.0000 13.3477
#
#
#
# Elastic Compliance Matrix: (Units=1/GPa)
#
#
# Indices 1 2 3 4 5 6 
#
# 1 0.019488 -0.000857 -0.004033 0.000000 -0.002437 0.000000
# 2 -0.000857 0.058411 -0.006365 0.000000 0.015841 0.000000
# 3 -0.004033 -0.006365 0.008486 0.000000 -0.005062 0.000000
# 4 0.000000 0.000000 0.000000 0.035058 0.000000 -0.011246
# 5 -0.002437 0.015841 -0.005062 0.000000 0.032221 0.000000
# 6 0.000000 0.000000 0.000000 -0.011246 0.000000 0.078527
#
#
# Mechanical properties :
#
#
# Convention : Reuss Voigt Hill
#
# Bulk Modulus (GPa) = 15.65571 37.34600 26.50085
# Shear Modulus (GPa) = 18.11636 28.95089 23.53362
#
# Velocity S-wave (km/s) = 2.77660 3.51002 3.16463
# Velocity P-wave (km/s) = 4.11604 5.68505 4.96294
#
# Compressibility (1/GPa) = 0.06387445
#
# Stress axis : x y z
#
# Youngs Moduli (GPa) = 51.31261 17.12016 117.83543
#
# Poissons Ratio (x) = 0.01467 0.47527
# Poissons Ratio (y) = 0.04397 0.75005
# Poissons Ratio (z) = 0.20696 0.10897
#
# Static dielectric constant tensor:
#      x y z
#    x 1.952790 0.000000 0.011800 
#    y 0.000000 1.939530 0.000000 
#    z 0.011800 0.000000 1.926510 
# 
# From -- ./inp_files/17466.got.cif
#   From: 2010.05.17/outbox.cif.g08.bks.cpg/sg12_9_cif.got.tgz:17466.got - 2010.06.03 13:09:07.
