data_PCOD9175392
_publ_section_title
;
Structure prediction by ZEFSAII (Michael W. Deem and Ramdas Pophale) SiO2 
 PCOD9175392
Probable space group: C 2/M
;
_chemical_formula_sum "Si O2"
_cell_formula_units_Z 64
_cell_length_a 12.519417
_cell_length_b 24.671989
_cell_length_c 18.833909
_cell_angle_alpha 90.000000
_cell_angle_beta 44.681099
_cell_angle_gamma 90.000000
_cell_volume 4090.562249
_symmetry_space_group_name_H-M "C 2/M"
_symmetry_group_IT_number 12
_symmetry_cell_setting 'monoclinic'
loop_
_space_group_symop_operation_xyz
x,y,z
-x,y,-z
-x,-y,-z
x,-y,z
1/2+x,1/2+y,z
1/2-x,1/2+y,-z
1/2-x,1/2-y,-z
1/2+x,1/2-y,z
loop_
_atom_site_type_symbol
_atom_site_label
_atom_site_fract_x
_atom_site_fract_y
_atom_site_fract_z
Si Si1 0.338558 0.325057 0.434150
Si Si2 0.779407 0.846142 0.175630
Si Si3 0.333201 0.268961 0.730964
Si Si4 0.722406 0.062926 0.454257
Si Si5 0.817624 0.238604 0.581409
Si Si6 0.125915 0.819579 0.024379
Si Si7 0.156146 0.696642 0.953030
Si Si8 0.623325 0.937486 0.338083
O O1 0.502737 0.296987 0.349492
O O2 0.332290 0.389440 0.428835
O O3 0.239090 0.296421 0.420076
O O4 0.276365 0.304719 0.539963
O O5 0.675321 0.795102 0.248131
O O6 0.704012 0.898323 0.245085
O O7 0.952821 0.837151 0.120573
O O8 0.802860 0.846786 0.079590
O O9 0.260301 0.275199 0.687143
O O10 0.246733 0.294351 0.837827
O O11 0.556683 0.072886 0.567508
O O12 0.695968 0.068634 0.382212
O O13 0.765751 0.000000 0.447719
O O14 0.000000 0.240557 0.500000
O O15 0.235190 0.829255 0.039404
O O16 0.117292 0.755656 0.006510
O O17 0.000000 0.670199 0.000000
O O18 0.641163 0.000000 0.308804
#
# Coordination Sequence:
#
# PCOD9175392 Si02
#       8
#     8   8   8   8   8   8   8   8
#     4  10  20  31  47  72 101 135 164 200 248 303
#     4  10  18  33  50  73 106 135 165 207 256 305
#     4  10  20  29  48  73  99 137 161 202 246 300
#     4   9  19  34  49  71 101 133 170 207 240 292
#     4   9  20  31  41  70 108 128 161 198 250 296
#     4   9  19  32  46  71 100 137 169 206 253 296
#     4  10  18  33  46  66 102 135 174 201 241 305
#     4   9  19  32  51  74 100 133 168 203 248 303
#
# _framework density 15.645771
#
# number of rings (size 3 to 8) (size 9 to 14) (size 15 to 20)
#    0.000    2.500    2.500    1.500   10.500    1.000 
#    0.000    1.250    0.000    3.375    0.000    0.000 
#    0.000    2.500    0.000    0.000    0.000    0.000 
#
# Total GULP energy -178203.417162 kJ/mol
# GULP energy per Si atom -5568.856786 kJ/mol
# Density = 1.561016 g / cm^3
# Si number density = 15.645771 Si / 1000 Ang^3
#
#
#
# Elastic Constant Matrix: (Units=GPa)
#
#
# Indices 1 2 3 4 5 6 
#
# 1 92.6085 32.7826 34.2985 0.0000 12.0863 0.0000
# 2 32.7826 88.4111 49.1338 0.0000 -4.3173 0.0000
# 3 34.2985 49.1338 68.8557 0.0001 6.0509 -0.0002
# 4 0.0000 0.0000 0.0001 23.0495 0.0000 0.3918
# 5 12.0863 -4.3173 6.0509 0.0000 15.2943 0.0000
# 6 0.0000 0.0000 -0.0002 0.3918 0.0000 11.2003
#
#
#
# Elastic Compliance Matrix: (Units=1/GPa)
#
#
# Indices 1 2 3 4 5 6 
#
# 1 0.015126 -0.004264 -0.003456 0.000000 -0.011790 0.000000
# 2 -0.004264 0.021906 -0.014864 0.000000 0.015434 0.000000
# 3 -0.003456 -0.014864 0.027952 0.000000 -0.012523 0.000000
# 4 0.000000 0.000000 0.000000 0.043411 0.000000 -0.001518
# 5 -0.011790 0.015434 -0.012523 0.000000 0.084012 -0.000001
# 6 0.000000 0.000000 0.000000 -0.001518 -0.000001 0.089337
#
#
# Mechanical properties :
#
#
# Convention : Reuss Voigt Hill
#
# Bulk Modulus (GPa) = 50.46372 53.58947 52.02659
# Shear Modulus (GPa) = 14.99176 18.81950 16.90563
#
# Velocity S-wave (km/s) = 3.09884 3.47197 3.29070
# Velocity P-wave (km/s) = 6.71771 7.09922 6.91110
#
# Compressibility (1/GPa) = 0.01981622
#
# Stress axis : x y z
#
# Youngs Moduli (GPa) = 66.11069 45.64942 35.77574
#
# Poissons Ratio (x) = 0.19464 0.12364
# Poissons Ratio (y) = 0.28188 0.53177
# Poissons Ratio (z) = 0.22849 0.67854
#
# Static dielectric constant tensor:
#      x y z
#    x 1.552110 0.000000 -0.007340 
#    y 0.000000 1.507630 0.000000 
#    z -0.007340 0.000000 1.549600 
# 
# From -- ./inp_files/265520.got.cif
#   From: 2010.05.17/outbox.cif.g08.bks.cpg/sg12_133_cif.got.tgz:265520.got - 2010.06.03 13:09:07.
