data_PCOD9175848
_publ_section_title
;
Structure prediction by ZEFSAII (Michael W. Deem and Ramdas Pophale) SiO2 
 PCOD9175848
Probable space group: C 2/M
;
_chemical_formula_sum "Si O2"
_cell_formula_units_Z 48
_cell_length_a 22.207505
_cell_length_b 13.728559
_cell_length_c 8.622617
_cell_angle_alpha 90.000000
_cell_angle_beta 114.813261
_cell_angle_gamma 90.000000
_cell_volume 2386.144629
_symmetry_space_group_name_H-M "C 2/M"
_symmetry_group_IT_number 12
_symmetry_cell_setting 'monoclinic'
loop_
_space_group_symop_operation_xyz
x,y,z
-x,y,-z
-x,-y,-z
x,-y,z
1/2+x,1/2+y,z
1/2-x,1/2+y,-z
1/2-x,1/2-y,-z
1/2+x,1/2-y,z
loop_
_atom_site_type_symbol
_atom_site_label
_atom_site_fract_x
_atom_site_fract_y
_atom_site_fract_z
Si Si1 0.298125 0.189167 0.202130
Si Si2 0.404726 0.696111 0.737317
Si Si3 0.345472 0.108212 0.565410
Si Si4 0.707725 0.387933 0.605550
Si Si5 0.150270 0.182277 0.978187
Si Si6 0.977605 0.886563 0.306937
O O1 0.333746 0.126330 0.370506
O O2 0.288498 0.297323 0.270709
O O3 0.339264 0.212254 0.091778
O O4 0.225847 0.147126 0.083657
O O5 0.391918 0.807713 0.679487
O O6 0.355660 0.633896 0.572162
O O7 0.478826 0.666063 0.775729
O O8 0.382631 0.681461 0.889204
O O9 0.273654 0.119855 0.570586
O O10 0.369782 0.000000 0.621942
O O11 0.704411 0.500000 0.661047
O O12 0.099919 0.126612 0.810769
O O13 0.000000 0.848705 0.500000
O O14 0.994253 0.000000 0.319568
#
# Coordination Sequence:
#
# PCOD9175848 Si02
#       6
#     8   8   8   8   8   8
#     4  10  20  38  57  85 123 155 192 240 299 344
#     4  11  20  38  59  86 123 154 194 242 297 346
#     4  10  19  35  60  85 113 151 198 240 288 348
#     4  10  18  33  58  85 115 154 194 238 290 351
#     4  11  22  36  58  84 120 157 191 241 294 350
#     4  11  25  42  61  87 119 159 199 238 293 357
#
# _framework density 20.116133000000001
#
# number of rings (size 3 to 8) (size 9 to 14) (size 15 to 20)
#    0.000    1.500    3.333    4.000    0.000    4.667 
#    0.000    3.333    0.000    7.500    0.000    0.000 
#    0.000    0.000    0.000    0.000    0.000    0.000 
#
# Total GULP energy -134015.943918 kJ/mol
# GULP energy per Si atom -5583.997663 kJ/mol
# Density = 2.007035 g / cm^3
# Si number density = 20.116133 Si / 1000 Ang^3
#
#
#
# Elastic Constant Matrix: (Units=GPa)
#
#
# Indices 1 2 3 4 5 6 
#
# 1 65.3983 10.2515 6.0530 0.0000 -7.4086 0.0000
# 2 10.2515 75.7517 -6.6662 0.0000 10.6481 0.0000
# 3 6.0530 -6.6662 80.5331 0.0000 2.3315 0.0000
# 4 0.0000 0.0000 0.0000 6.8263 0.0000 -2.2156
# 5 -7.4086 10.6481 2.3315 0.0000 27.4615 0.0000
# 6 0.0000 0.0000 0.0000 -2.2156 0.0000 28.7221
#
#
#
# Elastic Compliance Matrix: (Units=1/GPa)
#
#
# Indices 1 2 3 4 5 6 
#
# 1 0.016618 -0.003223 -0.001686 0.000000 0.005876 0.000000
# 2 -0.003223 0.014728 0.001656 0.000000 -0.006721 0.000000
# 3 -0.001686 0.001656 0.012744 0.000000 -0.002179 0.000000
# 4 0.000000 0.000000 0.000000 0.150254 0.000000 0.011590
# 5 0.005876 -0.006721 -0.002179 0.000000 0.040791 0.000000
# 6 0.000000 0.000000 0.000000 0.011590 0.000000 0.035710
#
#
# Mechanical properties :
#
#
# Convention : Reuss Voigt Hill
#
# Bulk Modulus (GPa) = 26.60767 26.77329 26.69048
# Shear Modulus (GPa) = 17.24856 26.73830 21.99343
#
# Velocity S-wave (km/s) = 2.93140 3.64977 3.31013
# Velocity P-wave (km/s) = 4.97124 5.57668 5.28264
#
# Compressibility (1/GPa) = 0.03758315
#
# Stress axis : x y z
#
# Youngs Moduli (GPa) = 60.17610 67.89937 78.46752
#
# Poissons Ratio (x) = 0.21886 0.13229
# Poissons Ratio (y) = 0.19396 -0.12994
# Poissons Ratio (z) = 0.10145 -0.11244
#
# Static dielectric constant tensor:
#      x y z
#    x 1.721750 0.000000 -0.021050 
#    y 0.000000 1.691820 0.000000 
#    z -0.021050 0.000000 1.757280 
# 
# From -- ./inp_files/85954.got.cif
#   From: 2010.05.17/outbox.cif.g08.bks.cpg/sg12_43_cif.got.tgz:85954.got - 2010.06.03 13:09:07.
