data_PCOD9175528
_publ_section_title
;
Structure prediction by ZEFSAII (Michael W. Deem and Ramdas Pophale) SiO2 
 PCOD9175528
Probable space group: C 2/M
;
_chemical_formula_sum "Si O2"
_cell_formula_units_Z 64
_cell_length_a 13.482385
_cell_length_b 19.470601
_cell_length_c 21.607396
_cell_angle_alpha 90.000000
_cell_angle_beta 152.449251
_cell_angle_gamma 90.000000
_cell_volume 2623.567609
_symmetry_space_group_name_H-M "C 2/M"
_symmetry_group_IT_number 12
_symmetry_cell_setting 'monoclinic'
loop_
_space_group_symop_operation_xyz
x,y,z
-x,y,-z
-x,-y,-z
x,-y,z
1/2+x,1/2+y,z
1/2-x,1/2+y,-z
1/2-x,1/2-y,-z
1/2+x,1/2-y,z
loop_
_atom_site_type_symbol
_atom_site_label
_atom_site_fract_x
_atom_site_fract_y
_atom_site_fract_z
Si Si1 0.599503 0.212140 0.985074
Si Si2 0.597136 0.578653 0.407292
Si Si3 0.652645 0.075294 0.335719
Si Si4 0.813791 0.719493 0.269150
Si Si5 0.740817 0.924736 0.110025
Si Si6 0.156529 0.678596 0.541282
Si Si7 0.803715 0.076632 0.842573
Si Si8 0.495242 0.218658 0.765161
O O1 0.383041 0.229076 0.829285
O O2 0.500000 0.217462 0.000000
O O3 0.722092 0.139063 0.052688
O O4 0.779010 0.270394 0.076423
O O5 0.655711 0.500000 0.425505
O O6 0.642444 0.583874 0.505320
O O7 0.378397 0.591331 0.248236
O O8 0.756001 0.630948 0.463234
O O9 0.427663 0.072673 0.250502
O O10 0.617202 0.146825 0.281977
O O11 0.670350 0.000000 0.314087
O O12 0.718068 0.641623 0.215034
O O13 0.002916 0.732594 0.422137
O O14 0.927672 0.722892 0.264851
O O15 0.811382 0.000000 0.124740
O O16 0.500000 0.931734 0.000000
O O17 0.339001 0.716393 0.680176
O O18 0.000000 0.637885 0.500000
O O19 0.159560 0.000000 0.164014
O O20 0.000000 0.089134 0.000000
#
# Coordination Sequence:
#
# PCOD9175528 Si02
#       8
#     8   8   8   8   8   8   8   8
#     4   9  17  28  50  79 101 129 173 213 267 316
#     4  10  19  34  53  76 109 143 172 213 266 317
#     4   9  17  28  49  78 101 129 172 215 265 318
#     4  10  19  32  52  77 101 135 174 221 269 315
#     4   9  17  29  48  75 104 131 168 218 264 307
#     4  12  24  35  50  76 109 144 184 215 260 322
#     4   9  15  25  44  74 108 132 160 208 260 310
#     4  10  18  33  54  74 104 137 169 220 271 311
#
# _framework density 24.394264
#
# number of rings (size 3 to 8) (size 9 to 14) (size 15 to 20)
#    0.000    2.250    3.750    2.250    0.000    0.250 
#    0.000    0.625    0.000    0.375    0.000    0.000 
#    0.000    0.000    0.000    0.000    0.000    0.000 
#
# Total GULP energy -178513.094319 kJ/mol
# GULP energy per Si atom -5578.534197 kJ/mol
# Density = 2.433874 g / cm^3
# Si number density = 24.394264 Si / 1000 Ang^3
#
#
#
# Elastic Constant Matrix: (Units=GPa)
#
#
# Indices 1 2 3 4 5 6 
#
# 1 25.9342 9.8699 8.6976 0.0022 -2.0532 -0.0007
# 2 9.8699 138.2814 28.1453 0.0077 0.9300 0.0000
# 3 8.6976 28.1453 148.2284 0.0253 -2.8496 0.0081
# 4 0.0022 0.0077 0.0253 38.8200 0.0066 -2.0902
# 5 -2.0532 0.9300 -2.8496 0.0066 26.5070 0.0010
# 6 -0.0007 0.0000 0.0081 -2.0902 0.0010 18.5756
#
#
#
# Elastic Compliance Matrix: (Units=1/GPa)
#
#
# Indices 1 2 3 4 5 6 
#
# 1 0.040375 -0.002529 -0.001831 -0.000001 0.003019 0.000002
# 2 -0.002529 0.007685 -0.001323 0.000000 -0.000608 0.000000
# 3 -0.001831 -0.001323 0.007118 -0.000005 0.000670 -0.000004
# 4 -0.000001 0.000000 -0.000005 0.025917 -0.000007 0.002916
# 5 0.003019 -0.000608 0.000670 -0.000007 0.038053 -0.000003
# 6 0.000002 0.000000 -0.000004 0.002916 -0.000003 0.054162
#
#
# Mechanical properties :
#
#
# Convention : Reuss Voigt Hill
#
# Bulk Modulus (GPa) = 22.82454 45.09662 33.96058
# Shear Modulus (GPa) = 25.09034 34.49593 29.79314
#
# Velocity S-wave (km/s) = 3.21056 3.76453 3.49853
# Velocity P-wave (km/s) = 4.80837 6.11738 5.50194
#
# Compressibility (1/GPa) = 0.04381250
#
# Stress axis : x y z
#
# Youngs Moduli (GPa) = 24.76794 130.11606 140.49349
#
# Poissons Ratio (x) = 0.32912 0.25721
# Poissons Ratio (y) = 0.06265 0.18581
# Poissons Ratio (z) = 0.04534 0.17209
#
# Static dielectric constant tensor:
#      x y z
#    x 2.062030 0.000000 -0.054440 
#    y 0.000000 1.987290 0.000000 
#    z -0.054440 0.000000 1.960520 
# 
# From -- ./inp_files/364787.got.cif
#   From: 2010.05.17/outbox.cif.g08.bks.cpg/sg12_183_cif.got.tgz:364787.got - 2010.06.03 13:09:07.
