data_PCOD9175119
_publ_section_title
;
Structure prediction by ZEFSAII (Michael W. Deem and Ramdas Pophale) SiO2 
 PCOD9175119
Probable space group: C 2/M
;
_chemical_formula_sum "Si O2"
_cell_formula_units_Z 64
_cell_length_a 21.120838
_cell_length_b 7.641193
_cell_length_c 20.652393
_cell_angle_alpha 90.000000
_cell_angle_beta 77.993644
_cell_angle_gamma 90.000000
_cell_volume 3260.144472
_symmetry_space_group_name_H-M "C 2/M"
_symmetry_group_IT_number 12
_symmetry_cell_setting 'monoclinic'
loop_
_space_group_symop_operation_xyz
x,y,z
-x,y,-z
-x,-y,-z
x,-y,z
1/2+x,1/2+y,z
1/2-x,1/2+y,-z
1/2-x,1/2-y,-z
1/2+x,1/2-y,z
loop_
_atom_site_type_symbol
_atom_site_label
_atom_site_fract_x
_atom_site_fract_y
_atom_site_fract_z
Si Si1 0.637633 0.715122 0.322813
Si Si2 0.743722 0.792250 0.076494
Si Si3 0.414175 0.791496 0.331407
Si Si4 0.615056 0.292407 0.180693
Si Si5 0.720573 0.793668 0.686269
Si Si6 0.523706 0.297460 0.816794
Si Si7 0.158184 0.786996 0.837364
Si Si8 0.490570 0.710875 0.574908
O O1 0.638749 0.500000 0.322171
O O2 0.629322 0.774389 0.250100
O O3 0.706908 0.777095 0.335056
O O4 0.576089 0.771741 0.377697
O O5 0.676613 0.730217 0.121971
O O6 0.803581 0.725924 0.107436
O O7 0.744089 0.000000 0.083165
O O8 0.750000 0.750000 0.000000
O O9 0.340195 0.724789 0.342190
O O10 0.453930 0.709890 0.263137
O O11 0.450384 0.756697 0.390348
O O12 0.413470 0.000000 0.319744
O O13 0.604082 0.500000 0.191005
O O14 0.548039 0.218575 0.166073
O O15 0.698345 0.769814 0.765503
O O16 0.724878 0.000000 0.671354
O O17 0.518762 0.500000 0.838403
O O18 0.584582 0.222000 0.843439
O O19 0.156315 0.000000 0.836860
O O20 0.500000 0.776122 0.500000
O O21 0.487047 0.500000 0.573183
#
# Coordination Sequence:
#
# PCOD9175119 Si02
#       8
#     8   8   8   8   8   8   8   8
#     4   9  16  30  52  77 100 129 172 213 250 299
#     4  11  23  37  53  76 107 140 173 209 257 309
#     4  10  19  30  48  75 105 135 165 206 258 307
#     4  10  18  32  56  79 101 132 170 213 258 300
#     4   9  17  30  50  74 101 132 166 205 254 309
#     4   9  17  32  54  78 103 131 168 212 254 300
#     4   9  18  32  51  76 103 130 167 213 253 295
#     4  10  20  35  54  74 100 138 179 215 254 304
#
# _framework density 19.631032999999999
#
# number of rings (size 3 to 8) (size 9 to 14) (size 15 to 20)
#    0.000    2.375    2.500    0.750    0.000    1.750 
#    0.000    1.875    0.000    3.750    0.000    0.000 
#    0.000    0.000    0.000    0.000    0.000    0.000 
#
# Total GULP energy -178487.832057 kJ/mol
# GULP energy per Si atom -5577.744752 kJ/mol
# Density = 1.958635 g / cm^3
# Si number density = 19.631033 Si / 1000 Ang^3
#
#
#
# Elastic Constant Matrix: (Units=GPa)
#
#
# Indices 1 2 3 4 5 6 
#
# 1 217.2923 0.4432 92.2614 0.0000 13.2180 0.0000
# 2 0.4432 34.5835 -15.5728 0.0000 -3.7815 0.0000
# 3 92.2614 -15.5728 100.8377 0.0000 4.6039 0.0000
# 4 0.0000 0.0000 0.0000 13.0961 0.0000 0.4905
# 5 13.2180 -3.7815 4.6039 0.0000 27.3891 0.0000
# 6 0.0000 0.0000 0.0000 0.4905 0.0000 9.8639
#
#
#
# Elastic Compliance Matrix: (Units=1/GPa)
#
#
# Indices 1 2 3 4 5 6 
#
# 1 0.008187 -0.004040 -0.007970 0.000000 -0.003169 0.000000
# 2 -0.004040 0.033409 0.008623 0.000000 0.005113 0.000000
# 3 -0.007970 0.008623 0.018453 0.000000 0.001935 0.000000
# 4 0.000000 0.000000 0.000000 0.076501 0.000000 -0.003804
# 5 -0.003169 0.005113 0.001935 0.000000 0.038421 0.000000
# 6 0.000000 0.000000 0.000000 -0.003804 0.000000 0.101569
#
#
# Mechanical properties :
#
#
# Convention : Reuss Voigt Hill
#
# Bulk Modulus (GPa) = 18.77107 56.33080 37.55093
# Shear Modulus (GPa) = 16.60724 28.44192 22.52458
#
# Velocity S-wave (km/s) = 2.91171 3.81047 3.39100
# Velocity P-wave (km/s) = 4.57020 6.93662 5.87382
#
# Compressibility (1/GPa) = 0.05327348
#
# Stress axis : x y z
#
# Youngs Moduli (GPa) = 122.14155 29.93186 54.19314
#
# Poissons Ratio (x) = 0.12094 0.43193
# Poissons Ratio (y) = 0.49350 -0.46730
# Poissons Ratio (z) = 0.97349 -0.25810
#
# Static dielectric constant tensor:
#      x y z
#    x 1.734690 0.000000 0.025920 
#    y 0.000000 1.768370 0.000000 
#    z 0.025920 0.000000 1.617980 
# 
# From -- ./inp_files/319129.got.cif
#   From: 2010.05.17/outbox.cif.g08.bks.cpg/sg12_160_cif.got.tgz:319129.got - 2010.06.03 13:09:07.
