data_PCOD9175084
_publ_section_title
;
Structure prediction by ZEFSAII (Michael W. Deem and Ramdas Pophale) SiO2 
 PCOD9175084
Probable space group: C 2/M
;
_chemical_formula_sum "Si O2"
_cell_formula_units_Z 60
_cell_length_a 22.211816
_cell_length_b 14.101620
_cell_length_c 22.679093
_cell_angle_alpha 90.000000
_cell_angle_beta 28.932749
_cell_angle_gamma 90.000000
_cell_volume 3436.600832
_symmetry_space_group_name_H-M "C 2/M"
_symmetry_group_IT_number 12
_symmetry_cell_setting 'monoclinic'
loop_
_space_group_symop_operation_xyz
x,y,z
-x,y,-z
-x,-y,-z
x,-y,z
1/2+x,1/2+y,z
1/2-x,1/2+y,-z
1/2-x,1/2-y,-z
1/2+x,1/2-y,z
loop_
_atom_site_type_symbol
_atom_site_label
_atom_site_fract_x
_atom_site_fract_y
_atom_site_fract_z
Si Si1 0.168048 0.389828 0.025228
Si Si2 0.500000 0.185336 0.000000
Si Si3 0.833600 0.389595 0.451131
Si Si4 0.368790 0.110699 0.811595
Si Si5 0.961507 0.112560 0.601340
Si Si6 0.749615 0.228052 0.843339
Si Si7 0.605767 0.105987 0.791804
Si Si8 0.295913 0.297813 0.551625
O O1 0.205260 0.500000 0.987959
O O2 0.185681 0.359949 0.077767
O O3 0.019962 0.386324 0.138805
O O4 0.233340 0.330612 0.918197
O O5 0.387105 0.241908 0.066889
O O6 0.438500 0.122341 0.103834
O O7 0.806225 0.500000 0.487711
O O8 0.761668 0.355992 0.454101
O O9 0.800465 0.312170 0.529290
O O10 0.981760 0.380831 0.313854
O O11 0.315415 0.175225 0.805727
O O12 0.339826 0.000000 0.827875
O O13 0.834606 0.166195 0.726755
O O14 0.000000 0.124106 0.500000
O O15 0.069495 0.160555 0.547938
O O16 0.951288 0.000000 0.621862
O O17 0.705350 0.180960 0.683919
O O18 0.658719 0.000000 0.739201
#
# Coordination Sequence:
#
# PCOD9175084 Si02
#       8
#     8   4   8   8   8   8   8   8
#     4   9  18  32  55  83 110 139 175 218 268 331
#     4  10  23  36  55  78 108 146 191 228 269 324
#     4  10  20  35  57  85 114 146 184 221 269 334
#     4  10  19  36  58  81 108 142 184 227 272 326
#     4  11  23  36  53  81 116 148 179 224 278 329
#     4  11  21  37  54  80 109 145 182 228 272 327
#     4  10  18  32  55  83 112 145 181 217 266 328
#     4  11  20  34  58  85 115 146 180 223 275 326
#
# _framework density 17.459112999999999
#
# number of rings (size 3 to 8) (size 9 to 14) (size 15 to 20)
#    0.000    1.733    2.667    3.000    0.000    2.667 
#    0.000    0.333    0.000    7.200    0.000    0.000 
#    0.000    0.000    0.000    0.000    0.000    0.000 
#
# Total GULP energy -167418.942714 kJ/mol
# GULP energy per Si atom -5580.631424 kJ/mol
# Density = 1.741938 g / cm^3
# Si number density = 17.459113 Si / 1000 Ang^3
#
#
#
# Elastic Constant Matrix: (Units=GPa)
#
#
# Indices 1 2 3 4 5 6 
#
# 1 84.0491 51.5983 25.8182 0.0000 -7.5062 0.0000
# 2 51.5983 108.5984 47.8812 0.0001 4.7051 -0.0001
# 3 25.8182 47.8812 87.7728 0.0000 10.0257 -0.0001
# 4 0.0000 0.0001 0.0000 22.5965 0.0000 -2.4126
# 5 -7.5062 4.7051 10.0257 0.0000 30.8895 0.0000
# 6 0.0000 -0.0001 -0.0001 -2.4126 0.0000 16.5837
#
#
#
# Elastic Compliance Matrix: (Units=1/GPa)
#
#
# Indices 1 2 3 4 5 6 
#
# 1 0.017871 -0.008072 -0.001547 0.000000 0.006074 0.000000
# 2 -0.008072 0.015773 -0.005952 0.000000 -0.002432 0.000000
# 3 -0.001547 -0.005952 0.015613 0.000000 -0.004537 0.000000
# 4 0.000000 0.000000 0.000000 0.044953 0.000000 0.006540
# 5 0.006074 -0.002432 -0.004537 0.000000 0.035693 0.000000
# 6 0.000000 0.000000 0.000000 0.006540 0.000000 0.061252
#
#
# Mechanical properties :
#
#
# Convention : Reuss Voigt Hill
#
# Bulk Modulus (GPa) = 55.20396 59.00174 57.10285
# Shear Modulus (GPa) = 21.89753 24.35545 23.12649
#
# Velocity S-wave (km/s) = 3.54534 3.73902 3.64347
# Velocity P-wave (km/s) = 6.96038 7.24624 7.10475
#
# Compressibility (1/GPa) = 0.01811464
#
# Stress axis : x y z
#
# Youngs Moduli (GPa) = 55.95640 63.39822 64.04745
#
# Poissons Ratio (x) = 0.51176 0.09909
# Poissons Ratio (y) = 0.45169 0.38123
# Poissons Ratio (z) = 0.08657 0.37737
#
# Static dielectric constant tensor:
#      x y z
#    x 1.601150 0.000000 0.001970 
#    y 0.000000 1.571460 0.000000 
#    z 0.001970 0.000000 1.596170 
# 
# From -- ./inp_files/322105.got.cif
#   From: 2010.05.17/outbox.cif.g08.bks.cpg/sg12_162_cif.got.tgz:322105.got - 2010.06.03 13:09:07.
