data_PCOD9175647
_publ_section_title
;
Structure prediction by ZEFSAII (Michael W. Deem and Ramdas Pophale) SiO2 
 PCOD9175647
Probable space group: C 2/M
;
_chemical_formula_sum "Si O2"
_cell_formula_units_Z 64
_cell_length_a 25.117073
_cell_length_b 7.378607
_cell_length_c 15.826173
_cell_angle_alpha 90.000000
_cell_angle_beta 100.806013
_cell_angle_gamma 90.000000
_cell_volume 2881.038929
_symmetry_space_group_name_H-M "C 2/M"
_symmetry_group_IT_number 12
_symmetry_cell_setting 'monoclinic'
loop_
_space_group_symop_operation_xyz
x,y,z
-x,y,-z
-x,-y,-z
x,-y,z
1/2+x,1/2+y,z
1/2-x,1/2+y,-z
1/2-x,1/2-y,-z
1/2+x,1/2-y,z
loop_
_atom_site_type_symbol
_atom_site_label
_atom_site_fract_x
_atom_site_fract_y
_atom_site_fract_z
Si Si1 0.051661 0.785573 0.074681
Si Si2 0.386031 0.222719 0.676701
Si Si3 0.381507 0.222788 0.170725
Si Si4 0.187009 0.716700 0.501221
Si Si5 0.686148 0.784910 0.688503
Si Si6 0.803936 0.282697 0.796601
Si Si7 0.337584 0.795975 0.980977
Si Si8 0.996778 0.296374 0.763207
O O1 0.103328 0.700259 0.045470
O O2 0.034526 0.699037 0.157196
O O3 0.061695 0.000000 0.088959
O O4 0.000000 0.764362 0.000000
O O5 0.351118 0.282402 0.585705
O O6 0.353310 0.280763 0.751544
O O7 0.448621 0.284807 0.692021
O O8 0.386826 0.000000 0.678410
O O9 0.350047 0.281941 0.244944
O O10 0.444134 0.283404 0.198974
O O11 0.382294 0.000000 0.164660
O O12 0.350286 0.285769 0.076633
O O13 0.179962 0.500000 0.501212
O O14 0.250000 0.750000 0.500000
O O15 0.174961 0.787978 0.591589
O O16 0.748585 0.756008 0.731671
O O17 0.676695 0.000000 0.682454
O O18 0.809526 0.500000 0.805295
O O19 0.803274 0.212234 0.893260
O O20 0.316595 0.000000 0.989467
O O21 0.007473 0.500000 0.734534
#
# Coordination Sequence:
#
# PCOD9175647 Si02
#       8
#     8   8   8   8   8   8   8   8
#     4  11  21  30  45  75 110 134 165 216 261 295
#     4   9  17  30  51  81 105 122 163 219 257 296
#     4   9  19  34  53  74 100 137 182 210 239 303
#     4  10  19  33  54  77 104 130 162 209 263 309
#     4  10  21  36  52  75 105 137 169 210 260 310
#     4  10  19  32  52  78 104 131 171 216 255 301
#     4  10  19  33  53  74  99 138 180 212 246 299
#     4  10  18  33  56  75  98 139 178 210 249 300
#
# _framework density 22.214207999999999
#
# number of rings (size 3 to 8) (size 9 to 14) (size 15 to 20)
#    0.000    2.125    3.750    0.375    0.000    1.500 
#    0.000    2.500    0.000    3.750    0.000    0.000 
#    0.000    3.000    0.000    0.000    0.000    0.000 
#
# Total GULP energy -178593.118167 kJ/mol
# GULP energy per Si atom -5581.034943 kJ/mol
# Density = 2.216365 g / cm^3
# Si number density = 22.214208 Si / 1000 Ang^3
#
#
#
# Elastic Constant Matrix: (Units=GPa)
#
#
# Indices 1 2 3 4 5 6 
#
# 1 39.2499 -10.2179 48.5114 0.0000 0.3746 0.0000
# 2 -10.2179 74.9509 5.1762 0.0000 4.8907 0.0000
# 3 48.5114 5.1762 193.5718 0.0000 13.8228 0.0000
# 4 0.0000 0.0000 0.0000 16.9982 0.0000 -12.8791
# 5 0.3746 4.8907 13.8228 0.0000 38.7184 0.0000
# 6 0.0000 0.0000 0.0000 -12.8791 0.0000 33.5092
#
#
#
# Elastic Compliance Matrix: (Units=1/GPa)
#
#
# Indices 1 2 3 4 5 6 
#
# 1 0.039735 0.005963 -0.010299 0.000000 0.002539 0.000000
# 2 0.005963 0.014359 -0.001790 0.000000 -0.001232 0.000000
# 3 -0.010299 -0.001790 0.007975 0.000000 -0.002521 0.000000
# 4 0.000000 0.000000 0.000000 0.083000 0.000000 0.031901
# 5 0.002539 -0.001232 -0.002521 0.000000 0.026859 0.000000
# 6 0.000000 0.000000 0.000000 0.031901 0.000000 0.042103
#
#
# Mechanical properties :
#
#
# Convention : Reuss Voigt Hill
#
# Bulk Modulus (GPa) = 20.07405 43.85689 31.96547
# Shear Modulus (GPa) = 20.58555 35.46536 28.02546
#
# Velocity S-wave (km/s) = 3.04745 3.99998 3.55576
# Velocity P-wave (km/s) = 4.63021 6.41239 5.59274
#
# Compressibility (1/GPa) = 0.04981557
#
# Stress axis : x y z
#
# Youngs Moduli (GPa) = 25.16701 69.64289 125.39279
#
# Poissons Ratio (x) = -0.41525 1.29138
# Poissons Ratio (y) = -0.15006 0.22448
# Poissons Ratio (z) = 0.25919 0.12468
#
# Static dielectric constant tensor:
#      x y z
#    x 1.788180 0.000000 0.039770 
#    y 0.000000 1.889130 0.000000 
#    z 0.039770 0.000000 1.844260 
# 
# From -- ./inp_files/244080.got.cif
#   From: 2010.05.17/outbox.cif.g08.bks.cpg/sg12_123_cif.got.tgz:244080.got - 2010.06.03 13:09:07.
