data_PCOD9175756
_publ_section_title
;
Structure prediction by ZEFSAII (Michael W. Deem and Ramdas Pophale) SiO2 
 PCOD9175756
Probable space group: C 2/M
;
_chemical_formula_sum "Si O2"
_cell_formula_units_Z 44
_cell_length_a 8.345757
_cell_length_b 27.743869
_cell_length_c 8.221444
_cell_angle_alpha 90.000000
_cell_angle_beta 100.548079
_cell_angle_gamma 90.000000
_cell_volume 1871.454551
_symmetry_space_group_name_H-M "C 2/M"
_symmetry_group_IT_number 12
_symmetry_cell_setting 'monoclinic'
loop_
_space_group_symop_operation_xyz
x,y,z
-x,y,-z
-x,-y,-z
x,-y,z
1/2+x,1/2+y,z
1/2-x,1/2+y,-z
1/2-x,1/2-y,-z
1/2+x,1/2-y,z
loop_
_atom_site_type_symbol
_atom_site_label
_atom_site_fract_x
_atom_site_fract_y
_atom_site_fract_z
Si Si1 0.963277 0.190859 0.312814
Si Si2 0.812262 0.553057 0.675647
Si Si3 0.940685 0.629008 0.180450
Si Si4 0.095034 0.722565 0.185029
Si Si5 0.806628 0.946169 0.969624
Si Si6 0.000000 0.902774 0.500000
O O1 0.090873 0.221941 0.236794
O O2 0.000000 0.210650 0.500000
O O3 0.778952 0.202296 0.221914
O O4 0.987749 0.134101 0.344681
O O5 0.876172 0.500000 0.654209
O O6 0.750132 0.554010 0.852220
O O7 0.660280 0.565523 0.533710
O O8 0.945126 0.594247 0.693961
O O9 0.979646 0.682704 0.252890
O O10 0.772452 0.599889 0.134251
O O11 0.000000 0.629492 0.000000
O O12 0.000000 0.725539 0.000000
O O13 0.757379 0.000000 0.897013
O O14 0.000000 0.943381 0.000000
#
# Coordination Sequence:
#
# PCOD9175756 Si02
#       6
#     8   8   8   8   8   4
#     4  10  22  39  59  78 118 153 185 236 292 334
#     4  10  18  33  57  81 107 145 186 224 272 332
#     4   9  17  32  54  81 109 141 183 227 274 333
#     4  11  21  39  59  86 113 150 194 242 279 337
#     4   9  18  33  53  82 115 140 172 227 287 336
#     4  10  21  36  56  78 114 142 195 226 286 326
#
# _framework density 23.511126000000001
#
# number of rings (size 3 to 8) (size 9 to 14) (size 15 to 20)
#    0.545    1.636    1.818    1.909    0.000    2.182 
#    3.273    0.000    0.000    0.000    0.000    5.091 
#    0.000    0.000    0.000    0.000    0.000    0.000 
#
# Total GULP energy -122632.394772 kJ/mol
# GULP energy per Si atom -5574.199762 kJ/mol
# Density = 2.345761 g / cm^3
# Si number density = 23.511126 Si / 1000 Ang^3
#
#
#
# Elastic Constant Matrix: (Units=GPa)
#
#
# Indices 1 2 3 4 5 6 
#
# 1 55.9722 -1.0891 6.3605 0.0000 17.4895 0.0000
# 2 -1.0891 77.4957 -21.0689 0.0000 -8.1226 0.0000
# 3 6.3605 -21.0689 40.9887 0.0000 20.9768 0.0000
# 4 0.0000 0.0000 0.0000 -397.3268 0.0000 140.7571
# 5 17.4895 -8.1226 20.9768 0.0000 26.9684 0.0000
# 6 0.0000 0.0000 0.0000 140.7571 0.0000 15.2293
#
#
#
# Elastic Compliance Matrix: (Units=1/GPa)
#
#
# Indices 1 2 3 4 5 6 
#
# 1 0.023528 0.000054 0.006940 0.000000 -0.020640 0.000000
# 2 0.000054 0.015099 0.009043 0.000000 -0.002521 0.000000
# 3 0.006940 0.009043 0.047975 0.000000 -0.039093 0.000000
# 4 0.000000 0.000000 0.000000 -0.000589 0.000000 0.005442
# 5 -0.020640 -0.002521 -0.039093 0.000000 0.080114 0.000000
# 6 0.000000 0.000000 0.000000 0.005442 0.000000 0.015362
#
#
# Mechanical properties :
#
#
# Convention : Reuss Voigt Hill
#
# Bulk Modulus (GPa) = 8.42638 15.87352 12.14995
# Shear Modulus (GPa) = 26.45862 -58.34221 -15.94180
#
# Velocity S-wave (km/s) = 3.35829 -4.98684 -2.60677
# Velocity P-wave (km/s) = 4.31616 5.13731 1.97012
#
# Compressibility (1/GPa) = 0.11867493
#
# Stress axis : x y z
#
# Youngs Moduli (GPa) = 42.50313 66.22958 20.84417
#
# Poissons Ratio (x) = -0.00358 -0.14465
# Poissons Ratio (y) = -0.00229 -0.18850
# Poissons Ratio (z) = -0.29495 -0.59892
#
# Static dielectric constant tensor:
#      x y z
#    x 1.361610 0.000000 0.974740 
#    y 0.000000 1.910000 0.000000 
#    z 0.974740 0.000000 -0.054750 
# 
# From -- ./inp_files/123182.got.cif
#   From: 2010.05.17/outbox.cif.g08.bks.cpg/sg12_62_cif.got.tgz:123182.got - 2010.06.03 13:09:07.
