data_PCOD9175876
_publ_section_title
;
Structure prediction by ZEFSAII (Michael W. Deem and Ramdas Pophale) SiO2 
 PCOD9175876
Probable space group: C 2/M
;
_chemical_formula_sum "Si O2"
_cell_formula_units_Z 56
_cell_length_a 19.835885
_cell_length_b 24.162698
_cell_length_c 10.400992
_cell_angle_alpha 90.000000
_cell_angle_beta 32.967303
_cell_angle_gamma 90.000000
_cell_volume 2712.680575
_symmetry_space_group_name_H-M "C 2/M"
_symmetry_group_IT_number 12
_symmetry_cell_setting 'monoclinic'
loop_
_space_group_symop_operation_xyz
x,y,z
-x,y,-z
-x,-y,-z
x,-y,z
1/2+x,1/2+y,z
1/2-x,1/2+y,-z
1/2-x,1/2-y,-z
1/2+x,1/2-y,z
loop_
_atom_site_type_symbol
_atom_site_label
_atom_site_fract_x
_atom_site_fract_y
_atom_site_fract_z
Si Si1 0.690108 0.500000 0.794268
Si Si2 0.101839 0.561926 0.948489
Si Si3 0.513060 0.888625 0.342268
Si Si4 0.680653 0.381324 0.504523
Si Si5 0.251662 0.378549 0.302532
Si Si6 0.094767 0.000000 0.668871
Si Si7 0.107750 0.272906 0.216515
Si Si8 0.474091 0.296486 0.889949
O O1 0.744244 0.441936 0.753034
O O2 0.688473 0.500000 0.641221
O O3 0.546060 0.500000 0.058910
O O4 0.158578 0.500000 0.849187
O O5 0.197018 0.612022 0.774986
O O6 0.042233 0.570208 0.181590
O O7 0.000000 0.564835 0.000000
O O8 0.500000 0.917271 0.500000
O O9 0.384904 0.858019 0.509224
O O10 0.611264 0.839547 0.205402
O O11 0.723424 0.381748 0.584919
O O12 0.611062 0.439097 0.583542
O O13 0.591319 0.329157 0.642337
O O14 0.360499 0.340332 0.074787
O O15 0.059949 0.251369 0.154353
O O16 0.000000 0.259113 0.500000
O O17 0.250000 0.250000 0.000000
O O18 0.500000 0.281978 0.000000
#
# Coordination Sequence:
#
# PCOD9175876 Si02
#       8
#     4   8   8   8   8   4   8   8
#     4   9  16  26  56  85 124 163 196 234 306 380
#     4  11  23  38  61  93 130 170 206 252 317 382
#     4  11  25  43  63  84 122 169 215 259 307 386
#     4  10  18  33  58  91 129 157 202 258 314 369
#     4  10  19  36  58  91 126 162 202 254 315 374
#     4   9  14  28  50  88 122 162 197 239 298 374
#     4  11  26  49  70  90 124 176 222 267 333 397
#     4  10  21  38  66  98 123 155 211 278 321 368
#
# _framework density 20.643787
#
# number of rings (size 3 to 8) (size 9 to 14) (size 15 to 20)
#    0.000    1.714    3.571    1.714    3.000    0.857 
#    0.000    2.143    0.000    0.000    0.000    4.000 
#    0.000    0.000    0.000    0.000    0.000    0.000 
#
# Total GULP energy -156003.020942 kJ/mol
# GULP energy per Si atom -5571.536462 kJ/mol
# Density = 2.059680 g / cm^3
# Si number density = 20.643787 Si / 1000 Ang^3
#
#
#
# Elastic Constant Matrix: (Units=GPa)
#
#
# Indices 1 2 3 4 5 6 
#
# 1 45.8647 20.6644 31.2163 -0.0001 5.7671 -0.0010
# 2 20.6644 38.0193 15.0878 -0.0002 14.9536 -0.0005
# 3 31.2163 15.0878 94.4593 -0.0012 12.7495 -0.0012
# 4 -0.0001 -0.0002 -0.0012 7.3127 0.0003 -17.2947
# 5 5.7671 14.9536 12.7495 0.0003 35.6514 0.0006
# 6 -0.0010 -0.0005 -0.0012 -17.2947 0.0006 -7.8729
#
#
#
# Elastic Compliance Matrix: (Units=1/GPa)
#
#
# Indices 1 2 3 4 5 6 
#
# 1 0.035636 -0.017517 -0.009659 -0.000001 0.005037 0.000000
# 2 -0.017517 0.041192 0.001218 0.000000 -0.014880 -0.000001
# 3 -0.009659 0.001218 0.014124 0.000000 -0.003999 -0.000001
# 4 -0.000001 0.000000 0.000000 0.022073 0.000001 -0.048488
# 5 0.005037 -0.014880 -0.003999 0.000001 0.034906 0.000001
# 6 0.000000 -0.000001 -0.000001 -0.048488 0.000001 -0.020502
#
#
# Mechanical properties :
#
#
# Convention : Reuss Voigt Hill
#
# Bulk Modulus (GPa) = 25.61723 34.69781 30.15752
# Shear Modulus (GPa) = 25.99334 14.44323 20.21829
#
# Velocity S-wave (km/s) = 3.55228 2.64794 3.13291
# Velocity P-wave (km/s) = 5.40935 5.11792 5.26565
#
# Compressibility (1/GPa) = 0.03903623
#
# Stress axis : x y z
#
# Youngs Moduli (GPa) = 28.06144 24.27627 70.80255
#
# Poissons Ratio (x) = 0.42525 0.68386
# Poissons Ratio (y) = 0.49156 -0.08621
# Poissons Ratio (z) = 0.27104 -0.02956
#
# Static dielectric constant tensor:
#      x y z
#    x 1.725170 0.000000 -0.016320 
#    y 0.000000 1.732900 0.000000 
#    z -0.016320 0.000000 1.807710 
# 
# From -- ./inp_files/80034.got.cif
#   From: 2010.05.17/outbox.cif.g08.bks.cpg/sg12_41_cif.got.tgz:80034.got - 2010.06.03 13:09:07.
