data_PCOD9175240
_publ_section_title
;
Structure prediction by ZEFSAII (Michael W. Deem and Ramdas Pophale) SiO2 
 PCOD9175240
Probable space group: C 2/M
;
_chemical_formula_sum "Si O2"
_cell_formula_units_Z 56
_cell_length_a 15.164276
_cell_length_b 7.858504
_cell_length_c 19.420542
_cell_angle_alpha 90.000000
_cell_angle_beta 78.902218
_cell_angle_gamma 90.000000
_cell_volume 2271.039852
_symmetry_space_group_name_H-M "C 2/M"
_symmetry_group_IT_number 12
_symmetry_cell_setting 'monoclinic'
loop_
_space_group_symop_operation_xyz
x,y,z
-x,y,-z
-x,-y,-z
x,-y,z
1/2+x,1/2+y,z
1/2-x,1/2+y,-z
1/2-x,1/2-y,-z
1/2+x,1/2-y,z
loop_
_atom_site_type_symbol
_atom_site_label
_atom_site_fract_x
_atom_site_fract_y
_atom_site_fract_z
Si Si1 0.668966 0.800868 0.101562
Si Si2 0.180755 0.302541 0.739411
Si Si3 0.930525 0.793438 0.368037
Si Si4 0.361790 0.705805 0.052067
Si Si5 0.630139 0.708677 0.328554
Si Si6 0.484766 0.695449 0.146890
Si Si7 0.154230 0.796015 0.481692
O O1 0.768288 0.728068 0.100259
O O2 0.579405 0.766627 0.157940
O O3 0.682357 0.000000 0.099238
O O4 0.644631 0.746041 0.027180
O O5 0.178798 0.500000 0.760095
O O6 0.148409 0.287272 0.665079
O O7 0.282578 0.234313 0.727617
O O8 0.101307 0.207864 0.791125
O O9 0.918216 0.744164 0.449640
O O10 0.028564 0.742935 0.325412
O O11 0.923440 0.000000 0.364518
O O12 0.366992 0.500000 0.057220
O O13 0.446096 0.774595 0.081972
O O14 0.633381 0.500000 0.326248
O O15 0.643248 0.767490 0.405763
O O16 0.506817 0.500000 0.131379
O O17 0.250000 0.750000 0.500000
O O18 0.147696 0.000000 0.477536
#
# Coordination Sequence:
#
# PCOD9175240 Si02
#       7
#     8   8   8   8   8   8   8
#     4  10  20  36  60  90 119 146 183 230 278 325
#     4  11  23  39  56  78 111 146 185 235 281 326
#     4  10  20  36  59  83 108 145 187 226 276 339
#     4   9  20  38  59  85 118 152 184 225 276 329
#     4   9  19  36  57  81 110 145 184 227 278 334
#     4  11  23  39  58  80 112 152 192 228 273 332
#     4  10  18  32  57  84 112 142 179 227 279 332
#
# _framework density 24.658308999999999
#
# number of rings (size 3 to 8) (size 9 to 14) (size 15 to 20)
#    0.000    2.000    1.429    2.143    0.000    6.286 
#    0.000    5.000    0.000    1.714    0.000    0.000 
#    0.000    0.000    0.000    0.000    0.000    0.000 
#
# Total GULP energy -156461.340576 kJ/mol
# GULP energy per Si atom -5587.905021 kJ/mol
# Density = 2.460219 g / cm^3
# Si number density = 24.658309 Si / 1000 Ang^3
#
#
#
# Elastic Constant Matrix: (Units=GPa)
#
#
# Indices 1 2 3 4 5 6 
#
# 1 147.1212 7.8606 13.3389 0.0000 -40.9749 0.0000
# 2 7.8606 31.9533 -7.2893 0.0000 -1.9933 0.0000
# 3 13.3389 -7.2893 72.9933 0.0000 -20.8479 0.0000
# 4 0.0000 0.0000 0.0000 21.2412 0.0000 -1.1547
# 5 -40.9749 -1.9933 -20.8479 0.0000 50.3844 0.0000
# 6 0.0000 0.0000 0.0000 -1.1547 0.0000 15.8701
#
#
#
# Elastic Compliance Matrix: (Units=1/GPa)
#
#
# Indices 1 2 3 4 5 6 
#
# 1 0.008888 -0.001666 0.000289 0.000000 0.007282 0.000000
# 2 -0.001666 0.032726 0.004032 0.000000 0.001608 0.000000
# 3 0.000289 0.004032 0.016060 0.000000 0.007040 0.000000
# 4 0.000000 0.000000 0.000000 0.047265 0.000000 0.003439
# 5 0.007282 0.001608 0.007040 0.000000 0.028746 0.000000
# 6 0.000000 0.000000 0.000000 0.003439 0.000000 0.063262
#
#
# Mechanical properties :
#
#
# Convention : Reuss Voigt Hill
#
# Bulk Modulus (GPa) = 15.87716 31.09870 23.48793
# Shear Modulus (GPa) = 23.51476 33.37630 28.44553
#
# Velocity S-wave (km/s) = 3.09143 3.68306 3.40014
# Velocity P-wave (km/s) = 4.38126 5.54308 4.99606
#
# Compressibility (1/GPa) = 0.06298356
#
# Stress axis : x y z
#
# Youngs Moduli (GPa) = 112.51116 30.55709 62.26485
#
# Poissons Ratio (x) = 0.05092 -0.01801
# Poissons Ratio (y) = 0.18747 -0.25104
# Poissons Ratio (z) = -0.03254 -0.12320
#
# Static dielectric constant tensor:
#      x y z
#    x 1.985560 0.000000 -0.031720 
#    y 0.000000 1.895030 0.000000 
#    z -0.031720 0.000000 2.043110 
# 
# From -- ./inp_files/337918.got.cif
#   From: 2010.05.17/outbox.cif.g08.bks.cpg/sg12_169_cif.got.tgz:337918.got - 2010.06.03 13:09:07.
