data_PCOD9175027
_publ_section_title
;
Structure prediction by ZEFSAII (Michael W. Deem and Ramdas Pophale) SiO2 
 PCOD9175027
Probable space group: C 2/M
;
_chemical_formula_sum "Si O2"
_cell_formula_units_Z 56
_cell_length_a 21.015245
_cell_length_b 7.454628
_cell_length_c 28.405662
_cell_angle_alpha 90.000000
_cell_angle_beta 144.729027
_cell_angle_gamma 90.000000
_cell_volume 2569.657744
_symmetry_space_group_name_H-M "C 2/M"
_symmetry_group_IT_number 12
_symmetry_cell_setting 'monoclinic'
loop_
_space_group_symop_operation_xyz
x,y,z
-x,y,-z
-x,-y,-z
x,-y,z
1/2+x,1/2+y,z
1/2-x,1/2+y,-z
1/2-x,1/2-y,-z
1/2+x,1/2-y,z
loop_
_atom_site_type_symbol
_atom_site_label
_atom_site_fract_x
_atom_site_fract_y
_atom_site_fract_z
Si Si1 0.975515 0.780490 0.242658
Si Si2 0.304248 0.289639 0.676091
Si Si3 0.746817 0.714463 0.942658
Si Si4 0.700332 0.793758 0.219322
Si Si5 0.067229 0.780110 0.676781
Si Si6 0.522891 0.218843 0.959988
Si Si7 0.431352 0.283894 0.504135
O O1 0.865561 0.719537 0.149175
O O2 0.969812 0.725548 0.293691
O O3 0.086031 0.720126 0.283000
O O4 0.976911 0.000000 0.243137
O O5 0.320249 0.500000 0.694390
O O6 0.284360 0.207692 0.715427
O O7 0.195679 0.265464 0.579189
O O8 0.745892 0.500000 0.935331
O O9 0.750000 0.750000 0.000000
O O10 0.859163 0.783872 0.987043
O O11 0.808936 0.716667 0.260369
O O12 0.581352 0.717767 0.133685
O O13 0.696642 0.000000 0.200712
O O14 0.987281 0.721950 0.586234
O O15 0.068412 0.000000 0.676691
O O16 0.527401 0.000000 0.960084
O O17 0.500000 0.267147 0.000000
O O18 0.500000 0.219576 0.500000
O O19 0.562329 0.500000 0.492350
#
# Coordination Sequence:
#
# PCOD9175027 Si02
#       7
#     8   8   8   8   8   8   8
#     4   9  19  34  51  75 106 141 174 205 253 311
#     4  11  22  34  51  76 107 138 171 209 252 309
#     4  10  19  33  53  76 105 139 174 211 254 305
#     4  10  18  32  55  79 102 133 175 219 260 300
#     4   9  17  32  55  76 100 135 173 212 253 306
#     4   9  17  29  51  82 105 126 171 228 264 291
#     4  10  19  35  57  81 102 128 171 215 260 306
#
# _framework density 21.792786
#
# number of rings (size 3 to 8) (size 9 to 14) (size 15 to 20)
#    0.000    2.286    1.429    2.143    0.000    4.286 
#    0.000    0.714    0.000    7.714    0.000    0.000 
#    0.000    0.000    0.000    0.000    0.000    0.000 
#
# Total GULP energy -156473.003202 kJ/mol
# GULP energy per Si atom -5588.321543 kJ/mol
# Density = 2.174318 g / cm^3
# Si number density = 21.792786 Si / 1000 Ang^3
#
#
#
# Elastic Constant Matrix: (Units=GPa)
#
#
# Indices 1 2 3 4 5 6 
#
# 1 111.7937 -11.7608 32.0127 0.0003 13.7046 0.0005
# 2 -11.7608 62.9905 -8.7990 0.0006 2.5131 0.0018
# 3 32.0127 -8.7990 134.2751 -0.0003 13.0138 0.0002
# 4 0.0003 0.0006 -0.0003 -45.2468 -0.0001 27.3559
# 5 13.7046 2.5131 13.0138 -0.0001 42.2696 0.0001
# 6 0.0005 0.0018 0.0002 27.3559 0.0001 -8.4215
#
#
#
# Elastic Compliance Matrix: (Units=1/GPa)
#
#
# Indices 1 2 3 4 5 6 
#
# 1 0.010037 0.001701 -0.002016 -0.000001 -0.002734 -0.000001
# 2 0.001701 0.016382 0.000841 -0.000002 -0.001784 -0.000004
# 3 -0.002016 0.000841 0.008168 0.000000 -0.001911 0.000000
# 4 -0.000001 -0.000002 0.000000 0.022928 0.000000 0.074479
# 5 -0.002734 -0.001784 -0.001911 0.000000 0.025239 0.000000
# 6 -0.000001 -0.000004 0.000000 0.074479 0.000000 0.123189
#
#
# Mechanical properties :
#
#
# Convention : Reuss Voigt Hill
#
# Bulk Modulus (GPa) = 28.05960 36.88501 32.47231
# Shear Modulus (GPa) = 23.06588 17.56067 20.31328
#
# Velocity S-wave (km/s) = 3.25686 2.84174 3.05636
# Velocity P-wave (km/s) = 5.20062 5.26587 5.23335
#
# Compressibility (1/GPa) = 0.03563842
#
# Stress axis : x y z
#
# Youngs Moduli (GPa) = 99.63498 61.04371 122.42242
#
# Poissons Ratio (x) = -0.10386 0.24685
# Poissons Ratio (y) = -0.16951 -0.10293
# Poissons Ratio (z) = 0.20090 -0.05133
#
# Static dielectric constant tensor:
#      x y z
#    x 1.733040 0.000000 0.014470 
#    y 0.000000 1.860100 0.000000 
#    z 0.014470 0.000000 1.763920 
# 
# From -- ./inp_files/380733.got.cif
#   From: 2010.05.17/outbox.cif.g08.bks.cpg/sg12_191_cif.got.tgz:380733.got - 2010.06.03 13:09:07.
