data_PCOD9175959
_publ_section_title
;
Structure prediction by ZEFSAII (Michael W. Deem and Ramdas Pophale) SiO2 
 PCOD9175959
Probable space group: C 2/M
;
_chemical_formula_sum "Si O2"
_cell_formula_units_Z 52
_cell_length_a 10.399545
_cell_length_b 19.619213
_cell_length_c 20.138867
_cell_angle_alpha 90.000000
_cell_angle_beta 148.717414
_cell_angle_gamma 90.000000
_cell_volume 2133.611355
_symmetry_space_group_name_H-M "C 2/M"
_symmetry_group_IT_number 12
_symmetry_cell_setting 'monoclinic'
loop_
_space_group_symop_operation_xyz
x,y,z
-x,y,-z
-x,-y,-z
x,-y,z
1/2+x,1/2+y,z
1/2-x,1/2+y,-z
1/2-x,1/2-y,-z
1/2+x,1/2-y,z
loop_
_atom_site_type_symbol
_atom_site_label
_atom_site_fract_x
_atom_site_fract_y
_atom_site_fract_z
Si Si1 0.074195 0.677666 0.852330
Si Si2 0.761961 0.079207 0.045835
Si Si3 0.238221 0.575395 0.818826
Si Si4 0.500000 0.197182 0.500000
Si Si5 0.547732 0.316765 0.780165
Si Si6 0.313677 0.573582 0.480758
Si Si7 0.973004 0.200809 0.375131
O O1 0.231971 0.636610 0.867863
O O2 0.116535 0.759147 0.865652
O O3 0.785506 0.677333 0.705403
O O4 0.105029 0.631197 0.931093
O O5 0.804947 0.115425 0.135693
O O6 0.034843 0.080307 0.131502
O O7 0.681160 0.000000 0.011970
O O8 0.250425 0.500000 0.857500
O O9 0.970703 0.577357 0.666259
O O10 0.416836 0.245612 0.524462
O O11 0.751898 0.166646 0.643086
O O12 0.603657 0.281935 0.733694
O O13 0.500000 0.578683 0.500000
O O14 0.361818 0.500000 0.532870
O O15 0.364948 0.633348 0.553807
#
# Coordination Sequence:
#
# PCOD9175959 Si02
#       7
#     8   8   8   4   8   8   8
#     4  11  23  42  67  94 129 175 226 275 320 384
#     4  11  26  47  66  94 136 180 223 266 326 396
#     4  10  21  39  66  97 128 172 224 276 323 381
#     4  10  22  42  66  96 132 172 214 276 326 386
#     4  11  26  41  67 100 134 172 221 269 337 394
#     4  10  18  33  60  94 128 161 213 273 325 387
#     4  11  22  40  64  97 130 170 218 269 338 390
#
# _framework density 24.371824
#
# number of rings (size 3 to 8) (size 9 to 14) (size 15 to 20)
#    0.000    1.385    2.308    2.769    6.462    3.077 
#    2.769    1.154    0.000    0.000    0.000    0.000 
#    0.000    0.000    0.000    0.000    0.000    0.000 
#
# Total GULP energy -145189.647828 kJ/mol
# GULP energy per Si atom -5584.217224 kJ/mol
# Density = 2.431635 g / cm^3
# Si number density = 24.371824 Si / 1000 Ang^3
#
#
#
# Elastic Constant Matrix: (Units=GPa)
#
#
# Indices 1 2 3 4 5 6 
#
# 1 55.9093 3.6177 -1.1672 0.0009 -7.8392 0.0007
# 2 3.6177 143.2888 59.2990 0.0001 -17.9364 0.0005
# 3 -1.1672 59.2990 79.0829 0.0085 -8.7598 0.0037
# 4 0.0009 0.0001 0.0085 24.6191 0.0021 -6.4950
# 5 -7.8392 -17.9364 -8.7598 0.0021 37.1389 0.0007
# 6 0.0007 0.0005 0.0037 -6.4950 0.0007 27.9880
#
#
#
# Elastic Compliance Matrix: (Units=1/GPa)
#
#
# Indices 1 2 3 4 5 6 
#
# 1 0.018486 -0.000386 0.001000 -0.000002 0.003951 -0.000001
# 2 -0.000386 0.010507 -0.007528 0.000003 0.003217 0.000001
# 3 0.001000 -0.007528 0.018406 -0.000007 0.000917 -0.000004
# 4 -0.000002 0.000003 -0.000007 0.043268 -0.000003 0.010041
# 5 0.003951 0.003217 0.000917 -0.000003 0.029530 -0.000002
# 6 -0.000001 0.000001 -0.000004 0.010041 -0.000002 0.038060
#
#
# Mechanical properties :
#
#
# Convention : Reuss Voigt Hill
#
# Bulk Modulus (GPa) = 29.78742 44.64222 37.21482
# Shear Modulus (GPa) = 27.28161 32.38461 29.83311
#
# Velocity S-wave (km/s) = 3.34936 3.64919 3.50248
# Velocity P-wave (km/s) = 5.21596 6.00935 5.62666
#
# Compressibility (1/GPa) = 0.03357122
#
# Stress axis : x y z
#
# Youngs Moduli (GPa) = 54.09497 95.17835 54.33106
#
# Poissons Ratio (x) = 0.03673 -0.05433
# Poissons Ratio (y) = 0.02087 0.40898
# Poissons Ratio (z) = -0.05409 0.71646
#
# Static dielectric constant tensor:
#      x y z
#    x 2.071620 0.000000 -0.003560 
#    y 0.000000 1.942850 0.000000 
#    z -0.003560 0.000000 1.939330 
# 
# From -- ./inp_files/306924.got.cif
#   From: 2010.05.17/outbox.cif.g08.bks.cpg/sg12_154_cif.got.tgz:306924.got - 2010.06.03 13:09:07.
