data_PCOD9175620
_publ_section_title
;
Structure prediction by ZEFSAII (Michael W. Deem and Ramdas Pophale) SiO2 
 PCOD9175620
Probable space group: C 2/M
;
_chemical_formula_sum "Si O2"
_cell_formula_units_Z 48
_cell_length_a 19.862655
_cell_length_b 19.165807
_cell_length_c 8.621272
_cell_angle_alpha 90.000000
_cell_angle_beta 130.039112
_cell_angle_gamma 90.000000
_cell_volume 2512.700860
_symmetry_space_group_name_H-M "C 2/M"
_symmetry_group_IT_number 12
_symmetry_cell_setting 'monoclinic'
loop_
_space_group_symop_operation_xyz
x,y,z
-x,y,-z
-x,-y,-z
x,-y,z
1/2+x,1/2+y,z
1/2-x,1/2+y,-z
1/2-x,1/2-y,-z
1/2+x,1/2-y,z
loop_
_atom_site_type_symbol
_atom_site_label
_atom_site_fract_x
_atom_site_fract_y
_atom_site_fract_z
Si Si1 0.495504 0.423781 0.309639
Si Si2 0.292456 0.418076 0.022326
Si Si3 0.918500 0.172015 0.775365
Si Si4 0.243273 0.293871 0.151719
Si Si5 0.405745 0.169978 0.829218
Si Si6 0.773981 0.656856 0.371055
O O1 0.500000 0.428289 0.500000
O O2 0.519410 0.500000 0.279021
O O3 0.561884 0.364765 0.355802
O O4 0.393779 0.408727 0.120184
O O5 0.278812 0.500000 0.032977
O O6 0.230784 0.390021 0.791017
O O7 0.279766 0.368682 0.152786
O O8 0.928128 0.254749 0.788490
O O9 0.823151 0.154363 0.698824
O O10 0.000000 0.144649 0.000000
O O11 0.150076 0.311899 0.097620
O O12 0.285998 0.238248 0.335211
O O13 0.250000 0.250000 0.000000
O O14 0.342833 0.136085 0.606118
O O15 0.500000 0.134879 0.000000
#
# Coordination Sequence:
#
# PCOD9175620 Si02
#       6
#     8   8   8   8   8   8
#     4  10  22  34  50  84 125 156 186 220 281 377
#     4  10  21  38  58  84 119 157 191 232 294 358
#     4  10  18  33  55  81 116 152 183 227 289 346
#     4   9  19  36  59  85 116 148 192 242 290 345
#     4  10  22  37  58  85 112 149 202 251 293 334
#     4  10  20  37  58  84 116 154 197 245 285 343
#
# _framework density 19.102951999999998
#
# number of rings (size 3 to 8) (size 9 to 14) (size 15 to 20)
#    0.000    2.167    1.667    2.000    7.000    1.000 
#    0.000    4.167    0.000    3.000    0.000    0.000 
#    0.000    0.000    0.000    0.000    0.000    0.000 
#
# Total GULP energy -133614.137884 kJ/mol
# GULP energy per Si atom -5567.255745 kJ/mol
# Density = 1.905947 g / cm^3
# Si number density = 19.102952 Si / 1000 Ang^3
#
#
#
# Elastic Constant Matrix: (Units=GPa)
#
#
# Indices 1 2 3 4 5 6 
#
# 1 62.0005 50.1491 33.0224 0.0000 -7.5823 0.0000
# 2 50.1491 95.7485 7.8763 0.0000 0.0563 0.0000
# 3 33.0224 7.8763 131.1045 0.0000 12.3519 0.0000
# 4 0.0000 0.0000 0.0000 12.2875 0.0000 3.8508
# 5 -7.5823 0.0563 12.3519 0.0000 20.4910 0.0000
# 6 0.0000 0.0000 0.0000 3.8508 0.0000 7.7923
#
#
#
# Elastic Compliance Matrix: (Units=1/GPa)
#
#
# Indices 1 2 3 4 5 6 
#
# 1 0.042029 -0.021085 -0.011440 0.000000 0.022506 0.000000
# 2 -0.021085 0.021077 0.005073 0.000000 -0.010918 0.000000
# 3 -0.011440 0.005073 0.011243 0.000000 -0.011024 0.000000
# 4 0.000000 0.000000 0.000000 0.096298 0.000000 -0.047589
# 5 0.022506 -0.010918 -0.011024 0.000000 0.063805 0.000000
# 6 0.000000 0.000000 0.000000 -0.047589 0.000000 0.151850
#
#
# Mechanical properties :
#
#
# Convention : Reuss Voigt Hill
#
# Bulk Modulus (GPa) = 51.42697 52.32768 51.87732
# Shear Modulus (GPa) = 11.16853 21.30119 16.23486
#
# Velocity S-wave (km/s) = 2.42058 3.34289 2.91840
# Velocity P-wave (km/s) = 5.89844 6.50783 6.21062
#
# Compressibility (1/GPa) = 0.01944505
#
# Stress axis : x y z
#
# Youngs Moduli (GPa) = 23.79308 47.44574 88.94591
#
# Poissons Ratio (x) = 1.00041 1.01753
# Poissons Ratio (y) = 0.50168 -0.45125
# Poissons Ratio (z) = 0.27219 -0.24071
#
# Static dielectric constant tensor:
#      x y z
#    x 1.671670 0.000000 -0.013450 
#    y 0.000000 1.656340 0.000000 
#    z -0.013450 0.000000 1.758950 
# 
# From -- ./inp_files/77674.got.cif
#   From: 2010.05.17/outbox.cif.g08.bks.cpg/sg12_39_cif.got.tgz:77674.got - 2010.06.03 13:09:07.
