data_PCOD9175405
_publ_section_title
;
Structure prediction by ZEFSAII (Michael W. Deem and Ramdas Pophale) SiO2 
 PCOD9175405
Probable space group: C 2/M
;
_chemical_formula_sum "Si O2"
_cell_formula_units_Z 44
_cell_length_a 28.604060
_cell_length_b 19.944836
_cell_length_c 5.752902
_cell_angle_alpha 90.000000
_cell_angle_beta 123.551052
_cell_angle_gamma 90.000000
_cell_volume 2735.239374
_symmetry_space_group_name_H-M "C 2/M"
_symmetry_group_IT_number 12
_symmetry_cell_setting 'monoclinic'
loop_
_space_group_symop_operation_xyz
x,y,z
-x,y,-z
-x,-y,-z
x,-y,z
1/2+x,1/2+y,z
1/2-x,1/2+y,-z
1/2-x,1/2-y,-z
1/2+x,1/2-y,z
loop_
_atom_site_type_symbol
_atom_site_label
_atom_site_fract_x
_atom_site_fract_y
_atom_site_fract_z
Si Si1 0.000000 0.133076 0.500000
Si Si2 0.179902 0.075724 0.947741
Si Si3 0.393038 0.672802 0.959091
Si Si4 0.691239 0.791965 0.335505
Si Si5 0.776993 0.325202 0.076955
Si Si6 0.927951 0.927225 0.679629
O O1 0.019682 0.085449 0.344674
O O2 0.055308 0.175388 0.717864
O O3 0.154356 0.120114 0.085279
O O4 0.229119 0.118698 0.967653
O O5 0.196335 0.000000 0.060396
O O6 0.127939 0.070637 0.629390
O O7 0.360705 0.740947 0.822915
O O8 0.420588 0.637931 0.814305
O O9 0.750000 0.750000 0.500000
O O10 0.690066 0.828055 0.584795
O O11 0.693264 0.831243 0.093697
O O12 0.750000 0.250000 0.000000
O O13 0.931523 0.000000 0.809158
#
# Coordination Sequence:
#
# PCOD9175405 Si02
#       6
#     4   8   8   8   8   8
#     4  10  23  32  44  64  94 126 169 218 256 284
#     4  10  20  31  48  72 100 129 169 212 247 291
#     4  11  20  33  48  67  93 129 175 210 253 290
#     4  10  19  31  55  69  92 124 167 204 246 305
#     4  10  18  33  49  74  95 127 167 200 251 302
#     4  10  20  33  46  63  92 133 175 212 251 287
#
# _framework density 16.086345000000001
#
# number of rings (size 3 to 8) (size 9 to 14) (size 15 to 20)
#    0.000    1.818    3.636    3.545    2.545    2.909 
#    0.000    0.000    0.000    0.000    0.000    0.000 
#    0.000    0.000    0.000    4.909    0.000    0.000 
#
# Total GULP energy -122490.844052 kJ/mol
# GULP energy per Si atom -5567.765639 kJ/mol
# Density = 1.604973 g / cm^3
# Si number density = 16.086345 Si / 1000 Ang^3
#
#
#
# Elastic Constant Matrix: (Units=GPa)
#
#
# Indices 1 2 3 4 5 6 
#
# 1 90.6577 41.1566 35.1014 0.0000 -11.9145 0.0000
# 2 41.1566 51.7989 22.6355 0.0000 10.2350 0.0000
# 3 35.1014 22.6355 63.9737 0.0000 -6.6997 0.0000
# 4 0.0000 0.0000 0.0000 4.8749 0.0000 -6.9991
# 5 -11.9145 10.2350 -6.6997 0.0000 34.3490 0.0000
# 6 0.0000 0.0000 0.0000 -6.9991 0.0000 10.2645
#
#
#
# Elastic Compliance Matrix: (Units=1/GPa)
#
#
# Indices 1 2 3 4 5 6 
#
# 1 0.023010 -0.018744 -0.004668 0.000000 0.012656 0.000000
# 2 -0.018744 0.040865 -0.006259 0.000000 -0.019899 0.000000
# 3 -0.004668 -0.006259 0.020859 0.000000 0.004314 0.000000
# 4 0.000000 0.000000 0.000000 9.762443 0.000000 6.656736
# 5 0.012656 -0.019899 0.004314 0.000000 0.040274 0.000000
# 6 0.000000 0.000000 0.000000 6.656736 0.000000 4.636465
#
#
# Mechanical properties :
#
#
# Convention : Reuss Voigt Hill
#
# Bulk Modulus (GPa) = 39.37993 44.91303 42.14648
# Shear Modulus (GPa) = 0.34266 17.06680 8.70473
#
# Velocity S-wave (km/s) = 0.46203 3.26076 2.32873
# Velocity P-wave (km/s) = 4.98178 6.49286 5.78686
#
# Compressibility (1/GPa) = 0.02539365
#
# Stress axis : x y z
#
# Youngs Moduli (GPa) = 43.45853 24.47092 47.94097
#
# Poissons Ratio (x) = 0.45867 0.22379
# Poissons Ratio (y) = 0.81457 0.30004
# Poissons Ratio (z) = 0.20287 0.15315
#
# Static dielectric constant tensor:
#      x y z
#    x 1.551450 0.000000 -0.058780 
#    y 0.000000 1.512740 0.000000 
#    z -0.058780 0.000000 1.582740 
# 
# From -- ./inp_files/16168.got.cif
#   From: 2010.05.17/outbox.cif.g08.bks.cpg/sg12_9_cif.got.tgz:16168.got - 2010.06.03 13:09:07.
