data_PCOD9175658
_publ_section_title
;
Structure prediction by ZEFSAII (Michael W. Deem and Ramdas Pophale) SiO2 
 PCOD9175658
Probable space group: C 2/M
;
_chemical_formula_sum "Si O2"
_cell_formula_units_Z 64
_cell_length_a 28.397963
_cell_length_b 21.681308
_cell_length_c 16.589715
_cell_angle_alpha 90.000000
_cell_angle_beta 16.921475
_cell_angle_gamma 90.000000
_cell_volume 2973.002715
_symmetry_space_group_name_H-M "C 2/M"
_symmetry_group_IT_number 12
_symmetry_cell_setting 'monoclinic'
loop_
_space_group_symop_operation_xyz
x,y,z
-x,y,-z
-x,-y,-z
x,-y,z
1/2+x,1/2+y,z
1/2-x,1/2+y,-z
1/2-x,1/2-y,-z
1/2+x,1/2-y,z
loop_
_atom_site_type_symbol
_atom_site_label
_atom_site_fract_x
_atom_site_fract_y
_atom_site_fract_z
Si Si1 0.187041 0.819897 0.688694
Si Si2 0.626764 0.284746 0.037439
Si Si3 0.276589 0.323581 0.553038
Si Si4 0.646973 0.593990 0.086771
Si Si5 0.587148 0.180885 0.543037
Si Si6 0.567027 0.064320 0.480061
Si Si7 0.820591 0.072507 0.786849
Si Si8 0.265425 0.571974 0.703635
O O1 0.201779 0.745567 0.682834
O O2 0.250981 0.837625 0.495659
O O3 0.302585 0.847324 0.567002
O O4 0.000000 0.837052 0.000000
O O5 0.470948 0.313557 0.245758
O O6 0.659685 0.332446 0.055645
O O7 0.554729 0.222384 0.190049
O O8 0.785254 0.281229 0.722302
O O9 0.222110 0.375829 0.706818
O O10 0.724136 0.574556 0.045497
O O11 0.462033 0.572991 0.384590
O O12 0.741913 0.569092 0.853485
O O13 0.520200 0.125281 0.601656
O O14 0.500000 0.064035 0.500000
O O15 0.529833 0.000000 0.583608
O O16 0.726430 0.093244 0.860093
O O17 0.000000 0.102972 0.500000
O O18 0.841151 0.000000 0.734714
O O19 0.214017 0.500000 0.772323
#
# Coordination Sequence:
#
# PCOD9175658 Si02
#       8
#     8   8   8   8   8   8   8   8
#     4  10  18  33  56  78 104 135 180 234 279 335
#     4   9  18  33  54  82 117 145 184 236 288 340
#     4   9  18  31  51  79 104 139 180 220 281 341
#     4   9  16  30  52  78 105 145 187 230 277 327
#     4  10  20  37  58  86 115 147 191 237 290 338
#     4  10  21  38  57  76 108 154 195 229 275 342
#     4   8  13  23  43  71  99 131 173 214 259 317
#     4   9  16  28  48  77 110 138 170 223 280 331
#
# _framework density 21.527056000000002
#
# number of rings (size 3 to 8) (size 9 to 14) (size 15 to 20)
#    0.000    2.750    1.250    1.875    0.000    0.000 
#    0.000   13.750    0.000    1.125    0.000    3.500 
#    0.000    0.000    0.000    0.000    0.000    0.000 
#
# Total GULP energy -178298.930891 kJ/mol
# GULP energy per Si atom -5571.841590 kJ/mol
# Density = 2.147806 g / cm^3
# Si number density = 21.527056 Si / 1000 Ang^3
#
#
#
# Elastic Constant Matrix: (Units=GPa)
#
#
# Indices 1 2 3 4 5 6 
#
# 1 102.1338 57.2527 3.0513 -0.0016 16.1727 -0.0062
# 2 57.2527 84.7455 13.6232 -0.0017 3.4953 0.0168
# 3 3.0513 13.6232 46.4101 -0.0141 8.0024 -0.0234
# 4 -0.0016 -0.0017 -0.0141 4.7268 0.0086 -24.3436
# 5 16.1727 3.4953 8.0024 0.0086 26.9964 0.0203
# 6 -0.0062 0.0168 -0.0234 -24.3436 0.0203 -50.8085
#
#
#
# Elastic Compliance Matrix: (Units=1/GPa)
#
#
# Indices 1 2 3 4 5 6 
#
# 1 0.018522 -0.012775 0.004384 -0.000009 -0.010742 -0.000008
# 2 -0.012775 0.021204 -0.006566 0.000013 0.006854 0.000008
# 3 0.004384 -0.006566 0.024758 -0.000001 -0.009115 -0.000017
# 4 -0.000009 0.000013 -0.000001 0.061011 0.000007 -0.029232
# 5 -0.010742 0.006854 -0.009115 0.000007 0.045291 0.000023
# 6 -0.000008 0.000008 -0.000017 -0.029232 0.000023 -0.005676
#
#
# Mechanical properties :
#
#
# Convention : Reuss Voigt Hill
#
# Bulk Modulus (GPa) = 28.92666 42.34932 35.63799
# Shear Modulus (GPa) = 24.20752 6.80711 15.50731
#
# Velocity S-wave (km/s) = 3.35702 1.78016 2.68687
# Velocity P-wave (km/s) = 5.33785 4.89292 5.12022
#
# Compressibility (1/GPa) = 0.03457019
#
# Stress axis : x y z
#
# Youngs Moduli (GPa) = 53.98889 47.16197 40.39123
#
# Poissons Ratio (x) = 0.60250 -0.17709
# Poissons Ratio (y) = 0.68972 0.26521
# Poissons Ratio (z) = -0.23671 0.30967
#
# Static dielectric constant tensor:
#      x y z
#    x 1.823280 0.000000 0.023380 
#    y 0.000000 1.796430 0.000010 
#    z 0.023380 0.000010 1.898060 
# 
# From -- ./inp_files/297055.got.cif
#   From: 2010.05.17/outbox.cif.g08.bks.cpg/sg12_149_cif.got.tgz:297055.got - 2010.06.03 13:09:07.
