data_PCOD9175477
_publ_section_title
;
Structure prediction by ZEFSAII (Michael W. Deem and Ramdas Pophale) SiO2 
 PCOD9175477
Probable space group: C 2/M
;
_chemical_formula_sum "Si O2"
_cell_formula_units_Z 20
_cell_length_a 12.149677
_cell_length_b 10.175711
_cell_length_c 11.226820
_cell_angle_alpha 90.000000
_cell_angle_beta 40.101245
_cell_angle_gamma 90.000000
_cell_volume 894.060060
_symmetry_space_group_name_H-M "C 2/M"
_symmetry_group_IT_number 12
_symmetry_cell_setting 'monoclinic'
loop_
_space_group_symop_operation_xyz
x,y,z
-x,y,-z
-x,-y,-z
x,-y,z
1/2+x,1/2+y,z
1/2-x,1/2+y,-z
1/2-x,1/2-y,-z
1/2+x,1/2-y,z
loop_
_atom_site_type_symbol
_atom_site_label
_atom_site_fract_x
_atom_site_fract_y
_atom_site_fract_z
Si Si1 0.301794 0.286421 0.200699
Si Si2 0.154349 0.500000 0.472444
Si Si3 0.706695 0.000000 0.832027
Si Si4 0.341918 0.000000 0.858111
O O1 0.264646 0.372535 0.348832
O O2 0.233497 0.138949 0.268629
O O3 0.500000 0.282703 0.000000
O O4 0.216140 0.369966 0.164845
O O5 0.000000 0.500000 0.500000
O O6 0.049275 0.500000 0.681390
O O7 0.740870 0.000000 0.944957
O O8 0.500000 0.000000 0.000000
#
# Coordination Sequence:
#
# PCOD9175477 Si02
#       4
#     8   4   4   4
#     4   9  17  32  53  74  95 125 162 199 237 287
#     4   8  16  31  51  72  95 126 161 196 235 287
#     4  10  20  32  48  74 102 126 158 202 240 278
#     4  10  18  33  53  72  95 130 163 194 237 289
#
# _framework density 22.369861
#
# number of rings (size 3 to 8) (size 9 to 14) (size 15 to 20)
#    0.000    3.200    0.000    3.600    0.000    0.000 
#    0.000   17.000    0.000   19.200    0.000    2.800 
#    0.000    0.000    0.000    0.000    0.000    0.000 
#
# Total GULP energy -55752.936511 kJ/mol
# GULP energy per Si atom -5575.293651 kJ/mol
# Density = 2.231895 g / cm^3
# Si number density = 22.369861 Si / 1000 Ang^3
#
#
#
# Elastic Constant Matrix: (Units=GPa)
#
#
# Indices 1 2 3 4 5 6 
#
# 1 18.2419 15.8890 -8.2168 0.0000 0.3544 0.0000
# 2 15.8890 242.9253 45.9543 0.0000 2.9094 0.0000
# 3 -8.2168 45.9543 90.9368 0.0000 -7.9250 0.0000
# 4 0.0000 0.0000 0.0000 -15.3183 0.0000 -2.4022
# 5 0.3544 2.9094 -7.9250 0.0000 21.0589 0.0000
# 6 0.0000 0.0000 0.0000 -2.4022 0.0000 11.3501
#
#
#
# Elastic Compliance Matrix: (Units=1/GPa)
#
#
# Indices 1 2 3 4 5 6 
#
# 1 0.064010 -0.005938 0.009059 0.000000 0.003152 0.000000
# 2 -0.005938 0.005152 -0.003302 0.000000 -0.001854 0.000000
# 3 0.009059 -0.003302 0.013968 0.000000 0.005560 0.000000
# 4 0.000000 0.000000 0.000000 -0.063185 0.000000 -0.013373
# 5 0.003152 -0.001854 0.005560 0.000000 0.049781 0.000000
# 6 0.000000 0.000000 0.000000 -0.013373 0.000000 0.085275
#
#
# Mechanical properties :
#
#
# Convention : Reuss Voigt Hill
#
# Bulk Modulus (GPa) = 12.08176 51.03968 31.56072
# Shear Modulus (GPa) = 27.32945 23.31663 25.32304
#
# Velocity S-wave (km/s) = 3.49909 3.23201 3.36819
# Velocity P-wave (km/s) = 4.66234 6.06577 5.40976
#
# Compressibility (1/GPa) = 0.08276942
#
# Stress axis : x y z
#
# Youngs Moduli (GPa) = 15.62247 194.11266 71.59128
#
# Poissons Ratio (x) = 1.15269 -0.64857
# Poissons Ratio (y) = 0.09277 0.23636
# Poissons Ratio (z) = -0.14153 0.64086
#
# Static dielectric constant tensor:
#      x y z
#    x 1.896330 0.000000 0.027190 
#    y 0.000000 1.852840 0.000000 
#    z 0.027190 0.000000 1.902910 
# 
# From -- ./inp_files/43191.got.cif
#   From: 2010.05.17/outbox.cif.g08.bks.cpg/sg12_22_cif.got.tgz:43191.got - 2010.06.03 13:09:07.
