data_PCOD9175643
_publ_section_title
;
Structure prediction by ZEFSAII (Michael W. Deem and Ramdas Pophale) SiO2 
 PCOD9175643
Probable space group: C 2/M
;
_chemical_formula_sum "Si O2"
_cell_formula_units_Z 54
_cell_length_a 7.075724
_cell_length_b 32.701381
_cell_length_c 10.961749
_cell_angle_alpha 90.000000
_cell_angle_beta 95.320688
_cell_angle_gamma 90.000000
_cell_volume 2525.466054
_symmetry_space_group_name_H-M "C 2/M"
_symmetry_group_IT_number 12
_symmetry_cell_setting 'monoclinic'
loop_
_space_group_symop_operation_xyz
x,y,z
-x,y,-z
-x,-y,-z
x,-y,z
1/2+x,1/2+y,z
1/2-x,1/2+y,-z
1/2-x,1/2-y,-z
1/2+x,1/2-y,z
loop_
_atom_site_type_symbol
_atom_site_label
_atom_site_fract_x
_atom_site_fract_y
_atom_site_fract_z
Si Si1 0.659284 0.381917 0.789749
Si Si2 0.520599 0.784538 0.355075
Si Si3 0.097616 0.632590 0.732294
Si Si4 0.782003 0.421459 0.036614
Si Si5 0.152924 0.045098 0.616784
Si Si6 0.500000 0.083550 0.500000
Si Si7 0.000000 0.000000 0.000000
Si Si8 0.451544 0.307856 0.355509
O O1 0.681599 0.391968 0.931671
O O2 0.599937 0.422685 0.715626
O O3 0.525139 0.345542 0.734679
O O4 0.875751 0.373718 0.757299
O O5 0.500000 0.785346 0.500000
O O6 0.382775 0.818106 0.284339
O O7 0.525038 0.736751 0.321547
O O8 0.728584 0.800167 0.342919
O O9 0.115113 0.612452 0.599663
O O10 0.204487 0.604860 0.837979
O O11 0.662706 0.463334 0.035332
O O12 0.000000 0.428893 0.000000
O O13 0.354239 0.056606 0.568889
O O14 0.000000 0.045952 0.500000
O O15 0.159980 0.000000 0.672486
O O16 0.500000 0.317540 0.500000
#
# Coordination Sequence:
#
# PCOD9175643 Si02
#       8
#     8   8   8   8   8   4   2   8
#     4   9  20  38  61  81 119 159 202 243 304 363
#     4  10  18  33  55  89 121 156 204 245 301 372
#     4   9  19  38  63  84 116 162 197 244 314 353
#     4  10  23  46  65  88 123 164 203 260 297 361
#     4  10  21  36  55  84 112 151 191 243 305 351
#     4  10  19  38  58  84 116 148 194 246 297 370
#     4  12  26  44  64 100 110 158 228 232 312 360
#     4  10  19  33  55  90 120 161 202 245 309 357
#
# _framework density 21.382190999999999
#
# number of rings (size 3 to 8) (size 9 to 14) (size 15 to 20)
#    0.000    2.222    0.741    2.667    1.037    1.185 
#   20.000    0.741    0.000    0.000    0.000    0.000 
#    0.000    0.000    0.000    0.000    0.000    0.000 
#
# Total GULP energy -150457.963157 kJ/mol
# GULP energy per Si atom -5572.517154 kJ/mol
# Density = 2.133352 g / cm^3
# Si number density = 21.382191 Si / 1000 Ang^3
#
#
#
# Elastic Constant Matrix: (Units=GPa)
#
#
# Indices 1 2 3 4 5 6 
#
# 1 73.6643 46.1765 16.4866 0.0000 9.3674 0.0000
# 2 46.1765 220.5933 101.2686 0.0000 16.3967 0.0000
# 3 16.4866 101.2686 123.4954 0.0000 21.5159 0.0000
# 4 0.0000 0.0000 0.0000 34.0157 0.0000 6.2282
# 5 9.3674 16.3967 21.5159 0.0000 25.7186 0.0000
# 6 0.0000 0.0000 0.0000 6.2282 0.0000 40.7437
#
#
#
# Elastic Compliance Matrix: (Units=1/GPa)
#
#
# Indices 1 2 3 4 5 6 
#
# 1 0.016231 -0.003899 0.001905 0.000000 -0.005020 0.000000
# 2 -0.003899 0.008210 -0.006494 0.000000 0.001619 0.000000
# 3 0.001905 -0.006494 0.014712 0.000000 -0.008862 0.000000
# 4 0.000000 0.000000 0.000000 0.030245 0.000000 -0.004623
# 5 -0.005020 0.001619 -0.008862 0.000000 0.047092 0.000000
# 6 0.000000 0.000000 0.000000 -0.004623 0.000000 0.025250
#
#
# Mechanical properties :
#
#
# Convention : Reuss Voigt Hill
#
# Bulk Modulus (GPa) = 45.09058 82.84626 63.96842
# Shear Modulus (GPa) = 30.10044 37.01702 33.55873
#
# Velocity S-wave (km/s) = 3.75605 4.16529 3.96595
# Velocity P-wave (km/s) = 6.32014 7.87162 7.13816
#
# Compressibility (1/GPa) = 0.02217758
#
# Stress axis : x y z
#
# Youngs Moduli (GPa) = 61.60973 121.79663 67.96977
#
# Poissons Ratio (x) = 0.47490 -0.12948
# Poissons Ratio (y) = 0.24022 0.44141
# Poissons Ratio (z) = -0.11737 0.79097
#
# Static dielectric constant tensor:
#      x y z
#    x 1.777770 0.000000 0.041420 
#    y 0.000000 1.839820 0.000000 
#    z 0.041420 0.000000 1.766760 
# 
# From -- ./inp_files/125364.got.cif
#   From: 2010.05.17/outbox.cif.g08.bks.cpg/sg12_63_cif.got.tgz:125364.got - 2010.06.03 13:09:07.
