data_PCOD9175689
_publ_section_title
;
Structure prediction by ZEFSAII (Michael W. Deem and Ramdas Pophale) SiO2 
 PCOD9175689
Probable space group: C 2/M
;
_chemical_formula_sum "Si O2"
_cell_formula_units_Z 56
_cell_length_a 15.476397
_cell_length_b 14.530062
_cell_length_c 18.860179
_cell_angle_alpha 90.000000
_cell_angle_beta 36.327530
_cell_angle_gamma 90.000000
_cell_volume 2512.455891
_symmetry_space_group_name_H-M "C 2/M"
_symmetry_group_IT_number 12
_symmetry_cell_setting 'monoclinic'
loop_
_space_group_symop_operation_xyz
x,y,z
-x,y,-z
-x,-y,-z
x,-y,z
1/2+x,1/2+y,z
1/2-x,1/2+y,-z
1/2-x,1/2-y,-z
1/2+x,1/2-y,z
loop_
_atom_site_type_symbol
_atom_site_label
_atom_site_fract_x
_atom_site_fract_y
_atom_site_fract_z
Si Si1 0.925437 0.108965 0.781390
Si Si2 0.493588 0.894478 0.425094
Si Si3 0.027534 0.112420 0.093678
Si Si4 0.276221 0.642981 0.490928
Si Si5 0.735463 0.612240 0.835963
Si Si6 0.168237 0.891701 0.385780
Si Si7 0.657182 0.887007 0.867328
O O1 0.966591 0.148436 0.830646
O O2 0.778264 0.143817 0.843752
O O3 0.060345 0.119033 0.639460
O O4 0.902153 0.000000 0.806922
O O5 0.500000 0.853473 0.500000
O O6 0.337563 0.897560 0.490550
O O7 0.608585 0.852638 0.293512
O O8 0.543618 0.000000 0.402065
O O9 0.882904 0.137166 0.145778
O O10 0.024839 0.000000 0.097062
O O11 0.167991 0.141698 0.955264
O O12 0.250000 0.750000 0.500000
O O13 0.260559 0.617218 0.583533
O O14 0.739792 0.500000 0.838241
O O15 0.276874 0.856120 0.252415
O O16 0.000000 0.855431 0.500000
O O17 0.151870 0.000000 0.380430
O O18 0.650904 0.000000 0.869421
O O19 0.500000 0.855771 0.000000
#
# Coordination Sequence:
#
# PCOD9175689 Si02
#       7
#     8   8   8   8   8   8   8
#     4  10  18  33  56  82 112 146 189 237 291 342
#     4  10  20  35  56  82 111 142 183 239 289 330
#     4   8  14  25  48  78 109 141 173 219 281 342
#     4  12  25  37  54  83 113 157 197 234 283 346
#     4   8  14  26  45  76 110 140 176 221 278 336
#     4  10  19  37  63  87 114 152 196 245 295 346
#     4   9  18  32  57  92 118 139 183 246 304 348
#
# _framework density 22.288948000000001
#
# number of rings (size 3 to 8) (size 9 to 14) (size 15 to 20)
#    0.000    2.429    1.429    3.000    0.000    4.000 
#    0.000    4.286    0.000    3.429    0.000    0.000 
#    0.000    0.000    0.000    0.000    0.000    0.000 
#
# Total GULP energy -156270.359237 kJ/mol
# GULP energy per Si atom -5581.084258 kJ/mol
# Density = 2.223822 g / cm^3
# Si number density = 22.288948 Si / 1000 Ang^3
#
#
#
# Elastic Constant Matrix: (Units=GPa)
#
#
# Indices 1 2 3 4 5 6 
#
# 1 88.6037 -13.0188 48.9093 0.0012 9.8069 0.0081
# 2 -13.0188 43.3263 0.8944 0.0178 2.3138 0.1214
# 3 48.9093 0.8944 132.2218 0.0166 -1.6955 0.1159
# 4 0.0012 0.0178 0.0166 -549.1800 -0.0124-3635.1509
# 5 9.8069 2.3138 -1.6955 -0.0124 42.3812 -0.0848
# 6 0.0081 0.1214 0.1159-3635.1509 -0.0848**********
#
#
#
# Elastic Compliance Matrix: (Units=1/GPa)
#
#
# Indices 1 2 3 4 5 6 
#
# 1 0.015759 0.005080 -0.005917 0.000000 -0.004161 0.000000
# 2 0.005080 0.024789 -0.002080 -0.000004 -0.002612 0.000001
# 3 -0.005917 -0.002080 0.009790 -0.000003 0.001874 0.000000
# 4 0.000000 -0.000004 -0.000003 -0.383280 0.000004 0.057629
# 5 -0.004161 -0.002612 0.001874 0.000004 0.024776 -0.000001
# 6 0.000000 0.000001 0.000000 0.057629 -0.000001 -0.008706
#
#
# Mechanical properties :
#
#
# Convention : Reuss Voigt Hill
#
# Bulk Modulus (GPa) = 22.47011 37.52464 29.99737
# Shear Modulus (GPa) = -16.88040 -4921.55668 -2469.21854
#
# Velocity S-wave (km/s) = -2.75497 -47.04109 -33.32007
# Velocity P-wave (km/s) = 0.12914 54.16284 38.29902
#
# Compressibility (1/GPa) = 0.04450357
#
# Stress axis : x y z
#
# Youngs Moduli (GPa) = 63.45418 40.33974 102.14570
#
# Poissons Ratio (x) = -0.20492 0.60441
# Poissons Ratio (y) = -0.32233 0.21248
# Poissons Ratio (z) = 0.37547 0.08391
#
# Static dielectric constant tensor:
#      x y z
#    x 1.802780 0.000000 0.021170 
#    y 0.000000 1.899280 0.000000 
#    z 0.021170 0.000000 1.838720 
# 
# From -- ./inp_files/271408.got.cif
#   From: 2010.05.17/outbox.cif.g08.bks.cpg/sg12_136_cif.got.tgz:271408.got - 2010.06.03 13:09:07.
