data_PCOD9175116
_publ_section_title
;
Structure prediction by ZEFSAII (Michael W. Deem and Ramdas Pophale) SiO2 
 PCOD9175116
Probable space group: C 2/M
;
_chemical_formula_sum "Si O2"
_cell_formula_units_Z 64
_cell_length_a 18.535221
_cell_length_b 14.204190
_cell_length_c 14.910538
_cell_angle_alpha 90.000000
_cell_angle_beta 63.314421
_cell_angle_gamma 90.000000
_cell_volume 3507.474759
_symmetry_space_group_name_H-M "C 2/M"
_symmetry_group_IT_number 12
_symmetry_cell_setting 'monoclinic'
loop_
_space_group_symop_operation_xyz
x,y,z
-x,y,-z
-x,-y,-z
x,-y,z
1/2+x,1/2+y,z
1/2-x,1/2+y,-z
1/2-x,1/2-y,-z
1/2+x,1/2-y,z
loop_
_atom_site_type_symbol
_atom_site_label
_atom_site_fract_x
_atom_site_fract_y
_atom_site_fract_z
Si Si1 0.425254 0.387888 0.156548
Si Si2 0.175851 0.889311 0.441835
Si Si3 0.619767 0.106758 0.934761
Si Si4 0.097553 0.199670 0.015987
Si Si5 0.404484 0.706687 0.354899
Si Si6 0.563525 0.609399 0.336877
Si Si7 0.304771 0.393258 0.893494
Si Si8 0.139052 0.391473 0.713527
O O1 0.422026 0.500000 0.153969
O O2 0.383505 0.342316 0.092785
O O3 0.392585 0.350055 0.268695
O O4 0.518396 0.353964 0.096255
O O5 0.161580 0.824389 0.535573
O O6 0.106308 0.869794 0.407353
O O7 0.264113 0.877142 0.349197
O O8 0.168858 0.000000 0.470639
O O9 0.578787 0.190488 0.012528
O O10 0.714371 0.115125 0.907748
O O11 0.613750 0.121545 0.831289
O O12 0.593769 0.000000 0.970727
O O13 0.168902 0.178820 0.044803
O O14 0.489598 0.674337 0.349544
O O15 0.401516 0.815252 0.328127
O O16 0.535642 0.500000 0.354012
O O17 0.633312 0.616372 0.223267
O O18 0.314506 0.500000 0.924329
O O19 0.122188 0.500000 0.698813
#
# Coordination Sequence:
#
# PCOD9175116 Si02
#       8
#     8   8   8   8   8   8   8   8
#     4  11  22  34  51  78 114 141 170 216 281 346
#     4  10  20  36  60  86 114 142 179 230 280 330
#     4  10  20  36  55  76 104 145 194 233 263 315
#     4  11  20  34  51  77 106 147 179 217 274 330
#     4  12  21  34  56  88 114 142 180 226 280 327
#     4  10  19  33  56  86 115 141 176 227 284 333
#     4  10  18  32  56  78 105 144 183 224 277 332
#     4  10  21  39  57  79 111 151 190 224 268 326
#
# _framework density 18.246746000000002
#
# number of rings (size 3 to 8) (size 9 to 14) (size 15 to 20)
#    0.000    1.500    3.750    3.750    0.000    1.000 
#    0.000    1.875    0.000    1.500    0.000    0.000 
#    0.000    0.000    0.000    0.000    0.000    0.000 
#
# Total GULP energy -178767.249910 kJ/mol
# GULP energy per Si atom -5586.476560 kJ/mol
# Density = 1.820522 g / cm^3
# Si number density = 18.246746 Si / 1000 Ang^3
#
#
#
# Elastic Constant Matrix: (Units=GPa)
#
#
# Indices 1 2 3 4 5 6 
#
# 1 66.1769 30.1043 15.8352 0.0000 10.4091 0.0000
# 2 30.1043 124.6537 40.2340 0.0000 17.5562 0.0000
# 3 15.8352 40.2340 70.0929 0.0000 21.6432 0.0000
# 4 0.0000 0.0000 0.0000 25.0251 0.0000 8.1713
# 5 10.4091 17.5562 21.6432 0.0000 24.3896 0.0000
# 6 0.0000 0.0000 0.0000 8.1713 0.0000 19.7933
#
#
#
# Elastic Compliance Matrix: (Units=1/GPa)
#
#
# Indices 1 2 3 4 5 6 
#
# 1 0.017509 -0.003397 -0.000625 0.000000 -0.004473 0.000000
# 2 -0.003397 0.010652 -0.004720 0.000000 -0.002029 0.000000
# 3 -0.000625 -0.004720 0.022019 0.000000 -0.015875 0.000000
# 4 0.000000 0.000000 0.000000 0.046186 0.000000 -0.019067
# 5 -0.004473 -0.002029 -0.015875 0.000000 0.058458 0.000000
# 6 0.000000 0.000000 0.000000 -0.019067 0.000000 0.058393
#
#
# Mechanical properties :
#
#
# Convention : Reuss Voigt Hill
#
# Bulk Modulus (GPa) = 30.58391 48.14116 39.36253
# Shear Modulus (GPa) = 20.69528 25.49161 23.09345
#
# Velocity S-wave (km/s) = 3.37143 3.74177 3.56141
# Velocity P-wave (km/s) = 5.65270 6.71628 6.20731
#
# Compressibility (1/GPa) = 0.03269694
#
# Stress axis : x y z
#
# Youngs Moduli (GPa) = 57.11229 93.87955 45.41444
#
# Poissons Ratio (x) = 0.31891 0.02836
# Poissons Ratio (y) = 0.19401 0.21437
# Poissons Ratio (z) = 0.03567 0.44315
#
# Static dielectric constant tensor:
#      x y z
#    x 1.633190 0.000000 -0.014260 
#    y 0.000000 1.633270 0.000000 
#    z -0.014260 0.000000 1.629060 
# 
# From -- ./inp_files/232471.got.cif
#   From: 2010.05.17/outbox.cif.g08.bks.cpg/sg12_117_cif.got.tgz:232471.got - 2010.06.03 13:09:07.
