data_PCOD9175271
_publ_section_title
;
Structure prediction by ZEFSAII (Michael W. Deem and Ramdas Pophale) SiO2 
 PCOD9175271
Probable space group: C 2/M
;
_chemical_formula_sum "Si O2"
_cell_formula_units_Z 56
_cell_length_a 16.038302
_cell_length_b 19.262761
_cell_length_c 9.445101
_cell_angle_alpha 90.000000
_cell_angle_beta 74.402662
_cell_angle_gamma 90.000000
_cell_volume 2810.533448
_symmetry_space_group_name_H-M "C 2/M"
_symmetry_group_IT_number 12
_symmetry_cell_setting 'monoclinic'
loop_
_space_group_symop_operation_xyz
x,y,z
-x,y,-z
-x,-y,-z
x,-y,z
1/2+x,1/2+y,z
1/2-x,1/2+y,-z
1/2-x,1/2-y,-z
1/2+x,1/2-y,z
loop_
_atom_site_type_symbol
_atom_site_label
_atom_site_fract_x
_atom_site_fract_y
_atom_site_fract_z
Si Si1 0.814918 0.723163 0.590506
Si Si2 0.192156 0.669744 0.108398
Si Si3 0.028537 0.237398 0.141792
Si Si4 0.037928 0.575819 0.130907
Si Si5 0.246793 0.916743 0.180412
Si Si6 0.603887 0.142674 0.681549
Si Si7 0.425141 0.643739 0.636154
O O1 0.750000 0.750000 0.500000
O O2 0.772829 0.697466 0.757486
O O3 0.864456 0.661429 0.488238
O O4 0.880972 0.785626 0.594066
O O5 0.126637 0.730863 0.085997
O O6 0.118922 0.611728 0.164502
O O7 0.250079 0.631730 0.963442
O O8 0.031256 0.171581 0.241223
O O9 0.958943 0.293554 0.236938
O O10 0.000000 0.218724 0.000000
O O11 0.065061 0.500000 0.075402
O O12 0.960381 0.578568 0.275514
O O13 0.000000 0.608069 0.000000
O O14 0.317516 0.878280 0.249526
O O15 0.153388 0.907166 0.294133
O O16 0.263500 0.000000 0.153860
O O17 0.500000 0.617187 0.500000
#
# Coordination Sequence:
#
# PCOD9175271 Si02
#       7
#     8   8   8   8   8   8   8
#     4  11  23  39  63  92 127 154 205 272 325 363
#     4  10  21  36  60  93 124 163 201 254 314 370
#     4  10  19  35  63  98 126 154 203 262 322 377
#     4  10  18  32  57  88 129 167 198 238 293 377
#     4  12  24  41  64  90 126 171 217 251 300 380
#     4  11  19  36  61  93 124 162 203 255 313 369
#     4  11  24  41  63  90 124 167 207 266 321 365
#
# _framework density 19.925042999999999
#
# number of rings (size 3 to 8) (size 9 to 14) (size 15 to 20)
#    0.000    1.286    5.714    1.714    0.000    3.714 
#    0.000    3.571    0.000    0.429    0.000    0.000 
#    0.000    0.000    0.000    0.000    0.000    0.000 
#
# Total GULP energy -155981.187594 kJ/mol
# GULP energy per Si atom -5570.756700 kJ/mol
# Density = 1.987969 g / cm^3
# Si number density = 19.925043 Si / 1000 Ang^3
#
#
#
# Elastic Constant Matrix: (Units=GPa)
#
#
# Indices 1 2 3 4 5 6 
#
# 1 65.1923 22.5169 37.6943 0.0000 -3.8663 0.0000
# 2 22.5169 59.8875 29.4555 0.0000 -4.4100 0.0000
# 3 37.6943 29.4555 104.3427 0.0000 -8.3965 0.0000
# 4 0.0000 0.0000 0.0000 9.0746 0.0000 13.1363
# 5 -3.8663 -4.4100 -8.3965 0.0000 45.4023 0.0000
# 6 0.0000 0.0000 0.0000 13.1363 0.0000 -3.5896
#
#
#
# Elastic Compliance Matrix: (Units=1/GPa)
#
#
# Indices 1 2 3 4 5 6 
#
# 1 0.020476 -0.004709 -0.006054 0.000000 0.000167 0.000000
# 2 -0.004709 0.020508 -0.004020 0.000000 0.000848 0.000000
# 3 -0.006054 -0.004020 0.013027 0.000000 0.001503 0.000000
# 4 0.000000 0.000000 0.000000 0.017499 0.000000 0.064037
# 5 0.000167 0.000848 0.001503 0.000000 0.022400 0.000000
# 6 0.000000 0.000000 0.000000 0.064037 0.000000 -0.044237
#
#
# Mechanical properties :
#
#
# Convention : Reuss Voigt Hill
#
# Bulk Modulus (GPa) = 40.90880 45.41730 43.16305
# Shear Modulus (GPa) = 57.21658 19.49450 38.35554
#
# Velocity S-wave (km/s) = 5.36454 3.13132 4.39223
# Velocity P-wave (km/s) = 7.67769 5.99309 6.88709
#
# Compressibility (1/GPa) = 0.02444462
#
# Stress axis : x y z
#
# Youngs Moduli (GPa) = 48.83731 48.76131 76.76468
#
# Poissons Ratio (x) = 0.22960 0.46477
# Poissons Ratio (y) = 0.22996 0.30860
# Poissons Ratio (z) = 0.29568 0.19603
#
# Static dielectric constant tensor:
#      x y z
#    x 1.740710 0.000000 -0.027620 
#    y 0.000000 1.745040 0.000000 
#    z -0.027620 0.000000 1.788940 
# 
# From -- ./inp_files/65271.got.cif
#   From: 2010.05.17/outbox.cif.g08.bks.cpg/sg12_33_cif.got.tgz:65271.got - 2010.06.03 13:09:07.
