data_PCOD9175729
_publ_section_title
;
Structure prediction by ZEFSAII (Michael W. Deem and Ramdas Pophale) SiO2 
 PCOD9175729
Probable space group: C 2/M
;
_chemical_formula_sum "Si O2"
_cell_formula_units_Z 64
_cell_length_a 16.248870
_cell_length_b 19.774767
_cell_length_c 13.082426
_cell_angle_alpha 90.000000
_cell_angle_beta 44.933798
_cell_angle_gamma 90.000000
_cell_volume 2968.967513
_symmetry_space_group_name_H-M "C 2/M"
_symmetry_group_IT_number 12
_symmetry_cell_setting 'monoclinic'
loop_
_space_group_symop_operation_xyz
x,y,z
-x,y,-z
-x,-y,-z
x,-y,z
1/2+x,1/2+y,z
1/2-x,1/2+y,-z
1/2-x,1/2-y,-z
1/2+x,1/2-y,z
loop_
_atom_site_type_symbol
_atom_site_label
_atom_site_fract_x
_atom_site_fract_y
_atom_site_fract_z
Si Si1 0.568275 0.592571 0.537960
Si Si2 0.297301 0.926398 0.437708
Si Si3 0.934569 0.746522 0.457673
Si Si4 0.733725 0.189337 0.935402
Si Si5 0.093522 0.074470 0.130677
Si Si6 0.475386 0.811748 0.210002
Si Si7 0.137676 0.920220 0.784073
Si Si8 0.202446 0.774531 0.761497
O O1 0.500000 0.569830 0.500000
O O2 0.700995 0.572154 0.433143
O O3 0.566263 0.673289 0.539678
O O4 0.496397 0.568710 0.697324
O O5 0.390231 0.871518 0.320972
O O6 0.220101 0.915027 0.608935
O O7 0.353124 0.000000 0.400580
O O8 0.994978 0.726381 0.299946
O O9 0.800948 0.724606 0.586777
O O10 0.000000 0.718883 0.500000
O O11 0.815932 0.129932 0.907038
O O12 0.750039 0.225020 0.809664
O O13 0.750000 0.250000 0.000000
O O14 0.598925 0.166168 0.056852
O O15 0.999377 0.090190 0.123760
O O16 0.146340 0.000000 0.064352
O O17 0.410044 0.761096 0.189767
O O18 0.177627 0.853149 0.812205
O O19 0.149812 0.000000 0.806905
#
# Coordination Sequence:
#
# PCOD9175729 Si02
#       8
#     8   8   8   8   8   8   8   8
#     4  10  18  33  56  92 123 156 207 257 309 369
#     4  10  20  35  58  93 131 167 204 262 328 383
#     4  11  21  36  64  95 125 161 210 265 324 382
#     4  12  26  44  62  90 132 177 224 270 326 399
#     4  10  22  40  62  89 127 173 216 266 325 386
#     4  12  23  39  61  94 129 168 215 265 324 389
#     4   9  19  39  69 100 128 161 216 280 334 384
#     4  12  22  40  66  96 131 170 219 272 329 388
#
# _framework density 21.556315999999999
#
# number of rings (size 3 to 8) (size 9 to 14) (size 15 to 20)
#    0.000    1.250    2.500    7.125    0.000    1.500 
#    0.000    0.625    0.000    7.500    0.000    0.000 
#    0.000    0.000    0.000    0.000    0.000    0.000 
#
# Total GULP energy -178572.519106 kJ/mol
# GULP energy per Si atom -5580.391222 kJ/mol
# Density = 2.150725 g / cm^3
# Si number density = 21.556316 Si / 1000 Ang^3
#
#
#
# Elastic Constant Matrix: (Units=GPa)
#
#
# Indices 1 2 3 4 5 6 
#
# 1 64.2621 33.9213 6.9063 0.0000 -2.1847 0.0000
# 2 33.9213 167.1310 29.4588 0.0000 -18.0202 0.0000
# 3 6.9063 29.4588 78.5571 0.0000 -15.2804 0.0000
# 4 0.0000 0.0000 0.0000 33.6870 0.0000 6.9525
# 5 -2.1847 -18.0202 -15.2804 0.0000 40.6461 0.0000
# 6 0.0000 0.0000 0.0000 6.9525 0.0000 -0.1355
#
#
#
# Elastic Compliance Matrix: (Units=1/GPa)
#
#
# Indices 1 2 3 4 5 6 
#
# 1 0.017454 -0.003564 -0.000348 0.000000 -0.000773 0.000000
# 2 -0.003564 0.007304 -0.001978 0.000000 0.002303 0.000000
# 3 -0.000348 -0.001978 0.014379 0.000000 0.004510 0.000000
# 4 0.000000 0.000000 0.000000 0.002562 0.000000 0.131421
# 5 -0.000773 0.002303 0.004510 0.000000 0.027278 0.000000
# 6 0.000000 0.000000 0.000000 0.131421 0.000000 -0.636770
#
#
# Mechanical properties :
#
#
# Convention : Reuss Voigt Hill
#
# Bulk Modulus (GPa) = 36.55455 50.05811 43.30633
# Shear Modulus (GPa) = -9.14253 30.81710 10.83729
#
# Velocity S-wave (km/s) = -2.06166 3.78512 2.24463
# Velocity P-wave (km/s) = 3.36560 6.50963 5.18182
#
# Compressibility (1/GPa) = 0.02735637
#
# Stress axis : x y z
#
# Youngs Moduli (GPa) = 57.29366 136.91766 69.54554
#
# Poissons Ratio (x) = 0.48804 0.02421
# Poissons Ratio (y) = 0.20422 0.13753
# Poissons Ratio (z) = 0.01995 0.27076
#
# Static dielectric constant tensor:
#      x y z
#    x 1.868890 0.000000 0.033810 
#    y 0.000000 1.847460 0.000000 
#    z 0.033810 0.000000 1.797900 
# 
# From -- ./inp_files/226847.got.cif
#   From: 2010.05.17/outbox.cif.g08.bks.cpg/sg12_114_cif.got.tgz:226847.got - 2010.06.03 13:09:07.
