data_PCOD9175403
_publ_section_title
;
Structure prediction by ZEFSAII (Michael W. Deem and Ramdas Pophale) SiO2 
 PCOD9175403
Probable space group: C 2/M
;
_chemical_formula_sum "Si O2"
_cell_formula_units_Z 64
_cell_length_a 13.884317
_cell_length_b 26.749078
_cell_length_c 17.898602
_cell_angle_alpha 90.000000
_cell_angle_beta 33.003608
_cell_angle_gamma 90.000000
_cell_volume 3620.789882
_symmetry_space_group_name_H-M "C 2/M"
_symmetry_group_IT_number 12
_symmetry_cell_setting 'monoclinic'
loop_
_space_group_symop_operation_xyz
x,y,z
-x,y,-z
-x,-y,-z
x,-y,z
1/2+x,1/2+y,z
1/2-x,1/2+y,-z
1/2-x,1/2-y,-z
1/2+x,1/2-y,z
loop_
_atom_site_type_symbol
_atom_site_label
_atom_site_fract_x
_atom_site_fract_y
_atom_site_fract_z
Si Si1 0.405655 0.690469 0.696373
Si Si2 0.292953 0.249351 0.559931
Si Si3 0.294741 0.942747 0.651703
Si Si4 0.812541 0.244317 0.045709
Si Si5 0.210735 0.056793 0.872093
Si Si6 0.086190 0.313371 0.811760
Si Si7 0.395563 0.646513 0.301508
Si Si8 0.737921 0.358204 0.970516
O O1 0.509416 0.727847 0.573036
O O2 0.316683 0.724798 0.817921
O O3 0.247822 0.664116 0.753677
O O4 0.533971 0.653892 0.659383
O O5 0.250000 0.250000 0.500000
O O6 0.168425 0.287875 0.685085
O O7 0.236457 0.194125 0.625423
O O8 0.500000 0.944852 0.500000
O O9 0.277314 0.924138 0.748469
O O10 0.201124 0.904741 0.656255
O O11 0.222484 0.000000 0.695969
O O12 0.795897 0.185585 0.068669
O O13 0.750000 0.250000 0.000000
O O14 0.005440 0.268679 0.915398
O O15 0.252366 0.090870 0.915698
O O16 0.275916 0.000000 0.839644
O O17 0.000000 0.055699 0.000000
O O18 0.919543 0.347151 0.897286
O O19 0.569384 0.646143 0.135165
#
# Coordination Sequence:
#
# PCOD9175403 Si02
#       8
#     8   8   8   8   8   8   8   8
#     4  11  22  35  54  80 115 155 182 231 275 330
#     4  10  21  36  51  76 114 150 186 233 271 320
#     4  10  23  41  60  84 113 142 183 239 295 345
#     4  10  18  33  49  73 107 143 190 224 258 318
#     4  10  21  37  58  85 110 140 185 237 293 339
#     4  11  21  35  53  78 113 150 189 222 272 331
#     4  11  20  36  56  80 110 147 188 227 279 333
#     4  11  20  34  57  81 109 146 191 229 270 338
#
# _framework density 17.675701
#
# number of rings (size 3 to 8) (size 9 to 14) (size 15 to 20)
#    0.000    1.500    5.000    3.000    0.000    6.000 
#    0.000    0.000    0.000    0.750    0.000    1.750 
#    0.000    8.000    0.000    0.000    0.000    0.000 
#
# Total GULP energy -178321.375767 kJ/mol
# GULP energy per Si atom -5572.542993 kJ/mol
# Density = 1.763547 g / cm^3
# Si number density = 17.675701 Si / 1000 Ang^3
#
#
#
# Elastic Constant Matrix: (Units=GPa)
#
#
# Indices 1 2 3 4 5 6 
#
# 1 89.5320 48.7531 27.9697 -0.0011 -4.5680 0.0014
# 2 48.7531 81.0295 17.2214 -0.0012 -3.3290 0.0013
# 3 27.9697 17.2214 106.0494 -0.0067 8.4220 0.0048
# 4 -0.0011 -0.0012 -0.0067 29.4984 0.0007 -8.1453
# 5 -4.5680 -3.3290 8.4220 0.0007 34.1775 -0.0020
# 6 0.0014 0.0013 0.0048 -8.1453 -0.0020 38.9576
#
#
#
# Elastic Compliance Matrix: (Units=1/GPa)
#
#
# Indices 1 2 3 4 5 6 
#
# 1 0.017650 -0.009843 -0.003231 -0.000001 0.002197 0.000000
# 2 -0.009843 0.018380 -0.000435 0.000000 0.000582 0.000000
# 3 -0.003231 -0.000435 0.010597 0.000002 -0.003086 -0.000001
# 4 -0.000001 0.000000 0.000002 0.035977 -0.000001 0.007522
# 5 0.002197 0.000582 -0.003086 -0.000001 0.030370 0.000002
# 6 0.000000 0.000000 -0.000001 0.007522 0.000002 0.027242
#
#
# Mechanical properties :
#
#
# Convention : Reuss Voigt Hill
#
# Bulk Modulus (GPa) = 50.99530 51.61103 51.30316
# Shear Modulus (GPa) = 28.77361 32.70447 30.73904
#
# Velocity S-wave (km/s) = 4.03906 4.30612 4.17472
# Velocity P-wave (km/s) = 7.11794 7.34750 7.23363
#
# Compressibility (1/GPa) = 0.01960965
#
# Stress axis : x y z
#
# Youngs Moduli (GPa) = 56.65603 54.40812 94.36218
#
# Poissons Ratio (x) = 0.53552 0.30491
# Poissons Ratio (y) = 0.55765 0.04104
# Poissons Ratio (z) = 0.18307 0.02366
#
# Static dielectric constant tensor:
#      x y z
#    x 1.667560 0.000000 -0.016900 
#    y 0.000000 1.633570 0.000000 
#    z -0.016900 0.000000 1.695940 
# 
# From -- ./inp_files/272819.got.cif
#   From: 2010.05.17/outbox.cif.g08.bks.cpg/sg12_137_cif.got.tgz:272819.got - 2010.06.03 13:09:07.
