data_PCOD9175297
_publ_section_title
;
Structure prediction by ZEFSAII (Michael W. Deem and Ramdas Pophale) SiO2 
 PCOD9175297
Probable space group: C 2/M
;
_chemical_formula_sum "Si O2"
_cell_formula_units_Z 36
_cell_length_a 7.522241
_cell_length_b 25.775333
_cell_length_c 8.295470
_cell_angle_alpha 90.000000
_cell_angle_beta 84.782279
_cell_angle_gamma 90.000000
_cell_volume 1601.729627
_symmetry_space_group_name_H-M "C 2/M"
_symmetry_group_IT_number 12
_symmetry_cell_setting 'monoclinic'
loop_
_space_group_symop_operation_xyz
x,y,z
-x,y,-z
-x,-y,-z
x,-y,z
1/2+x,1/2+y,z
1/2-x,1/2+y,-z
1/2-x,1/2-y,-z
1/2+x,1/2-y,z
loop_
_atom_site_type_symbol
_atom_site_label
_atom_site_fract_x
_atom_site_fract_y
_atom_site_fract_z
Si Si1 0.547121 0.000000 0.812547
Si Si2 0.275695 0.410550 0.615278
Si Si3 0.461853 0.335234 0.822831
Si Si4 0.906963 0.271370 0.184103
Si Si5 0.210144 0.500000 0.415221
Si Si6 0.500000 0.828142 0.500000
O O1 0.656549 0.052027 0.745952
O O2 0.344495 0.000000 0.761197
O O3 0.500000 0.000000 0.000000
O O4 0.427904 0.381156 0.701211
O O5 0.311952 0.451136 0.471948
O O6 0.160549 0.366830 0.532961
O O7 0.277944 0.301889 0.824840
O O8 0.607135 0.290289 0.781047
O O9 0.500000 0.354786 0.000000
O O10 0.003860 0.294198 0.335574
O O11 0.000000 0.276488 0.000000
O O12 0.000000 0.500000 0.500000
#
# Coordination Sequence:
#
# PCOD9175297 Si02
#       6
#     4   8   8   8   4   4
#     4  10  18  32  58  85 110 140 185 238 292 340
#     4   9  17  32  52  78 109 141 182 230 285 334
#     4  10  20  36  56  81 118 155 194 234 283 335
#     4  10  21  35  55  79 116 154 196 237 279 327
#     4   8  14  32  50  73 108 131 176 226 282 338
#     4  10  18  33  56  84 114 149 192 230 284 338
#
# _framework density 22.475701999999998
#
# number of rings (size 3 to 8) (size 9 to 14) (size 15 to 20)
#    0.000    2.667    3.333    2.667    0.000    7.111 
#    0.000    2.222    0.000    0.000    0.000    1.556 
#    0.000    0.000    0.000    0.000    0.000    0.000 
#
# Total GULP energy -100233.622558 kJ/mol
# GULP energy per Si atom -5568.534587 kJ/mol
# Density = 2.242455 g / cm^3
# Si number density = 22.475702 Si / 1000 Ang^3
#
#
#
# Elastic Constant Matrix: (Units=GPa)
#
#
# Indices 1 2 3 4 5 6 
#
# 1 81.8504 27.0117 47.6037 0.0000 15.0648 0.0000
# 2 27.0117 136.6503 90.5061 0.0000 11.6350 0.0000
# 3 47.6037 90.5061 222.2611 0.0000 44.0522 0.0000
# 4 0.0000 0.0000 0.0000 23.4407 0.0000 8.7310
# 5 15.0648 11.6350 44.0522 0.0000 30.8078 0.0000
# 6 0.0000 0.0000 0.0000 8.7310 0.0000 27.9851
#
#
#
# Elastic Compliance Matrix: (Units=1/GPa)
#
#
# Indices 1 2 3 4 5 6 
#
# 1 0.014420 -0.001359 -0.001729 0.000000 -0.004065 0.000000
# 2 -0.001359 0.010333 -0.004570 0.000000 0.003297 0.000000
# 3 -0.001729 -0.004570 0.008681 0.000000 -0.009842 0.000000
# 4 0.000000 0.000000 0.000000 0.048270 0.000000 -0.015060
# 5 -0.004065 0.003297 -0.009842 0.000000 0.047275 0.000000
# 6 0.000000 0.000000 0.000000 -0.015060 0.000000 0.040432
#
#
# Mechanical properties :
#
#
# Convention : Reuss Voigt Hill
#
# Bulk Modulus (GPa) = 55.19566 85.66719 70.43142
# Shear Modulus (GPa) = 26.21024 34.82274 30.51649
#
# Velocity S-wave (km/s) = 3.41861 3.94045 3.68877
# Velocity P-wave (km/s) = 6.33986 7.67470 7.03899
#
# Compressibility (1/GPa) = 0.01811737
#
# Stress axis : x y z
#
# Youngs Moduli (GPa) = 69.34879 96.78151 115.19298
#
# Poissons Ratio (x) = 0.13151 0.19921
# Poissons Ratio (y) = 0.09423 0.52641
# Poissons Ratio (z) = 0.11993 0.44228
#
# Static dielectric constant tensor:
#      x y z
#    x 1.961290 0.000000 -0.004470 
#    y 0.000000 1.845900 0.000000 
#    z -0.004470 0.000000 1.929230 
# 
# From -- ./inp_files/40616.got.cif
#   From: 2010.05.17/outbox.cif.g08.bks.cpg/sg12_21_cif.got.tgz:40616.got - 2010.06.03 13:09:07.
