data_PCOD9175285
_publ_section_title
;
Structure prediction by ZEFSAII (Michael W. Deem and Ramdas Pophale) SiO2 
 PCOD9175285
Probable space group: C 2/M
;
_chemical_formula_sum "Si O2"
_cell_formula_units_Z 56
_cell_length_a 20.990035
_cell_length_b 18.643194
_cell_length_c 18.188806
_cell_angle_alpha 90.000000
_cell_angle_beta 156.633169
_cell_angle_gamma 90.000000
_cell_volume 2822.984420
_symmetry_space_group_name_H-M "C 2/M"
_symmetry_group_IT_number 12
_symmetry_cell_setting 'monoclinic'
loop_
_space_group_symop_operation_xyz
x,y,z
-x,y,-z
-x,-y,-z
x,-y,z
1/2+x,1/2+y,z
1/2-x,1/2+y,-z
1/2-x,1/2-y,-z
1/2+x,1/2-y,z
loop_
_atom_site_type_symbol
_atom_site_label
_atom_site_fract_x
_atom_site_fract_y
_atom_site_fract_z
Si Si1 0.940761 0.712539 0.765618
Si Si2 0.162399 0.293871 0.560108
Si Si3 0.833690 0.727392 0.864983
Si Si4 0.678314 0.084375 0.457274
Si Si5 0.407246 0.722539 0.205571
Si Si6 0.533168 0.422570 0.343610
Si Si7 0.178274 0.921056 0.654678
O O1 0.791254 0.740443 0.655856
O O2 0.918225 0.633965 0.704720
O O3 0.956899 0.763990 0.712778
O O4 0.104230 0.723728 0.985654
O O5 0.211567 0.283888 0.697542
O O6 0.174002 0.369937 0.529140
O O7 0.983651 0.263311 0.355708
O O8 0.774430 0.647493 0.783114
O O9 0.000000 0.742747 0.000000
O O10 0.858050 0.082690 0.613758
O O11 0.628235 0.000000 0.410198
O O12 0.404174 0.638908 0.216099
O O13 0.250000 0.750000 0.000000
O O14 0.454769 0.500000 0.263498
O O15 0.652591 0.417388 0.539786
O O16 0.000000 0.917520 0.500000
O O17 0.246641 0.000000 0.745351
#
# Coordination Sequence:
#
# PCOD9175285 Si02
#       7
#     8   8   8   8   8   8   8
#     4  10  19  33  52  79 108 137 176 225 263 317
#     4  10  18  37  52  74 111 137 182 223 262 320
#     4  10  20  32  54  76 106 148 172 217 266 318
#     4  10  18  32  58  81 105 144 180 223 274 316
#     4  11  20  32  52  78 101 139 179 223 263 312
#     4  10  18  33  54  75 102 139 176 213 266 322
#     4  10  21  34  49  72 109 146 174 210 260 321
#
# _framework density 19.837161999999999
#
# number of rings (size 3 to 8) (size 9 to 14) (size 15 to 20)
#    0.000    1.857    4.286    1.714    2.000    0.857 
#    0.000    2.857    0.000    4.714    0.000    0.000 
#    0.000    6.286    0.000    0.000    0.000    0.000 
#
# Total GULP energy -155932.965432 kJ/mol
# GULP energy per Si atom -5569.034480 kJ/mol
# Density = 1.979201 g / cm^3
# Si number density = 19.837162 Si / 1000 Ang^3
#
#
#
# Elastic Constant Matrix: (Units=GPa)
#
#
# Indices 1 2 3 4 5 6 
#
# 1 48.7950 18.9586 14.5291 0.0009 -17.5591 0.0000
# 2 18.9586 137.0453 37.5229 -0.0014 -20.0364 -0.0008
# 3 14.5291 37.5229 120.8401 0.0005 -23.4914 0.0008
# 4 0.0009 -0.0014 0.0005 26.9427 0.0021 2.5223
# 5 -17.5591 -20.0364 -23.4914 0.0021 26.7595 0.0011
# 6 0.0000 -0.0008 0.0008 2.5223 0.0011 -0.1033
#
#
#
# Elastic Compliance Matrix: (Units=1/GPa)
#
#
# Indices 1 2 3 4 5 6 
#
# 1 0.027055 -0.001372 0.000512 -0.000007 0.017175 0.000046
# 2 -0.001372 0.008539 -0.001710 0.000001 0.003992 -0.000008
# 3 0.000512 -0.001710 0.010323 -0.000006 0.008118 0.000049
# 4 -0.000007 0.000001 -0.000006 0.011293 -0.000021 0.275835
# 5 0.017175 0.003992 0.008118 -0.000021 0.058755 0.000169
# 6 0.000046 -0.000008 0.000049 0.275835 0.000169 -2.946440
#
#
# Mechanical properties :
#
#
# Convention : Reuss Voigt Hill
#
# Bulk Modulus (GPa) = 24.52423 49.85572 37.18997
# Shear Modulus (GPa) = -1.77826 26.43111 12.32643
#
# Velocity S-wave (km/s) = -0.94783 3.65417 2.49545
# Velocity P-wave (km/s) = 3.34541 6.55675 5.20494
#
# Compressibility (1/GPa) = 0.04077600
#
# Stress axis : x y z
#
# Youngs Moduli (GPa) = 36.96158 117.11613 96.87084
#
# Poissons Ratio (x) = 0.16066 -0.04959
# Poissons Ratio (y) = 0.05071 0.16569
# Poissons Ratio (z) = -0.01892 0.20032
#
# Static dielectric constant tensor:
#      x y z
#    x 1.780140 0.000000 -0.014570 
#    y 0.000000 1.706790 0.000000 
#    z -0.014570 0.000000 1.735570 
# 
# From -- ./inp_files/326046.got.cif
#   From: 2010.05.17/outbox.cif.g08.bks.cpg/sg12_164_cif.got.tgz:326046.got - 2010.06.03 13:09:07.
