data_PCOD9175124
_publ_section_title
;
Structure prediction by ZEFSAII (Michael W. Deem and Ramdas Pophale) SiO2 
 PCOD9175124
Probable space group: C 2/M
;
_chemical_formula_sum "Si O2"
_cell_formula_units_Z 48
_cell_length_a 25.509719
_cell_length_b 18.154446
_cell_length_c 12.517977
_cell_angle_alpha 90.000000
_cell_angle_beta 152.253623
_cell_angle_gamma 90.000000
_cell_volume 2698.964297
_symmetry_space_group_name_H-M "C 2/M"
_symmetry_group_IT_number 12
_symmetry_cell_setting 'monoclinic'
loop_
_space_group_symop_operation_xyz
x,y,z
-x,y,-z
-x,-y,-z
x,-y,z
1/2+x,1/2+y,z
1/2-x,1/2+y,-z
1/2-x,1/2-y,-z
1/2+x,1/2-y,z
loop_
_atom_site_type_symbol
_atom_site_label
_atom_site_fract_x
_atom_site_fract_y
_atom_site_fract_z
Si Si1 0.729035 0.696759 0.796351
Si Si2 0.292870 0.414142 0.899578
Si Si3 0.446121 0.411661 0.622036
Si Si4 0.402823 0.689817 0.739285
Si Si5 0.273583 0.800646 0.396672
Si Si6 0.369987 0.833121 0.247526
O O1 0.642218 0.631106 0.613009
O O2 0.770033 0.734570 0.759868
O O3 0.661480 0.759132 0.742138
O O4 0.833698 0.676527 0.059658
O O5 0.295749 0.500000 0.881598
O O6 0.240679 0.370429 0.705095
O O7 0.212471 0.394467 0.852552
O O8 0.422049 0.391450 0.158637
O O9 0.434412 0.500000 0.593902
O O10 0.420527 0.379144 0.693574
O O11 0.390434 0.763640 0.645112
O O12 0.292950 0.682805 0.615063
O O13 0.500000 0.696262 0.000000
O O14 0.500000 0.849702 0.500000
#
# Coordination Sequence:
#
# PCOD9175124 Si02
#       6
#     8   8   8   8   8   8
#     4   9  21  36  56  81 112 139 187 232 272 323
#     4  10  21  36  54  81 114 145 183 226 278 331
#     4  10  21  35  55  84 116 146 176 226 285 329
#     4  10  18  32  56  79 110 139 183 222 268 331
#     4   9  19  33  52  81 105 144 177 225 271 318
#     4  10  22  36  58  80 104 149 189 229 271 322
#
# _framework density 17.784600999999999
#
# number of rings (size 3 to 8) (size 9 to 14) (size 15 to 20)
#    0.000    2.333    1.667    0.000    7.000    3.333 
#    0.000    1.667    0.000    0.500    0.000    0.000 
#    0.000    0.000    0.000    0.000    0.000    0.000 
#
# Total GULP energy -133628.585393 kJ/mol
# GULP energy per Si atom -5567.857725 kJ/mol
# Density = 1.774412 g / cm^3
# Si number density = 17.784601 Si / 1000 Ang^3
#
#
#
# Elastic Constant Matrix: (Units=GPa)
#
#
# Indices 1 2 3 4 5 6 
#
# 1 57.9334 5.6617 31.0013 0.0000 1.8864 0.0000
# 2 5.6617 70.8870 36.4178 0.0000 -2.3601 0.0000
# 3 31.0013 36.4178 88.9696 0.0000 -22.0880 0.0000
# 4 0.0000 0.0000 0.0000 20.7399 0.0000 3.1513
# 5 1.8864 -2.3601 -22.0880 0.0000 25.0370 0.0000
# 6 0.0000 0.0000 0.0000 3.1513 0.0000 8.2031
#
#
#
# Elastic Compliance Matrix: (Units=1/GPa)
#
#
# Indices 1 2 3 4 5 6 
#
# 1 0.024717 0.004742 -0.013963 0.000000 -0.013734 0.000000
# 2 0.004742 0.019533 -0.011882 0.000000 -0.008998 0.000000
# 3 -0.013963 -0.011882 0.026828 0.000000 0.023600 0.000000
# 4 0.000000 0.000000 0.000000 0.051205 0.000000 -0.019671
# 5 -0.013734 -0.008998 0.023600 0.000000 0.060948 0.000000
# 6 0.000000 0.000000 0.000000 -0.019671 0.000000 0.129462
#
#
# Mechanical properties :
#
#
# Convention : Reuss Voigt Hill
#
# Bulk Modulus (GPa) = 34.63569 40.43906 37.53737
# Shear Modulus (GPa) = 13.71659 20.44329 17.07994
#
# Velocity S-wave (km/s) = 2.78017 3.39410 3.10236
# Velocity P-wave (km/s) = 5.46106 6.17636 5.82969
#
# Compressibility (1/GPa) = 0.02887196
#
# Stress axis : x y z
#
# Youngs Moduli (GPa) = 40.45798 51.19594 37.27462
#
# Poissons Ratio (x) = -0.24278 0.52048
# Poissons Ratio (y) = -0.19186 0.44289
# Poissons Ratio (z) = 0.56493 0.60830
#
# Static dielectric constant tensor:
#      x y z
#    x 1.652440 0.000000 0.016330 
#    y 0.000000 1.609330 0.000000 
#    z 0.016330 0.000000 1.648000 
# 
# From -- ./inp_files/131208.got.cif
#   From: 2010.05.17/outbox.cif.g08.bks.cpg/sg12_66_cif.got.tgz:131208.got - 2010.06.03 13:09:07.
