data_PCOD9175444
_publ_section_title
;
Structure prediction by ZEFSAII (Michael W. Deem and Ramdas Pophale) SiO2 
 PCOD9175444
Probable space group: C 2/M
;
_chemical_formula_sum "Si O2"
_cell_formula_units_Z 56
_cell_length_a 20.001732
_cell_length_b 17.936987
_cell_length_c 15.294853
_cell_angle_alpha 90.000000
_cell_angle_beta 146.942237
_cell_angle_gamma 90.000000
_cell_volume 2993.261324
_symmetry_space_group_name_H-M "C 2/M"
_symmetry_group_IT_number 12
_symmetry_cell_setting 'monoclinic'
loop_
_space_group_symop_operation_xyz
x,y,z
-x,y,-z
-x,-y,-z
x,-y,z
1/2+x,1/2+y,z
1/2-x,1/2+y,-z
1/2-x,1/2-y,-z
1/2+x,1/2-y,z
loop_
_atom_site_type_symbol
_atom_site_label
_atom_site_fract_x
_atom_site_fract_y
_atom_site_fract_z
Si Si1 0.582143 0.082899 0.222415
Si Si2 0.529041 0.300240 0.803268
Si Si3 0.156021 0.917623 0.395872
Si Si4 0.395771 0.764525 0.822309
Si Si5 0.773758 0.086792 0.894768
Si Si6 0.719818 0.859624 0.640678
Si Si7 0.541387 0.855615 0.742341
O O1 0.713874 0.082029 0.414243
O O2 0.599857 0.146735 0.170155
O O3 0.487590 0.107710 0.194896
O O4 0.553527 0.000000 0.159955
O O5 0.435033 0.359290 0.659254
O O6 0.441618 0.257302 0.776426
O O7 0.574553 0.232175 0.793276
O O8 0.628307 0.351965 0.961908
O O9 0.189744 0.896016 0.332772
O O10 0.102529 0.000000 0.339072
O O11 0.267511 0.725501 0.700026
O O12 0.500000 0.732969 0.000000
O O13 0.740576 0.102799 0.756989
O O14 0.650982 0.101878 0.815518
O O15 0.812509 0.000000 0.946088
O O16 0.582746 0.862082 0.451866
#
# Coordination Sequence:
#
# PCOD9175444 Si02
#       7
#     8   8   8   8   8   8   8
#     4   9  18  32  52  76  99 130 170 213 255 295
#     4  10  20  35  52  75 102 139 172 210 251 302
#     4   9  17  31  52  77 104 130 164 208 256 306
#     4  10  18  33  52  73 102 129 167 215 258 301
#     4  12  23  34  52  79 110 138 168 210 260 308
#     4  10  20  34  52  78 104 139 168 206 254 309
#     4  10  21  36  53  71 104 141 180 203 241 307
#
# _framework density 18.708690000000001
#
# number of rings (size 3 to 8) (size 9 to 14) (size 15 to 20)
#    0.000    2.000    1.429    3.000    0.000    6.000 
#    0.000    2.143    0.000    0.000    0.000    0.000 
#    0.000    6.857    0.000    0.000    0.000    0.000 
#
# Total GULP energy -156002.293778 kJ/mol
# GULP energy per Si atom -5571.510492 kJ/mol
# Density = 1.866611 g / cm^3
# Si number density = 18.708690 Si / 1000 Ang^3
#
#
#
# Elastic Constant Matrix: (Units=GPa)
#
#
# Indices 1 2 3 4 5 6 
#
# 1 15.9305 5.8152 -4.7534 0.0000 3.0071 0.0000
# 2 5.8152 124.6770 13.2289 0.0000 3.5920 0.0000
# 3 -4.7534 13.2289 33.2111 0.0000 1.1123 0.0000
# 4 0.0000 0.0000 0.0000 0.3006 0.0000 -12.4971
# 5 3.0071 3.5920 1.1123 0.0000 19.0769 0.0000
# 6 0.0000 0.0000 0.0000 -12.4971 0.0000 12.0772
#
#
#
# Elastic Compliance Matrix: (Units=1/GPa)
#
#
# Indices 1 2 3 4 5 6 
#
# 1 0.069982 -0.004229 0.012067 0.000000 -0.010939 0.000000
# 2 -0.004229 0.008667 -0.004033 0.000000 -0.000730 0.000000
# 3 0.012067 -0.004033 0.033548 0.000000 -0.003099 0.000000
# 4 0.000000 0.000000 0.000000 -0.079170 0.000000 -0.081923
# 5 -0.010939 -0.000730 -0.003099 0.000000 0.054462 0.000000
# 6 0.000000 0.000000 0.000000 -0.081923 0.000000 -0.001971
#
#
# Mechanical properties :
#
#
# Convention : Reuss Voigt Hill
#
# Bulk Modulus (GPa) = 8.34678 22.48888 15.41783
# Shear Modulus (GPa) = 42.42875 16.92613 29.67744
#
# Velocity S-wave (km/s) = 4.76738 3.01112 3.98715
# Velocity P-wave (km/s) = 5.89703 4.91282 5.42728
#
# Compressibility (1/GPa) = 0.11980666
#
# Stress axis : x y z
#
# Youngs Moduli (GPa) = 14.28933 115.38061 29.80819
#
# Poissons Ratio (x) = 0.48799 -0.35971
# Poissons Ratio (y) = 0.06044 0.12022
# Poissons Ratio (z) = -0.17243 0.46535
#
# Static dielectric constant tensor:
#      x y z
#    x 1.642910 0.000000 -0.014820 
#    y 0.000000 1.720890 0.000000 
#    z -0.014820 0.000000 1.666370 
# 
# From -- ./inp_files/157718.got.cif
#   From: 2010.05.17/outbox.cif.g08.bks.cpg/sg12_79_cif.got.tgz:157718.got - 2010.06.03 13:09:07.
