data_PCOD9175379
_publ_section_title
;
Structure prediction by ZEFSAII (Michael W. Deem and Ramdas Pophale) SiO2 
 PCOD9175379
Probable space group: C 2/M
;
_chemical_formula_sum "Si O2"
_cell_formula_units_Z 60
_cell_length_a 18.314922
_cell_length_b 17.738751
_cell_length_c 12.281114
_cell_angle_alpha 90.000000
_cell_angle_beta 60.347906
_cell_angle_gamma 90.000000
_cell_volume 3467.435370
_symmetry_space_group_name_H-M "C 2/M"
_symmetry_group_IT_number 12
_symmetry_cell_setting 'monoclinic'
loop_
_space_group_symop_operation_xyz
x,y,z
-x,y,-z
-x,-y,-z
x,-y,z
1/2+x,1/2+y,z
1/2-x,1/2+y,-z
1/2-x,1/2-y,-z
1/2+x,1/2-y,z
loop_
_atom_site_type_symbol
_atom_site_label
_atom_site_fract_x
_atom_site_fract_y
_atom_site_fract_z
Si Si1 0.500000 0.698891 0.500000
Si Si2 0.998454 0.585934 0.632603
Si Si3 0.663152 0.341372 0.265175
Si Si4 0.093476 0.208910 0.978730
Si Si5 0.371287 0.801198 0.458466
Si Si6 0.717634 0.249079 0.692904
Si Si7 0.197126 0.087290 0.021947
Si Si8 0.861060 0.311932 0.853609
O O1 0.429218 0.652065 0.615463
O O2 0.445296 0.751323 0.458859
O O3 0.984588 0.500000 0.675410
O O4 0.929064 0.639147 0.738464
O O5 0.000000 0.589910 0.500000
O O6 0.088686 0.618848 0.598672
O O7 0.734012 0.326898 0.303841
O O8 0.662891 0.261421 0.199729
O O9 0.683214 0.403821 0.161653
O O10 0.158891 0.222586 0.832622
O O11 0.121539 0.131974 0.018241
O O12 0.104382 0.276215 0.059259
O O13 0.000000 0.206537 0.000000
O O14 0.337261 0.763932 0.373978
O O15 0.294345 0.803453 0.600259
O O16 0.280417 0.135858 0.933702
O O17 0.203936 0.000000 0.985579
#
# Coordination Sequence:
#
# PCOD9175379 Si02
#       8
#     4   8   8   8   8   8   8   8
#     4  10  18  32  62  84 106 140 190 244 272 326
#     4  11  21  33  54  84 118 146 176 231 290 342
#     4  10  18  36  58  84 107 142 193 234 273 327
#     4  11  22  36  61  85 114 145 194 244 282 328
#     4  10  19  33  55  83 112 141 184 234 281 335
#     4  10  19  34  57  82 108 141 189 238 278 323
#     4  11  23  38  57  83 118 155 188 231 287 343
#     4  11  19  38  58  84 113 148 194 231 276 344
#
# _framework density 17.303854999999999
#
# number of rings (size 3 to 8) (size 9 to 14) (size 15 to 20)
#    0.000    1.467    4.667    2.800    1.867    0.267 
#    0.000    1.000    0.000    1.600    0.000    0.000 
#    0.000    0.000    0.000    0.000    0.000    0.000 
#
# Total GULP energy -167333.170920 kJ/mol
# GULP energy per Si atom -5577.772364 kJ/mol
# Density = 1.726447 g / cm^3
# Si number density = 17.303855 Si / 1000 Ang^3
#
#
#
# Elastic Constant Matrix: (Units=GPa)
#
#
# Indices 1 2 3 4 5 6 
#
# 1 119.7912 24.6550 29.3034 0.0000 -0.4512 0.0000
# 2 24.6550 78.3501 16.9231 0.0000 -4.0931 0.0000
# 3 29.3034 16.9231 94.7248 0.0000 -9.5020 0.0000
# 4 0.0000 0.0000 0.0000 10.0708 0.0000 1.4603
# 5 -0.4512 -4.0931 -9.5020 0.0000 28.6742 0.0000
# 6 0.0000 0.0000 0.0000 1.4603 0.0000 7.2381
#
#
#
# Elastic Compliance Matrix: (Units=1/GPa)
#
#
# Indices 1 2 3 4 5 6 
#
# 1 0.009490 -0.002481 -0.002600 0.000000 -0.001066 0.000000
# 2 -0.002481 0.013960 -0.001583 0.000000 0.001429 0.000000
# 3 -0.002600 -0.001583 0.012017 0.000000 0.003715 0.000000
# 4 0.000000 0.000000 0.000000 0.102289 0.000000 -0.020637
# 5 -0.001066 0.001429 0.003715 0.000000 0.036293 0.000000
# 6 0.000000 0.000000 0.000000 -0.020637 0.000000 0.142322
#
#
# Mechanical properties :
#
#
# Convention : Reuss Voigt Hill
#
# Bulk Modulus (GPa) = 45.16668 48.29212 46.72940
# Shear Modulus (GPa) = 14.83333 23.99560 19.41447
#
# Velocity S-wave (km/s) = 2.93102 3.72791 3.35322
# Velocity P-wave (km/s) = 6.13297 6.81899 6.48506
#
# Compressibility (1/GPa) = 0.02214021
#
# Stress axis : x y z
#
# Youngs Moduli (GPa) = 105.37054 71.63084 83.21787
#
# Poissons Ratio (x) = 0.17769 0.21634
# Poissons Ratio (y) = 0.26138 0.13177
# Poissons Ratio (z) = 0.27393 0.11342
#
# Static dielectric constant tensor:
#      x y z
#    x 1.615560 0.000000 0.010500 
#    y 0.000000 1.573470 0.000000 
#    z 0.010500 0.000000 1.621090 
# 
# From -- ./inp_files/158271.got.cif
#   From: 2010.05.17/outbox.cif.g08.bks.cpg/sg12_80_cif.got.tgz:158271.got - 2010.06.03 13:09:07.
