data_PCOD9175834
_publ_section_title
;
Structure prediction by ZEFSAII (Michael W. Deem and Ramdas Pophale) SiO2 
 PCOD9175834
Probable space group: C 2/M
;
_chemical_formula_sum "Si O2"
_cell_formula_units_Z 48
_cell_length_a 9.691851
_cell_length_b 16.379464
_cell_length_c 16.682036
_cell_angle_alpha 90.000000
_cell_angle_beta 62.280735
_cell_angle_gamma 90.000000
_cell_volume 2344.310663
_symmetry_space_group_name_H-M "C 2/M"
_symmetry_group_IT_number 12
_symmetry_cell_setting 'monoclinic'
loop_
_space_group_symop_operation_xyz
x,y,z
-x,y,-z
-x,-y,-z
x,-y,z
1/2+x,1/2+y,z
1/2-x,1/2+y,-z
1/2-x,1/2-y,-z
1/2+x,1/2-y,z
loop_
_atom_site_type_symbol
_atom_site_label
_atom_site_fract_x
_atom_site_fract_y
_atom_site_fract_z
Si Si1 0.606032 0.858573 0.219348
Si Si2 0.087749 0.778009 0.654791
Si Si3 0.611196 0.595554 0.210241
Si Si4 0.463093 0.316364 0.098235
Si Si5 0.571795 0.847828 0.403139
Si Si6 0.474313 0.125316 0.097003
O O1 0.475532 0.786674 0.261615
O O2 0.778370 0.821341 0.165052
O O3 0.592536 0.895487 0.312926
O O4 0.570456 0.906398 0.147657
O O5 0.261703 0.807418 0.622356
O O6 0.977170 0.855928 0.695824
O O7 0.047242 0.726472 0.586667
O O8 0.578454 0.500000 0.222465
O O9 0.549568 0.632966 0.143344
O O10 0.794222 0.611647 0.165111
O O11 0.515502 0.221910 0.082383
O O12 0.500000 0.350253 0.000000
O O13 0.500000 0.891146 0.500000
O O14 0.500000 0.093210 0.000000
#
# Coordination Sequence:
#
# PCOD9175834 Si02
#       6
#     8   8   8   8   8   8
#     4  10  18  33  58  83 115 138 195 240 274 327
#     4  10  18  35  53  83 116 141 182 232 289 335
#     4  12  23  37  55  82 119 156 185 234 294 340
#     4  11  19  35  59  84 111 153 199 239 276 332
#     4  10  19  32  61  93 109 138 192 252 284 326
#     4  11  20  35  58  84 114 155 198 236 276 332
#
# _framework density 20.475102
#
# number of rings (size 3 to 8) (size 9 to 14) (size 15 to 20)
#    1.000    0.333    5.000    2.500    0.000    3.333 
#    0.000    0.833    0.000    1.000    0.000    0.000 
#    0.000    0.000    0.000    0.000    0.000    0.000 
#
# Total GULP energy -133737.506108 kJ/mol
# GULP energy per Si atom -5572.396088 kJ/mol
# Density = 2.042850 g / cm^3
# Si number density = 20.475102 Si / 1000 Ang^3
#
#
#
# Elastic Constant Matrix: (Units=GPa)
#
#
# Indices 1 2 3 4 5 6 
#
# 1 83.5048 -5.9632 14.6726 0.0000 4.1196 0.0000
# 2 -5.9632 72.9409 -1.4044 0.0000 12.1845 0.0000
# 3 14.6726 -1.4044 115.4913 0.0000 23.0575 0.0000
# 4 0.0000 0.0000 0.0000 -13.1370 0.0000 16.8846
# 5 4.1196 12.1845 23.0575 0.0000 21.4917 0.0000
# 6 0.0000 0.0000 0.0000 16.8846 0.0000 38.8739
#
#
#
# Elastic Compliance Matrix: (Units=1/GPa)
#
#
# Indices 1 2 3 4 5 6 
#
# 1 0.012367 0.001293 -0.001191 0.000000 -0.001826 0.000000
# 2 0.001293 0.015828 0.002379 0.000000 -0.011773 0.000000
# 3 -0.001191 0.002379 0.011533 0.000000 -0.013493 0.000000
# 4 0.000000 0.000000 0.000000 -0.048850 0.000000 0.021218
# 5 -0.001826 -0.011773 -0.013493 0.000000 0.068031 0.000000
# 6 0.000000 0.000000 0.000000 0.021218 0.000000 0.016508
#
#
# Mechanical properties :
#
#
# Convention : Reuss Voigt Hill
#
# Bulk Modulus (GPa) = 22.37650 31.83854 27.10752
# Shear Modulus (GPa) = 58.58146 27.08786 42.83466
#
# Velocity S-wave (km/s) = 5.35473 3.64121 4.57884
# Velocity P-wave (km/s) = 7.01308 5.76728 6.42047
#
# Compressibility (1/GPa) = 0.04468975
#
# Stress axis : x y z
#
# Youngs Moduli (GPa) = 80.86014 63.17938 86.70926
#
# Poissons Ratio (x) = -0.08170 0.10326
# Poissons Ratio (y) = -0.10456 -0.20626
# Poissons Ratio (z) = 0.09629 -0.15029
#
# Static dielectric constant tensor:
#      x y z
#    x 1.726950 0.000000 0.055460 
#    y 0.000000 1.727170 0.000000 
#    z 0.055460 0.000000 1.787370 
# 
# From -- ./inp_files/263601.got.cif
#   From: 2010.05.17/outbox.cif.g08.bks.cpg/sg12_132_cif.got.tgz:263601.got - 2010.06.03 13:09:07.
