data_PCOD9175673
_publ_section_title
;
Structure prediction by ZEFSAII (Michael W. Deem and Ramdas Pophale) SiO2 
 PCOD9175673
Probable space group: C 2/M
;
_chemical_formula_sum "Si O2"
_cell_formula_units_Z 64
_cell_length_a 23.258010
_cell_length_b 13.933398
_cell_length_c 10.435611
_cell_angle_alpha 90.000000
_cell_angle_beta 116.129528
_cell_angle_gamma 90.000000
_cell_volume 3036.179413
_symmetry_space_group_name_H-M "C 2/M"
_symmetry_group_IT_number 12
_symmetry_cell_setting 'monoclinic'
loop_
_space_group_symop_operation_xyz
x,y,z
-x,y,-z
-x,-y,-z
x,-y,z
1/2+x,1/2+y,z
1/2-x,1/2+y,-z
1/2-x,1/2-y,-z
1/2+x,1/2-y,z
loop_
_atom_site_type_symbol
_atom_site_label
_atom_site_fract_x
_atom_site_fract_y
_atom_site_fract_z
Si Si1 0.029291 0.887761 0.750428
Si Si2 0.235378 0.890194 0.076499
Si Si3 0.568931 0.785411 0.622470
Si Si4 0.744799 0.389908 0.581332
Si Si5 0.889969 0.208263 0.962174
Si Si6 0.632792 0.887898 0.926299
Si Si7 0.700130 0.195827 0.617638
Si Si8 0.890004 0.107477 0.696975
O O1 0.060906 0.820992 0.674243
O O2 0.052179 0.845799 0.909712
O O3 0.952691 0.875535 0.673654
O O4 0.044838 0.000000 0.752843
O O5 0.291814 0.870651 0.030989
O O6 0.268949 0.874096 0.246991
O O7 0.215229 0.000000 0.042238
O O8 0.171930 0.827346 0.017664
O O9 0.500000 0.814539 0.500000
O O10 0.593022 0.852044 0.763236
O O11 0.626004 0.789122 0.576631
O O12 0.759441 0.500000 0.638080
O O13 0.737293 0.298333 0.667439
O O14 0.790151 0.351709 0.511553
O O15 0.674331 0.391768 0.447682
O O16 0.891401 0.321660 0.982770
O O17 0.884876 0.178182 0.811008
O O18 0.624359 0.000000 0.938584
O O19 0.897327 0.000000 0.760213
#
# Coordination Sequence:
#
# PCOD9175673 Si02
#       8
#     8   8   8   8   8   8   8   8
#     4  10  21  34  52  84 117 142 172 216 270 327
#     4  10  18  33  56  80 106 141 178 217 266 323
#     4  10  21  37  57  81 106 141 181 220 268 320
#     4  10  20  35  55  79 109 142 179 221 267 318
#     4  11  19  32  55  78 107 141 182 219 261 316
#     4   9  21  37  53  76 107 140 181 226 265 309
#     4  10  20  34  55  81 108 139 181 222 269 315
#     4  10  19  33  56  82 108 143 180 217 268 324
#
# _framework density 21.079124
#
# number of rings (size 3 to 8) (size 9 to 14) (size 15 to 20)
#    0.000    2.000    1.250    3.000    0.000    2.500 
#    0.000    0.625    0.000    6.000    0.000    0.000 
#    0.000    0.000    0.000    0.000    0.000    0.000 
#
# Total GULP energy -178775.723637 kJ/mol
# GULP energy per Si atom -5586.741364 kJ/mol
# Density = 2.103115 g / cm^3
# Si number density = 21.079124 Si / 1000 Ang^3
#
#
#
# Elastic Constant Matrix: (Units=GPa)
#
#
# Indices 1 2 3 4 5 6 
#
# 1 85.3053 34.4072 3.7068 0.0000 10.6054 0.0000
# 2 34.4072 101.0126 -8.3318 0.0000 -5.2822 0.0000
# 3 3.7068 -8.3318 14.6197 0.0000 5.2588 0.0000
# 4 0.0000 0.0000 0.0000 16.3534 0.0000 3.5709
# 5 10.6054 -5.2822 5.2588 0.0000 9.9670 0.0000
# 6 0.0000 0.0000 0.0000 3.5709 0.0000 22.0150
#
#
#
# Elastic Compliance Matrix: (Units=1/GPa)
#
#
# Indices 1 2 3 4 5 6 
#
# 1 0.017333 -0.007096 -0.000558 0.000000 -0.021909 0.000000
# 2 -0.007096 0.013363 0.005124 0.000000 0.011929 0.000000
# 3 -0.000558 0.005124 0.086733 0.000000 -0.042454 0.000000
# 4 0.000000 0.000000 0.000000 0.063395 0.000000 -0.010283
# 5 -0.021909 0.011929 -0.042454 0.000000 0.152366 0.000000
# 6 0.000000 0.000000 0.000000 -0.010283 0.000000 0.047091
#
#
# Mechanical properties :
#
#
# Convention : Reuss Voigt Hill
#
# Bulk Modulus (GPa) = 8.89915 28.94464 18.92190
# Shear Modulus (GPa) = 11.82605 21.07745 16.45175
#
# Velocity S-wave (km/s) = 2.37118 3.16558 2.79673
# Velocity P-wave (km/s) = 3.42456 5.20792 4.40738
#
# Compressibility (1/GPa) = 0.11237026
#
# Stress axis : x y z
#
# Youngs Moduli (GPa) = 57.69477 74.83299 11.52964
#
# Poissons Ratio (x) = 0.53098 0.00643
# Poissons Ratio (y) = 0.40938 -0.05908
# Poissons Ratio (z) = 0.03217 -0.38344
#
# Static dielectric constant tensor:
#      x y z
#    x 1.755900 0.000000 0.006340 
#    y 0.000000 1.767850 0.000000 
#    z 0.006340 0.000000 1.773450 
# 
# From -- ./inp_files/175306.got.cif
#   From: 2010.05.17/outbox.cif.g08.bks.cpg/sg12_88_cif.got.tgz:175306.got - 2010.06.03 13:09:07.
