data_PCOD9175868
_publ_section_title
;
Structure prediction by ZEFSAII (Michael W. Deem and Ramdas Pophale) SiO2 
 PCOD9175868
Probable space group: C 2/M
;
_chemical_formula_sum "Si O2"
_cell_formula_units_Z 64
_cell_length_a 33.181688
_cell_length_b 14.895318
_cell_length_c 10.220209
_cell_angle_alpha 90.000000
_cell_angle_beta 139.297730
_cell_angle_gamma 90.000000
_cell_volume 3294.133324
_symmetry_space_group_name_H-M "C 2/M"
_symmetry_group_IT_number 12
_symmetry_cell_setting 'monoclinic'
loop_
_space_group_symop_operation_xyz
x,y,z
-x,y,-z
-x,-y,-z
x,-y,z
1/2+x,1/2+y,z
1/2-x,1/2+y,-z
1/2-x,1/2-y,-z
1/2+x,1/2-y,z
loop_
_atom_site_type_symbol
_atom_site_label
_atom_site_fract_x
_atom_site_fract_y
_atom_site_fract_z
Si Si1 0.310674 0.846133 0.548856
Si Si2 0.770752 0.140251 0.409898
Si Si3 0.895727 0.096998 0.827421
Si Si4 0.761706 0.396760 0.159050
Si Si5 0.055871 0.281878 0.734494
Si Si6 0.675891 0.106222 0.946564
Si Si7 0.871769 0.895221 0.072594
Si Si8 0.446633 0.208903 0.964328
O O1 0.270094 0.887210 0.565261
O O2 0.283508 0.746525 0.454458
O O3 0.301548 0.894244 0.389010
O O4 0.380842 0.836407 0.769478
O O5 0.838591 0.098879 0.587126
O O6 0.731559 0.117978 0.186404
O O7 0.927350 0.000000 0.900116
O O8 0.866466 0.106738 0.901348
O O9 0.936279 0.185046 0.909540
O O10 0.750950 0.500000 0.094685
O O11 0.799072 0.356325 0.130373
O O12 0.693092 0.362786 0.025281
O O13 0.116170 0.340382 0.848647
O O14 0.075919 0.177351 0.766685
O O15 0.039833 0.298288 0.847779
O O16 0.000000 0.303239 0.500000
O O17 0.660850 0.000000 0.898964
O O18 0.883871 0.000000 0.137486
O O19 0.500000 0.174667 0.000000
#
# Coordination Sequence:
#
# PCOD9175868 Si02
#       8
#     8   8   8   8   8   8   8   8
#     4  10  19  34  59  85 113 143 188 237 285 346
#     4  10  18  33  58  88 114 144 183 231 292 354
#     4   9  17  32  58  86 115 147 176 221 286 347
#     4  10  21  36  58  89 119 146 183 234 294 351
#     4  11  24  41  60  80 111 160 199 231 287 335
#     4  11  24  39  57  85 120 153 193 241 288 343
#     4   9  18  36  61  89 118 146 185 233 282 350
#     4  10  22  39  56  81 110 144 197 241 270 330
#
# _framework density 19.428477999999998
#
# number of rings (size 3 to 8) (size 9 to 14) (size 15 to 20)
#    0.000    2.000    2.500    1.125    1.750    3.250 
#    2.250    0.000    0.000    0.750    0.000    0.000 
#    0.000    0.000    0.000    0.000    0.000    0.000 
#
# Total GULP energy -178535.004281 kJ/mol
# GULP energy per Si atom -5579.218884 kJ/mol
# Density = 1.938426 g / cm^3
# Si number density = 19.428478 Si / 1000 Ang^3
#
#
#
# Elastic Constant Matrix: (Units=GPa)
#
#
# Indices 1 2 3 4 5 6 
#
# 1 108.3706 6.4422 47.4437 0.0000 -6.6426 0.0000
# 2 6.4422 34.7517 -0.5124 0.0000 2.7212 0.0000
# 3 47.4437 -0.5124 99.7316 0.0000 -9.3802 0.0000
# 4 0.0000 0.0000 0.0000 24.8155 0.0000 -12.1291
# 5 -6.6426 2.7212 -9.3802 0.0000 23.1769 0.0000
# 6 0.0000 0.0000 0.0000 -12.1291 0.0000 17.4940
#
#
#
# Elastic Compliance Matrix: (Units=1/GPa)
#
#
# Indices 1 2 3 4 5 6 
#
# 1 0.011878 -0.002397 -0.005527 0.000000 0.001449 0.000000
# 2 -0.002397 0.029529 0.000937 0.000000 -0.003775 0.000000
# 3 -0.005527 0.000937 0.012996 0.000000 0.003566 0.000000
# 4 0.000000 0.000000 0.000000 0.060953 0.000000 0.042261
# 5 0.001449 -0.003775 0.003566 0.000000 0.045448 0.000000
# 6 0.000000 0.000000 0.000000 0.042261 0.000000 0.086463
#
#
# Mechanical properties :
#
#
# Convention : Reuss Voigt Hill
#
# Bulk Modulus (GPa) = 24.73380 38.84454 31.78917
# Shear Modulus (GPa) = 18.20043 25.72931 21.96487
#
# Velocity S-wave (km/s) = 3.06403 3.64305 3.36601
# Velocity P-wave (km/s) = 5.02752 6.14270 5.61288
#
# Compressibility (1/GPa) = 0.04043050
#
# Stress axis : x y z
#
# Youngs Moduli (GPa) = 84.18584 33.86462 76.94507
#
# Poissons Ratio (x) = 0.08117 0.42526
# Poissons Ratio (y) = 0.20179 -0.07210
# Poissons Ratio (z) = 0.46528 -0.03173
#
# Static dielectric constant tensor:
#      x y z
#    x 1.680990 0.000000 -0.006250 
#    y 0.000000 1.725080 0.000000 
#    z -0.006250 0.000000 1.649780 
# 
# From -- ./inp_files/112867.got.cif
#   From: 2010.05.17/outbox.cif.g08.bks.cpg/sg12_57_cif.got.tgz:112867.got - 2010.06.03 13:09:07.
