data_PCOD9175348
_publ_section_title
;
Structure prediction by ZEFSAII (Michael W. Deem and Ramdas Pophale) SiO2 
 PCOD9175348
Probable space group: C 2/M
;
_chemical_formula_sum "Si O2"
_cell_formula_units_Z 48
_cell_length_a 13.752571
_cell_length_b 21.028664
_cell_length_c 12.851012
_cell_angle_alpha 90.000000
_cell_angle_beta 147.015280
_cell_angle_gamma 90.000000
_cell_volume 2023.313930
_symmetry_space_group_name_H-M "C 2/M"
_symmetry_group_IT_number 12
_symmetry_cell_setting 'monoclinic'
loop_
_space_group_symop_operation_xyz
x,y,z
-x,y,-z
-x,-y,-z
x,-y,z
1/2+x,1/2+y,z
1/2-x,1/2+y,-z
1/2-x,1/2-y,-z
1/2+x,1/2-y,z
loop_
_atom_site_type_symbol
_atom_site_label
_atom_site_fract_x
_atom_site_fract_y
_atom_site_fract_z
Si Si1 0.177111 0.073805 0.280417
Si Si2 0.835665 0.842594 0.549844
Si Si3 0.756622 0.101235 0.886077
Si Si4 0.186359 0.320522 0.194459
Si Si5 0.310664 0.571549 0.163849
Si Si6 0.611768 0.238848 0.781631
O O1 0.257357 0.122658 0.436321
O O2 0.272399 0.072072 0.253980
O O3 0.161177 0.000000 0.302132
O O4 0.975494 0.102190 0.085627
O O5 0.716262 0.834676 0.341053
O O6 0.999077 0.891683 0.670449
O O7 0.932217 0.774736 0.656355
O O8 0.646291 0.165918 0.788994
O O9 0.724940 0.070945 0.971166
O O10 0.194936 0.385618 0.136717
O O11 0.334071 0.275980 0.274752
O O12 0.000000 0.287943 0.000000
O O13 0.334194 0.500000 0.221387
O O14 0.750000 0.250000 0.000000
#
# Coordination Sequence:
#
# PCOD9175348 Si02
#       6
#     8   8   8   8   8   8
#     4  10  19  33  60  96 128 159 205 257 303 366
#     4  10  21  39  60  92 124 160 208 251 306 374
#     4  10  18  32  59  90 125 159 199 248 301 363
#     4  11  25  40  59  90 121 160 208 257 310 359
#     4  10  19  36  64  89 120 162 206 249 301 371
#     4  11  19  37  62  86 125 159 199 248 304 370
#
# _framework density 23.723457
#
# number of rings (size 3 to 8) (size 9 to 14) (size 15 to 20)
#    0.000    1.667    5.000    5.500    2.333    2.333 
#    0.000    5.000    0.000    0.000    0.000    2.333 
#    0.000    0.000    0.000    0.000    0.000    1.167 
#
# Total GULP energy -133959.708597 kJ/mol
# GULP energy per Si atom -5581.654525 kJ/mol
# Density = 2.366946 g / cm^3
# Si number density = 23.723457 Si / 1000 Ang^3
#
#
#
# Elastic Constant Matrix: (Units=GPa)
#
#
# Indices 1 2 3 4 5 6 
#
# 1 65.0437 43.2229 59.1415 0.0000 -19.0406 0.0000
# 2 43.2229 156.1564 35.3063 0.0000 1.7136 0.0000
# 3 59.1415 35.3063 128.7240 0.0000 -33.5001 0.0000
# 4 0.0000 0.0000 0.0000 1.0169 0.0000 -8.9771
# 5 -19.0406 1.7136 -33.5001 0.0000 41.0245 0.0000
# 6 0.0000 0.0000 0.0000 -8.9771 0.0000 23.7143
#
#
#
# Elastic Compliance Matrix: (Units=1/GPa)
#
#
# Indices 1 2 3 4 5 6 
#
# 1 0.031371 -0.006203 -0.011245 0.000000 0.005637 0.000000
# 2 -0.006203 0.008229 -0.000313 0.000000 -0.003478 0.000000
# 3 -0.011245 -0.000313 0.014814 0.000000 0.006891 0.000000
# 4 0.000000 0.000000 0.000000 -0.419925 0.000000 -0.158964
# 5 0.005637 -0.003478 0.006891 0.000000 0.032764 0.000000
# 6 0.000000 0.000000 0.000000 -0.158964 0.000000 -0.018007
#
#
# Mechanical properties :
#
#
# Convention : Reuss Voigt Hill
#
# Bulk Modulus (GPa) = 52.92646 69.47394 61.20020
# Shear Modulus (GPa) = -16.18454 27.30137 5.55842
#
# Velocity S-wave (km/s) = -2.61476 3.39605 1.53235
# Velocity P-wave (km/s) = 3.63899 6.68775 5.38369
#
# Compressibility (1/GPa) = 0.01889414
#
# Stress axis : x y z
#
# Youngs Moduli (GPa) = 31.87703 121.51429 67.50376
#
# Poissons Ratio (x) = 0.75370 0.75907
# Poissons Ratio (y) = 0.19772 0.02110
# Poissons Ratio (z) = 0.35845 0.03797
#
# Static dielectric constant tensor:
#      x y z
#    x 1.955820 0.000000 0.007150 
#    y 0.000000 1.881730 0.000000 
#    z 0.007150 0.000000 1.912940 
# 
# From -- ./inp_files/148014.got.cif
#   From: 2010.05.17/outbox.cif.g08.bks.cpg/sg12_75_cif.got.tgz:148014.got - 2010.06.03 13:09:07.
