data_PCOD9175208
_publ_section_title
;
Structure prediction by ZEFSAII (Michael W. Deem and Ramdas Pophale) SiO2 
 PCOD9175208
Probable space group: C 2/M
;
_chemical_formula_sum "Si O2"
_cell_formula_units_Z 28
_cell_length_a 16.122380
_cell_length_b 14.980820
_cell_length_c 7.563737
_cell_angle_alpha 90.000000
_cell_angle_beta 141.932010
_cell_angle_gamma 90.000000
_cell_volume 1126.424158
_symmetry_space_group_name_H-M "C 2/M"
_symmetry_group_IT_number 12
_symmetry_cell_setting 'monoclinic'
loop_
_space_group_symop_operation_xyz
x,y,z
-x,y,-z
-x,-y,-z
x,-y,z
1/2+x,1/2+y,z
1/2-x,1/2+y,-z
1/2-x,1/2-y,-z
1/2+x,1/2-y,z
loop_
_atom_site_type_symbol
_atom_site_label
_atom_site_fract_x
_atom_site_fract_y
_atom_site_fract_z
Si Si1 0.905508 0.500000 0.518165
Si Si2 0.509054 0.811073 0.302384
Si Si3 0.395909 0.500000 0.670256
Si Si4 0.779026 0.157237 0.309170
Si Si5 0.347265 0.500000 0.145357
O O1 0.000000 0.500000 0.500000
O O2 0.943171 0.408635 0.677049
O O3 0.755075 0.500000 0.191857
O O4 0.500000 0.814651 0.500000
O O5 0.613892 0.731851 0.457218
O O6 0.363718 0.798115 0.970281
O O7 0.299538 0.584375 0.495342
O O8 0.501900 0.500000 0.680624
O O9 0.500000 0.500000 0.000000
O O10 0.810339 0.092503 0.189601
#
# Coordination Sequence:
#
# PCOD9175208 Si02
#       5
#     4   8   4   8   4
#     4  10  18  32  56  93 133 152 188 251 311 352
#     4  11  20  33  60 100 132 152 194 254 314 360
#     4  11  26  45  62  83 125 169 212 254 304 364
#     4  11  22  38  65  96 123 160 204 255 309 367
#     4  11  20  39  62  95 120 161 206 251 306 365
#
# _framework density 24.857420000000001
#
# number of rings (size 3 to 8) (size 9 to 14) (size 15 to 20)
#    0.000    1.143    5.714    5.143    4.000    0.000 
#    0.000    1.429    0.000    1.714    0.000    0.000 
#    0.000    0.000    0.000    0.000    0.000    0.000 
#
# Total GULP energy -78264.452946 kJ/mol
# GULP energy per Si atom -5590.318068 kJ/mol
# Density = 2.480084 g / cm^3
# Si number density = 24.857420 Si / 1000 Ang^3
#
#
#
# Elastic Constant Matrix: (Units=GPa)
#
#
# Indices 1 2 3 4 5 6 
#
# 1 79.9074 21.6100 30.1343 0.0000 17.8130 0.0000
# 2 21.6100 207.0824 84.7214 0.0000 28.9930 0.0000
# 3 30.1343 84.7214 233.3388 0.0000 39.3715 0.0000
# 4 0.0000 0.0000 0.0000 -76.2003 0.0000 9.3538
# 5 17.8130 28.9930 39.3715 0.0000 51.5774 0.0000
# 6 0.0000 0.0000 0.0000 9.3538 0.0000 -17.4321
#
#
#
# Elastic Compliance Matrix: (Units=1/GPa)
#
#
# Indices 1 2 3 4 5 6 
#
# 1 0.013857 -0.000526 -0.000965 0.000000 -0.003753 0.000000
# 2 -0.000526 0.005850 -0.001759 0.000000 -0.001765 0.000000
# 3 -0.000965 -0.001759 0.005539 0.000000 -0.002906 0.000000
# 4 0.000000 0.000000 0.000000 -0.014049 0.000000 -0.007538
# 5 -0.003753 -0.001765 -0.002906 0.000000 0.023895 0.000000
# 6 0.000000 0.000000 0.000000 -0.007538 0.000000 -0.061410
#
#
# Mechanical properties :
#
#
# Convention : Reuss Voigt Hill
#
# Bulk Modulus (GPa) = 53.33948 88.14001 70.73975
# Shear Modulus (GPa) = -368.50345 17.17986 -175.66179
#
# Velocity S-wave (km/s) = -12.18888 2.63180 -8.41553
# Velocity P-wave (km/s) = 13.28860 6.69107 8.11839
#
# Compressibility (1/GPa) = 0.01874784
#
# Stress axis : x y z
#
# Youngs Moduli (GPa) = 72.16346 170.92945 180.53206
#
# Poissons Ratio (x) = 0.08984 0.17429
# Poissons Ratio (y) = 0.03793 0.31747
# Poissons Ratio (z) = 0.06967 0.30058
#
# Static dielectric constant tensor:
#      x y z
#    x 2.117640 0.000000 -0.043760 
#    y 0.000000 1.973560 0.000000 
#    z -0.043760 0.000000 1.963860 
# 
# From -- ./inp_files/85446.got.cif
#   From: 2010.05.17/outbox.cif.g08.bks.cpg/sg12_43_cif.got.tgz:85446.got - 2010.06.03 13:09:07.
