data_PCOD9175675
_publ_section_title
;
Structure prediction by ZEFSAII (Michael W. Deem and Ramdas Pophale) SiO2 
 PCOD9175675
Probable space group: C 2/M
;
_chemical_formula_sum "Si O2"
_cell_formula_units_Z 56
_cell_length_a 23.880907
_cell_length_b 7.684971
_cell_length_c 15.489713
_cell_angle_alpha 90.000000
_cell_angle_beta 114.403018
_cell_angle_gamma 90.000000
_cell_volume 2588.770722
_symmetry_space_group_name_H-M "C 2/M"
_symmetry_group_IT_number 12
_symmetry_cell_setting 'monoclinic'
loop_
_space_group_symop_operation_xyz
x,y,z
-x,y,-z
-x,-y,-z
x,-y,z
1/2+x,1/2+y,z
1/2-x,1/2+y,-z
1/2-x,1/2-y,-z
1/2+x,1/2-y,z
loop_
_atom_site_type_symbol
_atom_site_label
_atom_site_fract_x
_atom_site_fract_y
_atom_site_fract_z
Si Si1 0.984932 0.787118 0.587139
Si Si2 0.059529 0.213693 0.797753
Si Si3 0.320343 0.302945 0.037450
Si Si4 0.167045 0.701939 0.147678
Si Si5 0.966707 0.210430 0.889468
Si Si6 0.761250 0.292340 0.647235
Si Si7 0.347196 0.710643 0.542296
O O1 0.916952 0.730744 0.573882
O O2 0.000000 0.730220 0.500000
O O3 0.035914 0.732542 0.689027
O O4 0.984318 0.000000 0.586491
O O5 0.125746 0.281940 0.871326
O O6 0.008700 0.265060 0.836338
O O7 0.060019 0.000000 0.799379
O O8 0.320662 0.500000 0.066874
O O9 0.250000 0.250000 0.000000
O O10 0.338265 0.291409 0.948240
O O11 0.181022 0.500000 0.138434
O O12 0.101621 0.715665 0.153260
O O13 0.217713 0.775564 0.246155
O O14 0.961596 0.000000 0.884523
O O15 0.000000 0.259452 0.000000
O O16 0.754699 0.500000 0.653116
O O17 0.698730 0.226598 0.563003
O O18 0.815100 0.261552 0.611552
O O19 0.347368 0.500000 0.540140
#
# Coordination Sequence:
#
# PCOD9175675 Si02
#       7
#     8   8   8   8   8   8   8
#     4   9  17  29  50  79 104 131 173 220 263 313
#     4   9  18  33  53  77 106 139 175 221 275 320
#     4  11  23  40  57  76 106 145 185 225 269 323
#     4  11  22  35  53  82 115 146 179 219 273 333
#     4  10  18  33  56  80 107 142 182 226 272 320
#     4   9  19  33  51  78 111 141 171 217 274 323
#     4   9  17  32  54  78 104 137 180 224 266 318
#
# _framework density 21.631889999999999
#
# number of rings (size 3 to 8) (size 9 to 14) (size 15 to 20)
#    0.000    2.286    1.429    1.714    0.000    3.714 
#    0.000    4.286    0.000    1.286    0.000    0.000 
#    0.000    0.000    0.000    0.000    0.000    0.000 
#
# Total GULP energy -156342.123344 kJ/mol
# GULP energy per Si atom -5583.647262 kJ/mol
# Density = 2.158265 g / cm^3
# Si number density = 21.631890 Si / 1000 Ang^3
#
#
#
# Elastic Constant Matrix: (Units=GPa)
#
#
# Indices 1 2 3 4 5 6 
#
# 1 105.8706 -0.5308 65.0555 0.0000 22.0555 0.0000
# 2 -0.5308 30.4733 -3.1130 0.0000 3.0486 0.0000
# 3 65.0555 -3.1130 178.9290 0.0000 17.0297 0.0000
# 4 0.0000 0.0000 0.0000 8.3677 0.0000 3.8584
# 5 22.0555 3.0486 17.0297 0.0000 26.8857 0.0000
# 6 0.0000 0.0000 0.0000 3.8584 0.0000 19.9463
#
#
#
# Elastic Compliance Matrix: (Units=1/GPa)
#
#
# Indices 1 2 3 4 5 6 
#
# 1 0.013854 0.000693 -0.004188 0.000000 -0.008791 0.000000
# 2 0.000693 0.033394 0.000791 0.000000 -0.004856 0.000000
# 3 -0.004188 0.000791 0.007244 0.000000 -0.001242 0.000000
# 4 0.000000 0.000000 0.000000 0.131211 0.000000 -0.025381
# 5 -0.008791 -0.004856 -0.001242 0.000000 0.045743 0.000000
# 6 0.000000 0.000000 0.000000 -0.025381 0.000000 0.055044
#
#
# Mechanical properties :
#
#
# Convention : Reuss Voigt Hill
#
# Bulk Modulus (GPa) = 20.37346 48.67736 34.52541
# Shear Modulus (GPa) = 16.22007 27.96400 22.09204
#
# Velocity S-wave (km/s) = 2.74126 3.59934 3.19920
# Velocity P-wave (km/s) = 4.41113 6.31072 5.44441
#
# Compressibility (1/GPa) = 0.04908347
#
# Stress axis : x y z
#
# Youngs Moduli (GPa) = 72.18167 29.94518 138.05300
#
# Poissons Ratio (x) = -0.02075 0.57821
# Poissons Ratio (y) = -0.05001 -0.10924
# Poissons Ratio (z) = 0.30232 -0.02370
#
# Static dielectric constant tensor:
#      x y z
#    x 1.759500 0.000000 0.037120 
#    y 0.000000 1.862510 0.000000 
#    z 0.037120 0.000000 1.811690 
# 
# From -- ./inp_files/238956.got.cif
#   From: 2010.05.17/outbox.cif.g08.bks.cpg/sg12_120_cif.got.tgz:238956.got - 2010.06.03 13:09:07.
