data_PCOD9175072
_publ_section_title
;
Structure prediction by ZEFSAII (Michael W. Deem and Ramdas Pophale) SiO2 
 PCOD9175072
Probable space group: C 2/M
;
_chemical_formula_sum "Si O2"
_cell_formula_units_Z 56
_cell_length_a 26.228039
_cell_length_b 7.487217
_cell_length_c 14.945495
_cell_angle_alpha 90.000000
_cell_angle_beta 121.248633
_cell_angle_gamma 90.000000
_cell_volume 2509.135873
_symmetry_space_group_name_H-M "C 2/M"
_symmetry_group_IT_number 12
_symmetry_cell_setting 'monoclinic'
loop_
_space_group_symop_operation_xyz
x,y,z
-x,y,-z
-x,-y,-z
x,-y,z
1/2+x,1/2+y,z
1/2-x,1/2+y,-z
1/2-x,1/2-y,-z
1/2+x,1/2-y,z
loop_
_atom_site_type_symbol
_atom_site_label
_atom_site_fract_x
_atom_site_fract_y
_atom_site_fract_z
Si Si1 0.793900 0.785903 0.621947
Si Si2 0.925311 0.211745 0.695316
Si Si3 0.246239 0.719157 0.770600
Si Si4 0.023599 0.218329 0.924367
Si Si5 0.155964 0.785761 0.996700
Si Si6 0.504846 0.215223 0.606324
Si Si7 0.634882 0.212537 0.775263
O O1 0.750000 0.750000 0.500000
O O2 0.860046 0.716191 0.659113
O O3 0.767731 0.720575 0.692633
O O4 0.798497 0.000000 0.635135
O O5 0.977261 0.282253 0.807418
O O6 0.948623 0.236855 0.616194
O O7 0.922574 0.000000 0.709241
O O8 0.245820 0.500000 0.769629
O O9 0.180602 0.778703 0.741538
O O10 0.292916 0.777410 0.889611
O O11 0.090611 0.279909 0.966649
O O12 0.024933 0.000000 0.923096
O O13 0.000000 0.270150 0.000000
O O14 0.162598 0.743508 0.898268
O O15 0.155613 0.000000 0.003945
O O16 0.500000 0.277745 0.500000
O O17 0.567279 0.282316 0.705773
O O18 0.506694 0.000000 0.606530
O O19 0.630622 0.000000 0.759782
#
# Coordination Sequence:
#
# PCOD9175072 Si02
#       7
#     8   8   8   8   8   8   8
#     4  10  22  39  59  82 109 143 184 227 271 321
#     4  10  20  36  57  84 111 136 176 231 277 311
#     4   9  19  35  56  80 108 144 184 222 263 322
#     4   9  16  28  51  79 107 137 171 213 262 318
#     4  10  18  32  55  82 108 139 179 220 269 322
#     4  10  22  37  56  80 107 147 190 221 265 329
#     4  10  20  35  54  79 111 144 179 222 269 319
#
# _framework density 22.318441
#
# number of rings (size 3 to 8) (size 9 to 14) (size 15 to 20)
#    0.000    2.286    1.429    1.286    2.000    4.286 
#    0.000    1.429    0.000    3.429    0.000    0.000 
#    0.000    0.000    0.000    0.000    0.000    0.000 
#
# Total GULP energy -156476.924733 kJ/mol
# GULP energy per Si atom -5588.461598 kJ/mol
# Density = 2.226764 g / cm^3
# Si number density = 22.318441 Si / 1000 Ang^3
#
#
#
# Elastic Constant Matrix: (Units=GPa)
#
#
# Indices 1 2 3 4 5 6 
#
# 1 178.9399 0.2904 43.0845 0.0000 -16.5632 0.0000
# 2 0.2904 61.8226 -7.6916 0.0000 5.9186 0.0000
# 3 43.0845 -7.6916 74.7643 0.0000 -13.5561 0.0000
# 4 0.0000 0.0000 0.0000 11.8475 0.0000 2.6982
# 5 -16.5632 5.9186 -13.5561 0.0000 37.9377 0.0000
# 6 0.0000 0.0000 0.0000 2.6982 0.0000 0.1231
#
#
#
# Elastic Compliance Matrix: (Units=1/GPa)
#
#
# Indices 1 2 3 4 5 6 
#
# 1 0.006605 -0.000638 -0.003562 0.000000 0.001711 0.000000
# 2 -0.000638 0.016603 0.001663 0.000000 -0.002274 0.000000
# 3 -0.003562 0.001663 0.016328 0.000000 0.004020 0.000000
# 4 0.000000 0.000000 0.000000 -0.021149 0.000000 0.463476
# 5 0.001711 -0.002274 0.004020 0.000000 0.028897 0.000000
# 6 0.000000 0.000000 0.000000 0.463476 0.000000 -2.035060
#
#
# Mechanical properties :
#
#
# Convention : Reuss Voigt Hill
#
# Bulk Modulus (GPa) = 29.01645 42.98816 36.00230
# Shear Modulus (GPa) = -2.53651 28.63791 13.05070
#
# Velocity S-wave (km/s) = -1.06723 3.58599 2.42078
# Velocity P-wave (km/s) = 3.39274 6.03729 4.89692
#
# Compressibility (1/GPa) = 0.03446321
#
# Stress axis : x y z
#
# Youngs Moduli (GPa) = 151.38918 60.23009 61.24442
#
# Poissons Ratio (x) = 0.03842 0.21815
# Poissons Ratio (y) = 0.09658 -0.10187
# Poissons Ratio (z) = 0.53925 -0.10018
#
# Static dielectric constant tensor:
#      x y z
#    x 1.805220 0.000000 0.012050 
#    y 0.000000 1.869680 0.000000 
#    z 0.012050 0.000000 1.789600 
# 
# From -- ./inp_files/174464.got.cif
#   From: 2010.05.17/outbox.cif.g08.bks.cpg/sg12_88_cif.got.tgz:174464.got - 2010.06.03 13:09:07.
