data_PCOD9175905
_publ_section_title
;
Structure prediction by ZEFSAII (Michael W. Deem and Ramdas Pophale) SiO2 
 PCOD9175905
Probable space group: C 2/M
;
_chemical_formula_sum "Si O2"
_cell_formula_units_Z 64
_cell_length_a 19.929575
_cell_length_b 19.374399
_cell_length_c 20.021387
_cell_angle_alpha 90.000000
_cell_angle_beta 29.208077
_cell_angle_gamma 90.000000
_cell_volume 3772.461984
_symmetry_space_group_name_H-M "C 2/M"
_symmetry_group_IT_number 12
_symmetry_cell_setting 'monoclinic'
loop_
_space_group_symop_operation_xyz
x,y,z
-x,y,-z
-x,-y,-z
x,-y,z
1/2+x,1/2+y,z
1/2-x,1/2+y,-z
1/2-x,1/2-y,-z
1/2+x,1/2-y,z
loop_
_atom_site_type_symbol
_atom_site_label
_atom_site_fract_x
_atom_site_fract_y
_atom_site_fract_z
Si Si1 0.873058 0.576198 0.871205
Si Si2 0.599700 0.717390 0.619274
Si Si3 0.867955 0.216117 0.072690
Si Si4 0.136772 0.919853 0.662239
Si Si5 0.390725 0.778593 0.907847
Si Si6 0.541138 0.921722 0.588431
Si Si7 0.405662 0.421656 0.971133
Si Si8 0.449055 0.775761 0.618062
O O1 0.889370 0.500000 0.886256
O O2 0.892613 0.638946 0.903804
O O3 0.976745 0.583403 0.718661
O O4 0.722601 0.581598 0.968576
O O5 0.750000 0.750000 0.500000
O O6 0.607066 0.635893 0.630294
O O7 0.506986 0.750835 0.757695
O O8 0.531631 0.737809 0.607079
O O9 0.715291 0.234406 0.230782
O O10 0.894048 0.249196 0.978264
O O11 0.875914 0.133655 0.053761
O O12 0.000000 0.237137 0.000000
O O13 0.295114 0.913862 0.547015
O O14 0.039634 0.905131 0.810460
O O15 0.111706 0.000000 0.664483
O O16 0.250000 0.750000 0.000000
O O17 0.480318 0.857649 0.600691
O O18 0.509760 0.000000 0.591311
O O19 0.415255 0.500000 0.987865
O O20 0.500000 0.755075 0.500000
#
# Coordination Sequence:
#
# PCOD9175905 Si02
#       8
#     8   8   8   8   8   8   8   8
#     4  10  18  33  59  87 109 143 192 243 291 337
#     4  12  21  36  64  88 112 154 196 245 287 338
#     4  12  26  39  57  83 120 158 194 243 291 341
#     4  10  20  33  57  91 117 143 190 243 289 340
#     4  12  19  38  62  84 111 151 196 245 290 336
#     4  10  19  36  56  81 118 154 188 229 282 346
#     4  10  19  34  56  83 115 147 188 235 286 346
#     4  12  26  40  55  85 120 157 197 238 289 347
#
# _framework density 16.965049
#
# number of rings (size 3 to 8) (size 9 to 14) (size 15 to 20)
#    0.000    1.000    7.500    0.000    3.500    0.500 
#    0.000    0.000    0.000    0.750    0.000    0.000 
#    0.000    0.000    0.000    0.000    0.000    0.000 
#
# Total GULP energy -178581.427617 kJ/mol
# GULP energy per Si atom -5580.669613 kJ/mol
# Density = 1.692644 g / cm^3
# Si number density = 16.965049 Si / 1000 Ang^3
#
#
#
# Elastic Constant Matrix: (Units=GPa)
#
#
# Indices 1 2 3 4 5 6 
#
# 1 100.7960 23.2431 50.6900 0.0000 -0.9152 -0.0002
# 2 23.2431 73.2509 18.8326 0.0007 1.0276 -0.0007
# 3 50.6900 18.8326 143.4035 0.0002 -12.7649 -0.0003
# 4 0.0000 0.0007 0.0002 22.8821 0.0002 -3.6740
# 5 -0.9152 1.0276 -12.7649 0.0002 26.0398 0.0002
# 6 -0.0002 -0.0007 -0.0003 -3.6740 0.0002 18.7571
#
#
#
# Elastic Compliance Matrix: (Units=1/GPa)
#
#
# Indices 1 2 3 4 5 6 
#
# 1 0.012717 -0.002922 -0.004247 0.000000 -0.001519 0.000000
# 2 -0.002922 0.014859 -0.001025 0.000000 -0.001191 0.000000
# 3 -0.004247 -0.001025 0.008992 0.000000 0.004299 0.000000
# 4 0.000000 0.000000 0.000000 0.045121 0.000000 0.008838
# 5 -0.001519 -0.001191 0.004299 0.000000 0.040504 -0.000001
# 6 0.000000 0.000000 0.000000 0.008838 -0.000001 0.055044
#
#
# Mechanical properties :
#
#
# Convention : Reuss Voigt Hill
#
# Bulk Modulus (GPa) = 49.55154 55.88688 52.71921
# Shear Modulus (GPa) = 24.95634 28.51477 26.73556
#
# Velocity S-wave (km/s) = 3.83958 4.10420 3.97409
# Velocity P-wave (km/s) = 6.99485 7.44803 7.22499
#
# Compressibility (1/GPa) = 0.02018101
#
# Stress axis : x y z
#
# Youngs Moduli (GPa) = 78.63731 67.29928 111.21470
#
# Poissons Ratio (x) = 0.19665 0.47228
# Poissons Ratio (y) = 0.22978 0.11395
# Poissons Ratio (z) = 0.33394 0.06895
#
# Static dielectric constant tensor:
#      x y z
#    x 1.544490 0.000000 -0.026610 
#    y 0.000000 1.612540 0.000000 
#    z -0.026610 0.000000 1.591180 
# 
# From -- ./inp_files/98889.got.cif
#   From: 2010.05.17/outbox.cif.g08.bks.cpg/sg12_50_cif.got.tgz:98889.got - 2010.06.03 13:09:07.
