data_PCOD9175474
_publ_section_title
;
Structure prediction by ZEFSAII (Michael W. Deem and Ramdas Pophale) SiO2 
 PCOD9175474
Probable space group: C 2/M
;
_chemical_formula_sum "Si O2"
_cell_formula_units_Z 58
_cell_length_a 21.065639
_cell_length_b 17.339183
_cell_length_c 9.583807
_cell_angle_alpha 90.000000
_cell_angle_beta 128.714178
_cell_angle_gamma 90.000000
_cell_volume 2731.425689
_symmetry_space_group_name_H-M "C 2/M"
_symmetry_group_IT_number 12
_symmetry_cell_setting 'monoclinic'
loop_
_space_group_symop_operation_xyz
x,y,z
-x,y,-z
-x,-y,-z
x,-y,z
1/2+x,1/2+y,z
1/2-x,1/2+y,-z
1/2-x,1/2-y,-z
1/2+x,1/2-y,z
loop_
_atom_site_type_symbol
_atom_site_label
_atom_site_fract_x
_atom_site_fract_y
_atom_site_fract_z
Si Si1 0.690669 0.282077 0.793243
Si Si2 0.674721 0.410141 0.970474
Si Si3 0.586899 0.654025 0.118775
Si Si4 0.116368 0.414223 0.379141
Si Si5 0.317535 0.800244 0.728394
Si Si6 0.930531 0.588195 0.068820
Si Si7 0.134253 0.378757 0.716237
Si Si8 0.500000 0.500000 0.000000
O O1 0.737979 0.290107 0.713462
O O2 0.626185 0.213877 0.696073
O O3 0.750000 0.250000 0.000000
O O4 0.662439 0.364685 0.809667
O O5 0.652250 0.500000 0.936928
O O6 0.621907 0.366835 0.014467
O O7 0.770071 0.402035 0.140692
O O8 0.648901 0.715881 0.264731
O O9 0.500000 0.696584 0.000000
O O10 0.561727 0.569754 0.142052
O O11 0.144794 0.500000 0.383987
O O12 0.179460 0.352969 0.404402
O O13 0.105092 0.409942 0.529172
O O14 0.027225 0.400593 0.191329
O O15 0.377770 0.847471 0.917100
O O16 0.911337 0.500000 0.997562
O O17 0.907494 0.593242 0.200728
#
# Coordination Sequence:
#
# PCOD9175474 Si02
#       8
#     8   8   8   8   8   8   8   2
#     4  10  20  35  56  85 110 142 202 237 275 344
#     4  11  18  33  58  83 110 146 188 242 289 332
#     4  10  18  33  52  81 109 135 181 238 289 330
#     4  11  25  38  54  87 124 156 193 231 284 352
#     4  12  21  37  59  84 116 153 186 243 292 334
#     4  11  21  37  59  86 116 153 196 234 278 347
#     4  11  21  38  58  80 116 161 190 234 280 341
#     4   8  20  32  52  84 110 126 182 250 286 334
#
# _framework density 21.234331999999998
#
# number of rings (size 3 to 8) (size 9 to 14) (size 15 to 20)
#    0.414    0.828    6.207    3.310    0.000    3.310 
#    0.000    0.000    0.000    0.000    1.793    0.000 
#    0.000    5.517    0.000    0.000    0.000    0.000 
#
# Total GULP energy -161543.205775 kJ/mol
# GULP energy per Si atom -5570.455372 kJ/mol
# Density = 2.118600 g / cm^3
# Si number density = 21.234332 Si / 1000 Ang^3
#
#
#
# Elastic Constant Matrix: (Units=GPa)
#
#
# Indices 1 2 3 4 5 6 
#
# 1 79.6877 14.1332 6.4490 0.0000 -12.8425 0.0000
# 2 14.1332 121.3784 26.5835 0.0000 1.5051 0.0000
# 3 6.4490 26.5835 57.1459 0.0000 -16.2271 0.0000
# 4 0.0000 0.0000 0.0000 17.6027 0.0000 -4.6399
# 5 -12.8425 1.5051 -16.2271 0.0000 21.8587 0.0000
# 6 0.0000 0.0000 0.0000 -4.6399 0.0000 24.0170
#
#
#
# Elastic Compliance Matrix: (Units=1/GPa)
#
#
# Indices 1 2 3 4 5 6 
#
# 1 0.014453 -0.002345 0.002429 0.000000 0.010456 0.000000
# 2 -0.002345 0.009972 -0.006285 0.000000 -0.006730 0.000000
# 3 0.002429 -0.006285 0.026200 0.000000 0.021309 0.000000
# 4 0.000000 0.000000 0.000000 0.059858 0.000000 0.011564
# 5 0.010456 -0.006730 0.021309 0.000000 0.068174 0.000000
# 6 0.000000 0.000000 0.000000 0.011564 0.000000 0.043871
#
#
# Mechanical properties :
#
#
# Convention : Reuss Voigt Hill
#
# Bulk Modulus (GPa) = 26.16239 39.17149 32.66694
# Shear Modulus (GPa) = 20.18809 26.76545 23.47677
#
# Velocity S-wave (km/s) = 3.08673 3.55418 3.32867
# Velocity P-wave (km/s) = 5.00514 5.94392 5.49462
#
# Compressibility (1/GPa) = 0.03822280
#
# Stress axis : x y z
#
# Youngs Moduli (GPa) = 69.18799 100.28407 38.16833
#
# Poissons Ratio (x) = 0.23512 -0.09270
# Poissons Ratio (y) = 0.16221 0.23989
# Poissons Ratio (z) = -0.16803 0.63030
#
# Static dielectric constant tensor:
#      x y z
#    x 1.779670 0.000000 0.013270 
#    y 0.000000 1.797060 0.000000 
#    z 0.013270 0.000000 1.844770 
# 
# From -- ./inp_files/88042.got.cif
#   From: 2010.05.17/outbox.cif.g08.bks.cpg/sg12_45_cif.got.tgz:88042.got - 2010.06.03 13:09:07.
