data_PCOD9175034
_publ_section_title
;
Structure prediction by ZEFSAII (Michael W. Deem and Ramdas Pophale) SiO2 
 PCOD9175034
Probable space group: C 2/M
;
_chemical_formula_sum "Si O2"
_cell_formula_units_Z 64
_cell_length_a 19.536272
_cell_length_b 7.539992
_cell_length_c 21.478285
_cell_angle_alpha 90.000000
_cell_angle_beta 109.762210
_cell_angle_gamma 90.000000
_cell_volume 2977.486426
_symmetry_space_group_name_H-M "C 2/M"
_symmetry_group_IT_number 12
_symmetry_cell_setting 'monoclinic'
loop_
_space_group_symop_operation_xyz
x,y,z
-x,y,-z
-x,-y,-z
x,-y,z
1/2+x,1/2+y,z
1/2-x,1/2+y,-z
1/2-x,1/2-y,-z
1/2+x,1/2-y,z
loop_
_atom_site_type_symbol
_atom_site_label
_atom_site_fract_x
_atom_site_fract_y
_atom_site_fract_z
Si Si1 0.694883 0.285615 0.214437
Si Si2 0.632095 0.281940 0.871358
Si Si3 0.242655 0.212333 0.425346
Si Si4 0.944178 0.790296 0.276343
Si Si5 0.443791 0.298708 0.032406
Si Si6 0.703890 0.203775 0.074376
Si Si7 0.105198 0.783182 0.303432
Si Si8 0.667585 0.212971 0.659934
O O1 0.695284 0.500000 0.209035
O O2 0.692550 0.209287 0.145192
O O3 0.630077 0.235293 0.241319
O O4 0.768306 0.230427 0.273015
O O5 0.634254 0.500000 0.873375
O O6 0.607360 0.222193 0.795271
O O7 0.573382 0.222444 0.904723
O O8 0.714581 0.225147 0.912021
O O9 0.250000 0.250000 0.500000
O O10 0.167725 0.276567 0.370647
O O11 0.308427 0.276402 0.401018
O O12 0.241539 0.000000 0.419043
O O13 0.907463 0.766249 0.331860
O O14 0.025391 0.718397 0.295748
O O15 0.949343 0.000000 0.266692
O O16 0.470952 0.500000 0.051439
O O17 0.500000 0.216185 0.000000
O O18 0.363788 0.301664 0.977166
O O19 0.700768 0.000000 0.052137
O O20 0.105457 0.000000 0.305368
O O21 0.668344 0.000000 0.659386
#
# Coordination Sequence:
#
# PCOD9175034 Si02
#       8
#     8   8   8   8   8   8   8   8
#     4   9  17  32  54  76  98 133 176 213 251 303
#     4   9  19  34  52  77 103 131 171 216 260 308
#     4   9  18  35  56  80 107 141 179 214 251 299
#     4  10  18  32  55  79 106 135 168 216 266 306
#     4  10  22  38  56  75  97 133 180 220 257 315
#     4  11  21  34  52  75 106 134 165 214 266 316
#     4   8  17  32  54  79 105 135 173 218 256 295
#     4   9  18  33  52  78 110 136 169 213 255 304
#
# _framework density 21.494641000000001
#
# number of rings (size 3 to 8) (size 9 to 14) (size 15 to 20)
#    0.000    2.625    1.250    2.250    1.750    0.750 
#    0.000    5.000    0.000    3.750    0.000    0.000 
#    0.000    0.000    0.000    0.000    0.000    0.000 
#
# Total GULP energy -178600.377955 kJ/mol
# GULP energy per Si atom -5581.261811 kJ/mol
# Density = 2.144572 g / cm^3
# Si number density = 21.494641 Si / 1000 Ang^3
#
#
#
# Elastic Constant Matrix: (Units=GPa)
#
#
# Indices 1 2 3 4 5 6 
#
# 1 145.3755 1.7720 40.6377 0.0000 -38.1070 0.0000
# 2 1.7720 53.1001 -3.4886 0.0000 2.0519 0.0000
# 3 40.6377 -3.4886 102.7637 0.0000 -32.6479 0.0000
# 4 0.0000 0.0000 0.0000 17.3521 0.0000 -0.1476
# 5 -38.1070 2.0519 -32.6479 0.0000 29.6083 0.0000
# 6 0.0000 0.0000 0.0000 -0.1476 0.0000 1.0913
#
#
#
# Elastic Compliance Matrix: (Units=1/GPa)
#
#
# Indices 1 2 3 4 5 6 
#
# 1 0.010423 -0.000864 0.000200 0.000000 0.013695 0.000000
# 2 -0.000864 0.018963 0.000330 0.000000 -0.002062 0.000000
# 3 0.000200 0.000330 0.014988 0.000000 0.016761 0.000000
# 4 0.000000 0.000000 0.000000 0.057696 0.000000 0.007806
# 5 0.013695 -0.002062 0.016761 0.000000 0.070026 0.000000
# 6 0.000000 0.000000 0.000000 0.007806 0.000000 0.917423
#
#
# Mechanical properties :
#
#
# Convention : Reuss Voigt Hill
#
# Bulk Modulus (GPa) = 22.87981 42.12017 32.49999
# Shear Modulus (GPa) = 4.52589 27.09822 15.81205
#
# Velocity S-wave (km/s) = 1.45264 3.55448 2.71519
# Velocity P-wave (km/s) = 3.67166 6.04020 4.99825
#
# Compressibility (1/GPa) = 0.04370666
#
# Stress axis : x y z
#
# Youngs Moduli (GPa) = 95.93825 52.73549 66.71877
#
# Poissons Ratio (x) = 0.04556 -0.01333
# Poissons Ratio (y) = 0.08288 -0.02204
# Poissons Ratio (z) = -0.01917 -0.01742
#
# Static dielectric constant tensor:
#      x y z
#    x 1.785530 0.000000 -0.028360 
#    y 0.000000 1.847880 0.000000 
#    z -0.028360 0.000000 1.770230 
# 
# From -- ./inp_files/276532.got.cif
#   From: 2010.05.17/outbox.cif.g08.bks.cpg/sg12_139_cif.got.tgz:276532.got - 2010.06.03 13:09:07.
