data_PCOD9175227
_publ_section_title
;
Structure prediction by ZEFSAII (Michael W. Deem and Ramdas Pophale) SiO2 
 PCOD9175227
Probable space group: C 2/M
;
_chemical_formula_sum "Si O2"
_cell_formula_units_Z 48
_cell_length_a 27.692665
_cell_length_b 13.429649
_cell_length_c 19.552602
_cell_angle_alpha 90.000000
_cell_angle_beta 164.019506
_cell_angle_gamma 90.000000
_cell_volume 2001.963215
_symmetry_space_group_name_H-M "C 2/M"
_symmetry_group_IT_number 12
_symmetry_cell_setting 'monoclinic'
loop_
_space_group_symop_operation_xyz
x,y,z
-x,y,-z
-x,-y,-z
x,-y,z
1/2+x,1/2+y,z
1/2-x,1/2+y,-z
1/2-x,1/2-y,-z
1/2+x,1/2-y,z
loop_
_atom_site_type_symbol
_atom_site_label
_atom_site_fract_x
_atom_site_fract_y
_atom_site_fract_z
Si Si1 0.051089 0.890376 0.899673
Si Si2 0.768703 0.115074 0.225330
Si Si3 0.672946 0.321221 0.286002
Si Si4 0.370472 0.820193 0.427796
Si Si5 0.597202 0.106028 0.205921
Si Si6 0.734457 0.237588 0.898642
O O1 0.220756 0.872337 0.179583
O O2 0.092612 0.810740 0.897957
O O3 0.058350 0.000000 0.880918
O O4 0.886344 0.877672 0.726564
O O5 0.835405 0.200154 0.369476
O O6 0.803854 0.163844 0.199015
O O7 0.827968 0.000000 0.314505
O O8 0.559243 0.113392 0.952503
O O9 0.832418 0.351552 0.454124
O O10 0.700701 0.207618 0.346424
O O11 0.500000 0.323865 0.000000
O O12 0.564083 0.834011 0.662592
O O13 0.689502 0.000000 0.338506
O O14 0.500000 0.103325 0.000000
O O15 0.750000 0.250000 0.000000
#
# Coordination Sequence:
#
# PCOD9175227 Si02
#       6
#     8   8   8   8   8   8
#     4  10  20  37  61  82 106 141 185 232 274 318
#     4  10  18  32  57  83 108 137 176 223 270 321
#     4   9  15  30  52  85 109 132 170 228 279 320
#     4  10  20  34  56  87 110 135 180 225 276 322
#     4   9  13  23  49  82 111 133 160 211 275 325
#     4  11  24  39  52  76 112 154 185 219 265 323
#
# _framework density 23.976464
#
# number of rings (size 3 to 8) (size 9 to 14) (size 15 to 20)
#    0.000    2.167    6.667    2.000    0.000    6.333 
#    0.000    0.833    0.000    0.000    0.000    0.000 
#    0.000    0.000    0.000    0.000    0.000    0.000 
#
# Total GULP energy -133953.494327 kJ/mol
# GULP energy per Si atom -5581.395597 kJ/mol
# Density = 2.392189 g / cm^3
# Si number density = 23.976464 Si / 1000 Ang^3
#
#
#
# Elastic Constant Matrix: (Units=GPa)
#
#
# Indices 1 2 3 4 5 6 
#
# 1 148.5832 4.9403 23.0279 -0.0002 18.4960 -0.0001
# 2 4.9403 79.6397 -4.2949 -0.0003 4.6762 -0.0002
# 3 23.0279 -4.2949 78.4775 -0.0008 17.2719 -0.0004
# 4 -0.0002 -0.0003 -0.0008 -1.9971 -0.0006 4.8568
# 5 18.4960 4.6762 17.2719 -0.0006 35.5221 -0.0003
# 6 -0.0001 -0.0002 -0.0004 4.8568 -0.0003 -1.4977
#
#
#
# Elastic Compliance Matrix: (Units=1/GPa)
#
#
# Indices 1 2 3 4 5 6 
#
# 1 0.007355 -0.000358 -0.001507 0.000000 -0.003050 0.000000
# 2 -0.000358 0.012771 0.001269 0.000001 -0.002112 0.000001
# 3 -0.001507 0.001269 0.014690 0.000002 -0.006525 0.000002
# 4 0.000000 0.000001 0.000002 0.072717 0.000002 0.235799
# 5 -0.003050 -0.002112 -0.006525 0.000002 0.033190 0.000004
# 6 0.000000 0.000001 0.000002 0.235799 0.000004 0.096959
#
#
# Mechanical properties :
#
#
# Convention : Reuss Voigt Hill
#
# Bulk Modulus (GPa) = 29.74042 39.33857 34.53949
# Shear Modulus (GPa) = 19.99329 25.27392 22.63361
#
# Velocity S-wave (km/s) = 2.89082 3.25023 3.07578
# Velocity P-wave (km/s) = 4.85524 5.52523 5.20103
#
# Compressibility (1/GPa) = 0.03362427
#
# Stress axis : x y z
#
# Youngs Moduli (GPa) = 135.95560 78.30119 68.07263
#
# Poissons Ratio (x) = 0.02807 0.10256
# Poissons Ratio (y) = 0.04873 -0.08637
# Poissons Ratio (z) = 0.20483 -0.09935
#
# Static dielectric constant tensor:
#      x y z
#    x 1.922540 0.000000 -0.038620 
#    y 0.000000 1.889960 0.000000 
#    z -0.038620 0.000000 2.011610 
# 
# From -- ./inp_files/328255.got.cif
#   From: 2010.05.17/outbox.cif.g08.bks.cpg/sg12_165_cif.got.tgz:328255.got - 2010.06.03 13:09:07.
