data_PCOD9175047
_publ_section_title
;
Structure prediction by ZEFSAII (Michael W. Deem and Ramdas Pophale) SiO2 
 PCOD9175047
Probable space group: C 2/M
;
_chemical_formula_sum "Si O2"
_cell_formula_units_Z 48
_cell_length_a 28.964242
_cell_length_b 23.712002
_cell_length_c 12.499840
_cell_angle_alpha 90.000000
_cell_angle_beta 159.582847
_cell_angle_gamma 90.000000
_cell_volume 2994.862225
_symmetry_space_group_name_H-M "C 2/M"
_symmetry_group_IT_number 12
_symmetry_cell_setting 'monoclinic'
loop_
_space_group_symop_operation_xyz
x,y,z
-x,y,-z
-x,-y,-z
x,-y,z
1/2+x,1/2+y,z
1/2-x,1/2+y,-z
1/2-x,1/2-y,-z
1/2+x,1/2-y,z
loop_
_atom_site_type_symbol
_atom_site_label
_atom_site_fract_x
_atom_site_fract_y
_atom_site_fract_z
Si Si1 0.644644 0.180247 0.357938
Si Si2 0.206683 0.879206 0.130887
Si Si3 0.372459 0.500000 0.372364
Si Si4 0.640887 0.313203 0.361093
Si Si5 0.396006 0.378420 0.503774
Si Si6 0.347455 0.301928 0.191245
Si Si7 0.686852 0.500000 0.998790
O O1 0.694560 0.143626 0.565339
O O2 0.644637 0.246151 0.392792
O O3 0.746274 0.174725 0.480386
O O4 0.500000 0.166065 0.000000
O O5 0.200445 0.838363 0.014395
O O6 0.239419 0.942268 0.163237
O O7 0.056697 0.878974 0.851910
O O8 0.348259 0.442489 0.383668
O O9 0.528859 0.500000 0.680998
O O10 0.299107 0.500000 0.098870
O O11 0.653222 0.348861 0.495640
O O12 0.500000 0.325185 0.000000
O O13 0.353337 0.342382 0.307527
O O14 0.500000 0.283877 0.500000
O O15 0.250000 0.250000 0.000000
#
# Coordination Sequence:
#
# PCOD9175047 Si02
#       7
#     8   8   4   8   8   8   4
#     4  10  21  35  54  77 106 146 181 211 262 323
#     4  10  18  33  54  79 106 139 182 217 263 315
#     4   9  16  30  52  82 104 138 175 218 274 307
#     4  10  19  35  54  76 110 141 174 222 268 307
#     4  10  18  32  55  80 108 136 176 223 267 314
#     4  10  20  33  52  81 111 136 171 221 269 319
#     4   9  16  30  54  77 106 141 175 218 265 316
#
# _framework density 16.027450000000002
#
# number of rings (size 3 to 8) (size 9 to 14) (size 15 to 20)
#    0.000    2.167    3.333    1.000    0.000    0.000 
#    3.000    1.667    0.000    0.000    0.000    2.333 
#    0.000    0.000    0.000    0.000    0.000    0.000 
#
# Total GULP energy -133851.467606 kJ/mol
# GULP energy per Si atom -5577.144484 kJ/mol
# Density = 1.599097 g / cm^3
# Si number density = 16.027450 Si / 1000 Ang^3
#
#
#
# Elastic Constant Matrix: (Units=GPa)
#
#
# Indices 1 2 3 4 5 6 
#
# 1 103.7628 78.5357 58.7690 0.0000 -24.6807 0.0000
# 2 78.5357 137.4126 73.3152 0.0000 -18.1789 0.0000
# 3 58.7690 73.3152 106.5903 0.0000 -17.6872 0.0000
# 4 0.0000 0.0000 0.0000 21.7117 0.0000 -5.2247
# 5 -24.6807 -18.1789 -17.6872 0.0000 26.3272 0.0000
# 6 0.0000 0.0000 0.0000 -5.2247 0.0000 22.2451
#
#
#
# Elastic Compliance Matrix: (Units=1/GPa)
#
#
# Indices 1 2 3 4 5 6 
#
# 1 0.020798 -0.008343 -0.003882 0.000000 0.011128 0.000000
# 2 -0.008343 0.015051 -0.005994 0.000000 -0.001456 0.000000
# 3 -0.003882 -0.005994 0.016155 0.000000 0.003076 0.000000
# 4 0.000000 0.000000 0.000000 0.048817 0.000000 0.011466
# 5 0.011128 -0.001456 0.003076 0.000000 0.049477 0.000000
# 6 0.000000 0.000000 0.000000 0.011466 0.000000 0.047647
#
#
# Mechanical properties :
#
#
# Convention : Reuss Voigt Hill
#
# Bulk Modulus (GPa) = 64.24217 85.44507 74.84362
# Shear Modulus (GPa) = 20.87062 23.19986 22.03524
#
# Velocity S-wave (km/s) = 3.61249 3.80874 3.71191
# Velocity P-wave (km/s) = 7.58747 8.53050 8.07277
#
# Compressibility (1/GPa) = 0.01556610
#
# Stress axis : x y z
#
# Youngs Moduli (GPa) = 48.08261 66.43930 61.90030
#
# Poissons Ratio (x) = 0.55432 0.24027
# Poissons Ratio (y) = 0.40117 0.37103
# Poissons Ratio (z) = 0.18663 0.39824
#
# Static dielectric constant tensor:
#      x y z
#    x 1.516280 0.000000 0.003700 
#    y 0.000000 1.526850 0.000000 
#    z 0.003700 0.000000 1.519650 
# 
# From -- ./inp_files/122593.got.cif
#   From: 2010.05.17/outbox.cif.g08.bks.cpg/sg12_62_cif.got.tgz:122593.got - 2010.06.03 13:09:07.
