data_PCOD9175802
_publ_section_title
;
Structure prediction by ZEFSAII (Michael W. Deem and Ramdas Pophale) SiO2 
 PCOD9175802
Probable space group: C 2/M
;
_chemical_formula_sum "Si O2"
_cell_formula_units_Z 64
_cell_length_a 11.418520
_cell_length_b 28.323005
_cell_length_c 11.752175
_cell_angle_alpha 90.000000
_cell_angle_beta 70.883617
_cell_angle_gamma 90.000000
_cell_volume 3591.143038
_symmetry_space_group_name_H-M "C 2/M"
_symmetry_group_IT_number 12
_symmetry_cell_setting 'monoclinic'
loop_
_space_group_symop_operation_xyz
x,y,z
-x,y,-z
-x,-y,-z
x,-y,z
1/2+x,1/2+y,z
1/2-x,1/2+y,-z
1/2-x,1/2-y,-z
1/2+x,1/2-y,z
loop_
_atom_site_type_symbol
_atom_site_label
_atom_site_fract_x
_atom_site_fract_y
_atom_site_fract_z
Si Si1 0.284603 0.553089 0.345115
Si Si2 0.328622 0.053321 0.375791
Si Si3 0.071782 0.853770 0.656294
Si Si4 0.379804 0.195139 0.163172
Si Si5 0.116945 0.805652 0.882461
Si Si6 0.647258 0.848526 0.065543
Si Si7 0.191957 0.148870 0.378018
Si Si8 0.895610 0.446143 0.811228
O O1 0.336357 0.500000 0.330581
O O2 0.189832 0.556575 0.481967
O O3 0.388510 0.592558 0.327792
O O4 0.207338 0.559446 0.254487
O O5 0.246603 0.095841 0.354044
O O6 0.469596 0.059138 0.290205
O O7 0.288809 0.000000 0.355826
O O8 0.095608 0.823903 0.761511
O O9 0.155379 0.840560 0.520089
O O10 0.931602 0.848982 0.658129
O O11 0.371105 0.249101 0.127148
O O12 0.521646 0.179655 0.138418
O O13 0.294847 0.184050 0.297512
O O14 0.332673 0.163148 0.073089
O O15 0.238667 0.829376 0.897290
O O16 0.000000 0.817340 0.000000
O O17 0.624342 0.903826 0.094526
O O18 0.887532 0.500000 0.858695
#
# Coordination Sequence:
#
# PCOD9175802 Si02
#       8
#     8   8   8   8   8   8   8   8
#     4   9  17  32  54  83 118 154 195 240 287 349
#     4   9  17  30  54  84 115 157 197 234 288 349
#     4  10  22  37  59  88 116 160 192 240 299 348
#     4  11  24  40  63  85 117 154 197 248 289 348
#     4  12  24  41  65  87 113 151 202 244 295 353
#     4  11  22  40  61  93 114 152 199 242 295 349
#     4  10  21  39  57  83 126 152 194 244 294 346
#     4  10  18  33  57  87 122 152 189 242 298 352
#
# _framework density 17.821624
#
# number of rings (size 3 to 8) (size 9 to 14) (size 15 to 20)
#    0.000    1.750    3.750    1.500    1.750    2.500 
#    0.000    5.000    0.000    3.000    0.000    0.000 
#    0.000    0.000    0.000    0.000    0.000    0.000 
#
# Total GULP energy -178556.404985 kJ/mol
# GULP energy per Si atom -5579.887656 kJ/mol
# Density = 1.778106 g / cm^3
# Si number density = 17.821624 Si / 1000 Ang^3
#
#
#
# Elastic Constant Matrix: (Units=GPa)
#
#
# Indices 1 2 3 4 5 6 
#
# 1 66.3964 21.1570 38.4951 0.0000 4.9991 0.0000
# 2 21.1570 93.1238 40.1369 0.0000 2.3429 0.0000
# 3 38.4951 40.1369 78.5046 0.0000 3.5910 0.0000
# 4 0.0000 0.0000 0.0000 30.6739 0.0000 1.3745
# 5 4.9991 2.3429 3.5910 0.0000 23.8394 0.0000
# 6 0.0000 0.0000 0.0000 1.3745 0.0000 14.5371
#
#
#
# Elastic Compliance Matrix: (Units=1/GPa)
#
#
# Indices 1 2 3 4 5 6 
#
# 1 0.021254 -0.000412 -0.010079 0.000000 -0.002898 0.000000
# 2 -0.000412 0.013784 -0.006834 0.000000 -0.000239 0.000000
# 3 -0.010079 -0.006834 0.021193 0.000000 -0.000407 0.000000
# 4 0.000000 0.000000 0.000000 0.032740 0.000000 -0.003096
# 5 -0.002898 -0.000239 -0.000407 0.000000 0.042640 0.000000
# 6 0.000000 0.000000 0.000000 -0.003096 0.000000 0.069082
#
#
# Mechanical properties :
#
#
# Convention : Reuss Voigt Hill
#
# Bulk Modulus (GPa) = 46.33745 48.62253 47.47999
# Shear Modulus (GPa) = 20.61550 23.02580 21.82065
#
# Velocity S-wave (km/s) = 3.40482 3.59836 3.50293
# Velocity P-wave (km/s) = 6.44315 6.67880 6.56203
#
# Compressibility (1/GPa) = 0.02158081
#
# Stress axis : x y z
#
# Youngs Moduli (GPa) = 47.04998 72.55012 47.18509
#
# Poissons Ratio (x) = 0.02987 0.47557
# Poissons Ratio (y) = 0.01937 0.32248
# Poissons Ratio (z) = 0.47421 0.49583
#
# Static dielectric constant tensor:
#      x y z
#    x 1.581380 0.000000 -0.001610 
#    y 0.000000 1.604750 0.000000 
#    z -0.001610 0.000000 1.601710 
# 
# From -- ./inp_files/137426.got.cif
#   From: 2010.05.17/outbox.cif.g08.bks.cpg/sg12_69_cif.got.tgz:137426.got - 2010.06.03 13:09:07.
