data_PCOD9175923
_publ_section_title
;
Structure prediction by ZEFSAII (Michael W. Deem and Ramdas Pophale) SiO2 
 PCOD9175923
Probable space group: C 2/M
;
_chemical_formula_sum "Si O2"
_cell_formula_units_Z 64
_cell_length_a 24.715153
_cell_length_b 9.076837
_cell_length_c 15.056998
_cell_angle_alpha 90.000000
_cell_angle_beta 63.898793
_cell_angle_gamma 90.000000
_cell_volume 3033.342313
_symmetry_space_group_name_H-M "C 2/M"
_symmetry_group_IT_number 12
_symmetry_cell_setting 'monoclinic'
loop_
_space_group_symop_operation_xyz
x,y,z
-x,y,-z
-x,-y,-z
x,-y,z
1/2+x,1/2+y,z
1/2-x,1/2+y,-z
1/2-x,1/2-y,-z
1/2+x,1/2-y,z
loop_
_atom_site_type_symbol
_atom_site_label
_atom_site_fract_x
_atom_site_fract_y
_atom_site_fract_z
Si Si1 0.198537 0.824233 0.096142
Si Si2 0.605964 0.172221 0.512712
Si Si3 0.988908 0.824629 0.657136
Si Si4 0.616263 0.173835 0.023981
Si Si5 0.145797 0.823806 0.315967
Si Si6 0.014112 0.326400 0.826277
Si Si7 0.642865 0.179351 0.811885
Si Si8 0.700293 0.826742 0.595373
O O1 0.191992 0.781321 0.204279
O O2 0.204490 0.000000 0.089156
O O3 0.250000 0.750000 0.000000
O O4 0.138423 0.770821 0.089606
O O5 0.542258 0.254384 0.560439
O O6 0.649112 0.241580 0.406824
O O7 0.637929 0.187974 0.585390
O O8 0.597335 0.000000 0.501494
O O9 0.999466 0.761453 0.747752
O O10 0.921711 0.790868 0.671641
O O11 0.995520 0.000000 0.651576
O O12 0.648623 0.223227 0.909987
O O13 0.630004 0.000000 0.029854
O O14 0.544231 0.185430 0.068497
O O15 0.150861 0.000000 0.325672
O O16 0.020351 0.500000 0.798395
O O17 0.076037 0.278993 0.826990
O O18 0.689519 0.230018 0.703070
O O19 0.645033 0.000000 0.810802
O O20 0.750000 0.750000 0.500000
O O21 0.714539 0.000000 0.590337
#
# Coordination Sequence:
#
# PCOD9175923 Si02
#       8
#     8   8   8   8   8   8   8   8
#     4  11  24  43  62  83 117 156 199 248 294 345
#     4  11  23  39  61  90 119 151 195 245 291 343
#     4  11  21  36  59  87 121 158 192 232 292 354
#     4  10  20  35  62  92 116 151 193 236 293 352
#     4  10  23  41  60  85 119 157 192 236 297 355
#     4  10  18  33  59  89 120 151 190 236 286 348
#     4   9  18  36  59  86 120 153 187 234 289 347
#     4  10  22  40  59  81 114 151 193 239 285 338
#
# _framework density 21.098839000000002
#
# number of rings (size 3 to 8) (size 9 to 14) (size 15 to 20)
#    0.000    1.750    2.500    1.875    0.000    7.000 
#    0.000    5.000    0.000    1.500    0.000    0.000 
#    0.000    0.000    0.000    0.000    0.000    0.000 
#
# Total GULP energy -178808.384308 kJ/mol
# GULP energy per Si atom -5587.762010 kJ/mol
# Density = 2.105082 g / cm^3
# Si number density = 21.098839 Si / 1000 Ang^3
#
#
#
# Elastic Constant Matrix: (Units=GPa)
#
#
# Indices 1 2 3 4 5 6 
#
# 1 16.4631 5.0986 4.5979 0.0000 -7.4365 0.0000
# 2 5.0986 27.7936 31.8385 0.0000 -3.1662 0.0000
# 3 4.5979 31.8385 157.6473 0.0000 1.3046 0.0000
# 4 0.0000 0.0000 0.0000 33.2462 0.0000 0.5790
# 5 -7.4365 -3.1662 1.3046 0.0000 37.7319 0.0000
# 6 0.0000 0.0000 0.0000 0.5790 0.0000 12.3624
#
#
#
# Elastic Compliance Matrix: (Units=1/GPa)
#
#
# Indices 1 2 3 4 5 6 
#
# 1 0.070081 -0.011620 0.000197 0.000000 0.012830 0.000000
# 2 -0.011620 0.049429 -0.009662 0.000000 0.002192 0.000000
# 3 0.000197 -0.009662 0.008298 0.000000 -0.001059 0.000000
# 4 0.000000 0.000000 0.000000 0.030103 0.000000 -0.001410
# 5 0.012830 0.002192 -0.001059 0.000000 0.029252 0.000000
# 6 0.000000 0.000000 0.000000 -0.001410 0.000000 0.080957
#
#
# Mechanical properties :
#
#
# Convention : Reuss Voigt Hill
#
# Bulk Modulus (GPa) = 11.67711 31.66377 21.67044
# Shear Modulus (GPa) = 14.75646 27.35936 21.05791
#
# Velocity S-wave (km/s) = 2.64748 3.60491 3.16264
# Velocity P-wave (km/s) = 3.85902 5.68921 4.86103
#
# Compressibility (1/GPa) = 0.08563759
#
# Stress axis : x y z
#
# Youngs Moduli (GPa) = 14.26921 20.23115 120.51648
#
# Poissons Ratio (x) = 0.23508 -0.02369
# Poissons Ratio (y) = 0.16580 1.16442
# Poissons Ratio (z) = -0.00280 0.19547
#
# Static dielectric constant tensor:
#      x y z
#    x 1.794370 0.000000 -0.024740 
#    y 0.000000 1.699360 0.000000 
#    z -0.024740 0.000000 1.792330 
# 
# From -- ./inp_files/249725.got.cif
#   From: 2010.05.17/outbox.cif.g08.bks.cpg/sg12_125_cif.got.tgz:249725.got - 2010.06.03 13:09:07.
