data_PCOD9175843
_publ_section_title
;
Structure prediction by ZEFSAII (Michael W. Deem and Ramdas Pophale) SiO2 
 PCOD9175843
Probable space group: C 2/M
;
_chemical_formula_sum "Si O2"
_cell_formula_units_Z 58
_cell_length_a 10.660725
_cell_length_b 20.079013
_cell_length_c 27.738265
_cell_angle_alpha 90.000000
_cell_angle_beta 31.932888
_cell_angle_gamma 90.000000
_cell_volume 3140.530023
_symmetry_space_group_name_H-M "C 2/M"
_symmetry_group_IT_number 12
_symmetry_cell_setting 'monoclinic'
loop_
_space_group_symop_operation_xyz
x,y,z
-x,y,-z
-x,-y,-z
x,-y,z
1/2+x,1/2+y,z
1/2-x,1/2+y,-z
1/2-x,1/2-y,-z
1/2+x,1/2-y,z
loop_
_atom_site_type_symbol
_atom_site_label
_atom_site_fract_x
_atom_site_fract_y
_atom_site_fract_z
Si Si1 0.259552 0.757723 0.439483
Si Si2 0.500000 0.500000 0.500000
Si Si3 0.447311 0.424087 0.221440
Si Si4 0.618087 0.664915 0.082240
Si Si5 0.081146 0.317191 0.105642
Si Si6 0.479506 0.689773 0.727771
Si Si7 0.409623 0.167759 0.789700
Si Si8 0.569792 0.101634 0.649391
O O1 0.250000 0.750000 0.500000
O O2 0.394858 0.700873 0.364689
O O3 0.401232 0.825310 0.382670
O O4 0.000000 0.763209 0.500000
O O5 0.291691 0.557243 0.564034
O O6 0.522592 0.500000 0.206723
O O7 0.612974 0.386310 0.128075
O O8 0.439420 0.375208 0.269923
O O9 0.182331 0.425669 0.285833
O O10 0.676770 0.740819 0.078626
O O11 0.350039 0.668221 0.149557
O O12 0.788313 0.649251 0.981964
O O13 0.801805 0.315000 0.187387
O O14 0.117459 0.348843 0.145821
O O15 0.520195 0.758177 0.745347
O O16 0.559520 0.114958 0.710215
#
# Coordination Sequence:
#
# PCOD9175843 Si02
#       8
#     8   2   8   8   8   8   8   8
#     4  11  23  38  64  92 121 151 201 261 309 354
#     4  12  20  40  56  92 112 142 218 238 296 380
#     4  11  21  40  60  82 125 165 194 237 301 377
#     4   9  19  32  56  91 113 158 199 240 300 352
#     4  10  18  33  58  84 122 148 196 258 294 343
#     4  10  22  34  57  87 118 153 200 240 302 359
#     4   9  18  34  57  86 116 146 195 256 300 334
#     4  10  22  36  63  86 110 156 197 247 299 355
#
# _framework density 18.468219999999999
#
# number of rings (size 3 to 8) (size 9 to 14) (size 15 to 20)
#    0.000    1.931    2.759    2.069    3.862    0.552 
#    0.000    1.379    7.586    2.897    0.000    0.000 
#    0.000    0.000    0.000    0.000    0.000    0.000 
#
# Total GULP energy -161522.489339 kJ/mol
# GULP energy per Si atom -5569.741012 kJ/mol
# Density = 1.842619 g / cm^3
# Si number density = 18.468220 Si / 1000 Ang^3
#
#
#
# Elastic Constant Matrix: (Units=GPa)
#
#
# Indices 1 2 3 4 5 6 
#
# 1 52.3288 29.1587 29.0406 0.0052 28.3185 0.0120
# 2 29.1587 90.6414 30.5183 -0.0331 18.5373 0.0145
# 3 29.0406 30.5183 98.6518 -0.0027 30.9354 -0.0163
# 4 0.0052 -0.0331 -0.0027 -9.1994 -0.0136 6.0186
# 5 28.3185 18.5373 30.9354 -0.0136 34.1578 -0.0073
# 6 0.0120 0.0145 -0.0163 6.0186 -0.0073 2.0201
#
#
#
# Elastic Compliance Matrix: (Units=1/GPa)
#
#
# Indices 1 2 3 4 5 6 
#
# 1 0.037771 -0.006366 -0.000577 -0.000034 -0.027337 -0.000181
# 2 -0.006366 0.013908 -0.002398 -0.000036 -0.000099 0.000025
# 3 -0.000577 -0.002398 0.014651 0.000029 -0.011489 0.000012
# 4 -0.000034 -0.000036 0.000029 -0.036859 0.000030 0.109814
# 5 -0.027337 -0.000099 -0.011489 0.000030 0.062398 0.000205
# 6 -0.000181 0.000025 0.000012 0.109814 0.000205 0.167850
#
#
# Mechanical properties :
#
#
# Convention : Reuss Voigt Hill
#
# Bulk Modulus (GPa) = 20.98688 46.56193 33.77440
# Shear Modulus (GPa) = 16.99043 15.58935 16.28989
#
# Velocity S-wave (km/s) = 3.03641 2.90852 2.97315
# Velocity P-wave (km/s) = 4.86636 6.04533 5.48760
#
# Compressibility (1/GPa) = 0.04764882
#
# Stress axis : x y z
#
# Youngs Moduli (GPa) = 26.47533 71.90270 68.25438
#
# Poissons Ratio (x) = 0.45770 0.03941
# Poissons Ratio (y) = 0.16853 0.16364
# Poissons Ratio (z) = 0.01529 0.17239
#
# Static dielectric constant tensor:
#      x y z
#    x 1.644640 0.000000 0.014540 
#    y 0.000000 1.640370 0.000000 
#    z 0.014540 0.000000 1.663670 
# 
# From -- ./inp_files/358782.got.cif
#   From: 2010.05.17/outbox.cif.g08.bks.cpg/sg12_180_cif.got.tgz:358782.got - 2010.06.03 13:09:07.
