data_PCOD9175257
_publ_section_title
;
Structure prediction by ZEFSAII (Michael W. Deem and Ramdas Pophale) SiO2 
 PCOD9175257
Probable space group: C 2/M
;
_chemical_formula_sum "Si O2"
_cell_formula_units_Z 56
_cell_length_a 15.842454
_cell_length_b 7.701536
_cell_length_c 25.019851
_cell_angle_alpha 90.000000
_cell_angle_beta 60.417714
_cell_angle_gamma 90.000000
_cell_volume 2654.775651
_symmetry_space_group_name_H-M "C 2/M"
_symmetry_group_IT_number 12
_symmetry_cell_setting 'monoclinic'
loop_
_space_group_symop_operation_xyz
x,y,z
-x,y,-z
-x,-y,-z
x,-y,z
1/2+x,1/2+y,z
1/2-x,1/2+y,-z
1/2-x,1/2-y,-z
1/2+x,1/2-y,z
loop_
_atom_site_type_symbol
_atom_site_label
_atom_site_fract_x
_atom_site_fract_y
_atom_site_fract_z
Si Si1 0.501301 0.201285 0.644490
Si Si2 0.015035 0.212672 0.862248
Si Si3 0.304207 0.710507 0.129173
Si Si4 0.411603 0.296586 0.563129
Si Si5 0.351907 0.291686 0.996158
Si Si6 0.419398 0.704105 0.783002
Si Si7 0.719279 0.791339 0.570073
O O1 0.439710 0.284249 0.616110
O O2 0.450806 0.214094 0.717481
O O3 0.610483 0.276277 0.613593
O O4 0.509284 0.000000 0.626609
O O5 0.122288 0.264558 0.847068
O O6 0.938877 0.271776 0.931476
O O7 0.978666 0.272370 0.815802
O O8 0.011904 0.000000 0.862627
O O9 0.302071 0.500000 0.128929
O O10 0.194637 0.771812 0.170447
O O11 0.346623 0.770916 0.058759
O O12 0.500000 0.221059 0.500000
O O13 0.406367 0.500000 0.550118
O O14 0.306201 0.223484 0.580502
O O15 0.362487 0.500000 0.995502
O O16 0.250000 0.250000 0.000000
O O17 0.439648 0.500000 0.772118
O O18 0.750000 0.750000 0.500000
O O19 0.713527 0.000000 0.578856
#
# Coordination Sequence:
#
# PCOD9175257 Si02
#       7
#     8   8   8   8   8   8   8
#     4  11  24  40  59  86 119 152 194 238 281 340
#     4   9  19  36  58  84 115 152 194 235 288 349
#     4  10  20  36  60  86 114 151 195 241 288 342
#     4  10  20  37  62  90 120 151 184 227 284 341
#     4  10  18  32  57  86 116 149 189 239 291 342
#     4  11  23  40  59  80 114 155 194 239 289 344
#     4  10  21  37  60  89 119 150 185 231 282 338
#
# _framework density 21.094061
#
# number of rings (size 3 to 8) (size 9 to 14) (size 15 to 20)
#    0.000    1.857    2.857    1.286    0.000    4.286 
#    0.000    5.000    0.000    1.714    0.000    0.000 
#    0.000    0.000    0.000    0.000    0.000    0.000 
#
# Total GULP energy -156406.269234 kJ/mol
# GULP energy per Si atom -5585.938187 kJ/mol
# Density = 2.104605 g / cm^3
# Si number density = 21.094061 Si / 1000 Ang^3
#
#
#
# Elastic Constant Matrix: (Units=GPa)
#
#
# Indices 1 2 3 4 5 6 
#
# 1 167.5242 -6.7774 38.9768 0.0000 28.5375 0.0000
# 2 -6.7774 29.3002 -14.7713 0.0000 -3.5095 -0.0001
# 3 38.9768 -14.7713 91.2680 0.0000 25.5061 0.0000
# 4 0.0000 0.0000 0.0000 14.1310 0.0000 -6.6530
# 5 28.5375 -3.5095 25.5061 0.0000 15.7319 0.0000
# 6 0.0000 -0.0001 0.0000 -6.6530 0.0000 10.6000
#
#
#
# Elastic Compliance Matrix: (Units=1/GPa)
#
#
# Indices 1 2 3 4 5 6 
#
# 1 0.008728 0.000565 0.001378 0.000000 -0.017939 0.000000
# 2 0.000565 0.037260 0.006861 0.000000 -0.003836 0.000000
# 3 0.001378 0.006861 0.021484 0.000000 -0.035799 0.000000
# 4 0.000000 0.000000 0.000000 0.100449 0.000000 0.063046
# 5 -0.017939 -0.003836 -0.035799 0.000000 0.153292 0.000000
# 6 0.000000 0.000000 0.000000 0.063046 0.000000 0.133910
#
#
# Mechanical properties :
#
#
# Convention : Reuss Voigt Hill
#
# Bulk Modulus (GPa) = 11.75401 35.88317 23.81859
# Shear Modulus (GPa) = 10.73250 26.13687 18.43469
#
# Velocity S-wave (km/s) = 2.25809 3.52385 2.95943
# Velocity P-wave (km/s) = 3.51894 5.79695 4.79518
#
# Compressibility (1/GPa) = 0.08507735
#
# Stress axis : x y z
#
# Youngs Moduli (GPa) = 114.57996 26.83875 46.54721
#
# Poissons Ratio (x) = -0.01515 -0.06412
# Poissons Ratio (y) = -0.06468 -0.31937
# Poissons Ratio (z) = -0.15784 -0.18415
#
# Static dielectric constant tensor:
#      x y z
#    x 1.758640 0.000000 -0.005460 
#    y 0.000000 1.806360 0.000000 
#    z -0.005460 0.000000 1.706910 
# 
# From -- ./inp_files/338482.got.cif
#   From: 2010.05.17/outbox.cif.g08.bks.cpg/sg12_170_cif.got.tgz:338482.got - 2010.06.03 13:09:07.
