data_PCOD9175494
_publ_section_title
;
Structure prediction by ZEFSAII (Michael W. Deem and Ramdas Pophale) SiO2 
 PCOD9175494
Probable space group: C 2/M
;
_chemical_formula_sum "Si O2"
_cell_formula_units_Z 56
_cell_length_a 18.098585
_cell_length_b 23.938924
_cell_length_c 7.628821
_cell_angle_alpha 90.000000
_cell_angle_beta 48.671409
_cell_angle_gamma 90.000000
_cell_volume 2482.040379
_symmetry_space_group_name_H-M "C 2/M"
_symmetry_group_IT_number 12
_symmetry_cell_setting 'monoclinic'
loop_
_space_group_symop_operation_xyz
x,y,z
-x,y,-z
-x,-y,-z
x,-y,z
1/2+x,1/2+y,z
1/2-x,1/2+y,-z
1/2-x,1/2-y,-z
1/2+x,1/2-y,z
loop_
_atom_site_type_symbol
_atom_site_label
_atom_site_fract_x
_atom_site_fract_y
_atom_site_fract_z
Si Si1 0.242109 0.935286 0.439781
Si Si2 0.454538 0.381217 0.374593
Si Si3 0.255525 0.162789 0.884403
Si Si4 0.451917 0.743256 0.385757
Si Si5 0.374974 0.841238 0.348202
Si Si6 0.361859 0.561147 0.016451
Si Si7 0.280083 0.225905 0.190545
O O1 0.158862 0.901110 0.461433
O O2 0.344975 0.900209 0.301409
O O3 0.189791 0.936889 0.713185
O O4 0.255788 0.000000 0.362221
O O5 0.500000 0.381551 0.500000
O O6 0.470587 0.318244 0.278630
O O7 0.523767 0.423519 0.160370
O O8 0.333111 0.150149 0.609709
O O9 0.192634 0.108027 0.009655
O O10 0.185504 0.212144 0.916708
O O11 0.298803 0.185927 0.996525
O O12 0.500000 0.749490 0.500000
O O13 0.468023 0.800006 0.246718
O O14 0.336199 0.735801 0.611692
O O15 0.316377 0.799040 0.313596
O O16 0.349111 0.500000 0.959781
#
# Coordination Sequence:
#
# PCOD9175494 Si02
#       7
#     8   8   8   8   8   8   8
#     4  10  21  36  52  71 101 141 182 214 251 308
#     4  11  21  32  48  74 109 141 174 208 254 307
#     4   9  18  31  52  70  98 134 173 218 251 289
#     4  10  19  31  52  75 102 133 171 215 266 312
#     4  10  20  35  55  73  99 136 172 216 266 299
#     4  10  21  34  47  71 106 146 178 202 246 312
#     4  10  18  33  53  76  97 131 176 217 260 305
#
# _framework density 22.562083000000001
#
# number of rings (size 3 to 8) (size 9 to 14) (size 15 to 20)
#    0.000    2.000    1.429    4.286    2.000    2.286 
#    0.000    0.000    0.000    0.429    0.000    0.000 
#    0.000    0.000    0.000   30.857    0.000    6.571 
#
# Total GULP energy -156036.326536 kJ/mol
# GULP energy per Si atom -5572.725948 kJ/mol
# Density = 2.251073 g / cm^3
# Si number density = 22.562083 Si / 1000 Ang^3
#
#
#
# Elastic Constant Matrix: (Units=GPa)
#
#
# Indices 1 2 3 4 5 6 
#
# 1 82.0137 43.5390 6.2763 0.0000 12.4455 0.0000
# 2 43.5390 176.7339 6.0262 0.0000 -7.9579 0.0000
# 3 6.2763 6.0262 51.2765 0.0000 11.9336 0.0000
# 4 0.0000 0.0000 0.0000 -6.4242 0.0000 -1.6528
# 5 12.4455 -7.9579 11.9336 0.0000 14.8921 0.0000
# 6 0.0000 0.0000 0.0000 -1.6528 0.0000 30.6071
#
#
#
# Elastic Compliance Matrix: (Units=1/GPa)
#
#
# Indices 1 2 3 4 5 6 
#
# 1 0.017953 -0.005455 0.003213 0.000000 -0.020493 0.000000
# 2 -0.005455 0.007582 -0.002738 0.000000 0.010804 0.000000
# 3 0.003213 -0.002738 0.025072 0.000000 -0.024239 0.000000
# 4 0.000000 0.000000 0.000000 -0.153529 0.000000 -0.008290
# 5 -0.020493 0.010804 -0.024239 0.000000 0.109474 0.000000
# 6 0.000000 0.000000 0.000000 -0.008290 0.000000 0.032224
#
#
# Mechanical properties :
#
#
# Convention : Reuss Voigt Hill
#
# Bulk Modulus (GPa) = 24.60206 46.85634 35.72920
# Shear Modulus (GPa) = 80.27605 24.76050 52.51828
#
# Velocity S-wave (km/s) = 5.97137 3.31636 4.82988
# Velocity P-wave (km/s) = 7.64663 5.95627 6.85376
#
# Compressibility (1/GPa) = 0.04064700
#
# Stress axis : x y z
#
# Youngs Moduli (GPa) = 55.70086 131.89199 39.88540
#
# Poissons Ratio (x) = 0.71949 -0.12815
# Poissons Ratio (y) = 0.30385 0.10920
# Poissons Ratio (z) = -0.17897 0.36110
#
# Static dielectric constant tensor:
#      x y z
#    x 1.867670 0.000000 -0.044290 
#    y 0.000000 1.919290 0.000000 
#    z -0.044290 0.000000 1.912980 
# 
# From -- ./inp_files/78709.got.cif
#   From: 2010.05.17/outbox.cif.g08.bks.cpg/sg12_40_cif.got.tgz:78709.got - 2010.06.03 13:09:07.
