data_PCOD9175421
_publ_section_title
;
Structure prediction by ZEFSAII (Michael W. Deem and Ramdas Pophale) SiO2 
 PCOD9175421
Probable space group: C 2/M
;
_chemical_formula_sum "Si O2"
_cell_formula_units_Z 56
_cell_length_a 17.894090
_cell_length_b 24.875171
_cell_length_c 8.754648
_cell_angle_alpha 90.000000
_cell_angle_beta 47.423404
_cell_angle_gamma 90.000000
_cell_volume 2869.541702
_symmetry_space_group_name_H-M "C 2/M"
_symmetry_group_IT_number 12
_symmetry_cell_setting 'monoclinic'
loop_
_space_group_symop_operation_xyz
x,y,z
-x,y,-z
-x,-y,-z
x,-y,z
1/2+x,1/2+y,z
1/2-x,1/2+y,-z
1/2-x,1/2-y,-z
1/2+x,1/2-y,z
loop_
_atom_site_type_symbol
_atom_site_label
_atom_site_fract_x
_atom_site_fract_y
_atom_site_fract_z
Si Si1 0.800890 0.259425 0.708884
Si Si2 0.786563 0.156047 0.396612
Si Si3 0.708711 0.850898 0.836240
Si Si4 0.407347 0.382335 0.744957
Si Si5 0.972359 0.786378 0.297468
Si Si6 0.888633 0.060980 0.079076
Si Si7 0.932733 0.321030 0.746174
O O1 0.779831 0.300172 0.600618
O O2 0.715145 0.214648 0.827853
O O3 0.899856 0.222100 0.544966
O O4 0.831055 0.295712 0.809190
O O5 0.729521 0.137175 0.629549
O O6 0.892562 0.187085 0.291058
O O7 0.815299 0.105385 0.253885
O O8 0.803475 0.875259 0.797567
O O9 0.607821 0.863655 0.073910
O O10 0.500000 0.392181 0.500000
O O11 0.438221 0.328293 0.796727
O O12 0.398521 0.427554 0.885771
O O13 0.011855 0.725769 0.232891
O O14 0.855297 0.000000 0.154595
O O15 0.000000 0.067825 0.000000
O O16 0.000000 0.335255 0.500000
#
# Coordination Sequence:
#
# PCOD9175421 Si02
#       7
#     8   8   8   8   8   8   8
#     4  10  19  32  50  79 112 147 189 223 270 334
#     4  11  22  37  52  79 113 150 197 232 278 325
#     4  11  20  32  55  80 109 151 186 226 274 345
#     4  12  19  36  58  80 110 150 192 226 277 329
#     4  10  18  33  50  78 114 153 184 217 263 339
#     4  11  24  39  55  76 107 151 199 243 285 325
#     4  10  20  33  49  74 114 154 192 218 263 330
#
# _framework density 19.515312000000002
#
# number of rings (size 3 to 8) (size 9 to 14) (size 15 to 20)
#    0.000    1.286    5.714    3.429    2.000    0.286 
#    2.571    2.857    0.000    0.000    0.000    0.000 
#    0.000   57.714    0.000    0.000    0.000    0.000 
#
# Total GULP energy -156019.908497 kJ/mol
# GULP energy per Si atom -5572.139589 kJ/mol
# Density = 1.947089 g / cm^3
# Si number density = 19.515312 Si / 1000 Ang^3
#
#
#
# Elastic Constant Matrix: (Units=GPa)
#
#
# Indices 1 2 3 4 5 6 
#
# 1 36.4304 22.8703 4.8049 0.0000 13.1435 0.0000
# 2 22.8703 48.6167 35.3294 0.0000 7.5387 0.0000
# 3 4.8049 35.3294 120.8030 0.0000 0.5794 0.0000
# 4 0.0000 0.0000 0.0000 16.9880 0.0000 3.7588
# 5 13.1435 7.5387 0.5794 0.0000 26.9457 0.0000
# 6 0.0000 0.0000 0.0000 3.7588 0.0000 7.2188
#
#
#
# Elastic Compliance Matrix: (Units=1/GPa)
#
#
# Indices 1 2 3 4 5 6 
#
# 1 0.047531 -0.023428 0.005041 0.000000 -0.016739 0.000000
# 2 -0.023428 0.039119 -0.010512 0.000000 0.000709 0.000000
# 3 0.005041 -0.010512 0.011151 0.000000 0.000242 0.000000
# 4 0.000000 0.000000 0.000000 0.066530 0.000000 -0.034642
# 5 -0.016739 0.000709 0.000242 0.000000 0.045073 0.000000
# 6 0.000000 0.000000 0.000000 -0.034642 0.000000 0.156565
#
#
# Mechanical properties :
#
#
# Convention : Reuss Voigt Hill
#
# Bulk Modulus (GPa) = 24.99753 36.87327 30.93540
# Shear Modulus (GPa) = 11.43903 19.75352 15.59628
#
# Velocity S-wave (km/s) = 2.42369 3.18497 2.83005
# Velocity P-wave (km/s) = 4.54636 5.69745 5.15414
#
# Compressibility (1/GPa) = 0.04000395
#
# Stress axis : x y z
#
# Youngs Moduli (GPa) = 21.03884 25.56304 89.68141
#
# Poissons Ratio (x) = 0.59888 -0.45211
# Poissons Ratio (y) = 0.49289 0.94274
# Poissons Ratio (z) = -0.10606 0.26872
#
# Static dielectric constant tensor:
#      x y z
#    x 1.748140 0.000000 -0.019660 
#    y 0.000000 1.654170 0.000000 
#    z -0.019660 0.000000 1.795990 
# 
# From -- ./inp_files/90343.got.cif
#   From: 2010.05.17/outbox.cif.g08.bks.cpg/sg12_46_cif.got.tgz:90343.got - 2010.06.03 13:09:07.
