data_PCOD9175490
_publ_section_title
;
Structure prediction by ZEFSAII (Michael W. Deem and Ramdas Pophale) SiO2 
 PCOD9175490
Probable space group: C 2/M
;
_chemical_formula_sum "Si O2"
_cell_formula_units_Z 56
_cell_length_a 24.488009
_cell_length_b 25.129079
_cell_length_c 16.070342
_cell_angle_alpha 90.000000
_cell_angle_beta 18.356489
_cell_angle_gamma 90.000000
_cell_volume 3114.346560
_symmetry_space_group_name_H-M "C 2/M"
_symmetry_group_IT_number 12
_symmetry_cell_setting 'monoclinic'
loop_
_space_group_symop_operation_xyz
x,y,z
-x,y,-z
-x,-y,-z
x,-y,z
1/2+x,1/2+y,z
1/2-x,1/2+y,-z
1/2-x,1/2-y,-z
1/2+x,1/2-y,z
loop_
_atom_site_type_symbol
_atom_site_label
_atom_site_fract_x
_atom_site_fract_y
_atom_site_fract_z
Si Si1 0.441107 0.059155 0.882120
Si Si2 0.223113 0.819863 0.373193
Si Si3 0.073319 0.334443 0.762918
Si Si4 0.931677 0.092032 0.512372
Si Si5 0.216159 0.558871 0.069862
Si Si6 0.832785 0.323312 0.800357
Si Si7 0.461091 0.762992 0.773771
O O1 0.558809 0.105703 0.749034
O O2 0.409277 0.065245 0.829256
O O3 0.507858 0.000000 0.802363
O O4 0.249678 0.064658 0.201075
O O5 0.264421 0.824729 0.411330
O O6 0.107714 0.866717 0.503042
O O7 0.121000 0.766738 0.499241
O O8 0.402977 0.824995 0.065116
O O9 0.044949 0.294635 0.728283
O O10 0.000000 0.118191 0.500000
O O11 0.091022 0.057766 0.248983
O O12 0.183215 0.500000 0.155410
O O13 0.203193 0.613002 0.142506
O O14 0.872437 0.303285 0.837325
O O15 0.000000 0.314762 0.500000
O O16 0.674700 0.283679 0.003730
#
# Coordination Sequence:
#
# PCOD9175490 Si02
#       7
#     8   8   8   8   8   8   8
#     4   9  17  31  52  77 107 139 171 209 260 316
#     4  10  20  33  53  78 107 137 175 212 251 310
#     4  10  20  34  52  79 106 139 178 211 251 309
#     4   9  17  30  52  78 108 135 168 208 263 314
#     4  10  18  33  53  76 105 137 171 216 269 313
#     4  11  23  35  54  82 102 132 180 221 266 312
#     4  11  21  37  54  73 108 143 167 217 265 313
#
# _framework density 17.981300000000001
#
# number of rings (size 3 to 8) (size 9 to 14) (size 15 to 20)
#    0.000    2.000    2.857    1.714    0.000    2.571 
#    0.000    6.429    0.000    0.000    0.000    0.000 
#    0.000    3.429    0.000    0.000    0.000    0.000 
#
# Total GULP energy -155947.917131 kJ/mol
# GULP energy per Si atom -5569.568469 kJ/mol
# Density = 1.794037 g / cm^3
# Si number density = 17.981300 Si / 1000 Ang^3
#
#
#
# Elastic Constant Matrix: (Units=GPa)
#
#
# Indices 1 2 3 4 5 6 
#
# 1 62.3059 32.5772 2.3198 -0.3027 -7.4818 0.1268
# 2 32.5772 128.4575 15.3764 -0.2148 -1.9623 0.0900
# 3 2.3198 15.3764 28.8582 -0.5551 1.1849 0.2265
# 4 -0.3027 -0.2148 -0.5551 232.0693 0.3597 -86.5115
# 5 -7.4818 -1.9623 1.1849 0.3597 19.3587 -0.1441
# 6 0.1268 0.0900 0.2265 -86.5115 -0.1441 54.4567
#
#
#
# Elastic Compliance Matrix: (Units=1/GPa)
#
#
# Indices 1 2 3 4 5 6 
#
# 1 0.019426 -0.004912 0.000770 0.000009 0.006962 -0.000008
# 2 -0.004912 0.009581 -0.004684 -0.000007 -0.000640 0.000003
# 3 0.000770 -0.004684 0.037189 0.000077 -0.002455 -0.000032
# 4 0.000009 -0.000007 0.000077 0.010567 -0.000073 0.016787
# 5 0.006962 -0.000640 -0.002455 -0.000073 0.054434 0.000023
# 6 -0.000008 0.000003 -0.000032 0.016787 0.000023 0.045031
#
#
# Mechanical properties :
#
#
# Convention : Reuss Voigt Hill
#
# Bulk Modulus (GPa) = 20.60023 35.57429 28.08726
# Shear Modulus (GPa) = 23.80251 72.46683 48.13467
#
# Velocity S-wave (km/s) = 3.64227 6.35521 5.17952
# Velocity P-wave (km/s) = 5.40088 8.58362 7.17106
#
# Compressibility (1/GPa) = 0.04854315
#
# Stress axis : x y z
#
# Youngs Moduli (GPa) = 51.47826 104.36962 26.88994
#
# Poissons Ratio (x) = 0.51269 -0.02071
# Poissons Ratio (y) = 0.25287 0.12596
# Poissons Ratio (z) = -0.03965 0.48888
#
# Static dielectric constant tensor:
#      x y z
#    x 1.632800 -0.000010 0.014490 
#    y -0.000010 1.642020 0.000010 
#    z 0.014490 0.000010 1.632130 
# 
# From -- ./inp_files/242127.got.cif
#   From: 2010.05.17/outbox.cif.g08.bks.cpg/sg12_122_cif.got.tgz:242127.got - 2010.06.03 13:09:07.
