data_PCOD9175603
_publ_section_title
;
Structure prediction by ZEFSAII (Michael W. Deem and Ramdas Pophale) SiO2 
 PCOD9175603
Probable space group: C 2/M
;
_chemical_formula_sum "Si O2"
_cell_formula_units_Z 56
_cell_length_a 24.705747
_cell_length_b 7.564182
_cell_length_c 15.832462
_cell_angle_alpha 90.000000
_cell_angle_beta 56.325515
_cell_angle_gamma 90.000000
_cell_volume 2462.275884
_symmetry_space_group_name_H-M "C 2/M"
_symmetry_group_IT_number 12
_symmetry_cell_setting 'monoclinic'
loop_
_space_group_symop_operation_xyz
x,y,z
-x,y,-z
-x,-y,-z
x,-y,z
1/2+x,1/2+y,z
1/2-x,1/2+y,-z
1/2-x,1/2-y,-z
1/2+x,1/2-y,z
loop_
_atom_site_type_symbol
_atom_site_label
_atom_site_fract_x
_atom_site_fract_y
_atom_site_fract_z
Si Si1 0.572806 0.786190 0.463492
Si Si2 0.431649 0.295074 0.340999
Si Si3 0.927988 0.296368 0.840355
Si Si4 0.662891 0.216084 0.229699
Si Si5 0.791959 0.216582 0.199579
Si Si6 0.567328 0.702125 0.973377
Si Si7 0.798701 0.788135 0.381625
O O1 0.500000 0.733472 0.500000
O O2 0.587100 0.718175 0.544481
O O3 0.621923 0.730280 0.347818
O O4 0.574724 0.000000 0.466308
O O5 0.440502 0.500000 0.310292
O O6 0.501362 0.208087 0.265094
O O7 0.371172 0.220589 0.340202
O O8 0.911719 0.500000 0.872839
O O9 0.874535 0.223404 0.821527
O O10 0.932144 0.201554 0.926054
O O11 0.736753 0.272921 0.181472
O O12 0.660910 0.000000 0.229106
O O13 0.864421 0.279715 0.116262
O O14 0.775112 0.270651 0.309945
O O15 0.791997 0.000000 0.196476
O O16 0.567105 0.500000 0.940457
O O17 0.500000 0.785718 0.000000
O O18 0.750000 0.750000 0.500000
O O19 0.804130 0.000000 0.372679
#
# Coordination Sequence:
#
# PCOD9175603 Si02
#       7
#     8   8   8   8   8   8   8
#     4  10  18  33  55  79 111 153 194 230 277 334
#     4  11  22  35  54  84 118 150 189 237 288 337
#     4  11  22  37  57  83 112 144 187 235 281 335
#     4   9  18  33  54  81 111 145 188 230 274 336
#     4   9  18  35  58  79 107 149 187 224 279 338
#     4  10  21  39  61  83 109 143 185 232 283 340
#     4  10  21  37  58  84 113 148 189 232 278 335
#
# _framework density 22.743188
#
# number of rings (size 3 to 8) (size 9 to 14) (size 15 to 20)
#    0.000    2.000    1.429    2.571    0.000    5.714 
#    0.000    0.714    0.000    2.571    0.000    0.000 
#    0.000    0.000    0.000    0.000    0.000    0.000 
#
# Total GULP energy -156513.838880 kJ/mol
# GULP energy per Si atom -5589.779960 kJ/mol
# Density = 2.269142 g / cm^3
# Si number density = 22.743188 Si / 1000 Ang^3
#
#
#
# Elastic Constant Matrix: (Units=GPa)
#
#
# Indices 1 2 3 4 5 6 
#
# 1 199.1227 3.9611 59.5441 -0.0001 -4.6020 -0.0002
# 2 3.9611 55.3709 -6.6621 -0.0002 -2.8258 -0.0006
# 3 59.5441 -6.6621 97.6018 0.0000 0.2405 0.0000
# 4 -0.0001 -0.0002 0.0000 15.0118 0.0000 8.9175
# 5 -4.6020 -2.8258 0.2405 0.0000 38.5609 0.0000
# 6 -0.0002 -0.0006 0.0000 8.9175 0.0000 1.8912
#
#
#
# Elastic Compliance Matrix: (Units=1/GPa)
#
#
# Indices 1 2 3 4 5 6 
#
# 1 0.006206 -0.000871 -0.003847 0.000000 0.000701 0.000000
# 2 -0.000871 0.018400 0.001784 0.000002 0.001233 -0.000002
# 3 -0.003847 0.001784 0.012716 0.000000 -0.000408 0.000000
# 4 0.000000 0.000002 0.000000 -0.036987 0.000000 0.174404
# 5 0.000701 0.001233 -0.000408 0.000000 0.026110 -0.000001
# 6 0.000000 -0.000002 0.000000 0.174404 -0.000001 -0.293594
#
#
# Mechanical properties :
#
#
# Convention : Reuss Voigt Hill
#
# Bulk Modulus (GPa) = 31.79295 51.75352 41.77323
# Shear Modulus (GPa) = -19.93646 30.77627 5.41990
#
# Velocity S-wave (km/s) = -2.96394 3.68259 1.54540
# Velocity P-wave (km/s) = 1.51532 6.39429 4.64667
#
# Compressibility (1/GPa) = 0.03145351
#
# Stress axis : x y z
#
# Youngs Moduli (GPa) = 161.13380 54.34788 78.64330
#
# Poissons Ratio (x) = 0.04734 0.30256
# Poissons Ratio (y) = 0.14036 -0.14033
# Poissons Ratio (z) = 0.61993 -0.09698
#
# Static dielectric constant tensor:
#      x y z
#    x 1.842430 0.000000 -0.009740 
#    y 0.000000 1.867850 0.000000 
#    z -0.009740 0.000000 1.796950 
# 
# From -- ./inp_files/238269.got.cif
#   From: 2010.05.17/outbox.cif.g08.bks.cpg/sg12_120_cif.got.tgz:238269.got - 2010.06.03 13:09:07.
