data_PCOD9175485
_publ_section_title
;
Structure prediction by ZEFSAII (Michael W. Deem and Ramdas Pophale) SiO2 
 PCOD9175485
Probable space group: C 2/M
;
_chemical_formula_sum "Si O2"
_cell_formula_units_Z 52
_cell_length_a 11.646396
_cell_length_b 20.866188
_cell_length_c 13.566675
_cell_angle_alpha 90.000000
_cell_angle_beta 64.000149
_cell_angle_gamma 90.000000
_cell_volume 2963.253649
_symmetry_space_group_name_H-M "C 2/M"
_symmetry_group_IT_number 12
_symmetry_cell_setting 'monoclinic'
loop_
_space_group_symop_operation_xyz
x,y,z
-x,y,-z
-x,-y,-z
x,-y,z
1/2+x,1/2+y,z
1/2-x,1/2+y,-z
1/2-x,1/2-y,-z
1/2+x,1/2-y,z
loop_
_atom_site_type_symbol
_atom_site_label
_atom_site_fract_x
_atom_site_fract_y
_atom_site_fract_z
Si Si1 0.131776 0.637154 0.905879
Si Si2 0.241027 0.425551 0.668728
Si Si3 0.500000 0.643528 0.500000
Si Si4 0.362108 0.074866 0.501785
Si Si5 0.684754 0.318365 0.007087
Si Si6 0.397248 0.716693 0.158958
Si Si7 0.321057 0.695663 0.409157
O O1 0.185988 0.604244 0.788413
O O2 0.235296 0.634698 0.954578
O O3 0.105224 0.711012 0.882599
O O4 0.000000 0.611198 0.000000
O O5 0.264314 0.500000 0.675564
O O6 0.375091 0.395021 0.582891
O O7 0.140983 0.418486 0.615923
O O8 0.448749 0.681958 0.424381
O O9 0.500000 0.085272 0.500000
O O10 0.262202 0.130264 0.569881
O O11 0.324278 0.000000 0.536839
O O12 0.540088 0.311045 0.098875
O O13 0.750000 0.250000 0.000000
O O14 0.682272 0.325951 0.889824
O O15 0.349067 0.717991 0.288142
O O16 0.250000 0.750000 0.500000
#
# Coordination Sequence:
#
# PCOD9175485 Si02
#       7
#     8   8   4   8   8   8   8
#     4  11  20  34  52  80 111 142 183 229 288 341
#     4  10  21  37  59  80 107 150 195 240 282 339
#     4  10  21  40  54  82 115 146 184 230 296 346
#     4   9  20  40  58  79 115 160 198 227 286 362
#     4   9  17  33  50  73  98 144 183 214 272 344
#     4  10  18  33  53  75 108 143 181 221 282 341
#     4  11  23  35  55  90 119 145 186 246 292 334
#
# _framework density 17.548278
#
# number of rings (size 3 to 8) (size 9 to 14) (size 15 to 20)
#    0.000    2.000    3.077    3.000    1.077    3.385 
#    0.000    0.000    0.000    0.923    0.000    3.231 
#    0.000    0.000    0.000    0.000    0.000    0.000 
#
# Total GULP energy -144811.546874 kJ/mol
# GULP energy per Si atom -5569.674880 kJ/mol
# Density = 1.750834 g / cm^3
# Si number density = 17.548278 Si / 1000 Ang^3
#
#
#
# Elastic Constant Matrix: (Units=GPa)
#
#
# Indices 1 2 3 4 5 6 
#
# 1 131.4957 29.1357 59.6310 0.0000 22.4142 0.0000
# 2 29.1357 35.5878 28.0604 0.0000 6.2881 0.0000
# 3 59.6310 28.0604 162.3362 0.0000 13.5558 0.0000
# 4 0.0000 0.0000 0.0000 18.4449 0.0000 2.9775
# 5 22.4142 6.2881 13.5558 0.0000 21.8151 0.0000
# 6 0.0000 0.0000 0.0000 2.9775 0.0000 15.8067
#
#
#
# Elastic Compliance Matrix: (Units=1/GPa)
#
#
# Indices 1 2 3 4 5 6 
#
# 1 0.011510 -0.005951 -0.002484 0.000000 -0.008567 0.000000
# 2 -0.005951 0.036427 -0.003949 0.000000 -0.001931 0.000000
# 3 -0.002484 -0.003949 0.007855 0.000000 -0.001190 0.000000
# 4 0.000000 0.000000 0.000000 0.055916 0.000000 -0.010533
# 5 -0.008567 -0.001931 -0.001190 0.000000 0.055939 0.000000
# 6 0.000000 0.000000 0.000000 -0.010533 0.000000 0.065249
#
#
# Mechanical properties :
#
#
# Convention : Reuss Voigt Hill
#
# Bulk Modulus (GPa) = 32.23408 62.56376 47.39892
# Shear Modulus (GPa) = 18.65644 25.38618 22.02131
#
# Velocity S-wave (km/s) = 3.26413 3.80761 3.54630
# Velocity P-wave (km/s) = 5.71093 7.42026 6.62099
#
# Compressibility (1/GPa) = 0.03102307
#
# Stress axis : x y z
#
# Youngs Moduli (GPa) = 86.87963 27.45235 127.31526
#
# Poissons Ratio (x) = 0.16337 0.31625
# Poissons Ratio (y) = 0.51702 0.50280
# Poissons Ratio (z) = 0.21581 0.10842
#
# Static dielectric constant tensor:
#      x y z
#    x 1.660690 0.000000 -0.031990 
#    y 0.000000 1.595560 0.000000 
#    z -0.031990 0.000000 1.636150 
# 
# From -- ./inp_files/134792.got.cif
#   From: 2010.05.17/outbox.cif.g08.bks.cpg/sg12_68_cif.got.tgz:134792.got - 2010.06.03 13:09:07.
