data_PCOD9175476
_publ_section_title
;
Structure prediction by ZEFSAII (Michael W. Deem and Ramdas Pophale) SiO2 
 PCOD9175476
Probable space group: C 2/M
;
_chemical_formula_sum "Si O2"
_cell_formula_units_Z 48
_cell_length_a 28.728576
_cell_length_b 7.344001
_cell_length_c 9.762161
_cell_angle_alpha 90.000000
_cell_angle_beta 77.007203
_cell_angle_gamma 90.000000
_cell_volume 2006.916608
_symmetry_space_group_name_H-M "C 2/M"
_symmetry_group_IT_number 12
_symmetry_cell_setting 'monoclinic'
loop_
_space_group_symop_operation_xyz
x,y,z
-x,y,-z
-x,-y,-z
x,-y,z
1/2+x,1/2+y,z
1/2-x,1/2+y,-z
1/2-x,1/2-y,-z
1/2+x,1/2-y,z
loop_
_atom_site_type_symbol
_atom_site_label
_atom_site_fract_x
_atom_site_fract_y
_atom_site_fract_z
Si Si1 0.935460 0.720841 0.931598
Si Si2 0.300396 0.708291 0.305730
Si Si3 0.828316 0.720144 0.978697
Si Si4 0.963109 0.722434 0.222290
Si Si5 0.700013 0.776513 0.292596
Si Si6 0.119597 0.294945 0.537758
O O1 0.936263 0.500000 0.930513
O O2 0.883313 0.776351 0.918680
O O3 0.981560 0.778814 0.814043
O O4 0.943381 0.775263 0.085057
O O5 0.300741 0.500000 0.352228
O O6 0.246594 0.783433 0.345096
O O7 0.341591 0.803944 0.364452
O O8 0.312666 0.711546 0.136547
O O9 0.826812 0.500000 0.985991
O O10 0.798234 0.778674 0.866819
O O11 0.961484 0.500000 0.226856
O O12 0.927876 0.787944 0.364667
O O13 0.650842 0.714439 0.394542
O O14 0.700511 0.000000 0.296750
O O15 0.106822 0.500000 0.502038
#
# Coordination Sequence:
#
# PCOD9175476 Si02
#       6
#     8   8   8   8   8   8
#     4   8  13  23  44  73  96 116 151 197 237 276
#     4  11  21  33  48  71  99 127 163 207 236 271
#     4  10  18  33  53  72  95 129 162 194 238 290
#     4   8  13  23  44  73  96 116 151 197 237 276
#     4   9  20  33  48  72 101 126 159 201 240 281
#     4  10  18  33  53  72  95 129 162 194 238 290
#
# _framework density 23.917287000000002
#
# number of rings (size 3 to 8) (size 9 to 14) (size 15 to 20)
#    0.000    2.667    1.667    2.500    0.000    0.000 
#    0.000    3.333    0.000    7.000    0.000    0.000 
#    0.000    2.667    0.000    0.000    0.000    0.000 
#
# Total GULP energy -134082.733936 kJ/mol
# GULP energy per Si atom -5586.780581 kJ/mol
# Density = 2.386285 g / cm^3
# Si number density = 23.917287 Si / 1000 Ang^3
#
#
#
# Elastic Constant Matrix: (Units=GPa)
#
#
# Indices 1 2 3 4 5 6 
#
# 1 58.2444 -0.6946 2.2979 0.0000 -20.0720 0.0000
# 2 -0.6946 97.1487 -3.3269 0.0000 -2.4355 0.0000
# 3 2.2979 -3.3269 104.7341 0.0000 -19.9725 0.0000
# 4 0.0000 0.0000 0.0000 10.0938 0.0000 4.1849
# 5 -20.0720 -2.4355 -19.9725 0.0000 46.4329 0.0000
# 6 0.0000 0.0000 0.0000 4.1849 0.0000 0.2391
#
#
#
# Elastic Compliance Matrix: (Units=1/GPa)
#
#
# Indices 1 2 3 4 5 6 
#
# 1 0.020364 0.000428 0.001361 0.000000 0.009411 0.000000
# 2 0.000428 0.010337 0.000499 0.000000 0.000942 0.000000
# 3 0.001361 0.000499 0.010514 0.000000 0.005137 0.000000
# 4 0.000000 0.000000 0.000000 -0.015837 0.000000 0.277156
# 5 0.009411 0.000942 0.005137 0.000000 0.027864 0.000000
# 6 0.000000 0.000000 0.000000 0.277156 0.000000 -0.668496
#
#
# Mechanical properties :
#
#
# Convention : Reuss Voigt Hill
#
# Bulk Modulus (GPa) = 21.83851 28.51999 25.17925
# Shear Modulus (GPa) = -8.27037 28.80988 10.26976
#
# Velocity S-wave (km/s) = -1.86156 3.47445 2.07441
# Velocity P-wave (km/s) = 2.12841 5.29585 4.03585
#
# Compressibility (1/GPa) = 0.04579067
#
# Stress axis : x y z
#
# Youngs Moduli (GPa) = 49.10733 96.73755 95.11530
#
# Poissons Ratio (x) = -0.04142 -0.12949
# Poissons Ratio (y) = -0.02103 -0.04742
# Poissons Ratio (z) = -0.06686 -0.04823
#
# Static dielectric constant tensor:
#      x y z
#    x 1.878230 0.000000 -0.044000 
#    y 0.000000 2.001430 0.000000 
#    z -0.044000 0.000000 1.897460 
# 
# From -- ./inp_files/185742.got.cif
#   From: 2010.05.17/outbox.cif.g08.bks.cpg/sg12_93_cif.got.tgz:185742.got - 2010.06.03 13:09:07.
