data_PCOD9175041
_publ_section_title
;
Structure prediction by ZEFSAII (Michael W. Deem and Ramdas Pophale) SiO2 
 PCOD9175041
Probable space group: C 2/M
;
_chemical_formula_sum "Si O2"
_cell_formula_units_Z 64
_cell_length_a 20.240771
_cell_length_b 7.544198
_cell_length_c 24.878075
_cell_angle_alpha 90.000000
_cell_angle_beta 127.929599
_cell_angle_gamma 90.000000
_cell_volume 2996.438969
_symmetry_space_group_name_H-M "C 2/M"
_symmetry_group_IT_number 12
_symmetry_cell_setting 'monoclinic'
loop_
_space_group_symop_operation_xyz
x,y,z
-x,y,-z
-x,-y,-z
x,-y,z
1/2+x,1/2+y,z
1/2-x,1/2+y,-z
1/2-x,1/2-y,-z
1/2+x,1/2-y,z
loop_
_atom_site_type_symbol
_atom_site_label
_atom_site_fract_x
_atom_site_fract_y
_atom_site_fract_z
Si Si1 0.700958 0.797394 0.207881
Si Si2 0.964485 0.282581 0.655643
Si Si3 0.405743 0.217558 0.941785
Si Si4 0.356948 0.206062 0.213401
Si Si5 0.201436 0.216408 0.644863
Si Si6 0.014498 0.704438 0.565516
Si Si7 0.747678 0.210356 0.061697
Si Si8 0.220945 0.712050 0.425002
O O1 0.631022 0.718868 0.133745
O O2 0.786188 0.796940 0.214793
O O3 0.725958 0.722784 0.278095
O O4 0.675442 0.000000 0.205102
O O5 0.964431 0.500000 0.655650
O O6 0.048991 0.227676 0.728749
O O7 0.972230 0.220784 0.597566
O O8 0.874267 0.224396 0.631621
O O9 0.338453 0.273577 0.953206
O O10 0.405283 0.000000 0.940835
O O11 0.500000 0.274507 0.000000
O O12 0.324606 0.219403 0.136079
O O13 0.355173 0.000000 0.228357
O O14 0.113918 0.287784 0.622825
O O15 0.218903 0.275602 0.592706
O O16 0.197083 0.000000 0.644658
O O17 0.986011 0.500000 0.547820
O O18 0.000000 0.789417 0.500000
O O19 0.750008 0.000000 0.069453
O O20 0.750000 0.250000 0.000000
O O21 0.219506 0.500000 0.419118
O O22 0.250000 0.750000 0.500000
#
# Coordination Sequence:
#
# PCOD9175041 Si02
#       8
#     8   8   8   8   8   8   8   8
#     4   9  17  31  51  77 106 136 166 210 264 306
#     4   9  18  33  52  76 103 134 176 217 256 309
#     4   8  15  30  52  78 104 132 171 211 247 295
#     4  10  18  32  55  80 104 138 178 216 259 306
#     4  10  20  33  51  76 104 133 167 212 265 312
#     4  10  19  32  53  77 100 131 172 216 256 304
#     4  10  20  35  55  81 111 141 175 215 260 309
#     4  10  21  38  54  73 103 138 176 218 266 318
#
# _framework density 21.358685000000001
#
# number of rings (size 3 to 8) (size 9 to 14) (size 15 to 20)
#    0.000    2.500    1.250    2.250    0.000    1.750 
#    2.250    1.875    0.000    9.375    0.000    0.000 
#    0.000    0.000    0.000    0.000    0.000    0.000 
#
# Total GULP energy -178559.859702 kJ/mol
# GULP energy per Si atom -5579.995616 kJ/mol
# Density = 2.131007 g / cm^3
# Si number density = 21.358685 Si / 1000 Ang^3
#
#
#
# Elastic Constant Matrix: (Units=GPa)
#
#
# Indices 1 2 3 4 5 6 
#
# 1 36.4257 -4.6233 -2.5231 0.0000 -1.9119 0.0000
# 2 -4.6233 58.4673 -7.6641 0.0000 0.9750 0.0000
# 3 -2.5231 -7.6641 102.7075 0.0000 -0.3125 0.0000
# 4 0.0000 0.0000 0.0000 17.3359 0.0000 1.7593
# 5 -1.9119 0.9750 -0.3125 0.0000 41.4237 0.0000
# 6 0.0000 0.0000 0.0000 1.7593 0.0000 9.3059
#
#
#
# Elastic Compliance Matrix: (Units=1/GPa)
#
#
# Indices 1 2 3 4 5 6 
#
# 1 0.027869 0.002296 0.000860 0.000000 0.001239 0.000000
# 2 0.002296 0.017468 0.001359 0.000000 -0.000295 0.000000
# 3 0.000860 0.001359 0.009859 0.000000 0.000082 0.000000
# 4 0.000000 0.000000 0.000000 0.058812 0.000000 -0.011118
# 5 0.001239 -0.000295 0.000082 0.000000 0.024205 0.000000
# 6 0.000000 0.000000 0.000000 -0.011118 0.000000 0.109560
#
#
# Mechanical properties :
#
#
# Convention : Reuss Voigt Hill
#
# Bulk Modulus (GPa) = 15.57015 18.66438 17.11726
# Shear Modulus (GPa) = 19.21941 27.77385 23.49663
#
# Velocity S-wave (km/s) = 3.00299 3.60995 3.32037
# Velocity P-wave (km/s) = 4.39654 5.11206 4.76775
#
# Compressibility (1/GPa) = 0.06422546
#
# Stress axis : x y z
#
# Youngs Moduli (GPa) = 35.88200 57.24698 101.42843
#
# Poissons Ratio (x) = -0.13143 -0.08720
# Poissons Ratio (y) = -0.08238 -0.13784
# Poissons Ratio (z) = -0.03085 -0.07780
#
# Static dielectric constant tensor:
#      x y z
#    x 1.740660 0.000000 -0.008240 
#    y 0.000000 1.841060 0.000000 
#    z -0.008240 0.000000 1.817230 
# 
# From -- ./inp_files/346271.got.cif
#   From: 2010.05.17/outbox.cif.g08.bks.cpg/sg12_174_cif.got.tgz:346271.got - 2010.06.03 13:09:07.
