data_PCOD9175918
_publ_section_title
;
Structure prediction by ZEFSAII (Michael W. Deem and Ramdas Pophale) SiO2 
 PCOD9175918
Probable space group: C 2/M
;
_chemical_formula_sum "Si O2"
_cell_formula_units_Z 44
_cell_length_a 22.305249
_cell_length_b 10.489884
_cell_length_c 9.887502
_cell_angle_alpha 90.000000
_cell_angle_beta 58.373730
_cell_angle_gamma 90.000000
_cell_volume 1969.890849
_symmetry_space_group_name_H-M "C 2/M"
_symmetry_group_IT_number 12
_symmetry_cell_setting 'monoclinic'
loop_
_space_group_symop_operation_xyz
x,y,z
-x,y,-z
-x,-y,-z
x,-y,z
1/2+x,1/2+y,z
1/2-x,1/2+y,-z
1/2-x,1/2-y,-z
1/2+x,1/2-y,z
loop_
_atom_site_type_symbol
_atom_site_label
_atom_site_fract_x
_atom_site_fract_y
_atom_site_fract_z
Si Si1 0.923733 0.716144 0.629046
Si Si2 0.703105 0.500000 0.917156
Si Si3 0.167081 0.746836 0.815724
Si Si4 0.548106 0.853570 0.119403
Si Si5 0.894208 0.000000 0.722891
Si Si6 0.762235 0.500000 0.135350
Si Si7 0.115125 0.651214 0.610736
O O1 0.907406 0.658428 0.793999
O O2 0.875698 0.687628 0.557096
O O3 0.000000 0.661116 0.500000
O O4 0.930027 0.867251 0.646439
O O5 0.702852 0.374508 0.826794
O O6 0.630405 0.500000 0.091519
O O7 0.758996 0.500000 0.974594
O O8 0.203473 0.625312 0.842823
O O9 0.162364 0.727432 0.661031
O O10 0.086702 0.736197 0.967206
O O11 0.467305 0.823422 0.252565
O O12 0.550632 0.000000 0.068508
O O13 0.820297 0.000000 0.730607
O O14 0.126555 0.500000 0.613926
#
# Coordination Sequence:
#
# PCOD9175918 Si02
#       7
#     8   4   8   8   4   4   8
#     4  10  20  36  59  83 119 157 189 234 291 349
#     4  10  24  36  59  86 117 142 203 242 284 346
#     4  12  20  39  61  88 118 154 187 250 298 334
#     4  10  18  33  59  89 115 156 196 233 284 351
#     4  10  21  39  58  83 113 148 206 239 279 347
#     4  10  22  39  65  82 113 156 201 243 287 337
#     4  10  21  35  58  90 123 148 192 239 290 348
#
# _framework density 22.336262999999999
#
# number of rings (size 3 to 8) (size 9 to 14) (size 15 to 20)
#    0.545    1.091    3.636    1.909    0.000    4.364 
#    0.000    3.636    2.000    0.000    0.000    0.000 
#    0.000    0.000    0.000    0.000    0.000    0.000 
#
# Total GULP energy -122857.818284 kJ/mol
# GULP energy per Si atom -5584.446286 kJ/mol
# Density = 2.228542 g / cm^3
# Si number density = 22.336263 Si / 1000 Ang^3
#
#
#
# Elastic Constant Matrix: (Units=GPa)
#
#
# Indices 1 2 3 4 5 6 
#
# 1 72.3023 40.3049 38.3471 0.0000 38.5309 0.0000
# 2 40.3049 125.1749 14.0883 0.0000 27.5300 0.0000
# 3 38.3471 14.0883 79.3837 0.0000 45.1126 0.0000
# 4 0.0000 0.0000 0.0000 -153.7616 0.0000 -364.7003
# 5 38.5309 27.5300 45.1126 0.0000 62.4876 0.0000
# 6 0.0000 0.0000 0.0000 -364.7003 0.0000 -789.7126
#
#
#
# Elastic Compliance Matrix: (Units=1/GPa)
#
#
# Indices 1 2 3 4 5 6 
#
# 1 0.024525 -0.005378 -0.006181 0.000000 -0.008291 0.000000
# 2 -0.005378 0.010081 0.002456 0.000000 -0.002898 0.000000
# 3 -0.006181 0.002456 0.023055 0.000000 -0.013915 0.000000
# 4 0.000000 0.000000 0.000000 0.068203 0.000000 -0.031497
# 5 -0.008291 -0.002898 -0.013915 0.000000 0.032438 0.000000
# 6 0.000000 0.000000 0.000000 -0.031497 0.000000 0.013280
#
#
# Mechanical properties :
#
#
# Convention : Reuss Voigt Hill
#
# Bulk Modulus (GPa) = 25.34527 51.37130 38.35829
# Shear Modulus (GPa) = 24.63775 -163.92263 -69.64244
#
# Velocity S-wave (km/s) = 3.32480 -8.57601 -5.58988
# Velocity P-wave (km/s) = 5.10988 8.66111 4.94490
#
# Compressibility (1/GPa) = 0.03945509
#
# Stress axis : x y z
#
# Youngs Moduli (GPa) = 40.77410 99.19186 43.37535
#
# Poissons Ratio (x) = 0.53343 0.26811
# Poissons Ratio (y) = 0.21927 -0.10652
# Poissons Ratio (z) = 0.25203 -0.24359
#
# Static dielectric constant tensor:
#      x y z
#    x 1.874870 0.000000 -0.007990 
#    y 0.000000 1.777360 0.000000 
#    z -0.007990 0.000000 1.853790 
# 
# From -- ./inp_files/94243.got.cif
#   From: 2010.05.17/outbox.cif.g08.bks.cpg/sg12_48_cif.got.tgz:94243.got - 2010.06.03 13:09:07.
