data_PCOD9175619
_publ_section_title
;
Structure prediction by ZEFSAII (Michael W. Deem and Ramdas Pophale) SiO2 
 PCOD9175619
Probable space group: C 2/M
;
_chemical_formula_sum "Si O2"
_cell_formula_units_Z 56
_cell_length_a 20.276723
_cell_length_b 8.962097
_cell_length_c 19.785435
_cell_angle_alpha 90.000000
_cell_angle_beta 59.406501
_cell_angle_gamma 90.000000
_cell_volume 3094.960841
_symmetry_space_group_name_H-M "C 2/M"
_symmetry_group_IT_number 12
_symmetry_cell_setting 'monoclinic'
loop_
_space_group_symop_operation_xyz
x,y,z
-x,y,-z
-x,-y,-z
x,-y,z
1/2+x,1/2+y,z
1/2-x,1/2+y,-z
1/2-x,1/2-y,-z
1/2+x,1/2-y,z
loop_
_atom_site_type_symbol
_atom_site_label
_atom_site_fract_x
_atom_site_fract_y
_atom_site_fract_z
Si Si1 0.157899 0.178646 0.840176
Si Si2 0.694181 0.823093 0.323952
Si Si3 0.420988 0.828252 0.997735
Si Si4 0.449693 0.822040 0.323070
Si Si5 0.529878 0.677770 0.409139
Si Si6 0.784765 0.176921 0.415127
Si Si7 0.996275 0.822240 0.164643
O O1 0.237629 0.219010 0.763074
O O2 0.086344 0.212561 0.827404
O O3 0.156596 0.000000 0.850663
O O4 0.141504 0.258466 0.919569
O O5 0.617545 0.729202 0.356270
O O6 0.728271 0.803760 0.381291
O O7 0.677747 0.000000 0.323258
O O8 0.439744 0.734955 0.920980
O O9 0.404250 0.000000 0.990277
O O10 0.500000 0.824359 0.000000
O O11 0.481564 0.761635 0.377225
O O12 0.365045 0.755152 0.357850
O O13 0.499018 0.759927 0.234724
O O14 0.448017 0.000000 0.323420
O O15 0.500000 0.715230 0.500000
O O16 0.522453 0.500000 0.403896
O O17 0.750000 0.250000 0.500000
O O18 0.797085 0.000000 0.418206
O O19 0.000398 0.000000 0.171337
#
# Coordination Sequence:
#
# PCOD9175619 Si02
#       7
#     8   8   8   8   8   8   8
#     4   9  17  32  53  80 113 152 188 228 283 340
#     4  10  21  38  59  83 114 149 190 236 286 343
#     4   9  17  28  46  79 117 150 186 232 277 332
#     4  12  24  38  59  85 115 152 192 239 289 343
#     4  11  25  43  61  82 111 150 196 242 289 347
#     4  11  22  38  58  85 116 148 186 236 291 344
#     4  10  18  33  55  81 115 153 190 233 283 339
#
# _framework density 18.093927999999998
#
# number of rings (size 3 to 8) (size 9 to 14) (size 15 to 20)
#    0.000    1.714    1.429    3.857    0.000    7.429 
#    0.000    0.000    0.000    0.857    0.000    0.000 
#    0.000    0.000    0.000    0.000    0.000    0.000 
#
# Total GULP energy -156406.378543 kJ/mol
# GULP energy per Si atom -5585.942091 kJ/mol
# Density = 1.805275 g / cm^3
# Si number density = 18.093928 Si / 1000 Ang^3
#
#
#
# Elastic Constant Matrix: (Units=GPa)
#
#
# Indices 1 2 3 4 5 6 
#
# 1 17.5915 9.5140 -15.7430 0.0000 3.0168 0.0000
# 2 9.5140 63.0707 15.7657 0.0001 11.6066 -0.0002
# 3 -15.7430 15.7657 71.0326 0.0000 0.4558 0.0001
# 4 0.0000 0.0001 0.0000 32.4274 0.0000 0.4437
# 5 3.0168 11.6066 0.4558 0.0000 25.2368 0.0000
# 6 0.0000 -0.0002 0.0001 0.4437 0.0000 25.9772
#
#
#
# Elastic Compliance Matrix: (Units=1/GPa)
#
#
# Indices 1 2 3 4 5 6 
#
# 1 0.088921 -0.018965 0.023932 0.000000 -0.002340 0.000000
# 2 -0.018965 0.022452 -0.009136 0.000000 -0.007894 0.000000
# 3 0.023932 -0.009136 0.021404 0.000000 0.000954 0.000000
# 4 0.000000 0.000000 0.000000 0.030845 0.000000 -0.000527
# 5 -0.002340 -0.007894 0.000954 0.000000 0.043518 0.000000
# 6 0.000000 0.000000 0.000000 -0.000527 0.000000 0.038504
#
#
# Mechanical properties :
#
#
# Convention : Reuss Voigt Hill
#
# Bulk Modulus (GPa) = 8.03608 18.97423 13.50516
# Shear Modulus (GPa) = 16.92267 26.20549 21.56408
#
# Velocity S-wave (km/s) = 3.06153 3.80979 3.45597
# Velocity P-wave (km/s) = 4.11683 5.46461 4.83788
#
# Compressibility (1/GPa) = 0.12443876
#
# Stress axis : x y z
#
# Youngs Moduli (GPa) = 11.24598 44.53868 46.72090
#
# Poissons Ratio (x) = 0.84468 -1.11812
# Poissons Ratio (y) = 0.21328 0.42684
# Poissons Ratio (z) = -0.26914 0.40690
#
# Static dielectric constant tensor:
#      x y z
#    x 1.606370 0.000000 -0.010940 
#    y 0.000000 1.600700 0.000000 
#    z -0.010940 0.000000 1.628850 
# 
# From -- ./inp_files/275276.got.cif
#   From: 2010.05.17/outbox.cif.g08.bks.cpg/sg12_138_cif.got.tgz:275276.got - 2010.06.03 13:09:07.
