data_PCOD9175453
_publ_section_title
;
Structure prediction by ZEFSAII (Michael W. Deem and Ramdas Pophale) SiO2 
 PCOD9175453
Probable space group: C 2/M
;
_chemical_formula_sum "Si O2"
_cell_formula_units_Z 48
_cell_length_a 8.690486
_cell_length_b 19.769653
_cell_length_c 17.396149
_cell_angle_alpha 90.000000
_cell_angle_beta 62.429443
_cell_angle_gamma 90.000000
_cell_volume 2649.392661
_symmetry_space_group_name_H-M "C 2/M"
_symmetry_group_IT_number 12
_symmetry_cell_setting 'monoclinic'
loop_
_space_group_symop_operation_xyz
x,y,z
-x,y,-z
-x,-y,-z
x,-y,z
1/2+x,1/2+y,z
1/2-x,1/2+y,-z
1/2-x,1/2-y,-z
1/2+x,1/2-y,z
loop_
_atom_site_type_symbol
_atom_site_label
_atom_site_fract_x
_atom_site_fract_y
_atom_site_fract_z
Si Si1 0.388191 0.921620 0.251853
Si Si2 0.380418 0.187796 0.727339
Si Si3 0.124813 0.340203 0.905742
Si Si4 0.499688 0.426582 0.407334
Si Si5 0.491866 0.716144 0.842503
Si Si6 0.426111 0.283733 0.434374
O O1 0.518122 0.881083 0.277955
O O2 0.376660 0.884405 0.171817
O O3 0.197432 0.918679 0.333409
O O4 0.437396 0.000000 0.231532
O O5 0.436167 0.236201 0.784855
O O6 0.172770 0.180453 0.777867
O O7 0.451424 0.231027 0.638813
O O8 0.320719 0.329544 0.892184
O O9 0.042125 0.267303 0.899882
O O10 0.000000 0.369331 0.000000
O O11 0.500000 0.431079 0.500000
O O12 0.433144 0.500000 0.394409
O O13 0.407053 0.357754 0.400383
O O14 0.500000 0.300173 0.500000
O O15 0.250000 0.250000 0.500000
#
# Coordination Sequence:
#
# PCOD9175453 Si02
#       6
#     8   8   8   8   8   8
#     4  10  21  36  54  75 103 143 183 222 272 323
#     4  10  18  33  52  74 107 139 179 224 264 320
#     4  10  19  33  54  80 108 135 172 222 273 328
#     4   9  17  31  51  74 101 134 172 210 253 310
#     4   9  18  31  53  78 102 136 173 216 271 322
#     4  11  20  30  50  79 106 136 176 221 266 311
#
# _framework density 18.117360999999999
#
# number of rings (size 3 to 8) (size 9 to 14) (size 15 to 20)
#    0.000    2.167    0.000    6.500    0.000    0.333 
#    0.000    0.833    0.000    6.000    0.000    0.000 
#    0.000    0.000    0.000    0.000    0.000    0.000 
#
# Total GULP energy -133611.911977 kJ/mol
# GULP energy per Si atom -5567.162999 kJ/mol
# Density = 1.807612 g / cm^3
# Si number density = 18.117361 Si / 1000 Ang^3
#
#
#
# Elastic Constant Matrix: (Units=GPa)
#
#
# Indices 1 2 3 4 5 6 
#
# 1 74.8750 45.7719 25.4842 0.0000 -21.6945 0.0000
# 2 45.7719 133.1380 35.9837 0.0000 -20.8583 0.0000
# 3 25.4842 35.9837 116.2392 0.0000 -13.4773 0.0000
# 4 0.0000 0.0000 0.0000 14.3128 0.0000 -6.7861
# 5 -21.6945 -20.8583 -13.4773 0.0000 27.3637 0.0000
# 6 0.0000 0.0000 0.0000 -6.7861 0.0000 22.1692
#
#
#
# Elastic Compliance Matrix: (Units=1/GPa)
#
#
# Indices 1 2 3 4 5 6 
#
# 1 0.020117 -0.004661 -0.001623 0.000000 0.011598 0.000000
# 2 -0.004661 0.010072 -0.001733 0.000000 0.003129 0.000000
# 3 -0.001623 -0.001733 0.009750 0.000000 0.002194 0.000000
# 4 0.000000 0.000000 0.000000 0.081729 0.000000 0.025017
# 5 0.011598 0.003129 0.002194 0.000000 0.049205 0.000000
# 6 0.000000 0.000000 0.000000 0.025017 0.000000 0.052765
#
#
# Mechanical properties :
#
#
# Convention : Reuss Voigt Hill
#
# Bulk Modulus (GPa) = 41.83237 59.85909 50.84573
# Shear Modulus (GPa) = 20.19053 27.23663 23.71358
#
# Velocity S-wave (km/s) = 3.34193 3.88150 3.62178
# Velocity P-wave (km/s) = 6.16694 7.29380 6.75391
#
# Compressibility (1/GPa) = 0.02390494
#
# Stress axis : x y z
#
# Youngs Moduli (GPa) = 49.70818 99.28571 102.56658
#
# Poissons Ratio (x) = 0.46273 0.16648
# Poissons Ratio (y) = 0.23167 0.17779
# Poissons Ratio (z) = 0.08068 0.17210
#
# Static dielectric constant tensor:
#      x y z
#    x 1.613690 0.000000 0.000720 
#    y 0.000000 1.808210 0.000000 
#    z 0.000720 0.000000 1.633100 
# 
# From -- ./inp_files/195938.got.cif
#   From: 2010.05.17/outbox.cif.g08.bks.cpg/sg12_98_cif.got.tgz:195938.got - 2010.06.03 13:09:07.
