data_PCOD9175437
_publ_section_title
;
Structure prediction by ZEFSAII (Michael W. Deem and Ramdas Pophale) SiO2 
 PCOD9175437
Probable space group: C 2/M
;
_chemical_formula_sum "Si O2"
_cell_formula_units_Z 48
_cell_length_a 11.090351
_cell_length_b 28.481033
_cell_length_c 14.596721
_cell_angle_alpha 90.000000
_cell_angle_beta 150.761755
_cell_angle_gamma 90.000000
_cell_volume 2252.005973
_symmetry_space_group_name_H-M "C 2/M"
_symmetry_group_IT_number 12
_symmetry_cell_setting 'monoclinic'
loop_
_space_group_symop_operation_xyz
x,y,z
-x,y,-z
-x,-y,-z
x,-y,z
1/2+x,1/2+y,z
1/2-x,1/2+y,-z
1/2-x,1/2-y,-z
1/2+x,1/2-y,z
loop_
_atom_site_type_symbol
_atom_site_label
_atom_site_fract_x
_atom_site_fract_y
_atom_site_fract_z
Si Si1 0.092322 0.947196 0.255999
Si Si2 0.069610 0.286730 0.933614
Si Si3 0.593805 0.946940 0.712238
Si Si4 0.522885 0.647895 0.752918
Si Si5 0.232536 0.297266 0.717492
Si Si6 0.952671 0.648320 0.689358
O O1 0.346091 0.945834 0.484456
O O2 0.183482 0.938402 0.212149
O O3 0.927844 0.905989 0.188280
O O4 0.993887 0.000000 0.196721
O O5 0.956701 0.323091 0.785245
O O6 0.863261 0.250700 0.830350
O O7 0.250000 0.250000 0.000000
O O8 0.241896 0.320051 0.109636
O O9 0.551643 0.905162 0.755677
O O10 0.618882 0.000000 0.765130
O O11 0.399495 0.669790 0.763386
O O12 0.316012 0.649880 0.536882
O O13 0.137343 0.325002 0.742154
O O14 0.000000 0.285462 0.500000
#
# Coordination Sequence:
#
# PCOD9175437 Si02
#       6
#     8   8   8   8   8   8
#     4   8  12  22  42  68  96 125 158 189 223 287
#     4  10  22  33  45  70  92 124 173 205 233 283
#     4   8  13  23  45  72  95 129 162 181 227 297
#     4   9  17  30  46  67  94 125 161 193 233 280
#     4   9  18  32  49  66  91 129 168 195 238 285
#     4  10  18  33  52  66 100 135 155 198 239 277
#
# _framework density 21.314329000000001
#
# number of rings (size 3 to 8) (size 9 to 14) (size 15 to 20)
#    0.000    3.000    1.667    1.000    0.000    8.667 
#    0.000    2.500    0.000    2.000    0.000    0.000 
#    0.000    2.667    0.000   46.000    0.000    2.500 
#
# Total GULP energy -134028.303819 kJ/mol
# GULP energy per Si atom -5584.512659 kJ/mol
# Density = 2.126582 g / cm^3
# Si number density = 21.314329 Si / 1000 Ang^3
#
#
#
# Elastic Constant Matrix: (Units=GPa)
#
#
# Indices 1 2 3 4 5 6 
#
# 1 15.4761 21.9745 21.6259 0.0000 -2.6381 0.0000
# 2 21.9745 188.4698 53.1615 0.0000 2.0387 0.0000
# 3 21.6259 53.1615 49.6159 0.0001 -8.8923 0.0000
# 4 0.0000 0.0000 0.0001 -8.1945 0.0000 28.0658
# 5 -2.6381 2.0387 -8.8923 0.0000 25.3535 0.0000
# 6 0.0000 0.0000 0.0000 28.0658 0.0000 15.8995
#
#
#
# Elastic Compliance Matrix: (Units=1/GPa)
#
#
# Indices 1 2 3 4 5 6 
#
# 1 0.167789 0.002398 -0.077479 0.000000 -0.009908 0.000000
# 2 0.002398 0.007978 -0.010312 0.000000 -0.004009 0.000000
# 3 -0.077479 -0.010312 0.067950 0.000000 0.016599 0.000000
# 4 0.000000 0.000000 0.000000 -0.017320 0.000000 0.030574
# 5 -0.009908 -0.004009 0.016599 0.000000 0.044556 0.000000
# 6 0.000000 0.000000 0.000000 0.030574 0.000000 0.008927
#
#
# Mechanical properties :
#
#
# Convention : Reuss Voigt Hill
#
# Bulk Modulus (GPa) = 13.71163 49.67618 31.69391
# Shear Modulus (GPa) = 10.52682 17.06502 13.79592
#
# Velocity S-wave (km/s) = 2.22476 2.83262 2.54689
# Velocity P-wave (km/s) = 3.61199 5.83570 4.85293
#
# Compressibility (1/GPa) = 0.07293079
#
# Stress axis : x y z
#
# Youngs Moduli (GPa) = 5.95985 125.33775 14.71672
#
# Poissons Ratio (x) = -0.30061 1.14024
# Poissons Ratio (y) = -0.01429 0.15177
# Poissons Ratio (z) = 0.46177 1.29254
#
# Static dielectric constant tensor:
#      x y z
#    x 1.810640 0.000000 -0.015040 
#    y 0.000000 1.763870 0.000000 
#    z -0.015040 0.000000 1.821080 
# 
# From -- ./inp_files/209907.got.cif
#   From: 2010.05.17/outbox.cif.g08.bks.cpg/sg12_105_cif.got.tgz:209907.got - 2010.06.03 13:09:07.
