data_PCOD9175179
_publ_section_title
;
Structure prediction by ZEFSAII (Michael W. Deem and Ramdas Pophale) SiO2 
 PCOD9175179
Probable space group: C 2/M
;
_chemical_formula_sum "Si O2"
_cell_formula_units_Z 64
_cell_length_a 17.526857
_cell_length_b 14.593064
_cell_length_c 14.286994
_cell_angle_alpha 90.000000
_cell_angle_beta 66.024834
_cell_angle_gamma 90.000000
_cell_volume 3338.914634
_symmetry_space_group_name_H-M "C 2/M"
_symmetry_group_IT_number 12
_symmetry_cell_setting 'monoclinic'
loop_
_space_group_symop_operation_xyz
x,y,z
-x,y,-z
-x,-y,-z
x,-y,z
1/2+x,1/2+y,z
1/2-x,1/2+y,-z
1/2-x,1/2-y,-z
1/2+x,1/2-y,z
loop_
_atom_site_type_symbol
_atom_site_label
_atom_site_fract_x
_atom_site_fract_y
_atom_site_fract_z
Si Si1 0.786213 0.103758 0.085690
Si Si2 0.304547 0.106283 0.193261
Si Si3 0.101188 0.099580 0.148549
Si Si4 0.454188 0.832916 0.235510
Si Si5 0.668207 0.246782 0.238619
Si Si6 0.538664 0.107833 0.377734
Si Si7 0.051402 0.163814 0.885066
Si Si8 0.420000 0.897342 0.971323
O O1 0.719602 0.181158 0.142742
O O2 0.866064 0.119417 0.114006
O O3 0.755273 0.000000 0.115051
O O4 0.822978 0.110739 0.962753
O O5 0.380028 0.105605 0.230167
O O6 0.233562 0.180445 0.251196
O O7 0.277841 0.000000 0.195374
O O8 0.346855 0.139897 0.073736
O O9 0.105578 0.184456 0.216106
O O10 0.017822 0.100616 0.127884
O O11 0.107306 0.000000 0.191445
O O12 0.472914 0.855244 0.332862
O O13 0.427180 0.735000 0.207434
O O14 0.542498 0.850109 0.138041
O O15 0.617671 0.175992 0.328482
O O16 0.500000 0.112719 0.500000
O O17 0.557627 0.000000 0.348079
O O18 0.000000 0.206099 0.000000
O O19 0.394828 0.000000 0.957081
O O20 0.500000 0.904559 0.000000
#
# Coordination Sequence:
#
# PCOD9175179 Si02
#       8
#     8   8   8   8   8   8   8   8
#     4  10  21  35  53  83 124 163 196 229 270 333
#     4  10  20  33  56  92 128 154 181 227 286 345
#     4  10  21  35  53  83 124 167 197 222 269 337
#     4  11  18  35  61  85 113 157 200 239 278 331
#     4  12  22  37  58  84 116 152 191 241 292 346
#     4  11  26  46  65  83 105 142 196 252 301 349
#     4  10  18  32  56  84 119 161 199 225 261 334
#     4   8  15  26  46  81 118 150 182 214 259 324
#
# _framework density 19.167905000000001
#
# number of rings (size 3 to 8) (size 9 to 14) (size 15 to 20)
#    0.000    1.750    2.500    4.500    1.750    2.500 
#    0.000    1.875    0.000    1.500    0.000    0.000 
#    0.000    0.000    0.000    0.000    0.000    0.000 
#
# Total GULP energy -178523.064418 kJ/mol
# GULP energy per Si atom -5578.845763 kJ/mol
# Density = 1.912428 g / cm^3
# Si number density = 19.167905 Si / 1000 Ang^3
#
#
#
# Elastic Constant Matrix: (Units=GPa)
#
#
# Indices 1 2 3 4 5 6 
#
# 1 99.5992 27.4444 15.3798 0.0000 5.5980 0.0000
# 2 27.4444 134.0375 34.5849 0.0000 -4.2060 0.0000
# 3 15.3798 34.5849 58.1448 0.0000 11.4252 0.0000
# 4 0.0000 0.0000 0.0000 23.2027 0.0000 -8.1901
# 5 5.5980 -4.2060 11.4252 0.0000 23.1012 0.0000
# 6 0.0000 0.0000 0.0000 -8.1901 0.0000 1.9256
#
#
#
# Elastic Compliance Matrix: (Units=1/GPa)
#
#
# Indices 1 2 3 4 5 6 
#
# 1 0.010914 -0.001993 -0.001230 0.000000 -0.002399 0.000000
# 2 -0.001993 0.009652 -0.006263 0.000000 0.005338 0.000000
# 3 -0.001230 -0.006263 0.023720 0.000000 -0.012573 0.000000
# 4 0.000000 0.000000 0.000000 -0.085976 0.000000 -0.365669
# 5 -0.002399 0.005338 -0.012573 0.000000 0.051059 0.000000
# 6 0.000000 0.000000 0.000000 -0.365669 0.000000 -1.035949
#
#
# Mechanical properties :
#
#
# Convention : Reuss Voigt Hill
#
# Bulk Modulus (GPa) = 39.50322 49.62218 44.56270
# Shear Modulus (GPa) = -5.00415 23.93742 9.46663
#
# Velocity S-wave (km/s) = -1.61752 3.53771 2.22475
# Velocity P-wave (km/s) = 4.14310 6.52928 5.46795
#
# Compressibility (1/GPa) = 0.02531439
#
# Stress axis : x y z
#
# Youngs Moduli (GPa) = 91.62461 103.60528 42.15918
#
# Poissons Ratio (x) = 0.20643 0.05187
# Poissons Ratio (y) = 0.18256 0.26404
# Poissons Ratio (z) = 0.11273 0.64886
#
# Static dielectric constant tensor:
#      x y z
#    x 1.740610 0.000000 0.004620 
#    y 0.000000 1.741400 0.000000 
#    z 0.004620 0.000000 1.627700 
# 
# From -- ./inp_files/225231.got.cif
#   From: 2010.05.17/outbox.cif.g08.bks.cpg/sg12_113_cif.got.tgz:225231.got - 2010.06.03 13:09:07.
