data_PCOD9175565
_publ_section_title
;
Structure prediction by ZEFSAII (Michael W. Deem and Ramdas Pophale) SiO2 
 PCOD9175565
Probable space group: C 2/M
;
_chemical_formula_sum "Si O2"
_cell_formula_units_Z 56
_cell_length_a 9.831167
_cell_length_b 28.041172
_cell_length_c 13.457333
_cell_angle_alpha 90.000000
_cell_angle_beta 60.303139
_cell_angle_gamma 90.000000
_cell_volume 3222.622138
_symmetry_space_group_name_H-M "C 2/M"
_symmetry_group_IT_number 12
_symmetry_cell_setting 'monoclinic'
loop_
_space_group_symop_operation_xyz
x,y,z
-x,y,-z
-x,-y,-z
x,-y,z
1/2+x,1/2+y,z
1/2-x,1/2+y,-z
1/2-x,1/2-y,-z
1/2+x,1/2-y,z
loop_
_atom_site_type_symbol
_atom_site_label
_atom_site_fract_x
_atom_site_fract_y
_atom_site_fract_z
Si Si1 0.750795 0.106317 0.324014
Si Si2 0.986755 0.442815 0.300018
Si Si3 0.597064 0.205726 0.361025
Si Si4 0.625408 0.058022 0.035845
Si Si5 0.525629 0.444919 0.108896
Si Si6 0.174708 0.891214 0.470054
Si Si7 0.777529 0.284004 0.393842
O O1 0.595176 0.077147 0.349356
O O2 0.710449 0.160835 0.312104
O O3 0.795112 0.102659 0.423439
O O4 0.894251 0.085650 0.209519
O O5 0.979108 0.500000 0.307347
O O6 0.813962 0.420571 0.367340
O O7 0.072487 0.428544 0.165881
O O8 0.500000 0.197836 0.500000
O O9 0.694341 0.254302 0.337322
O O10 0.464157 0.208307 0.325009
O O11 0.631057 0.000000 0.034290
O O12 0.500000 0.073392 0.000000
O O13 0.798272 0.073648 0.941776
O O14 0.513545 0.500000 0.148470
O O15 0.500000 0.445673 0.000000
O O16 0.199161 0.835230 0.436981
O O17 0.000000 0.905446 0.500000
O O18 0.750000 0.250000 0.500000
#
# Coordination Sequence:
#
# PCOD9175565 Si02
#       7
#     8   8   8   8   8   8   8
#     4  12  21  36  57  85 117 152 194 237 289 356
#     4  11  23  40  59  81 119 161 192 234 290 350
#     4  10  18  33  54  83 112 147 189 236 288 343
#     4   9  19  37  59  81 107 146 198 246 285 328
#     4  10  20  36  58  82 107 146 199 245 280 332
#     4  12  25  37  53  86 123 153 196 234 292 359
#     4  10  18  34  56  77 113 148 190 241 282 335
#
# _framework density 17.377154000000001
#
# number of rings (size 3 to 8) (size 9 to 14) (size 15 to 20)
#    0.000    1.429    5.714    2.143    2.000    2.000 
#    0.000    0.000    0.000    0.000    0.000    5.000 
#    0.000    0.000    0.000    0.000    0.000    0.000 
#
# Total GULP energy -156223.029705 kJ/mol
# GULP energy per Si atom -5579.393918 kJ/mol
# Density = 1.733760 g / cm^3
# Si number density = 17.377154 Si / 1000 Ang^3
#
#
#
# Elastic Constant Matrix: (Units=GPa)
#
#
# Indices 1 2 3 4 5 6 
#
# 1 145.5147 35.4832 44.1702 0.0000 -27.3716 0.0000
# 2 35.4832 81.2779 44.5407 0.0000 -11.6021 0.0000
# 3 44.1702 44.5407 70.1338 0.0000 -21.2882 0.0000
# 4 0.0000 0.0000 0.0000 -0.0967 0.0000 -5.5177
# 5 -27.3716 -11.6021 -21.2882 0.0000 28.4253 0.0000
# 6 0.0000 0.0000 0.0000 -5.5177 0.0000 26.3488
#
#
#
# Elastic Compliance Matrix: (Units=1/GPa)
#
#
# Indices 1 2 3 4 5 6 
#
# 1 0.009311 -0.001525 -0.003058 0.000000 0.006053 0.000000
# 2 -0.001525 0.019181 -0.012024 0.000000 -0.002644 0.000000
# 3 -0.003058 -0.012024 0.027744 0.000000 0.012925 0.000000
# 4 0.000000 0.000000 0.000000 -0.798640 0.000000 -0.167243
# 5 0.006053 -0.002644 0.012925 0.000000 0.049609 0.000000
# 6 0.000000 0.000000 0.000000 -0.167243 0.000000 0.002930
#
#
# Mechanical properties :
#
#
# Convention : Reuss Voigt Hill
#
# Bulk Modulus (GPa) = 43.43664 60.59050 52.01357
# Shear Modulus (GPa) = -7.70443 22.45098 7.37327
#
# Velocity S-wave (km/s) = -2.10791 3.59832 2.06211
# Velocity P-wave (km/s) = 4.37336 7.22547 5.97217
#
# Compressibility (1/GPa) = 0.02302204
#
# Stress axis : x y z
#
# Youngs Moduli (GPa) = 107.40117 52.13577 36.04399
#
# Poissons Ratio (x) = 0.07950 0.11023
# Poissons Ratio (y) = 0.16377 0.43338
# Poissons Ratio (z) = 0.32847 0.62686
#
# Static dielectric constant tensor:
#      x y z
#    x 1.645840 0.000000 -0.002160 
#    y 0.000000 1.588660 0.000000 
#    z -0.002160 0.000000 1.574700 
# 
# From -- ./inp_files/199714.got.cif
#   From: 2010.05.17/outbox.cif.g08.bks.cpg/sg12_100_cif.got.tgz:199714.got - 2010.06.03 13:09:07.
