data_PCOD9175525
_publ_section_title
;
Structure prediction by ZEFSAII (Michael W. Deem and Ramdas Pophale) SiO2 
 PCOD9175525
Probable space group: C 2/M
;
_chemical_formula_sum "Si O2"
_cell_formula_units_Z 64
_cell_length_a 15.951649
_cell_length_b 27.852055
_cell_length_c 18.750065
_cell_angle_alpha 90.000000
_cell_angle_beta 157.222848
_cell_angle_gamma 90.000000
_cell_volume 3225.095366
_symmetry_space_group_name_H-M "C 2/M"
_symmetry_group_IT_number 12
_symmetry_cell_setting 'monoclinic'
loop_
_space_group_symop_operation_xyz
x,y,z
-x,y,-z
-x,-y,-z
x,-y,z
1/2+x,1/2+y,z
1/2-x,1/2+y,-z
1/2-x,1/2-y,-z
1/2+x,1/2-y,z
loop_
_atom_site_type_symbol
_atom_site_label
_atom_site_fract_x
_atom_site_fract_y
_atom_site_fract_z
Si Si1 0.768440 0.945400 0.779006
Si Si2 0.841820 0.371808 0.738148
Si Si3 0.070866 0.129151 0.671716
Si Si4 0.778043 0.443096 0.940783
Si Si5 0.532749 0.857356 0.440698
Si Si6 0.364350 0.204533 0.968546
Si Si7 0.674693 0.312886 0.072373
Si Si8 0.527193 0.391866 0.188552
O O1 0.595301 0.907587 0.672311
O O2 0.828874 0.926590 0.748345
O O3 0.691278 0.000000 0.720370
O O4 0.000000 0.942785 0.000000
O O5 0.681714 0.372698 0.545529
O O6 0.696327 0.367369 0.694991
O O7 0.989173 0.418851 0.862896
O O8 0.003657 0.326530 0.870229
O O9 0.167229 0.082191 0.785696
O O10 0.149523 0.174301 0.780777
O O11 0.788699 0.500000 0.943475
O O12 0.627448 0.424824 0.886850
O O13 0.500000 0.845195 0.500000
O O14 0.405367 0.820875 0.290731
O O15 0.785757 0.862767 0.623528
O O16 0.336023 0.259524 0.967256
O O17 0.500000 0.204999 0.000000
O O18 0.500000 0.317108 0.000000
O O19 0.608876 0.354148 0.965178
#
# Coordination Sequence:
#
# PCOD9175525 Si02
#       8
#     8   8   8   8   8   8   8   8
#     4  10  18  33  54  73 101 149 200 243 280 318
#     4   9  19  40  65  86 111 144 179 226 283 349
#     4   9  19  40  62  88 114 139 181 227 280 349
#     4  11  24  39  57  84 116 148 184 232 288 340
#     4  10  19  33  51  76 109 149 194 242 277 315
#     4   8  17  31  59  89 115 141 180 233 279 327
#     4  11  18  35  55  85 117 150 196 238 276 322
#     4  11  22  35  52  77 116 154 190 238 281 326
#
# _framework density 19.844373999999998
#
# number of rings (size 3 to 8) (size 9 to 14) (size 15 to 20)
#    0.000    2.125    3.750    1.500    0.000    6.250 
#    2.250    3.750    0.000    4.500    0.000    0.000 
#    0.000    0.000    0.000    0.000    0.000    0.000 
#
# Total GULP energy -178577.938402 kJ/mol
# GULP energy per Si atom -5580.560575 kJ/mol
# Density = 1.979921 g / cm^3
# Si number density = 19.844374 Si / 1000 Ang^3
#
#
#
# Elastic Constant Matrix: (Units=GPa)
#
#
# Indices 1 2 3 4 5 6 
#
# 1 9.9007 5.5228 2.5084 -0.0026 -0.6491 -0.0008
# 2 5.5228 123.8010 35.7111 -0.0018 -17.3364 -0.0006
# 3 2.5084 35.7111 128.2093 -0.0088 -25.0973 -0.0015
# 4 -0.0026 -0.0018 -0.0088 -23.3011 -0.0068 -3.5353
# 5 -0.6491 -17.3364 -25.0973 -0.0068 12.4935 -0.0015
# 6 -0.0008 -0.0006 -0.0015 -3.5353 -0.0015 15.0971
#
#
#
# Elastic Compliance Matrix: (Units=1/GPa)
#
#
# Indices 1 2 3 4 5 6 
#
# 1 0.103784 -0.004796 -0.001552 -0.000010 -0.004381 0.000003
# 2 -0.004796 0.010248 -0.000042 -0.000004 0.013886 0.000001
# 3 -0.001552 -0.000042 0.012879 -0.000012 0.025733 0.000001
# 4 -0.000010 -0.000004 -0.000012 -0.041444 -0.000055 -0.009705
# 5 -0.004381 0.013886 0.025733 -0.000055 0.150776 0.000005
# 6 0.000003 0.000001 0.000001 -0.009705 0.000005 0.063965
#
#
# Mechanical properties :
#
#
# Convention : Reuss Voigt Hill
#
# Bulk Modulus (GPa) = 8.76186 38.82173 23.79179
# Shear Modulus (GPa) = 14.24367 15.40247 14.82307
#
# Velocity S-wave (km/s) = 2.68203 2.78899 2.73603
# Velocity P-wave (km/s) = 3.74378 5.47511 4.69003
#
# Compressibility (1/GPa) = 0.11413107
#
# Stress axis : x y z
#
# Youngs Moduli (GPa) = 9.63537 97.57796 77.64496
#
# Poissons Ratio (x) = 0.46794 0.12053
# Poissons Ratio (y) = 0.04621 0.00329
# Poissons Ratio (z) = 0.01496 0.00413
#
# Static dielectric constant tensor:
#      x y z
#    x 1.740610 0.000000 -0.012190 
#    y 0.000000 1.674800 0.000000 
#    z -0.012190 0.000000 1.755120 
# 
# From -- ./inp_files/318586.got.cif
#   From: 2010.05.17/outbox.cif.g08.bks.cpg/sg12_160_cif.got.tgz:318586.got - 2010.06.03 13:09:07.
