data_PCOD9175512
_publ_section_title
;
Structure prediction by ZEFSAII (Michael W. Deem and Ramdas Pophale) SiO2 
 PCOD9175512
Probable space group: C 2/M
;
_chemical_formula_sum "Si O2"
_cell_formula_units_Z 64
_cell_length_a 14.690466
_cell_length_b 30.803767
_cell_length_c 12.705477
_cell_angle_alpha 90.000000
_cell_angle_beta 142.931076
_cell_angle_gamma 90.000000
_cell_volume 3465.659005
_symmetry_space_group_name_H-M "C 2/M"
_symmetry_group_IT_number 12
_symmetry_cell_setting 'monoclinic'
loop_
_space_group_symop_operation_xyz
x,y,z
-x,y,-z
-x,-y,-z
x,-y,z
1/2+x,1/2+y,z
1/2-x,1/2+y,-z
1/2-x,1/2-y,-z
1/2+x,1/2-y,z
loop_
_atom_site_type_symbol
_atom_site_label
_atom_site_fract_x
_atom_site_fract_y
_atom_site_fract_z
Si Si1 0.661240 0.289192 0.361633
Si Si2 0.678243 0.950972 0.668536
Si Si3 0.677720 0.310275 0.965488
Si Si4 0.333538 0.225809 0.312938
Si Si5 0.394190 0.597094 0.005042
Si Si6 0.320653 0.326741 0.257968
Si Si7 0.153856 0.865067 0.512159
Si Si8 0.871529 0.050831 0.640216
O O1 0.750000 0.250000 0.500000
O O2 0.479099 0.283898 0.198142
O O3 0.715328 0.290674 0.291113
O O4 0.702511 0.333220 0.462386
O O5 0.500000 0.950134 0.500000
O O6 0.738338 0.919927 0.814596
O O7 0.748910 0.941123 0.619642
O O8 0.731934 0.000000 0.742957
O O9 0.756990 0.319730 0.926720
O O10 0.781398 0.288728 0.149398
O O11 0.622119 0.356170 0.959427
O O12 0.500000 0.210316 0.500000
O O13 0.336857 0.278162 0.318068
O O14 0.500000 0.599196 0.000000
O O15 0.471363 0.564596 0.159011
O O16 0.481361 0.348815 0.375299
O O17 0.259871 0.354957 0.299183
O O18 0.155973 0.914605 0.477486
O O19 0.869045 0.000000 0.609426
#
# Coordination Sequence:
#
# PCOD9175512 Si02
#       8
#     8   8   8   8   8   8   8   8
#     4  11  20  37  59  82 112 158 193 236 303 358
#     4   9  19  34  55  84 120 153 184 239 308 363
#     4  11  23  36  58  84 117 158 199 246 292 353
#     4  12  22  36  57  87 116 152 203 243 297 356
#     4  10  18  33  53  82 119 154 188 241 300 353
#     4  10  19  38  56  76 111 162 187 243 296 341
#     4  10  19  37  59  79 116 155 189 239 305 341
#     4  10  19  34  61  89 111 150 202 241 293 368
#
# _framework density 18.466906000000002
#
# number of rings (size 3 to 8) (size 9 to 14) (size 15 to 20)
#    0.000    1.625    5.000    2.625    1.750    2.000 
#    0.000    1.250    0.000    0.000    0.000    0.000 
#    0.000    3.000    0.000    0.000    0.000    0.000 
#
# Total GULP energy -178464.109480 kJ/mol
# GULP energy per Si atom -5577.003421 kJ/mol
# Density = 1.842487 g / cm^3
# Si number density = 18.466906 Si / 1000 Ang^3
#
#
#
# Elastic Constant Matrix: (Units=GPa)
#
#
# Indices 1 2 3 4 5 6 
#
# 1 54.4481 38.9798 34.6234 0.0000 -23.6350 0.0000
# 2 38.9798 111.4481 44.8639 0.0000 -18.0310 0.0000
# 3 34.6234 44.8639 101.7390 0.0000 -24.0642 0.0000
# 4 0.0000 0.0000 0.0000 29.4376 0.0000 -6.2533
# 5 -23.6350 -18.0310 -24.0642 0.0000 33.5411 0.0000
# 6 0.0000 0.0000 0.0000 -6.2533 0.0000 20.8377
#
#
#
# Elastic Compliance Matrix: (Units=1/GPa)
#
#
# Indices 1 2 3 4 5 6 
#
# 1 0.033538 -0.007328 -0.004244 0.000000 0.016648 0.000000
# 2 -0.007328 0.012751 -0.003287 0.000000 -0.000667 0.000000
# 3 -0.004244 -0.003287 0.013968 0.000000 0.005264 0.000000
# 4 0.000000 0.000000 0.000000 0.036283 0.000000 0.010888
# 5 0.016648 -0.000667 0.005264 0.000000 0.044963 0.000000
# 6 0.000000 0.000000 0.000000 0.010888 0.000000 0.051258
#
#
# Mechanical properties :
#
#
# Convention : Reuss Voigt Hill
#
# Bulk Modulus (GPa) = 32.74540 56.06327 44.40434
# Shear Modulus (GPa) = 21.49071 26.70781 24.09926
#
# Velocity S-wave (km/s) = 3.41507 3.80709 3.61639
# Velocity P-wave (km/s) = 5.77241 7.05336 6.44479
#
# Compressibility (1/GPa) = 0.03053864
#
# Stress axis : x y z
#
# Youngs Moduli (GPa) = 29.81687 78.42523 71.59315
#
# Poissons Ratio (x) = 0.57471 0.30386
# Poissons Ratio (y) = 0.21850 0.23531
# Poissons Ratio (z) = 0.12655 0.25776
#
# Static dielectric constant tensor:
#      x y z
#    x 1.657820 0.000000 -0.019010 
#    y 0.000000 1.635750 0.000000 
#    z -0.019010 0.000000 1.681140 
# 
# From -- ./inp_files/150277.got.cif
#   From: 2010.05.17/outbox.cif.g08.bks.cpg/sg12_76_cif.got.tgz:150277.got - 2010.06.03 13:09:07.
