data_PCOD9175446
_publ_section_title
;
Structure prediction by ZEFSAII (Michael W. Deem and Ramdas Pophale) SiO2 
 PCOD9175446
Probable space group: C 2/M
;
_chemical_formula_sum "Si O2"
_cell_formula_units_Z 60
_cell_length_a 23.754364
_cell_length_b 17.591625
_cell_length_c 7.319624
_cell_angle_alpha 90.000000
_cell_angle_beta 76.085122
_cell_angle_gamma 90.000000
_cell_volume 2968.948180
_symmetry_space_group_name_H-M "C 2/M"
_symmetry_group_IT_number 12
_symmetry_cell_setting 'monoclinic'
loop_
_space_group_symop_operation_xyz
x,y,z
-x,y,-z
-x,-y,-z
x,-y,z
1/2+x,1/2+y,z
1/2-x,1/2+y,-z
1/2-x,1/2-y,-z
1/2+x,1/2-y,z
loop_
_atom_site_type_symbol
_atom_site_label
_atom_site_fract_x
_atom_site_fract_y
_atom_site_fract_z
Si Si1 0.558893 0.410821 0.773103
Si Si2 0.230583 0.195542 0.813732
Si Si3 0.000000 0.320495 0.000000
Si Si4 0.388485 0.910991 0.992673
Si Si5 0.347586 0.232253 0.837334
Si Si6 0.815638 0.087358 0.457476
Si Si7 0.953168 0.820852 0.835609
Si Si8 0.258489 0.084584 0.125842
O O1 0.553085 0.500000 0.823086
O O2 0.615476 0.402021 0.606310
O O3 0.500949 0.378580 0.725145
O O4 0.565289 0.361286 0.956266
O O5 0.293608 0.233995 0.741486
O O6 0.211243 0.148719 0.656840
O O7 0.180814 0.248348 0.940084
O O8 0.243810 0.139059 0.971372
O O9 0.057198 0.373308 0.943791
O O10 0.985709 0.259514 0.851597
O O11 0.325443 0.910044 0.139541
O O12 0.400280 0.000000 0.937936
O O13 0.375699 0.851858 0.835138
O O14 0.396503 0.295534 0.771239
O O15 0.785795 0.093941 0.675564
O O16 0.804559 0.000000 0.402125
O O17 0.252197 0.000000 0.055509
#
# Coordination Sequence:
#
# PCOD9175446 Si02
#       8
#     8   8   4   8   8   8   8   8
#     4   9  16  26  46  76 104 137 180 213 254 311
#     4  10  18  33  52  73 107 139 174 211 263 313
#     4   8  15  24  47  70  96 132 166 212 263 306
#     4   9  16  29  47  72 101 129 169 215 262 312
#     4   9  18  30  48  72  99 135 173 214 261 311
#     4  10  19  32  53  81 108 140 178 212 258 315
#     4   9  15  28  46  70 106 132 170 227 254 296
#     4   9  19  33  50  78 111 138 170 214 256 306
#
# _framework density 20.209177
#
# number of rings (size 3 to 8) (size 9 to 14) (size 15 to 20)
#    0.000    2.933    1.333    1.400    0.000    0.533 
#    0.000    6.000    0.000    0.800    3.467    5.600 
#    0.000   22.933    0.000    0.000    0.000    0.000 
#
# Total GULP energy -167003.730060 kJ/mol
# GULP energy per Si atom -5566.791002 kJ/mol
# Density = 2.016318 g / cm^3
# Si number density = 20.209177 Si / 1000 Ang^3
#
#
#
# Elastic Constant Matrix: (Units=GPa)
#
#
# Indices 1 2 3 4 5 6 
#
# 1 101.6818 48.8087 19.0508 0.0000 -24.9556 0.0000
# 2 48.8087 143.9107 13.2495 0.0000 -3.9261 0.0000
# 3 19.0508 13.2495 26.6884 0.0000 -12.0474 0.0000
# 4 0.0000 0.0000 0.0000 16.5411 0.0000 -2.3832
# 5 -24.9556 -3.9261 -12.0474 0.0000 17.9438 0.0000
# 6 0.0000 0.0000 0.0000 -2.3832 0.0000 34.9871
#
#
#
# Elastic Compliance Matrix: (Units=1/GPa)
#
#
# Indices 1 2 3 4 5 6 
#
# 1 0.018590 -0.005705 0.000961 0.000000 0.025252 0.000000
# 2 -0.005705 0.009050 -0.004460 0.000000 -0.008948 0.000000
# 3 0.000961 -0.004460 0.056191 0.000000 0.038087 0.000000
# 4 0.000000 0.000000 0.000000 0.061055 0.000000 0.004159
# 5 0.025252 -0.008948 0.038087 0.000000 0.114462 0.000000
# 6 0.000000 0.000000 0.000000 0.004159 0.000000 0.028865
#
#
# Mechanical properties :
#
#
# Convention : Reuss Voigt Hill
#
# Bulk Modulus (GPa) = 15.28513 48.27767 31.78140
# Shear Modulus (GPa) = 15.22397 26.63916 20.93157
#
# Velocity S-wave (km/s) = 2.74764 3.63460 3.22179
# Velocity P-wave (km/s) = 4.20071 6.44629 5.44061
#
# Compressibility (1/GPa) = 0.06542307
#
# Stress axis : x y z
#
# Youngs Moduli (GPa) = 53.79112 110.49649 17.79653
#
# Poissons Ratio (x) = 0.63035 -0.01710
# Poissons Ratio (y) = 0.30686 0.07937
# Poissons Ratio (z) = -0.05168 0.49283
#
# Static dielectric constant tensor:
#      x y z
#    x 1.775090 0.000000 -0.029080 
#    y 0.000000 1.793180 0.000000 
#    z -0.029080 0.000000 1.695220 
# 
# From -- ./inp_files/97675.got.cif
#   From: 2010.05.17/outbox.cif.g08.bks.cpg/sg12_49_cif.got.tgz:97675.got - 2010.06.03 13:09:07.
