data_PCOD9175172
_publ_section_title
;
Structure prediction by ZEFSAII (Michael W. Deem and Ramdas Pophale) SiO2 
 PCOD9175172
Probable space group: C 2/M
;
_chemical_formula_sum "Si O2"
_cell_formula_units_Z 48
_cell_length_a 22.029542
_cell_length_b 13.787381
_cell_length_c 15.927634
_cell_angle_alpha 90.000000
_cell_angle_beta 149.602601
_cell_angle_gamma 90.000000
_cell_volume 2447.847751
_symmetry_space_group_name_H-M "C 2/M"
_symmetry_group_IT_number 12
_symmetry_cell_setting 'monoclinic'
loop_
_space_group_symop_operation_xyz
x,y,z
-x,y,-z
-x,-y,-z
x,-y,z
1/2+x,1/2+y,z
1/2-x,1/2+y,-z
1/2-x,1/2-y,-z
1/2+x,1/2-y,z
loop_
_atom_site_type_symbol
_atom_site_label
_atom_site_fract_x
_atom_site_fract_y
_atom_site_fract_z
Si Si1 0.484949 0.319260 0.853608
Si Si2 0.101238 0.745683 0.557944
Si Si3 0.239374 0.891556 0.842764
Si Si4 0.813420 0.110971 0.779204
Si Si5 0.512689 0.106340 0.116692
Si Si6 0.455952 0.613969 0.261266
O O1 0.382122 0.384149 0.772686
O O2 0.433389 0.209378 0.792846
O O3 0.528238 0.353564 0.815092
O O4 0.599160 0.330843 0.052357
O O5 0.183813 0.814934 0.713362
O O6 0.185970 0.663059 0.622423
O O7 0.038092 0.815427 0.415254
O O8 0.000000 0.705160 0.500000
O O9 0.178716 0.875458 0.861191
O O10 0.200685 0.000000 0.770067
O O11 0.382042 0.889941 0.004948
O O12 0.804863 0.000000 0.797547
O O13 0.567262 0.000000 0.201792
O O14 0.500000 0.108930 0.000000
O O15 0.488208 0.500000 0.308341
#
# Coordination Sequence:
#
# PCOD9175172 Si02
#       6
#     8   8   8   8   8   8
#     4  11  20  38  59  85 113 144 189 234 279 330
#     4  10  20  37  56  82 110 150 188 232 282 334
#     4   9  17  33  55  81 111 143 185 230 274 329
#     4  11  22  38  59  80 110 151 191 230 276 339
#     4  10  18  32  56  84 111 143 182 225 278 328
#     4  10  21  35  57  86 114 147 188 233 281 330
#
# _framework density 19.609062999999999
#
# number of rings (size 3 to 8) (size 9 to 14) (size 15 to 20)
#    0.000    1.833    3.333    2.500    0.000    3.667 
#    0.000    1.667    0.000    0.000    0.000    0.000 
#    0.000    0.000    0.000    0.000    0.000    0.000 
#
# Total GULP energy -133820.895120 kJ/mol
# GULP energy per Si atom -5575.870630 kJ/mol
# Density = 1.956443 g / cm^3
# Si number density = 19.609063 Si / 1000 Ang^3
#
#
#
# Elastic Constant Matrix: (Units=GPa)
#
#
# Indices 1 2 3 4 5 6 
#
# 1 129.7287 28.7823 24.0036 0.0000 -3.2511 0.0000
# 2 28.7823 109.2422 11.0763 0.0000 8.6313 0.0000
# 3 24.0036 11.0763 15.0882 0.0000 7.3273 0.0000
# 4 0.0000 0.0000 0.0000 11.7694 0.0000 -1.2991
# 5 -3.2511 8.6313 7.3273 0.0000 19.4394 0.0000
# 6 0.0000 0.0000 0.0000 -1.2991 0.0000 24.6506
#
#
#
# Elastic Compliance Matrix: (Units=1/GPa)
#
#
# Indices 1 2 3 4 5 6 
#
# 1 0.013239 -0.001873 -0.025908 0.000000 0.012811 0.000000
# 2 -0.001873 0.010221 -0.002652 0.000000 -0.003852 0.000000
# 3 -0.025908 -0.002652 0.135837 0.000000 -0.054356 0.000000
# 4 0.000000 0.000000 0.000000 0.085463 0.000000 0.004504
# 5 0.012811 -0.003852 -0.054356 0.000000 0.075783 0.000000
# 6 0.000000 0.000000 0.000000 0.004504 0.000000 0.040804
#
#
# Mechanical properties :
#
#
# Convention : Reuss Voigt Hill
#
# Bulk Modulus (GPa) = 10.15947 42.42038 26.28992
# Shear Modulus (GPa) = 10.98843 23.85165 17.42004
#
# Velocity S-wave (km/s) = 2.36979 3.49142 2.98378
# Velocity P-wave (km/s) = 3.56092 6.15900 5.03058
#
# Compressibility (1/GPa) = 0.09843037
#
# Stress axis : x y z
#
# Youngs Moduli (GPa) = 75.53560 97.83948 7.36176
#
# Poissons Ratio (x) = 0.18330 0.19073
# Poissons Ratio (y) = 0.14151 0.01952
# Poissons Ratio (z) = 1.95695 0.25948
#
# Static dielectric constant tensor:
#      x y z
#    x 1.695590 0.000000 0.019420 
#    y 0.000000 1.712120 0.000000 
#    z 0.019420 0.000000 1.675870 
# 
# From -- ./inp_files/225465.got.cif
#   From: 2010.05.17/outbox.cif.g08.bks.cpg/sg12_113_cif.got.tgz:225465.got - 2010.06.03 13:09:07.
