data_PCOD9175659
_publ_section_title
;
Structure prediction by ZEFSAII (Michael W. Deem and Ramdas Pophale) SiO2 
 PCOD9175659
Probable space group: C 2/M
;
_chemical_formula_sum "Si O2"
_cell_formula_units_Z 48
_cell_length_a 18.833973
_cell_length_b 20.770968
_cell_length_c 7.150426
_cell_angle_alpha 90.000000
_cell_angle_beta 51.648548
_cell_angle_gamma 90.000000
_cell_volume 2193.654499
_symmetry_space_group_name_H-M "C 2/M"
_symmetry_group_IT_number 12
_symmetry_cell_setting 'monoclinic'
loop_
_space_group_symop_operation_xyz
x,y,z
-x,y,-z
-x,-y,-z
x,-y,z
1/2+x,1/2+y,z
1/2-x,1/2+y,-z
1/2-x,1/2-y,-z
1/2+x,1/2-y,z
loop_
_atom_site_type_symbol
_atom_site_label
_atom_site_fract_x
_atom_site_fract_y
_atom_site_fract_z
Si Si1 0.653304 0.428147 0.526369
Si Si2 0.471747 0.786469 0.837871
Si Si3 0.469476 0.639858 0.761320
Si Si4 0.280668 0.819027 0.219445
Si Si5 0.715247 0.428138 0.852921
Si Si6 0.170135 0.691803 0.414587
O O1 0.642535 0.500000 0.466783
O O2 0.555805 0.395042 0.710537
O O3 0.718948 0.381966 0.301364
O O4 0.696647 0.432521 0.660379
O O5 0.452363 0.709889 0.875438
O O6 0.562257 0.799646 0.572219
O O7 0.500000 0.807313 0.000000
O O8 0.375533 0.818865 0.955986
O O9 0.500000 0.651156 0.500000
O O10 0.380777 0.596252 0.911822
O O11 0.220886 0.756653 0.267371
O O12 0.305995 0.812684 0.400404
O O13 0.739906 0.500000 0.878562
O O14 0.788606 0.371500 0.747981
#
# Coordination Sequence:
#
# PCOD9175659 Si02
#       6
#     8   8   8   8   8   8
#     4  10  20  35  54  76 103 137 173 207 252 310
#     4  10  18  33  56  78 104 136 172 208 253 303
#     4  12  23  33  50  78 109 134 168 216 262 301
#     4   9  16  29  53  79 101 130 171 212 248 296
#     4  10  20  35  54  76 103 137 173 207 252 310
#     4   9  16  29  53  79 101 130 171 212 248 296
#
# _framework density 21.881292999999999
#
# number of rings (size 3 to 8) (size 9 to 14) (size 15 to 20)
#    0.000    2.000    3.333    2.000    0.000    2.667 
#    0.000    4.167    0.000    5.000    0.000    0.000 
#    0.000    4.000    0.000    0.000    0.000    0.000 
#
# Total GULP energy -134233.233631 kJ/mol
# GULP energy per Si atom -5593.051401 kJ/mol
# Density = 2.183149 g / cm^3
# Si number density = 21.881293 Si / 1000 Ang^3
#
#
#
# Elastic Constant Matrix: (Units=GPa)
#
#
# Indices 1 2 3 4 5 6 
#
# 1 68.8293 44.5758 36.9223 0.0000 -19.1490 0.0000
# 2 44.5758 137.3403 51.0690 0.0000 -42.0245 0.0000
# 3 36.9223 51.0690 128.2862 0.0000 -45.1773 0.0000
# 4 0.0000 0.0000 0.0000 19.6412 0.0000 -5.5566
# 5 -19.1490 -42.0245 -45.1773 0.0000 46.0598 0.0000
# 6 0.0000 0.0000 0.0000 -5.5566 0.0000 4.6280
#
#
#
# Elastic Compliance Matrix: (Units=1/GPa)
#
#
# Indices 1 2 3 4 5 6 
#
# 1 0.019773 -0.005048 -0.003679 0.000000 0.000006 0.000000
# 2 -0.005048 0.011509 -0.000260 0.000000 0.008148 0.000000
# 3 -0.003679 -0.000260 0.012734 0.000000 0.010723 0.000000
# 4 0.000000 0.000000 0.000000 0.077103 0.000000 0.092573
# 5 0.000006 0.008148 0.010723 0.000000 0.039665 0.000000
# 6 0.000000 0.000000 0.000000 0.092573 0.000000 0.327222
#
#
# Mechanical properties :
#
#
# Convention : Reuss Voigt Hill
#
# Bulk Modulus (GPa) = 38.39829 66.62111 52.50970
# Shear Modulus (GPa) = 9.71516 27.52505 18.62011
#
# Velocity S-wave (km/s) = 2.10940 3.55057 2.92029
# Velocity P-wave (km/s) = 4.84967 6.87906 5.95150
#
# Compressibility (1/GPa) = 0.02604283
#
# Stress axis : x y z
#
# Youngs Moduli (GPa) = 50.57367 86.88799 78.53223
#
# Poissons Ratio (x) = 0.43858 0.28895
# Poissons Ratio (y) = 0.25528 0.02038
# Poissons Ratio (z) = 0.18608 0.02255
#
# Static dielectric constant tensor:
#      x y z
#    x 1.861730 0.000000 0.074350 
#    y 0.000000 1.786610 0.000000 
#    z 0.074350 0.000000 1.820380 
# 
# From -- ./inp_files/62784.got.cif
#   From: 2010.05.17/outbox.cif.g08.bks.cpg/sg12_32_cif.got.tgz:62784.got - 2010.06.03 13:09:07.
