data_PCOD9175388
_publ_section_title
;
Structure prediction by ZEFSAII (Michael W. Deem and Ramdas Pophale) SiO2 
 PCOD9175388
Probable space group: C 2/M
;
_chemical_formula_sum "Si O2"
_cell_formula_units_Z 48
_cell_length_a 17.974451
_cell_length_b 13.840662
_cell_length_c 9.863065
_cell_angle_alpha 90.000000
_cell_angle_beta 111.140463
_cell_angle_gamma 90.000000
_cell_volume 2288.579142
_symmetry_space_group_name_H-M "C 2/M"
_symmetry_group_IT_number 12
_symmetry_cell_setting 'monoclinic'
loop_
_space_group_symop_operation_xyz
x,y,z
-x,y,-z
-x,-y,-z
x,-y,z
1/2+x,1/2+y,z
1/2-x,1/2+y,-z
1/2-x,1/2-y,-z
1/2+x,1/2-y,z
loop_
_atom_site_type_symbol
_atom_site_label
_atom_site_fract_x
_atom_site_fract_y
_atom_site_fract_z
Si Si1 0.648249 0.265229 0.174648
Si Si2 0.043376 0.709319 0.655441
Si Si3 0.071728 0.887308 0.357909
Si Si4 0.219870 0.893658 0.984209
Si Si5 0.908096 0.610292 0.048872
Si Si6 0.811786 0.820990 0.332901
O O1 0.605842 0.343509 0.240707
O O2 0.684841 0.316559 0.065242
O O3 0.721841 0.214020 0.301493
O O4 0.591400 0.181780 0.078706
O O5 0.042548 0.650411 0.792440
O O6 0.132998 0.729489 0.666054
O O7 0.000000 0.660887 0.500000
O O8 0.999748 0.813431 0.650022
O O9 0.141880 0.874930 0.516492
O O10 0.048460 0.000000 0.334851
O O11 0.315360 0.888067 0.037156
O O12 0.196248 0.000000 0.016098
O O13 0.191124 0.878409 0.811039
O O14 0.926147 0.500000 0.027803
#
# Coordination Sequence:
#
# PCOD9175388 Si02
#       6
#     8   8   8   8   8   8
#     4  11  20  39  61  92 122 153 195 257 310 337
#     4  10  21  39  60  85 122 166 199 240 294 358
#     4  11  25  39  58  91 130 160 194 242 307 366
#     4  10  18  32  64  92 114 150 203 251 297 350
#     4  10  20  38  62  87 112 156 212 250 290 353
#     4  10  19  39  62  84 121 161 202 239 291 356
#
# _framework density 20.973714000000001
#
# number of rings (size 3 to 8) (size 9 to 14) (size 15 to 20)
#    0.000    1.667    3.333    2.500    0.000    5.333 
#    0.000    2.500    0.000    1.000    0.000    0.000 
#    0.000    0.000    0.000    0.000    0.000    0.000 
#
# Total GULP energy -134059.223627 kJ/mol
# GULP energy per Si atom -5585.800984 kJ/mol
# Density = 2.092598 g / cm^3
# Si number density = 20.973714 Si / 1000 Ang^3
#
#
#
# Elastic Constant Matrix: (Units=GPa)
#
#
# Indices 1 2 3 4 5 6 
#
# 1 57.5892 8.0114 29.8973 0.0000 -0.5502 0.0000
# 2 8.0114 110.9048 52.5919 0.0000 4.9219 0.0000
# 3 29.8973 52.5919 124.0895 0.0000 9.4246 0.0000
# 4 0.0000 0.0000 0.0000 21.5691 0.0000 -3.2720
# 5 -0.5502 4.9219 9.4246 0.0000 35.0798 0.0000
# 6 0.0000 0.0000 0.0000 -3.2720 0.0000 8.5418
#
#
#
# Elastic Compliance Matrix: (Units=1/GPa)
#
#
# Indices 1 2 3 4 5 6 
#
# 1 0.020033 0.001037 -0.005389 0.000000 0.001617 0.000000
# 2 0.001037 0.011342 -0.005040 0.000000 -0.000221 0.000000
# 3 -0.005389 -0.005040 0.011684 0.000000 -0.002516 0.000000
# 4 0.000000 0.000000 0.000000 0.049223 0.000000 0.018855
# 5 0.001617 -0.000221 -0.002516 0.000000 0.029239 0.000000
# 6 0.000000 0.000000 0.000000 0.018855 0.000000 0.124294
#
#
# Mechanical properties :
#
#
# Convention : Reuss Voigt Hill
#
# Bulk Modulus (GPa) = 41.19480 52.62051 46.90766
# Shear Modulus (GPa) = 18.33585 26.51034 22.42310
#
# Velocity S-wave (km/s) = 2.95995 3.55911 3.27326
# Velocity P-wave (km/s) = 5.60049 6.48328 6.05799
#
# Compressibility (1/GPa) = 0.02427491
#
# Stress axis : x y z
#
# Youngs Moduli (GPa) = 49.91720 88.17125 85.58630
#
# Poissons Ratio (x) = -0.09139 0.46120
# Poissons Ratio (y) = -0.05174 0.43133
# Poissons Ratio (z) = 0.26899 0.44436
#
# Static dielectric constant tensor:
#      x y z
#    x 1.771760 0.000000 0.018080 
#    y 0.000000 1.739350 0.000000 
#    z 0.018080 0.000000 1.770850 
# 
# From -- ./inp_files/85933.got.cif
#   From: 2010.05.17/outbox.cif.g08.bks.cpg/sg12_43_cif.got.tgz:85933.got - 2010.06.03 13:09:07.
