data_PCOD9175941
_publ_section_title
;
Structure prediction by ZEFSAII (Michael W. Deem and Ramdas Pophale) SiO2 
 PCOD9175941
Probable space group: C 2/M
;
_chemical_formula_sum "Si O2"
_cell_formula_units_Z 52
_cell_length_a 10.908497
_cell_length_b 30.635649
_cell_length_c 8.440234
_cell_angle_alpha 90.000000
_cell_angle_beta 97.052562
_cell_angle_gamma 90.000000
_cell_volume 2799.291299
_symmetry_space_group_name_H-M "C 2/M"
_symmetry_group_IT_number 12
_symmetry_cell_setting 'monoclinic'
loop_
_space_group_symop_operation_xyz
x,y,z
-x,y,-z
-x,-y,-z
x,-y,z
1/2+x,1/2+y,z
1/2-x,1/2+y,-z
1/2-x,1/2-y,-z
1/2+x,1/2-y,z
loop_
_atom_site_type_symbol
_atom_site_label
_atom_site_fract_x
_atom_site_fract_y
_atom_site_fract_z
Si Si1 0.655576 0.833497 0.854217
Si Si2 0.925698 0.449642 0.829328
Si Si3 0.738652 0.389140 0.635799
Si Si4 0.500000 0.345082 0.500000
Si Si5 0.892383 0.407637 0.373193
Si Si6 0.180857 0.777363 0.352429
Si Si7 0.130989 0.311856 0.197487
O O1 0.668438 0.881029 0.780125
O O2 0.720729 0.802009 0.740366
O O3 0.508799 0.827546 0.830060
O O4 0.694957 0.822824 0.039298
O O5 0.887709 0.500000 0.834611
O O6 0.808970 0.418048 0.779415
O O7 0.023401 0.443856 0.699609
O O8 0.000000 0.437430 0.000000
O O9 0.594972 0.376832 0.608508
O O10 0.782976 0.413300 0.481970
O O11 0.799748 0.340995 0.661315
O O12 0.582030 0.312265 0.403981
O O13 0.000000 0.384654 0.500000
O O14 0.250000 0.750000 0.500000
O O15 0.124766 0.739000 0.235403
#
# Coordination Sequence:
#
# PCOD9175941 Si02
#       7
#     8   8   8   4   8   8   8
#     4  11  21  36  57  81 114 153 198 258 313 345
#     4  10  21  39  68 100 122 145 188 250 312 366
#     4  11  22  38  59  87 122 158 198 244 303 363
#     4  12  24  40  57  84 124 168 215 242 298 358
#     4  10  18  33  60  86 116 147 191 241 305 356
#     4  12  23  38  57  77 116 164 217 257 292 351
#     4  11  22  36  56  83 114 154 202 261 308 348
#
# _framework density 18.576131
#
# number of rings (size 3 to 8) (size 9 to 14) (size 15 to 20)
#    0.000    1.077    6.154    2.308    0.000    2.769 
#    0.000    0.385    0.000    0.000    0.000    2.154 
#    0.000    0.000    0.000    0.000    0.000    0.000 
#
# Total GULP energy -144741.819244 kJ/mol
# GULP energy per Si atom -5566.993048 kJ/mol
# Density = 1.853385 g / cm^3
# Si number density = 18.576131 Si / 1000 Ang^3
#
#
#
# Elastic Constant Matrix: (Units=GPa)
#
#
# Indices 1 2 3 4 5 6 
#
# 1 80.3901 25.2970 36.8273 0.0000 4.0700 0.0000
# 2 25.2970 73.3642 28.3238 0.0000 13.8372 0.0000
# 3 36.8273 28.3238 89.9858 0.0000 -9.0619 0.0000
# 4 0.0000 0.0000 0.0000 33.3895 0.0000 4.4304
# 5 4.0700 13.8372 -9.0619 0.0000 29.5894 0.0000
# 6 0.0000 0.0000 0.0000 4.4304 0.0000 27.5919
#
#
#
# Elastic Compliance Matrix: (Units=1/GPa)
#
#
# Indices 1 2 3 4 5 6 
#
# 1 0.016216 -0.002719 -0.006064 0.000000 -0.002816 0.000000
# 2 -0.002719 0.018725 -0.005804 0.000000 -0.010160 0.000000
# 3 -0.006064 -0.005804 0.016281 0.000000 0.008535 0.000000
# 4 0.000000 0.000000 0.000000 0.030602 0.000000 -0.004914
# 5 -0.002816 -0.010160 0.008535 0.000000 0.041548 0.000000
# 6 0.000000 0.000000 0.000000 -0.004914 0.000000 0.037031
#
#
# Mechanical properties :
#
#
# Convention : Reuss Voigt Hill
#
# Bulk Modulus (GPa) = 45.35756 47.18182 46.26969
# Shear Modulus (GPa) = 25.39008 28.33365 26.86187
#
# Velocity S-wave (km/s) = 3.70105 3.90971 3.80681
# Velocity P-wave (km/s) = 6.53711 6.77019 6.65467
#
# Compressibility (1/GPa) = 0.02204704
#
# Stress axis : x y z
#
# Youngs Moduli (GPa) = 61.66935 53.40326 61.42111
#
# Poissons Ratio (x) = 0.14521 0.37246
# Poissons Ratio (y) = 0.16768 0.35651
# Poissons Ratio (z) = 0.37397 0.30997
#
# Static dielectric constant tensor:
#      x y z
#    x 1.640290 0.000000 -0.003940 
#    y 0.000000 1.674150 0.000000 
#    z -0.003940 0.000000 1.759820 
# 
# From -- ./inp_files/53816.got.cif
#   From: 2010.05.17/outbox.cif.g08.bks.cpg/sg12_27_cif.got.tgz:53816.got - 2010.06.03 13:09:07.
