data_PCOD9175307
_publ_section_title
;
Structure prediction by ZEFSAII (Michael W. Deem and Ramdas Pophale) SiO2 
 PCOD9175307
Probable space group: C 2/M
;
_chemical_formula_sum "Si O2"
_cell_formula_units_Z 64
_cell_length_a 31.344739
_cell_length_b 17.162078
_cell_length_c 8.540368
_cell_angle_alpha 90.000000
_cell_angle_beta 140.590705
_cell_angle_gamma 90.000000
_cell_volume 2916.662981
_symmetry_space_group_name_H-M "C 2/M"
_symmetry_group_IT_number 12
_symmetry_cell_setting 'monoclinic'
loop_
_space_group_symop_operation_xyz
x,y,z
-x,y,-z
-x,-y,-z
x,-y,z
1/2+x,1/2+y,z
1/2-x,1/2+y,-z
1/2-x,1/2-y,-z
1/2+x,1/2-y,z
loop_
_atom_site_type_symbol
_atom_site_label
_atom_site_fract_x
_atom_site_fract_y
_atom_site_fract_z
Si Si1 0.793569 0.410854 0.009639
Si Si2 0.198221 0.631295 0.610530
Si Si3 0.937896 0.410770 0.920506
Si Si4 0.464932 0.406123 0.059832
Si Si5 0.902693 0.909821 0.384500
Si Si6 0.163847 0.909199 0.145745
Si Si7 0.303248 0.292113 0.271540
Si Si8 0.071967 0.404943 0.761050
O O1 0.786607 0.500000 0.943105
O O2 0.781355 0.403522 0.161295
O O3 0.867830 0.380941 0.180900
O O4 0.741830 0.356783 0.771929
O O5 0.131914 0.587226 0.368290
O O6 0.263671 0.627377 0.686308
O O7 0.174342 0.720165 0.562638
O O8 0.960115 0.500000 0.017341
O O9 0.921153 0.376342 0.042403
O O10 0.000000 0.375005 0.000000
O O11 0.456832 0.500000 0.021370
O O12 0.519387 0.395435 0.352986
O O13 0.500000 0.377436 0.000000
O O14 0.390076 0.375614 0.883526
O O15 0.860316 0.842449 0.350034
O O16 0.888102 0.000000 0.398185
O O17 0.878978 0.907578 0.138023
O O18 0.177708 0.000000 0.221929
O O19 0.250000 0.250000 0.000000
O O20 0.073167 0.500000 0.759363
O O21 0.000000 0.378446 0.500000
#
# Coordination Sequence:
#
# PCOD9175307 Si02
#       8
#     8   8   8   8   8   8   8   8
#     4  10  18  33  58  83 112 147 194 244 292 345
#     4  11  21  35  57  85 125 157 193 239 301 361
#     4  10  20  36  60  87 116 154 199 243 290 343
#     4   9  19  35  56  85 117 147 188 246 301 346
#     4  10  18  34  61  86 110 149 203 249 290 349
#     4  10  18  32  58  88 116 152 197 242 289 351
#     4  10  20  34  55  81 118 149 190 235 293 353
#     4   9  18  33  56  86 113 143 190 246 291 336
#
# _framework density 21.942886000000001
#
# number of rings (size 3 to 8) (size 9 to 14) (size 15 to 20)
#    0.000    2.125    2.500    2.625    0.000    3.500 
#    2.250    1.250    8.250    0.000    0.000    0.000 
#    0.000    0.000    0.000    0.000    0.000    1.375 
#
# Total GULP energy -178427.124950 kJ/mol
# GULP energy per Si atom -5575.847655 kJ/mol
# Density = 2.189294 g / cm^3
# Si number density = 21.942886 Si / 1000 Ang^3
#
#
#
# Elastic Constant Matrix: (Units=GPa)
#
#
# Indices 1 2 3 4 5 6 
#
# 1 132.4101 20.9269 18.6093 0.0000 38.9719 0.0000
# 2 20.9269 68.5143 1.3054 0.0000 11.3297 0.0000
# 3 18.6093 1.3054 43.3351 0.0000 15.3814 0.0000
# 4 0.0000 0.0000 0.0000 1.6362 0.0000 -7.3553
# 5 38.9719 11.3297 15.3814 0.0000 32.5030 0.0000
# 6 0.0000 0.0000 0.0000 -7.3553 0.0000 -10.4841
#
#
#
# Elastic Compliance Matrix: (Units=1/GPa)
#
#
# Indices 1 2 3 4 5 6 
#
# 1 0.011787 -0.001353 -0.000207 0.000000 -0.013564 0.000000
# 2 -0.001353 0.015754 0.001779 0.000000 -0.004710 0.000000
# 3 -0.000207 0.001779 0.027936 0.000000 -0.013592 0.000000
# 4 0.000000 0.000000 0.000000 0.147136 0.000000 -0.103225
# 5 -0.013564 -0.004710 -0.013592 0.000000 0.055104 0.000000
# 6 0.000000 0.000000 0.000000 -0.103225 0.000000 -0.022963
#
#
# Mechanical properties :
#
#
# Convention : Reuss Voigt Hill
#
# Bulk Modulus (GPa) = 17.88476 36.21587 27.05031
# Shear Modulus (GPa) = 19.76639 18.29222 19.02931
#
# Velocity S-wave (km/s) = 3.00461 2.89040 2.94805
# Velocity P-wave (km/s) = 4.49502 5.26114 4.89310
#
# Compressibility (1/GPa) = 0.05591352
#
# Stress axis : x y z
#
# Youngs Moduli (GPa) = 84.83588 63.47638 35.79670
#
# Poissons Ratio (x) = 0.08591 0.00740
# Poissons Ratio (y) = 0.11482 -0.06366
# Poissons Ratio (z) = 0.01754 -0.11289
#
# Static dielectric constant tensor:
#      x y z
#    x 1.847570 0.000000 -0.017050 
#    y 0.000000 1.726120 0.000000 
#    z -0.017050 0.000000 1.844940 
# 
# From -- ./inp_files/112865.got.cif
#   From: 2010.05.17/outbox.cif.g08.bks.cpg/sg12_57_cif.got.tgz:112865.got - 2010.06.03 13:09:07.
