data_PCOD9175163
_publ_section_title
;
Structure prediction by ZEFSAII (Michael W. Deem and Ramdas Pophale) SiO2 
 PCOD9175163
Probable space group: C 2/M
;
_chemical_formula_sum "Si O2"
_cell_formula_units_Z 64
_cell_length_a 25.074770
_cell_length_b 8.345454
_cell_length_c 16.839502
_cell_angle_alpha 90.000000
_cell_angle_beta 88.816757
_cell_angle_gamma 90.000000
_cell_volume 3523.088503
_symmetry_space_group_name_H-M "C 2/M"
_symmetry_group_IT_number 12
_symmetry_cell_setting 'monoclinic'
loop_
_space_group_symop_operation_xyz
x,y,z
-x,y,-z
-x,-y,-z
x,-y,z
1/2+x,1/2+y,z
1/2-x,1/2+y,-z
1/2-x,1/2-y,-z
1/2+x,1/2-y,z
loop_
_atom_site_type_symbol
_atom_site_label
_atom_site_fract_x
_atom_site_fract_y
_atom_site_fract_z
Si Si1 0.379098 0.690769 0.625423
Si Si2 0.631965 0.194584 0.121981
Si Si3 0.693023 0.193961 0.968884
Si Si4 0.957476 0.691299 0.758770
Si Si5 0.323791 0.190490 0.211149
Si Si6 0.430029 0.309264 0.290909
Si Si7 0.788751 0.690410 0.739210
Si Si8 0.941456 0.804470 0.471899
O O1 0.371514 0.500000 0.624134
O O2 0.427344 0.729943 0.684756
O O3 0.326304 0.769192 0.663556
O O4 0.397804 0.746800 0.538071
O O5 0.575681 0.243322 0.162068
O O6 0.677410 0.244325 0.184091
O O7 0.632334 0.000000 0.120723
O O8 0.648690 0.248795 0.034099
O O9 0.682997 0.249794 0.879551
O O10 0.693321 0.000000 0.967689
O O11 0.750000 0.250000 0.000000
O O12 0.951318 0.500000 0.751169
O O13 0.019126 0.735603 0.755351
O O14 0.374655 0.266993 0.251424
O O15 0.268788 0.229628 0.257680
O O16 0.331531 0.000000 0.208849
O O17 0.437194 0.500000 0.291942
O O18 0.431117 0.251319 0.382465
O O19 0.781903 0.500000 0.744824
O O20 0.000000 0.753735 0.500000
O O21 0.941357 0.000000 0.472304
#
# Coordination Sequence:
#
# PCOD9175163 Si02
#       8
#     8   8   8   8   8   8   8   8
#     4  10  18  32  56  83 111 139 179 229 275 321
#     4   8  16  31  53  79 108 139 175 219 267 316
#     4  10  19  34  56  82 109 141 182 227 272 319
#     4  10  19  33  53  81 113 143 179 223 273 327
#     4  11  23  37  55  82 113 145 184 227 275 329
#     4  11  22  38  58  78 108 150 186 222 277 331
#     4  10  19  34  55  80 112 145 181 220 272 330
#     4   9  17  33  56  82 107 138 183 230 271 322
#
# _framework density 18.165880000000001
#
# number of rings (size 3 to 8) (size 9 to 14) (size 15 to 20)
#    0.000    2.125    2.500    2.625    0.000    0.500 
#    0.000    5.000    0.000    3.750    0.000    0.000 
#    0.000    0.000    0.000    0.000    0.000    0.000 
#
# Total GULP energy -178550.087782 kJ/mol
# GULP energy per Si atom -5579.690243 kJ/mol
# Density = 1.812453 g / cm^3
# Si number density = 18.165880 Si / 1000 Ang^3
#
#
#
# Elastic Constant Matrix: (Units=GPa)
#
#
# Indices 1 2 3 4 5 6 
#
# 1 101.6705 -11.2153 59.6564 0.0000 -11.3095 0.0000
# 2 -11.2153 13.2498 1.5190 0.0000 0.8745 0.0000
# 3 59.6564 1.5190 108.8532 0.0000 -10.6029 0.0000
# 4 0.0000 0.0000 0.0000 17.4602 0.0000 0.0289
# 5 -11.3095 0.8745 -10.6029 0.0000 30.0049 0.0000
# 6 0.0000 0.0000 0.0000 0.0289 0.0000 27.0457
#
#
#
# Elastic Compliance Matrix: (Units=1/GPa)
#
#
# Indices 1 2 3 4 5 6 
#
# 1 0.017458 0.015686 -0.009518 0.000000 0.002760 0.000000
# 2 0.015686 0.089894 -0.009870 0.000000 -0.000195 0.000000
# 3 -0.009518 -0.009870 0.014726 0.000000 0.001904 0.000000
# 4 0.000000 0.000000 0.000000 0.057273 0.000000 -0.000061
# 5 0.002760 -0.000195 0.001904 0.000000 0.035047 0.000000
# 6 0.000000 0.000000 0.000000 -0.000061 0.000000 0.036975
#
#
# Mechanical properties :
#
#
# Convention : Reuss Voigt Hill
#
# Bulk Modulus (GPa) = 8.72035 35.96595 22.34315
# Shear Modulus (GPa) = 16.83502 26.48974 21.66238
#
# Velocity S-wave (km/s) = 3.04754 3.82280 3.45697
# Velocity P-wave (km/s) = 4.14658 6.27110 5.31605
#
# Compressibility (1/GPa) = 0.11467429
#
# Stress axis : x y z
#
# Youngs Moduli (GPa) = 57.28187 11.12418 67.90746
#
# Poissons Ratio (x) = -0.17449 0.64631
# Poissons Ratio (y) = -0.89851 0.67024
# Poissons Ratio (z) = 0.54518 0.10980
#
# Static dielectric constant tensor:
#      x y z
#    x 1.597240 0.000000 -0.027890 
#    y 0.000000 1.626740 0.000000 
#    z -0.027890 0.000000 1.634900 
# 
# From -- ./inp_files/287634.got.cif
#   From: 2010.05.17/outbox.cif.g08.bks.cpg/sg12_144_cif.got.tgz:287634.got - 2010.06.03 13:09:07.
