data_PCOD9175703
_publ_section_title
;
Structure prediction by ZEFSAII (Michael W. Deem and Ramdas Pophale) SiO2 
 PCOD9175703
Probable space group: C 2/M
;
_chemical_formula_sum "Si O2"
_cell_formula_units_Z 48
_cell_length_a 25.783385
_cell_length_b 13.187005
_cell_length_c 20.438740
_cell_angle_alpha 90.000000
_cell_angle_beta 21.982484
_cell_angle_gamma 90.000000
_cell_volume 2601.278678
_symmetry_space_group_name_H-M "C 2/M"
_symmetry_group_IT_number 12
_symmetry_cell_setting 'monoclinic'
loop_
_space_group_symop_operation_xyz
x,y,z
-x,y,-z
-x,-y,-z
x,-y,z
1/2+x,1/2+y,z
1/2-x,1/2+y,-z
1/2-x,1/2-y,-z
1/2+x,1/2-y,z
loop_
_atom_site_type_symbol
_atom_site_label
_atom_site_fract_x
_atom_site_fract_y
_atom_site_fract_z
Si Si1 0.350073 0.711529 0.210109
Si Si2 0.298060 0.690815 0.039426
Si Si3 0.409996 0.618362 0.275023
Si Si4 0.642516 0.381617 0.173421
Si Si5 0.348516 0.116678 0.664776
Si Si6 0.317842 0.381440 0.524563
O O1 0.352729 0.636656 0.269753
O O2 0.241631 0.673773 0.283188
O O3 0.292142 0.815357 0.308005
O O4 0.500000 0.716951 0.000000
O O5 0.221574 0.799282 0.125189
O O6 0.227685 0.623767 0.176970
O O7 0.459485 0.693046 0.869488
O O8 0.294702 0.638351 0.972365
O O9 0.455593 0.500000 0.228104
O O10 0.313604 0.636833 0.450951
O O11 0.659110 0.500000 0.171971
O O12 0.477364 0.359353 0.360190
O O13 0.500000 0.161405 0.500000
O O14 0.363377 0.000000 0.626452
O O15 0.294928 0.500000 0.562425
#
# Coordination Sequence:
#
# PCOD9175703 Si02
#       6
#     8   8   8   8   8   8
#     4  12  23  36  59  89 119 154 190 240 291 352
#     4  10  18  33  56  83 113 149 190 239 290 345
#     4  10  20  37  61  85 114 152 196 243 289 342
#     4   9  18  34  59  83 109 150 199 242 282 339
#     4  11  23  37  55  83 120 153 188 238 295 348
#     4   9  20  39  59  81 113 156 200 240 286 338
#
# _framework density 18.452463999999999
#
# number of rings (size 3 to 8) (size 9 to 14) (size 15 to 20)
#    0.000    1.833    1.667    4.500    0.000    1.000 
#    0.000    1.667    0.000    9.000    0.000    0.000 
#    0.000    0.000    0.000    0.000    0.000    0.000 
#
# Total GULP energy -133848.924853 kJ/mol
# GULP energy per Si atom -5577.038536 kJ/mol
# Density = 1.841047 g / cm^3
# Si number density = 18.452464 Si / 1000 Ang^3
#
#
#
# Elastic Constant Matrix: (Units=GPa)
#
#
# Indices 1 2 3 4 5 6 
#
# 1 100.2500 39.0920 55.3555 0.0000 -6.2191 0.0000
# 2 39.0920 83.5287 37.9051 -0.0001 -7.1335 0.0000
# 3 55.3555 37.9051 87.1609 -0.0001 1.2164 0.0000
# 4 0.0000 -0.0001 -0.0001 26.6871 0.0000 -1.3181
# 5 -6.2191 -7.1335 1.2164 0.0000 19.4589 0.0000
# 6 0.0000 0.0000 0.0000 -1.3181 0.0000 36.7215
#
#
#
# Elastic Compliance Matrix: (Units=1/GPa)
#
#
# Indices 1 2 3 4 5 6 
#
# 1 0.016603 -0.003180 -0.009227 0.000000 0.004717 0.000000
# 2 -0.003180 0.016228 -0.005111 0.000000 0.005252 0.000000
# 3 -0.009227 -0.005111 0.019640 0.000000 -0.006050 0.000000
# 4 0.000000 0.000000 0.000000 0.037538 0.000000 0.001347
# 5 0.004717 0.005252 -0.006050 0.000000 0.055202 0.000000
# 6 0.000000 0.000000 0.000000 0.001347 0.000000 0.027280
#
#
# Mechanical properties :
#
#
# Convention : Reuss Voigt Hill
#
# Bulk Modulus (GPa) = 57.35713 59.51608 58.43661
# Shear Modulus (GPa) = 23.43682 25.81261 24.62471
#
# Velocity S-wave (km/s) = 3.56774 3.74421 3.65704
# Velocity P-wave (km/s) = 6.93707 7.14254 7.04055
#
# Compressibility (1/GPa) = 0.01743462
#
# Stress axis : x y z
#
# Youngs Moduli (GPa) = 60.23089 61.62123 50.91556
#
# Poissons Ratio (x) = 0.19596 0.46981
# Poissons Ratio (y) = 0.19154 0.26023
# Poissons Ratio (z) = 0.55576 0.31495
#
# Static dielectric constant tensor:
#      x y z
#    x 1.648330 0.000000 -0.012600 
#    y 0.000000 1.628110 0.000000 
#    z -0.012600 0.000000 1.679750 
# 
# From -- ./inp_files/327961.got.cif
#   From: 2010.05.17/outbox.cif.g08.bks.cpg/sg12_164_cif.got.tgz:327961.got - 2010.06.03 13:09:07.
