data_PCOD9175205
_publ_section_title
;
Structure prediction by ZEFSAII (Michael W. Deem and Ramdas Pophale) SiO2 
 PCOD9175205
Probable space group: C 2/M
;
_chemical_formula_sum "Si O2"
_cell_formula_units_Z 44
_cell_length_a 11.718744
_cell_length_b 20.774685
_cell_length_c 10.059620
_cell_angle_alpha 90.000000
_cell_angle_beta 110.632250
_cell_angle_gamma 90.000000
_cell_volume 2291.968267
_symmetry_space_group_name_H-M "C 2/M"
_symmetry_group_IT_number 12
_symmetry_cell_setting 'monoclinic'
loop_
_space_group_symop_operation_xyz
x,y,z
-x,y,-z
-x,-y,-z
x,-y,z
1/2+x,1/2+y,z
1/2-x,1/2+y,-z
1/2-x,1/2-y,-z
1/2+x,1/2-y,z
loop_
_atom_site_type_symbol
_atom_site_label
_atom_site_fract_x
_atom_site_fract_y
_atom_site_fract_z
Si Si1 0.068241 0.573040 0.244123
Si Si2 0.498042 0.324395 0.844194
Si Si3 0.228107 0.699724 0.684702
Si Si4 0.500000 0.881173 0.500000
Si Si5 0.724463 0.340174 0.762162
Si Si6 0.611500 0.183264 0.915827
O O1 0.061626 0.500000 0.193896
O O2 0.025909 0.577860 0.379637
O O3 0.203329 0.602466 0.279154
O O4 0.974947 0.621790 0.134254
O O5 0.365175 0.324794 0.722109
O O6 0.597813 0.355012 0.785554
O O7 0.536211 0.249044 0.870318
O O8 0.500000 0.348153 0.000000
O O9 0.119154 0.663776 0.565654
O O10 0.215422 0.776952 0.665411
O O11 0.202497 0.684278 0.829329
O O12 0.812467 0.318380 0.919241
#
# Coordination Sequence:
#
# PCOD9175205 Si02
#       6
#     8   8   8   4   8   8
#     4  11  23  40  58  79 114 159 203 238 271 328
#     4  11  16  31  58  89 124 147 170 229 307 353
#     4  10  19  35  57  88 120 152 185 233 290 349
#     4  10  25  42  60  82 109 154 206 242 280 330
#     4  11  20  32  56  91 120 144 181 236 295 348
#     4  10  18  32  56  91 121 144 184 230 294 346
#
# _framework density 19.197474
#
# number of rings (size 3 to 8) (size 9 to 14) (size 15 to 20)
#    0.000    1.455    5.455    1.909    0.000    2.182 
#    0.000    0.000    0.000    7.091    0.000    0.000 
#    0.000    0.000    0.000    0.000    0.000    0.000 
#
# Total GULP energy -122793.947146 kJ/mol
# GULP energy per Si atom -5581.543052 kJ/mol
# Density = 1.915378 g / cm^3
# Si number density = 19.197474 Si / 1000 Ang^3
#
#
#
# Elastic Constant Matrix: (Units=GPa)
#
#
# Indices 1 2 3 4 5 6 
#
# 1 148.1786 28.7016 13.4781 0.0000 17.5201 0.0000
# 2 28.7016 78.6341 3.0670 0.0000 2.4344 0.0000
# 3 13.4781 3.0670 41.1767 0.0000 13.6193 0.0000
# 4 0.0000 0.0000 0.0000 7.0366 0.0000 -0.5263
# 5 17.5201 2.4344 13.6193 0.0000 31.1193 0.0000
# 6 0.0000 0.0000 0.0000 -0.5263 0.0000 12.5431
#
#
#
# Elastic Compliance Matrix: (Units=1/GPa)
#
#
# Indices 1 2 3 4 5 6 
#
# 1 0.007810 -0.002692 -0.001136 0.000000 -0.003689 0.000000
# 2 -0.002692 0.013694 -0.000334 0.000000 0.000591 0.000000
# 3 -0.001136 -0.000334 0.028602 0.000000 -0.011852 0.000000
# 4 0.000000 0.000000 0.000000 0.142562 0.000000 0.005982
# 5 -0.003689 0.000591 -0.011852 0.000000 0.039352 0.000000
# 6 0.000000 0.000000 0.000000 0.005982 0.000000 0.079976
#
#
# Mechanical properties :
#
#
# Convention : Reuss Voigt Hill
#
# Bulk Modulus (GPa) = 23.93320 39.83142 31.88231
# Shear Modulus (GPa) = 14.95894 24.98931 19.97412
#
# Velocity S-wave (km/s) = 2.79447 3.61182 3.22911
# Velocity P-wave (km/s) = 4.78602 6.17956 5.52689
#
# Compressibility (1/GPa) = 0.04178296
#
# Stress axis : x y z
#
# Youngs Moduli (GPa) = 128.04880 73.02218 34.96216
#
# Poissons Ratio (x) = 0.19658 0.03970
# Poissons Ratio (y) = 0.34471 0.01168
# Poissons Ratio (z) = 0.14540 0.02440
#
# Static dielectric constant tensor:
#      x y z
#    x 1.738590 0.000000 -0.019330 
#    y 0.000000 1.638350 0.000000 
#    z -0.019330 0.000000 1.694600 
# 
# From -- ./inp_files/131866.got.cif
#   From: 2010.05.17/outbox.cif.g08.bks.cpg/sg12_66_cif.got.tgz:131866.got - 2010.06.03 13:09:07.
