data_PCOD9175616
_publ_section_title
;
Structure prediction by ZEFSAII (Michael W. Deem and Ramdas Pophale) SiO2 
 PCOD9175616
Probable space group: C 2/M
;
_chemical_formula_sum "Si O2"
_cell_formula_units_Z 58
_cell_length_a 28.979705
_cell_length_b 7.740741
_cell_length_c 12.191126
_cell_angle_alpha 90.000000
_cell_angle_beta 80.885765
_cell_angle_gamma 90.000000
_cell_volume 2700.239063
_symmetry_space_group_name_H-M "C 2/M"
_symmetry_group_IT_number 12
_symmetry_cell_setting 'monoclinic'
loop_
_space_group_symop_operation_xyz
x,y,z
-x,y,-z
-x,-y,-z
x,-y,z
1/2+x,1/2+y,z
1/2-x,1/2+y,-z
1/2-x,1/2-y,-z
1/2+x,1/2-y,z
loop_
_atom_site_type_symbol
_atom_site_label
_atom_site_fract_x
_atom_site_fract_y
_atom_site_fract_z
Si Si1 0.599150 0.204945 0.854122
Si Si2 0.290939 0.791737 0.569688
Si Si3 0.871213 0.700903 0.387337
Si Si4 0.730103 0.207095 0.178118
Si Si5 0.000000 0.500000 0.000000
Si Si6 0.476324 0.292484 0.397952
Si Si7 0.504976 0.693376 0.149373
Si Si8 0.822221 0.206421 0.015607
O O1 0.630696 0.263470 0.737790
O O2 0.550826 0.305170 0.856859
O O3 0.629923 0.227901 0.949813
O O4 0.585229 0.000000 0.849076
O O5 0.250000 0.750000 0.500000
O O6 0.337490 0.722578 0.491941
O O7 0.280420 0.725249 0.696045
O O8 0.294690 0.000000 0.579265
O O9 0.858486 0.500000 0.383640
O O10 0.925011 0.716441 0.401087
O O11 0.778461 0.273443 0.105810
O O12 0.734856 0.000000 0.183320
O O13 0.689744 0.244982 0.104628
O O14 0.023328 0.347389 0.068777
O O15 0.500000 0.230099 0.500000
O O16 0.470700 0.500000 0.406364
O O17 0.506573 0.260921 0.277419
O O18 0.523457 0.500000 0.122867
O O19 0.823051 0.000000 0.022106
#
# Coordination Sequence:
#
# PCOD9175616 Si02
#       8
#     8   8   8   8   2   8   8   8
#     4  10  18  33  55  81 108 139 184 234 284 340
#     4  10  20  34  52  77 110 146 181 226 282 341
#     4   9  19  33  53  82 111 141 182 232 284 344
#     4   9  19  34  49  70 105 145 187 230 278 337
#     4  12  22  40  58  86 116 152 190 230 296 350
#     4   9  19  37  61  87 114 149 193 244 298 351
#     4  10  21  38  61  87 119 152 190 243 289 353
#     4  10  19  31  51  75 100 141 190 235 281 330
#
# _framework density 21.479579999999999
#
# number of rings (size 3 to 8) (size 9 to 14) (size 15 to 20)
#    0.000    2.345    0.690    1.862    0.966    2.483 
#    0.000    1.379    3.034    1.655    0.000    0.000 
#    0.000    0.000    0.000    0.000    0.000    0.000 
#
# Total GULP energy -161612.329833 kJ/mol
# GULP energy per Si atom -5572.838960 kJ/mol
# Density = 2.143069 g / cm^3
# Si number density = 21.479580 Si / 1000 Ang^3
#
#
#
# Elastic Constant Matrix: (Units=GPa)
#
#
# Indices 1 2 3 4 5 6 
#
# 1 30.7545 -8.3466 25.3126 0.0000 14.0544 0.0000
# 2 -8.3466 67.5323 22.7817 0.0000 -10.8993 0.0000
# 3 25.3126 22.7817 148.5570 0.0000 15.6434 0.0000
# 4 0.0000 0.0000 0.0000 20.8066 0.0000 4.2548
# 5 14.0544 -10.8993 15.6434 0.0000 33.5201 0.0000
# 6 0.0000 0.0000 0.0000 4.2548 0.0000 19.4696
#
#
#
# Elastic Compliance Matrix: (Units=1/GPa)
#
#
# Indices 1 2 3 4 5 6 
#
# 1 0.046694 0.005969 -0.007377 0.000000 -0.014194 0.000000
# 2 0.005969 0.017860 -0.004316 0.000000 0.005319 0.000000
# 3 -0.007377 -0.004316 0.008910 0.000000 -0.002469 0.000000
# 4 0.000000 0.000000 0.000000 0.050310 0.000000 -0.010995
# 5 -0.014194 0.005319 -0.002469 0.000000 0.038666 0.000000
# 6 0.000000 0.000000 0.000000 -0.010995 0.000000 0.053765
#
#
# Mechanical properties :
#
#
# Convention : Reuss Voigt Hill
#
# Bulk Modulus (GPa) = 16.12500 36.25990 26.19245
# Shear Modulus (GPa) = 20.13497 28.56566 24.35031
#
# Velocity S-wave (km/s) = 3.06502 3.65073 3.37062
# Velocity P-wave (km/s) = 4.47764 5.88967 5.23151
#
# Compressibility (1/GPa) = 0.06201549
#
# Stress axis : x y z
#
# Youngs Moduli (GPa) = 21.41623 55.99162 112.23140
#
# Poissons Ratio (x) = -0.33419 0.82790
# Poissons Ratio (y) = -0.12783 0.48438
# Poissons Ratio (z) = 0.15798 0.24166
#
# Static dielectric constant tensor:
#      x y z
#    x 1.820040 0.000000 -0.114150 
#    y 0.000000 1.785840 0.000000 
#    z -0.114150 0.000000 1.883280 
# 
# From -- ./inp_files/186700.got.cif
#   From: 2010.05.17/outbox.cif.g08.bks.cpg/sg12_94_cif.got.tgz:186700.got - 2010.06.03 13:09:07.
