data_PCOD9175807
_publ_section_title
;
Structure prediction by ZEFSAII (Michael W. Deem and Ramdas Pophale) SiO2 
 PCOD9175807
Probable space group: C 2/M
;
_chemical_formula_sum "Si O2"
_cell_formula_units_Z 56
_cell_length_a 10.668009
_cell_length_b 22.017567
_cell_length_c 20.257925
_cell_angle_alpha 90.000000
_cell_angle_beta 33.656975
_cell_angle_gamma 90.000000
_cell_volume 2637.117540
_symmetry_space_group_name_H-M "C 2/M"
_symmetry_group_IT_number 12
_symmetry_cell_setting 'monoclinic'
loop_
_space_group_symop_operation_xyz
x,y,z
-x,y,-z
-x,-y,-z
x,-y,z
1/2+x,1/2+y,z
1/2-x,1/2+y,-z
1/2-x,1/2-y,-z
1/2+x,1/2-y,z
loop_
_atom_site_type_symbol
_atom_site_label
_atom_site_fract_x
_atom_site_fract_y
_atom_site_fract_z
Si Si1 0.499806 0.221328 0.612562
Si Si2 0.235074 0.232064 0.100672
Si Si3 0.112465 0.837839 0.283702
Si Si4 0.998224 0.429948 0.857374
Si Si5 0.956422 0.879402 0.884796
Si Si6 0.224463 0.381750 0.377903
Si Si7 0.135672 0.644956 0.201358
O O1 0.750000 0.250000 0.500000
O O2 0.357988 0.284642 0.675881
O O3 0.386342 0.178507 0.607567
O O4 0.487223 0.178940 0.683772
O O5 0.121409 0.201702 0.213844
O O6 0.179379 0.302587 0.128114
O O7 0.131892 0.190042 0.088991
O O8 0.500000 0.224393 0.000000
O O9 0.307404 0.886888 0.199305
O O10 0.870206 0.869617 0.380273
O O11 0.057654 0.500000 0.836715
O O12 0.973705 0.409274 0.791675
O O13 0.764001 0.417306 0.998953
O O14 0.097939 0.901995 0.757699
O O15 0.131941 0.877288 0.867664
O O16 0.000000 0.417759 0.500000
#
# Coordination Sequence:
#
# PCOD9175807 Si02
#       7
#     8   8   8   8   8   8   8
#     4  10  20  37  64 102 135 165 201 259 338 402
#     4  10  18  33  57  90 131 158 197 259 346 388
#     4  10  22  35  59  95 133 166 210 267 318 393
#     4  12  26  44  64  89 130 183 226 264 323 394
#     4  10  22  39  60  95 127 172 214 270 333 396
#     4  10  20  37  60  96 132 162 208 262 334 395
#     4  10  24  36  60  97 131 169 212 271 328 398
#
# _framework density 21.235305
#
# number of rings (size 3 to 8) (size 9 to 14) (size 15 to 20)
#    0.000    1.714    2.857    1.286   10.000    2.286 
#    0.000    5.714    0.000    4.286    0.000    0.000 
#    0.000    0.000    0.000    0.000    0.000    0.000 
#
# Total GULP energy -156067.353299 kJ/mol
# GULP energy per Si atom -5573.834046 kJ/mol
# Density = 2.118697 g / cm^3
# Si number density = 21.235305 Si / 1000 Ang^3
#
#
#
# Elastic Constant Matrix: (Units=GPa)
#
#
# Indices 1 2 3 4 5 6 
#
# 1 70.0920 7.3482 15.9176 -0.0091 -3.3625 0.0028
# 2 7.3482 72.8203 13.7608 -0.0095 5.4780 0.0028
# 3 15.9176 13.7608 106.4968 -0.0157 -8.9155 0.0098
# 4 -0.0091 -0.0095 -0.0157 3.9808 -0.0021 3.8717
# 5 -3.3625 5.4780 -8.9155 -0.0021 35.0697 0.0024
# 6 0.0028 0.0028 0.0098 3.8717 0.0024 12.7082
#
#
#
# Elastic Compliance Matrix: (Units=1/GPa)
#
#
# Indices 1 2 3 4 5 6 
#
# 1 0.014897 -0.001214 -0.001976 0.000036 0.001115 -0.000013
# 2 -0.001214 0.014433 -0.001923 0.000034 -0.002860 -0.000011
# 3 -0.001976 -0.001923 0.010159 0.000056 0.002694 -0.000025
# 4 0.000036 0.000034 0.000056 0.356981 0.000041 -0.108759
# 5 0.001115 -0.002860 0.002694 0.000041 0.029753 -0.000020
# 6 -0.000013 -0.000011 -0.000025 -0.108759 -0.000020 0.111824
#
#
# Mechanical properties :
#
#
# Convention : Reuss Voigt Hill
#
# Bulk Modulus (GPa) = 34.17238 35.94024 35.05631
# Shear Modulus (GPa) = 8.96012 24.51059 16.73535
#
# Velocity S-wave (km/s) = 2.05636 3.40109 2.81034
# Velocity P-wave (km/s) = 4.66533 5.69076 5.20337
#
# Compressibility (1/GPa) = 0.02926340
#
# Stress axis : x y z
#
# Youngs Moduli (GPa) = 67.12978 69.28361 98.43171
#
# Poissons Ratio (x) = 0.08409 0.19453
# Poissons Ratio (y) = 0.08147 0.18928
# Poissons Ratio (z) = 0.13267 0.13323
#
# Static dielectric constant tensor:
#      x y z
#    x 1.825150 -0.000010 0.028310 
#    y -0.000010 1.754440 0.000010 
#    z 0.028310 0.000010 1.913800 
# 
# From -- ./inp_files/336752.got.cif
#   From: 2010.05.17/outbox.cif.g08.bks.cpg/sg12_169_cif.got.tgz:336752.got - 2010.06.03 13:09:07.
