data_PCOD9175933
_publ_section_title
;
Structure prediction by ZEFSAII (Michael W. Deem and Ramdas Pophale) SiO2 
 PCOD9175933
Probable space group: C 2/M
;
_chemical_formula_sum "Si O2"
_cell_formula_units_Z 64
_cell_length_a 24.664949
_cell_length_b 27.392135
_cell_length_c 9.345834
_cell_angle_alpha 90.000000
_cell_angle_beta 153.892086
_cell_angle_gamma 90.000000
_cell_volume 2778.684423
_symmetry_space_group_name_H-M "C 2/M"
_symmetry_group_IT_number 12
_symmetry_cell_setting 'monoclinic'
loop_
_space_group_symop_operation_xyz
x,y,z
-x,y,-z
-x,-y,-z
x,-y,z
1/2+x,1/2+y,z
1/2-x,1/2+y,-z
1/2-x,1/2-y,-z
1/2+x,1/2-y,z
loop_
_atom_site_type_symbol
_atom_site_label
_atom_site_fract_x
_atom_site_fract_y
_atom_site_fract_z
Si Si1 0.403492 0.444491 0.397888
Si Si2 0.427880 0.055186 0.179035
Si Si3 0.532114 0.199836 0.426990
Si Si4 0.137217 0.198674 0.790300
Si Si5 0.310045 0.053949 0.332613
Si Si6 0.291729 0.631999 0.302220
Si Si7 0.196966 0.655489 0.588575
Si Si8 0.703637 0.202073 0.312639
O O1 0.500000 0.433527 0.500000
O O2 0.426166 0.500000 0.497651
O O3 0.398718 0.406258 0.515367
O O4 0.268004 0.442602 0.000671
O O5 0.500000 0.056486 0.500000
O O6 0.542927 0.058186 0.341628
O O7 0.372899 0.000000 0.034542
O O8 0.326589 0.098167 0.938161
O O9 0.500000 0.174716 0.500000
O O10 0.612637 0.247640 0.662300
O O11 0.589877 0.164098 0.449652
O O12 0.405493 0.215392 0.053561
O O13 0.208554 0.165292 0.843290
O O14 0.000000 0.180366 0.500000
O O15 0.204247 0.191230 0.101026
O O16 0.263742 0.099492 0.313388
O O17 0.282976 0.000000 0.326421
O O18 0.302148 0.671140 0.454297
O O19 0.160686 0.669670 0.344380
O O20 0.750000 0.250000 0.500000
#
# Coordination Sequence:
#
# PCOD9175933 Si02
#       8
#     8   8   8   8   8   8   8   8
#     4  10  20  37  65 102 140 175 225 292 347 403
#     4  10  18  33  59  97 134 163 208 274 336 392
#     4  11  24  43  70  97 127 175 234 296 344 412
#     4  11  23  41  66  95 128 171 237 290 342 407
#     4  10  21  37  63  97 135 172 216 274 338 406
#     4  12  22  37  64  95 131 177 231 277 335 413
#     4  12  23  42  67  95 136 180 224 275 349 417
#     4  12  27  45  64  96 140 184 228 285 353 411
#
# _framework density 23.032481000000001
#
# number of rings (size 3 to 8) (size 9 to 14) (size 15 to 20)
#    0.000    1.000    2.500    5.250    0.000    1.000 
#    0.000    3.125    0.000    3.000    0.000    2.625 
#    0.000    0.000    0.000    0.000    0.000    0.000 
#
# Total GULP energy -178706.886135 kJ/mol
# GULP energy per Si atom -5584.590192 kJ/mol
# Density = 2.298006 g / cm^3
# Si number density = 23.032481 Si / 1000 Ang^3
#
#
#
# Elastic Constant Matrix: (Units=GPa)
#
#
# Indices 1 2 3 4 5 6 
#
# 1 118.1479 44.9008 31.7262 0.0000 -4.3318 0.0000
# 2 44.9008 176.8592 20.8859 0.0000 -8.7431 0.0000
# 3 31.7262 20.8859 65.3953 0.0000 -3.7414 0.0000
# 4 0.0000 0.0000 0.0000 18.6433 0.0000 3.0771
# 5 -4.3318 -8.7431 -3.7414 0.0000 35.1097 0.0000
# 6 0.0000 0.0000 0.0000 3.0771 0.0000 43.8502
#
#
#
# Elastic Compliance Matrix: (Units=1/GPa)
#
#
# Indices 1 2 3 4 5 6 
#
# 1 0.010457 -0.002123 -0.004378 0.000000 0.000295 0.000000
# 2 -0.002123 0.006364 -0.000932 0.000000 0.001223 0.000000
# 3 -0.004378 -0.000932 0.017778 0.000000 0.001122 0.000000
# 4 0.000000 0.000000 0.000000 0.054267 0.000000 -0.003808
# 5 0.000295 0.001223 0.001122 0.000000 0.028943 0.000000
# 6 0.000000 0.000000 0.000000 -0.003808 0.000000 0.023072
#
#
# Mechanical properties :
#
#
# Convention : Reuss Voigt Hill
#
# Bulk Modulus (GPa) = 50.68176 61.71422 56.19799
# Shear Modulus (GPa) = 30.80222 37.04663 33.92443
#
# Velocity S-wave (km/s) = 3.66093 4.01490 3.84199
# Velocity P-wave (km/s) = 6.31840 6.95307 6.64332
#
# Compressibility (1/GPa) = 0.01973097
#
# Stress axis : x y z
#
# Youngs Moduli (GPa) = 95.62580 157.13728 56.25012
#
# Poissons Ratio (x) = 0.33365 0.24628
# Poissons Ratio (y) = 0.20304 0.05245
# Poissons Ratio (z) = 0.41868 0.14651
#
# Static dielectric constant tensor:
#      x y z
#    x 1.899150 0.000000 0.077270 
#    y 0.000000 1.943620 0.000000 
#    z 0.077270 0.000000 1.907730 
# 
# From -- ./inp_files/100264.got.cif
#   From: 2010.05.17/outbox.cif.g08.bks.cpg/sg12_51_cif.got.tgz:100264.got - 2010.06.03 13:09:07.
