data_PCOD9175177
_publ_section_title
;
Structure prediction by ZEFSAII (Michael W. Deem and Ramdas Pophale) SiO2 
 PCOD9175177
Probable space group: C 2/M
;
_chemical_formula_sum "Si O2"
_cell_formula_units_Z 52
_cell_length_a 13.521002
_cell_length_b 24.568573
_cell_length_c 9.904884
_cell_angle_alpha 90.000000
_cell_angle_beta 56.129382
_cell_angle_gamma 90.000000
_cell_volume 2731.947170
_symmetry_space_group_name_H-M "C 2/M"
_symmetry_group_IT_number 12
_symmetry_cell_setting 'monoclinic'
loop_
_space_group_symop_operation_xyz
x,y,z
-x,y,-z
-x,-y,-z
x,-y,z
1/2+x,1/2+y,z
1/2-x,1/2+y,-z
1/2-x,1/2-y,-z
1/2+x,1/2-y,z
loop_
_atom_site_type_symbol
_atom_site_label
_atom_site_fract_x
_atom_site_fract_y
_atom_site_fract_z
Si Si1 0.799172 0.149686 0.614229
Si Si2 0.500000 0.261937 0.500000
Si Si3 0.335031 0.441529 0.395921
Si Si4 0.112299 0.061394 0.235590
Si Si5 0.132394 0.288011 0.927340
Si Si6 0.322029 0.807612 0.814240
Si Si7 0.863908 0.101858 0.087281
O O1 0.775657 0.112159 0.502791
O O2 0.841074 0.108042 0.700434
O O3 0.684241 0.179230 0.761673
O O4 0.900434 0.196245 0.515380
O O5 0.568880 0.222005 0.344758
O O6 0.280911 0.500000 0.474082
O O7 0.468958 0.439235 0.353558
O O8 0.351206 0.438176 0.223236
O O9 0.154623 0.000000 0.235067
O O10 0.140760 0.076123 0.058296
O O11 0.219246 0.237964 0.887579
O O12 0.139544 0.320858 0.062161
O O13 0.000000 0.269645 0.000000
O O14 0.249107 0.858380 0.811998
O O15 0.000000 0.125642 0.000000
#
# Coordination Sequence:
#
# PCOD9175177 Si02
#       7
#     8   4   8   8   8   8   8
#     4  11  19  35  57  83 118 149 184 243 283 338
#     4  10  22  34  57  84 115 148 196 228 278 350
#     4  10  20  32  54  88 120 145 186 242 298 345
#     4  10  18  32  56  84 114 150 189 233 296 347
#     4  10  22  37  57  82 112 152 197 230 280 344
#     4  10  21  38  57  81 117 156 188 235 285 337
#     4  10  20  34  56  84 119 154 190 232 287 342
#
# _framework density 19.034043
#
# number of rings (size 3 to 8) (size 9 to 14) (size 15 to 20)
#    0.000    1.846    3.077    1.385    0.000    5.538 
#    0.000    3.077    0.000    1.846    0.000    2.154 
#    0.000    0.000    0.000    0.000    0.000    0.000 
#
# Total GULP energy -144880.267826 kJ/mol
# GULP energy per Si atom -5572.317993 kJ/mol
# Density = 1.899072 g / cm^3
# Si number density = 19.034043 Si / 1000 Ang^3
#
#
#
# Elastic Constant Matrix: (Units=GPa)
#
#
# Indices 1 2 3 4 5 6 
#
# 1 32.0060 1.0723 40.4408 0.0000 -5.2154 0.0000
# 2 1.0723 64.9230 34.1369 0.0000 -11.7675 0.0000
# 3 40.4408 34.1369 91.7295 0.0000 -8.0843 0.0000
# 4 0.0000 0.0000 0.0000 5.7233 0.0000 6.5463
# 5 -5.2154 -11.7675 -8.0843 0.0000 26.1482 0.0000
# 6 0.0000 0.0000 0.0000 6.5463 0.0000 -3.7655
#
#
#
# Elastic Compliance Matrix: (Units=1/GPa)
#
#
# Indices 1 2 3 4 5 6 
#
# 1 0.102362 0.030262 -0.054886 0.000000 0.017066 0.000000
# 2 0.030262 0.029271 -0.023173 0.000000 0.012044 0.000000
# 3 -0.054886 -0.023173 0.043011 0.000000 -0.008078 0.000000
# 4 0.000000 0.000000 0.000000 0.058466 0.000000 0.101642
# 5 0.017066 0.012044 -0.008078 0.000000 0.044570 0.000000
# 6 0.000000 0.000000 0.000000 0.101642 0.000000 -0.088864
#
#
# Mechanical properties :
#
#
# Convention : Reuss Voigt Hill
#
# Bulk Modulus (GPa) = 12.65037 37.77318 25.21178
# Shear Modulus (GPa) = 16.08960 13.15511 14.62235
#
# Velocity S-wave (km/s) = 2.91057 2.63180 2.77469
# Velocity P-wave (km/s) = 4.23743 5.39660 4.85176
#
# Compressibility (1/GPa) = 0.07904905
#
# Stress axis : x y z
#
# Youngs Moduli (GPa) = 9.76927 34.16397 23.24977
#
# Poissons Ratio (x) = -1.03387 1.27609
# Poissons Ratio (y) = -0.29564 0.53877
# Poissons Ratio (z) = 0.53620 0.79169
#
# Static dielectric constant tensor:
#      x y z
#    x 1.657690 0.000000 0.032430 
#    y 0.000000 1.694140 0.000000 
#    z 0.032430 0.000000 1.699730 
# 
# From -- ./inp_files/53088.got.cif
#   From: 2010.05.17/outbox.cif.g08.bks.cpg/sg12_27_cif.got.tgz:53088.got - 2010.06.03 13:09:07.
