data_PCOD9175509
_publ_section_title
;
Structure prediction by ZEFSAII (Michael W. Deem and Ramdas Pophale) SiO2 
 PCOD9175509
Probable space group: C 2/M
;
_chemical_formula_sum "Si O2"
_cell_formula_units_Z 48
_cell_length_a 15.282954
_cell_length_b 23.496483
_cell_length_c 11.850187
_cell_angle_alpha 90.000000
_cell_angle_beta 142.288724
_cell_angle_gamma 90.000000
_cell_volume 2602.924669
_symmetry_space_group_name_H-M "C 2/M"
_symmetry_group_IT_number 12
_symmetry_cell_setting 'monoclinic'
loop_
_space_group_symop_operation_xyz
x,y,z
-x,y,-z
-x,-y,-z
x,-y,z
1/2+x,1/2+y,z
1/2-x,1/2+y,-z
1/2-x,1/2-y,-z
1/2+x,1/2-y,z
loop_
_atom_site_type_symbol
_atom_site_label
_atom_site_fract_x
_atom_site_fract_y
_atom_site_fract_z
Si Si1 0.276464 0.064720 0.217556
Si Si2 0.727608 0.313953 0.102076
Si Si3 0.985792 0.265853 0.231569
Si Si4 0.421799 0.064483 0.606548
Si Si5 0.395842 0.142424 0.798709
Si Si6 0.342610 0.276714 0.393889
O O1 0.192324 0.121504 0.098139
O O2 0.325655 0.074153 0.397147
O O3 0.417761 0.066410 0.281762
O O4 0.217225 0.000000 0.147775
O O5 0.879311 0.307662 0.191569
O O6 0.755095 0.270884 0.234438
O O7 0.608155 0.288148 0.898816
O O8 0.032765 0.298611 0.168838
O O9 0.117752 0.248132 0.443489
O O10 0.391055 0.105348 0.680030
O O11 0.396968 0.000000 0.620004
O O12 0.243790 0.164254 0.689677
O O13 0.500000 0.116695 0.000000
O O14 0.500000 0.284207 0.500000
#
# Coordination Sequence:
#
# PCOD9175509 Si02
#       6
#     8   8   8   8   8   8
#     4   9  17  32  56  82 109 143 186 233 282 326
#     4  10  18  33  53  81 113 144 184 225 279 327
#     4  10  20  32  51  77 114 150 180 224 275 331
#     4   9  19  33  53  81 109 145 188 234 280 322
#     4  12  21  35  54  82 114 146 190 225 273 342
#     4  10  22  35  53  79 114 151 182 228 282 329
#
# _framework density 18.440795000000001
#
# number of rings (size 3 to 8) (size 9 to 14) (size 15 to 20)
#    0.000    2.000    3.333    2.500    4.667    0.333 
#    0.000    0.000    0.000    1.500    0.000    4.667 
#    0.000    0.000    0.000    0.000    0.000    0.000 
#
# Total GULP energy -133745.917894 kJ/mol
# GULP energy per Si atom -5572.746579 kJ/mol
# Density = 1.839882 g / cm^3
# Si number density = 18.440795 Si / 1000 Ang^3
#
#
#
# Elastic Constant Matrix: (Units=GPa)
#
#
# Indices 1 2 3 4 5 6 
#
# 1 64.6964 32.5324 16.3556 0.0000 -10.5797 0.0000
# 2 32.5324 105.5745 17.8195 0.0000 -14.8958 0.0000
# 3 16.3556 17.8195 43.8874 0.0000 -19.5882 0.0000
# 4 0.0000 0.0000 0.0000 19.3859 0.0000 -12.2440
# 5 -10.5797 -14.8958 -19.5882 0.0000 16.4763 0.0000
# 6 0.0000 0.0000 0.0000 -12.2440 0.0000 28.2598
#
#
#
# Elastic Compliance Matrix: (Units=1/GPa)
#
#
# Indices 1 2 3 4 5 6 
#
# 1 0.019420 -0.004838 -0.003535 0.000000 0.003893 0.000000
# 2 -0.004838 0.012062 0.000823 0.000000 0.008777 0.000000
# 3 -0.003535 0.000823 0.049189 0.000000 0.056953 0.000000
# 4 0.000000 0.000000 0.000000 0.071018 0.000000 0.030770
# 5 0.003893 0.008777 0.056953 0.000000 0.138838 0.000000
# 6 0.000000 0.000000 0.000000 0.030770 0.000000 0.048717
#
#
# Mechanical properties :
#
#
# Convention : Reuss Voigt Hill
#
# Bulk Modulus (GPa) = 15.25102 38.61927 26.93515
# Shear Modulus (GPa) = 13.29070 22.65444 17.97257
#
# Velocity S-wave (km/s) = 2.68754 3.50879 3.12526
# Velocity P-wave (km/s) = 4.23305 6.11582 5.25937
#
# Compressibility (1/GPa) = 0.06556937
#
# Stress axis : x y z
#
# Youngs Moduli (GPa) = 51.49317 82.90263 20.32975
#
# Poissons Ratio (x) = 0.40111 0.07188
# Poissons Ratio (y) = 0.24914 -0.01673
# Poissons Ratio (z) = 0.18205 -0.06821
#
# Static dielectric constant tensor:
#      x y z
#    x 1.691400 0.000000 0.009810 
#    y 0.000000 1.646010 0.000000 
#    z 0.009810 0.000000 1.657250 
# 
# From -- ./inp_files/147996.got.cif
#   From: 2010.05.17/outbox.cif.g08.bks.cpg/sg12_74_cif.got.tgz:147996.got - 2010.06.03 13:09:07.
