data_PCOD9175061
_publ_section_title
;
Structure prediction by ZEFSAII (Michael W. Deem and Ramdas Pophale) SiO2 
 PCOD9175061
Probable space group: C 2/M
;
_chemical_formula_sum "Si O2"
_cell_formula_units_Z 64
_cell_length_a 24.705663
_cell_length_b 7.438261
_cell_length_c 14.801814
_cell_angle_alpha 90.000000
_cell_angle_beta 67.697719
_cell_angle_gamma 90.000000
_cell_volume 2516.610263
_symmetry_space_group_name_H-M "C 2/M"
_symmetry_group_IT_number 12
_symmetry_cell_setting 'monoclinic'
loop_
_space_group_symop_operation_xyz
x,y,z
-x,y,-z
-x,-y,-z
x,-y,z
1/2+x,1/2+y,z
1/2-x,1/2+y,-z
1/2-x,1/2-y,-z
1/2+x,1/2-y,z
loop_
_atom_site_type_symbol
_atom_site_label
_atom_site_fract_x
_atom_site_fract_y
_atom_site_fract_z
Si Si1 0.058303 0.718779 0.334333
Si Si2 0.198043 0.219789 0.811590
Si Si3 0.181645 0.288220 0.171207
Si Si4 0.254320 0.784686 0.602768
Si Si5 0.370707 0.284317 0.977847
Si Si6 0.617855 0.208866 0.469087
Si Si7 0.001027 0.219976 0.104177
Si Si8 0.938449 0.202349 0.312608
O O1 0.050768 0.500000 0.333060
O O2 0.119812 0.776712 0.250303
O O3 0.067818 0.774601 0.432933
O O4 0.002384 0.798121 0.319849
O O5 0.258933 0.277397 0.820978
O O6 0.204458 0.278888 0.703658
O O7 0.147182 0.280376 0.911283
O O8 0.194611 0.000000 0.814386
O O9 0.181790 0.500000 0.189640
O O10 0.177142 0.260342 0.066933
O O11 0.250000 0.750000 0.500000
O O12 0.318294 0.712305 0.589913
O O13 0.255298 0.000000 0.611946
O O14 0.374671 0.500000 0.979639
O O15 0.434325 0.219743 0.906290
O O16 0.602464 0.218238 0.584146
O O17 0.622540 0.000000 0.442338
O O18 0.951877 0.283289 0.205597
O O19 0.997655 0.000000 0.109457
O O20 0.000000 0.270343 0.000000
O O21 0.916493 0.000000 0.312639
#
# Coordination Sequence:
#
# PCOD9175061 Si02
#       8
#     8   8   8   8   8   8   8   8
#     4  10  19  34  57  79 107 148 183 213 266 334
#     4   9  18  34  57  81 106 141 183 218 261 328
#     4  10  18  32  55  81 108 140 177 217 264 324
#     4  10  21  39  59  81 109 143 186 232 269 315
#     4  10  19  33  55  81 107 139 176 220 272 320
#     4  10  21  38  58  79 109 149 185 216 265 333
#     4   9  19  35  52  73 105 142 178 216 263 319
#     4  11  22  35  55  84 113 138 178 233 276 313
#
# _framework density 25.431032999999999
#
# number of rings (size 3 to 8) (size 9 to 14) (size 15 to 20)
#    0.000    2.125    2.500    1.125    0.000    3.500 
#    0.000    3.750    0.000    3.375    0.000    0.000 
#    0.000    0.000    0.000    0.000    0.000    0.000 
#
# Total GULP energy -178815.769119 kJ/mol
# GULP energy per Si atom -5587.992785 kJ/mol
# Density = 2.537315 g / cm^3
# Si number density = 25.431033 Si / 1000 Ang^3
#
#
#
# Elastic Constant Matrix: (Units=GPa)
#
#
# Indices 1 2 3 4 5 6 
#
# 1 24.4612 -10.0058 5.1006 0.0000 4.9827 0.0000
# 2 -10.0058 76.2294 -5.7692 0.0000 -4.6071 0.0000
# 3 5.1006 -5.7692 183.0735 0.0000 8.0851 0.0000
# 4 0.0000 0.0000 0.0000 22.4025 0.0000 3.6299
# 5 4.9827 -4.6071 8.0851 0.0000 44.7560 0.0000
# 6 0.0000 0.0000 0.0000 3.6299 0.0000 7.7794
#
#
#
# Elastic Compliance Matrix: (Units=1/GPa)
#
#
# Indices 1 2 3 4 5 6 
#
# 1 0.044158 0.005477 -0.000872 0.000000 -0.004195 0.000000
# 2 0.005477 0.013903 0.000251 0.000000 0.000776 0.000000
# 3 -0.000872 0.000251 0.005533 0.000000 -0.000877 0.000000
# 4 0.000000 0.000000 0.000000 0.048289 0.000000 -0.022532
# 5 -0.004195 0.000776 -0.000877 0.000000 0.023049 0.000000
# 6 0.000000 0.000000 0.000000 -0.022532 0.000000 0.139057
#
#
# Mechanical properties :
#
#
# Convention : Reuss Voigt Hill
#
# Bulk Modulus (GPa) = 13.64167 29.15724 21.39945
# Shear Modulus (GPa) = 17.31825 34.61683 25.96754
#
# Velocity S-wave (km/s) = 2.61241 3.69345 3.19893
# Velocity P-wave (km/s) = 3.80465 5.44783 4.69863
#
# Compressibility (1/GPa) = 0.07330481
#
# Stress axis : x y z
#
# Youngs Moduli (GPa) = 22.64611 71.92659 180.72642
#
# Poissons Ratio (x) = -0.39391 0.15767
# Poissons Ratio (y) = -0.12402 -0.04541
# Poissons Ratio (z) = 0.01976 -0.01807
#
# Static dielectric constant tensor:
#      x y z
#    x 2.012900 0.000000 0.022360 
#    y 0.000000 1.907640 0.000000 
#    z 0.022360 0.000000 2.029450 
# 
# From -- ./inp_files/248980.got.cif
#   From: 2010.05.17/outbox.cif.g08.bks.cpg/sg12_125_cif.got.tgz:248980.got - 2010.06.03 13:09:07.
