data_PCOD9175990
_publ_section_title
;
Structure prediction by ZEFSAII (Michael W. Deem and Ramdas Pophale) SiO2 
 PCOD9175990
Probable space group: C 2/M
;
_chemical_formula_sum "Si O2"
_cell_formula_units_Z 48
_cell_length_a 8.058765
_cell_length_b 17.905806
_cell_length_c 17.841974
_cell_angle_alpha 90.000000
_cell_angle_beta 57.177676
_cell_angle_gamma 90.000000
_cell_volume 2163.556807
_symmetry_space_group_name_H-M "C 2/M"
_symmetry_group_IT_number 12
_symmetry_cell_setting 'monoclinic'
loop_
_space_group_symop_operation_xyz
x,y,z
-x,y,-z
-x,-y,-z
x,-y,z
1/2+x,1/2+y,z
1/2-x,1/2+y,-z
1/2-x,1/2-y,-z
1/2+x,1/2-y,z
loop_
_atom_site_type_symbol
_atom_site_label
_atom_site_fract_x
_atom_site_fract_y
_atom_site_fract_z
Si Si1 0.305944 0.302452 0.375426
Si Si2 0.724125 0.834182 0.974178
Si Si3 0.349682 0.144772 0.852012
Si Si4 0.120852 0.420505 0.310968
Si Si5 0.219587 0.138513 0.452706
Si Si6 0.281341 0.305029 0.803970
O O1 0.201720 0.349182 0.335861
O O2 0.239028 0.216923 0.402469
O O3 0.252916 0.340819 0.466943
O O4 0.536498 0.305426 0.297235
O O5 0.838367 0.847221 0.868403
O O6 0.500000 0.841779 0.000000
O O7 0.750000 0.750000 0.000000
O O8 0.747921 0.879402 0.045359
O O9 0.342630 0.087963 0.785990
O O10 0.253732 0.220585 0.841529
O O11 0.578412 0.165971 0.816896
O O12 0.199398 0.500000 0.319946
O O13 0.887413 0.415098 0.382109
O O14 0.000000 0.108516 0.500000
#
# Coordination Sequence:
#
# PCOD9175990 Si02
#       6
#     8   8   8   8   8   8
#     4  11  22  38  62  91 121 158 206 255 308 367
#     4   8  16  29  51  87 122 153 195 249 300 349
#     4  10  19  34  57  90 126 159 203 250 303 362
#     4  12  26  42  61  89 129 169 201 253 318 373
#     4  11  23  40  64  89 115 156 208 262 307 365
#     4  10  18  33  62  91 120 157 203 260 302 353
#
# _framework density 22.185690999999998
#
# number of rings (size 3 to 8) (size 9 to 14) (size 15 to 20)
#    0.000    1.667    1.667    4.500    0.000    3.000 
#    0.000    2.500    0.000    6.500    0.000    0.000 
#    0.000    0.000    0.000    0.000    0.000    0.000 
#
# Total GULP energy -134025.926508 kJ/mol
# GULP energy per Si atom -5584.413605 kJ/mol
# Density = 2.213520 g / cm^3
# Si number density = 22.185691 Si / 1000 Ang^3
#
#
#
# Elastic Constant Matrix: (Units=GPa)
#
#
# Indices 1 2 3 4 5 6 
#
# 1 77.1390 13.4984 16.5582 0.0000 12.6465 0.0000
# 2 13.4984 53.8483 20.7292 0.0000 17.7264 0.0000
# 3 16.5582 20.7292 134.8508 0.0000 32.7243 0.0000
# 4 0.0000 0.0000 0.0000 -21.9306 0.0000 -0.7497
# 5 12.6465 17.7264 32.7243 0.0000 37.1628 0.0000
# 6 0.0000 0.0000 0.0000 -0.7497 0.0000 4.1104
#
#
#
# Elastic Compliance Matrix: (Units=1/GPa)
#
#
# Indices 1 2 3 4 5 6 
#
# 1 0.014004 -0.002235 -0.000608 0.000000 -0.003164 0.000000
# 2 -0.002235 0.022507 -0.000972 0.000000 -0.009119 0.000000
# 3 -0.000608 -0.000972 0.009509 0.000000 -0.007702 0.000000
# 4 0.000000 0.000000 0.000000 -0.045316 0.000000 -0.008266
# 5 -0.003164 -0.009119 -0.007702 0.000000 0.039117 0.000000
# 6 0.000000 0.000000 0.000000 -0.008266 0.000000 0.241780
#
#
# Mechanical properties :
#
#
# Convention : Reuss Voigt Hill
#
# Bulk Modulus (GPa) = 26.04902 40.82330 33.43616
# Shear Modulus (GPa) = 16.55473 18.20534 17.38004
#
# Velocity S-wave (km/s) = 2.73461 2.86770 2.80195
# Velocity P-wave (km/s) = 4.66236 5.42270 5.05684
#
# Compressibility (1/GPa) = 0.03838916
#
# Stress axis : x y z
#
# Youngs Moduli (GPa) = 71.40848 44.43034 105.16461
#
# Poissons Ratio (x) = 0.09929 0.06396
# Poissons Ratio (y) = 0.15958 0.10227
# Poissons Ratio (z) = 0.04343 0.04321
#
# Static dielectric constant tensor:
#      x y z
#    x 1.863420 0.000000 0.003500 
#    y 0.000000 1.778090 0.000000 
#    z 0.003500 0.000000 1.885010 
# 
# From -- ./inp_files/257537.got.cif
#   From: 2010.05.17/outbox.cif.g08.bks.cpg/sg12_129_cif.got.tgz:257537.got - 2010.06.03 13:09:07.
