data_PCOD9175222
_publ_section_title
;
Structure prediction by ZEFSAII (Michael W. Deem and Ramdas Pophale) SiO2 
 PCOD9175222
Probable space group: C 2/M
;
_chemical_formula_sum "Si O2"
_cell_formula_units_Z 48
_cell_length_a 14.537646
_cell_length_b 26.439765
_cell_length_c 11.457589
_cell_angle_alpha 90.000000
_cell_angle_beta 150.256408
_cell_angle_gamma 90.000000
_cell_volume 2184.897812
_symmetry_space_group_name_H-M "C 2/M"
_symmetry_group_IT_number 12
_symmetry_cell_setting 'monoclinic'
loop_
_space_group_symop_operation_xyz
x,y,z
-x,y,-z
-x,-y,-z
x,-y,z
1/2+x,1/2+y,z
1/2-x,1/2+y,-z
1/2-x,1/2-y,-z
1/2+x,1/2-y,z
loop_
_atom_site_type_symbol
_atom_site_label
_atom_site_fract_x
_atom_site_fract_y
_atom_site_fract_z
Si Si1 0.212036 0.849876 0.636627
Si Si2 0.201133 0.130129 0.063430
Si Si3 0.947191 0.781329 0.714064
Si Si4 0.281553 0.555860 0.725612
Si Si5 0.428905 0.558161 0.639526
Si Si6 0.916434 0.324857 0.093818
O O1 0.067601 0.808749 0.427254
O O2 0.138018 0.905940 0.536711
O O3 0.386128 0.843066 0.739573
O O4 0.278268 0.840452 0.838901
O O5 0.276480 0.104973 0.264969
O O6 0.357496 0.153688 0.153500
O O7 0.030856 0.171539 0.883934
O O8 0.114437 0.083340 0.895236
O O9 0.750000 0.750000 0.500000
O O10 0.082254 0.735521 0.891792
O O11 0.202728 0.500000 0.668147
O O12 0.283890 0.561729 0.588746
O O13 0.500000 0.552934 0.000000
O O14 0.452534 0.500000 0.635694
#
# Coordination Sequence:
#
# PCOD9175222 Si02
#       6
#     8   8   8   8   8   8
#     4   9  20  39  57  76 109 150 186 226 280 332
#     4  10  18  32  57  82 109 139 185 233 278 325
#     4   9  19  36  53  76 107 149 184 220 276 332
#     4   8  15  31  54  80 107 138 177 225 275 322
#     4   9  18  36  58  80 110 148 187 227 276 334
#     4  10  20  37  55  79 112 144 185 237 273 324
#
# _framework density 21.968989000000001
#
# number of rings (size 3 to 8) (size 9 to 14) (size 15 to 20)
#    0.000    2.833    0.000    2.000    0.000    2.667 
#   33.000    6.667    0.000    2.000    0.000    0.000 
#    0.000    0.000    0.000    0.000    0.000    0.000 
#
# Total GULP energy -133620.088669 kJ/mol
# GULP energy per Si atom -5567.503695 kJ/mol
# Density = 2.191899 g / cm^3
# Si number density = 21.968989 Si / 1000 Ang^3
#
#
#
# Elastic Constant Matrix: (Units=GPa)
#
#
# Indices 1 2 3 4 5 6 
#
# 1 65.1699 30.0051 11.4936 0.0000 13.5422 0.0000
# 2 30.0051 168.5571 29.8041 0.0000 -11.9765 0.0000
# 3 11.4936 29.8041 44.3771 0.0000 -8.6937 0.0000
# 4 0.0000 0.0000 0.0000 4.1679 0.0000 3.8868
# 5 13.5422 -11.9765 -8.6937 0.0000 26.1470 0.0000
# 6 0.0000 0.0000 0.0000 3.8868 0.0000 10.8830
#
#
#
# Elastic Compliance Matrix: (Units=1/GPa)
#
#
# Indices 1 2 3 4 5 6 
#
# 1 0.021142 -0.003776 -0.005802 0.000000 -0.014608 0.000000
# 2 -0.003776 0.007477 -0.003198 0.000000 0.004317 0.000000
# 3 -0.005802 -0.003198 0.028332 0.000000 0.010960 0.000000
# 4 0.000000 0.000000 0.000000 0.359743 0.000000 -0.128481
# 5 -0.014608 0.004317 0.010960 0.000000 0.051433 0.000000
# 6 0.000000 0.000000 0.000000 -0.128481 0.000000 0.137772
#
#
# Mechanical properties :
#
#
# Convention : Reuss Voigt Hill
#
# Bulk Modulus (GPa) = 31.84748 46.74553 39.29650
# Shear Modulus (GPa) = 7.78918 22.02635 14.90776
#
# Velocity S-wave (km/s) = 1.88500 3.16984 2.60779
# Velocity P-wave (km/s) = 4.38927 5.89248 5.19553
#
# Compressibility (1/GPa) = 0.03139966
#
# Stress axis : x y z
#
# Youngs Moduli (GPa) = 47.30012 133.74332 35.29605
#
# Poissons Ratio (x) = 0.50495 0.20478
# Poissons Ratio (y) = 0.17858 0.11288
# Poissons Ratio (z) = 0.27442 0.42772
#
# Static dielectric constant tensor:
#      x y z
#    x 1.867170 0.000000 0.064490 
#    y 0.000000 1.816410 0.000000 
#    z 0.064490 0.000000 1.870350 
# 
# From -- ./inp_files/149850.got.cif
#   From: 2010.05.17/outbox.cif.g08.bks.cpg/sg12_75_cif.got.tgz:149850.got - 2010.06.03 13:09:07.
