data_PCOD9175122
_publ_section_title
;
Structure prediction by ZEFSAII (Michael W. Deem and Ramdas Pophale) SiO2 
 PCOD9175122
Probable space group: C 2/M
;
_chemical_formula_sum "Si O2"
_cell_formula_units_Z 56
_cell_length_a 31.133911
_cell_length_b 8.687968
_cell_length_c 17.342650
_cell_angle_alpha 90.000000
_cell_angle_beta 45.546159
_cell_angle_gamma 90.000000
_cell_volume 3348.520437
_symmetry_space_group_name_H-M "C 2/M"
_symmetry_group_IT_number 12
_symmetry_cell_setting 'monoclinic'
loop_
_space_group_symop_operation_xyz
x,y,z
-x,y,-z
-x,-y,-z
x,-y,z
1/2+x,1/2+y,z
1/2-x,1/2+y,-z
1/2-x,1/2-y,-z
1/2+x,1/2-y,z
loop_
_atom_site_type_symbol
_atom_site_label
_atom_site_fract_x
_atom_site_fract_y
_atom_site_fract_z
Si Si1 0.528380 0.312976 0.346245
Si Si2 0.905075 0.814123 0.586805
Si Si3 0.487031 0.314121 0.806194
Si Si4 0.693310 0.184073 0.397269
Si Si5 0.942617 0.684215 0.020749
Si Si6 0.128559 0.814663 0.629657
Si Si7 0.670856 0.685947 0.746184
O O1 0.528658 0.500000 0.345645
O O2 0.462285 0.269318 0.461302
O O3 0.576911 0.264787 0.349298
O O4 0.536418 0.262757 0.248329
O O5 0.845113 0.746574 0.625946
O O6 0.901675 0.000000 0.589503
O O7 0.482899 0.500000 0.815844
O O8 0.453055 0.242901 0.921179
O O9 0.557932 0.273742 0.721070
O O10 0.661122 0.241585 0.515654
O O11 0.762746 0.235437 0.311346
O O12 0.692390 0.000000 0.397474
O O13 0.941249 0.500000 0.023470
O O14 0.882131 0.748149 0.134799
O O15 0.000000 0.736221 0.000000
O O16 0.158802 0.768751 0.672433
O O17 0.132045 0.000000 0.617544
O O18 0.667879 0.500000 0.752759
#
# Coordination Sequence:
#
# PCOD9175122 Si02
#       7
#     8   8   8   8   8   8   8
#     4   8  15  29  52  79 101 130 172 214 249 297
#     4   9  16  31  53  75 103 135 172 209 249 307
#     4  10  18  32  56  79 102 135 174 210 251 305
#     4  11  22  33  49  77 111 139 169 211 258 301
#     4  11  23  36  52  77 105 134 170 217 263 298
#     4  10  19  33  54  76 101 139 178 205 247 306
#     4  10  22  38  53  72 101 142 182 211 245 303
#
# _framework density 16.723804999999999
#
# number of rings (size 3 to 8) (size 9 to 14) (size 15 to 20)
#    0.000    2.143    2.857    2.143    0.000    2.857 
#    0.000    2.143    0.000    0.857    0.000    0.000 
#    0.000    0.000    0.000    0.000    0.000    0.000 
#
# Total GULP energy -156233.462017 kJ/mol
# GULP energy per Si atom -5579.766501 kJ/mol
# Density = 1.668574 g / cm^3
# Si number density = 16.723805 Si / 1000 Ang^3
#
#
#
# Elastic Constant Matrix: (Units=GPa)
#
#
# Indices 1 2 3 4 5 6 
#
# 1 171.2417 30.8279 76.4912 0.0000 4.1911 0.0000
# 2 30.8279 13.4712 21.0342 0.0000 -2.8732 0.0009
# 3 76.4912 21.0342 86.2499 0.0000 -4.2284 0.0004
# 4 0.0000 0.0000 0.0000 17.4210 -0.0002 -3.0212
# 5 4.1911 -2.8732 -4.2284 -0.0002 28.8244 0.0000
# 6 0.0000 0.0009 0.0004 -3.0212 0.0000 23.1781
#
#
#
# Elastic Compliance Matrix: (Units=1/GPa)
#
#
# Indices 1 2 3 4 5 6 
#
# 1 0.012250 -0.018897 -0.006482 0.000000 -0.004616 0.000001
# 2 -0.018897 0.150762 -0.019276 -0.000001 0.014948 -0.000006
# 3 -0.006482 -0.019276 0.022155 0.000000 0.002271 0.000000
# 4 0.000000 -0.000001 0.000000 0.058729 0.000000 0.007655
# 5 -0.004616 0.014948 0.002271 0.000000 0.037187 -0.000001
# 6 0.000001 -0.000006 0.000000 0.007655 -0.000001 0.044142
#
#
# Mechanical properties :
#
#
# Convention : Reuss Voigt Hill
#
# Bulk Modulus (GPa) = 10.43205 58.62992 34.53099
# Shear Modulus (GPa) = 11.19857 23.39200 17.29529
#
# Velocity S-wave (km/s) = 2.59051 3.74401 3.21934
# Velocity P-wave (km/s) = 3.89859 7.33649 5.87465
#
# Compressibility (1/GPa) = 0.09585840
#
# Stress axis : x y z
#
# Youngs Moduli (GPa) = 81.63380 6.63298 45.13720
#
# Poissons Ratio (x) = 0.12534 0.29256
# Poissons Ratio (y) = 1.54261 0.87004
# Poissons Ratio (z) = 0.52912 0.12785
#
# Static dielectric constant tensor:
#      x y z
#    x 1.579250 0.000000 0.003930 
#    y 0.000000 1.566650 0.000000 
#    z 0.003930 0.000000 1.525530 
# 
# From -- ./inp_files/281005.got.cif
#   From: 2010.05.17/outbox.cif.g08.bks.cpg/sg12_141_cif.got.tgz:281005.got - 2010.06.03 13:09:07.
