data_PCOD9175562
_publ_section_title
;
Structure prediction by ZEFSAII (Michael W. Deem and Ramdas Pophale) SiO2 
 PCOD9175562
Probable space group: C 2/M
;
_chemical_formula_sum "Si O2"
_cell_formula_units_Z 40
_cell_length_a 15.283787
_cell_length_b 13.581934
_cell_length_c 12.367713
_cell_angle_alpha 90.000000
_cell_angle_beta 43.942230
_cell_angle_gamma 90.000000
_cell_volume 1781.555511
_symmetry_space_group_name_H-M "C 2/M"
_symmetry_group_IT_number 12
_symmetry_cell_setting 'monoclinic'
loop_
_space_group_symop_operation_xyz
x,y,z
-x,y,-z
-x,-y,-z
x,-y,z
1/2+x,1/2+y,z
1/2-x,1/2+y,-z
1/2-x,1/2-y,-z
1/2+x,1/2-y,z
loop_
_atom_site_type_symbol
_atom_site_label
_atom_site_fract_x
_atom_site_fract_y
_atom_site_fract_z
Si Si1 0.807489 0.314007 0.722830
Si Si2 0.001818 0.323161 0.874434
Si Si3 0.571303 0.883994 0.590570
Si Si4 0.266666 0.388304 0.858520
Si Si5 0.074885 0.109851 0.069632
O O1 0.823215 0.344672 0.584953
O O2 0.784528 0.197226 0.755470
O O3 0.695955 0.370589 0.884797
O O4 0.939858 0.337496 0.664675
O O5 0.089251 0.362245 0.701527
O O6 0.860847 0.356540 0.965927
O O7 0.011752 0.205056 0.869363
O O8 0.000000 0.360219 0.000000
O O9 0.560363 0.000000 0.585138
O O10 0.256310 0.500000 0.827165
O O11 0.375367 0.384910 0.851589
O O12 0.023858 0.000000 0.097339
#
# Coordination Sequence:
#
# PCOD9175562 Si02
#       5
#     8   8   8   8   8
#     4  10  18  33  54  82 107 132 178 228 261 303
#     4  11  22  36  54  80 112 140 175 221 264 318
#     4  11  20  32  53  82 109 136 175 222 269 308
#     4  10  19  35  57  79 107 143 180 215 261 316
#     4  10  18  35  58  78 105 143 183 218 256 311
#
# _framework density 22.452289
#
# number of rings (size 3 to 8) (size 9 to 14) (size 15 to 20)
#    0.000    1.600    4.000    4.200    0.000    2.000 
#    0.000    7.000    0.000    2.400    0.000    0.000 
#    0.000    0.000    0.000    0.000    0.000    0.000 
#
# Total GULP energy -111739.331283 kJ/mol
# GULP energy per Si atom -5586.966564 kJ/mol
# Density = 2.240119 g / cm^3
# Si number density = 22.452289 Si / 1000 Ang^3
#
#
#
# Elastic Constant Matrix: (Units=GPa)
#
#
# Indices 1 2 3 4 5 6 
#
# 1 33.0522 -4.7355 1.5380 0.0000 18.5131 0.0000
# 2 -4.7355 180.4605 51.7323 0.0000 9.2478 0.0000
# 3 1.5380 51.7323 132.1805 0.0000 29.8261 0.0000
# 4 0.0000 0.0000 0.0000 13.1426 0.0000 1.6924
# 5 18.5131 9.2478 29.8261 0.0000 33.8869 0.0000
# 6 0.0000 0.0000 0.0000 1.6924 0.0000 1.0327
#
#
#
# Elastic Compliance Matrix: (Units=1/GPa)
#
#
# Indices 1 2 3 4 5 6 
#
# 1 0.048086 0.001116 0.006239 0.000000 -0.032067 0.000000
# 2 0.001116 0.006276 -0.002427 0.000000 -0.000186 0.000000
# 3 0.006239 -0.002427 0.011308 0.000000 -0.012700 0.000000
# 4 0.000000 0.000000 0.000000 0.096439 0.000000 -0.158039
# 5 -0.032067 -0.000186 -0.012700 0.000000 0.058257 0.000000
# 6 0.000000 0.000000 0.000000 -0.158039 0.000000 1.227301
#
#
# Mechanical properties :
#
#
# Convention : Reuss Voigt Hill
#
# Bulk Modulus (GPa) = 13.24023 49.19587 31.21805
# Shear Modulus (GPa) = 3.41767 29.42301 16.42034
#
# Velocity S-wave (km/s) = 1.23511 3.62397 2.70727
# Velocity P-wave (km/s) = 2.81848 6.28249 4.86896
#
# Compressibility (1/GPa) = 0.07552738
#
# Stress axis : x y z
#
# Youngs Moduli (GPa) = 20.79611 159.33616 88.42994
#
# Poissons Ratio (x) = -0.17790 -0.55174
# Poissons Ratio (y) = -0.02322 0.21464
# Poissons Ratio (z) = -0.12975 0.38675
#
# Static dielectric constant tensor:
#      x y z
#    x 1.983770 0.000000 0.004820 
#    y 0.000000 1.805510 0.000000 
#    z 0.004820 0.000000 1.811160 
# 
# From -- ./inp_files/155079.got.cif
#   From: 2010.05.17/outbox.cif.g08.bks.cpg/sg12_78_cif.got.tgz:155079.got - 2010.06.03 13:09:07.
