data_PCOD9175218
_publ_section_title
;
Structure prediction by ZEFSAII (Michael W. Deem and Ramdas Pophale) SiO2 
 PCOD9175218
Probable space group: C 2/M
;
_chemical_formula_sum "Si O2"
_cell_formula_units_Z 40
_cell_length_a 27.596246
_cell_length_b 14.583205
_cell_length_c 5.365102
_cell_angle_alpha 90.000000
_cell_angle_beta 53.977268
_cell_angle_gamma 90.000000
_cell_volume 1746.277976
_symmetry_space_group_name_H-M "C 2/M"
_symmetry_group_IT_number 12
_symmetry_cell_setting 'monoclinic'
loop_
_space_group_symop_operation_xyz
x,y,z
-x,y,-z
-x,-y,-z
x,-y,z
1/2+x,1/2+y,z
1/2-x,1/2+y,-z
1/2-x,1/2-y,-z
1/2+x,1/2-y,z
loop_
_atom_site_type_symbol
_atom_site_label
_atom_site_fract_x
_atom_site_fract_y
_atom_site_fract_z
Si Si1 0.841413 0.099603 0.502054
Si Si2 0.152873 0.699193 0.738505
Si Si3 0.485156 0.152868 0.795290
Si Si4 0.965987 0.856520 0.353323
Si Si5 0.218798 0.653375 0.050327
O O1 0.838212 0.190781 0.336685
O O2 0.896740 0.118204 0.524317
O O3 0.852533 0.000000 0.344886
O O4 0.777784 0.093293 0.833295
O O5 0.177208 0.644733 0.420549
O O6 0.082845 0.684744 0.986603
O O7 0.184017 0.662239 0.894450
O O8 0.500000 0.102277 0.500000
O O9 0.526224 0.245692 0.667930
O O10 0.500000 0.101603 0.000000
O O11 0.000000 0.888703 0.500000
O O12 0.000000 0.888091 0.000000
O O13 0.250000 0.750000 0.000000
#
# Coordination Sequence:
#
# PCOD9175218 Si02
#       5
#     8   8   8   8   8
#     4  11  23  40  59  86 120 164 202 240 286 350
#     4  11  21  41  59  82 115 160 192 248 292 337
#     4  10  18  32  57  81 114 145 192 231 277 341
#     4  10  21  35  53  76 119 153 193 230 275 331
#     4  10  23  38  60  79 111 156 204 243 295 332
#
# _framework density 22.905860000000001
#
# number of rings (size 3 to 8) (size 9 to 14) (size 15 to 20)
#    0.000    1.600    4.000    3.600    8.400    2.400 
#    0.000   15.000    0.000    0.600    0.000    0.000 
#    0.000   16.000    0.000    0.000    0.000    0.000 
#
# Total GULP energy -111613.747079 kJ/mol
# GULP energy per Si atom -5580.687354 kJ/mol
# Density = 2.285373 g / cm^3
# Si number density = 22.905860 Si / 1000 Ang^3
#
#
#
# Elastic Constant Matrix: (Units=GPa)
#
#
# Indices 1 2 3 4 5 6 
#
# 1 178.4956 35.2916 94.3258 0.0000 16.4667 0.0000
# 2 35.2916 94.4696 37.7449 0.0000 -11.5570 0.0000
# 3 94.3258 37.7449 176.3332 0.0000 22.5688 0.0000
# 4 0.0000 0.0000 0.0000 31.5204 0.0000 -55.1479
# 5 16.4667 -11.5570 22.5688 0.0000 56.0945 0.0000
# 6 0.0000 0.0000 0.0000 -55.1479 0.0000 37.5483
#
#
#
# Elastic Compliance Matrix: (Units=1/GPa)
#
#
# Indices 1 2 3 4 5 6 
#
# 1 0.008042 -0.001627 -0.003805 0.000000 -0.001165 0.000000
# 2 -0.001627 0.012623 -0.002347 0.000000 0.004022 0.000000
# 3 -0.003805 -0.002347 0.008569 0.000000 -0.002814 0.000000
# 4 0.000000 0.000000 0.000000 -0.020212 0.000000 -0.029685
# 5 -0.001165 0.004022 -0.002814 0.000000 0.020130 0.000000
# 6 0.000000 0.000000 0.000000 -0.029685 0.000000 -0.016967
#
#
# Mechanical properties :
#
#
# Convention : Reuss Voigt Hill
#
# Bulk Modulus (GPa) = 73.11152 87.11365 80.11258
# Shear Modulus (GPa) = 154.79911 43.82838 99.31375
#
# Velocity S-wave (km/s) = 8.22966 4.37900 6.59177
# Velocity P-wave (km/s) = 11.05851 7.98006 9.64292
#
# Compressibility (1/GPa) = 0.01367774
#
# Stress axis : x y z
#
# Youngs Moduli (GPa) = 124.34667 79.22199 116.70345
#
# Poissons Ratio (x) = 0.12888 0.44401
# Poissons Ratio (y) = 0.20228 0.27385
# Poissons Ratio (z) = 0.47309 0.18590
#
# Static dielectric constant tensor:
#      x y z
#    x 1.813620 0.000000 0.075090 
#    y 0.000000 1.802160 0.000000 
#    z 0.075090 0.000000 1.926520 
# 
# From -- ./inp_files/28424.got.cif
#   From: 2010.05.17/outbox.cif.g08.bks.cpg/sg12_15_cif.got.tgz:28424.got - 2010.06.03 13:09:07.
