data_PCOD9175146
_publ_section_title
;
Structure prediction by ZEFSAII (Michael W. Deem and Ramdas Pophale) SiO2 
 PCOD9175146
Probable space group: C 2/M
;
_chemical_formula_sum "Si O2"
_cell_formula_units_Z 44
_cell_length_a 20.391966
_cell_length_b 12.241003
_cell_length_c 34.350941
_cell_angle_alpha 90.000000
_cell_angle_beta 17.317166
_cell_angle_gamma 90.000000
_cell_volume 2552.328362
_symmetry_space_group_name_H-M "C 2/M"
_symmetry_group_IT_number 12
_symmetry_cell_setting 'monoclinic'
loop_
_space_group_symop_operation_xyz
x,y,z
-x,y,-z
-x,-y,-z
x,-y,z
1/2+x,1/2+y,z
1/2-x,1/2+y,-z
1/2-x,1/2-y,-z
1/2+x,1/2-y,z
loop_
_atom_site_type_symbol
_atom_site_label
_atom_site_fract_x
_atom_site_fract_y
_atom_site_fract_z
Si Si1 0.587522 0.500000 0.675107
Si Si2 0.476749 0.263772 0.848522
Si Si3 0.966481 0.500000 0.620228
Si Si4 0.795876 0.201976 0.204336
Si Si5 0.253151 0.188645 0.149483
Si Si6 0.730807 0.871631 0.098393
Si Si7 0.866734 0.000000 0.262867
O O1 0.430454 0.604510 0.759992
O O2 0.695395 0.500000 0.656815
O O3 0.778805 0.500000 0.534734
O O4 0.661641 0.247792 0.776890
O O5 0.452672 0.181059 0.826246
O O6 0.499420 0.388485 0.821087
O O7 0.250000 0.250000 0.000000
O O8 0.883167 0.607007 0.689968
O O9 0.829313 0.500000 0.657281
O O10 0.736200 0.287298 0.204815
O O11 0.029111 0.148900 0.057799
O O12 0.231046 0.301425 0.137784
O O13 0.500000 0.147153 0.000000
O O14 0.700633 0.000000 0.121326
#
# Coordination Sequence:
#
# PCOD9175146 Si02
#       7
#     4   8   4   8   8   8   4
#     4  12  22  38  54  81 112 148 182 216 273 331
#     4   9  18  31  52  80 109 140 172 223 272 322
#     4  10  21  35  60  78 106 145 189 230 254 312
#     4   9  19  35  51  81 108 141 180 225 267 315
#     4  10  22  36  55  81 113 142 174 226 282 325
#     4  10  18  32  56  82 107 139 176 222 279 321
#     4  10  19  37  55  81 110 139 186 224 271 319
#
# _framework density 17.239159999999998
#
# number of rings (size 3 to 8) (size 9 to 14) (size 15 to 20)
#    0.000    2.182    2.727    0.545    5.091    1.818 
#    1.636    0.000    0.000    0.000    0.000    5.091 
#    0.000    0.000    0.000    0.000    0.000    0.000 
#
# Total GULP energy -122603.117193 kJ/mol
# GULP energy per Si atom -5572.868963 kJ/mol
# Density = 1.719992 g / cm^3
# Si number density = 17.239160 Si / 1000 Ang^3
#
#
#
# Elastic Constant Matrix: (Units=GPa)
#
#
# Indices 1 2 3 4 5 6 
#
# 1 62.0109 17.3674 4.2898 0.0679 8.6899 -0.0576
# 2 17.3674 88.8514 26.9259 0.0222 -3.3906 -0.0664
# 3 4.2898 26.9259 59.2362 -0.1096 3.7561 -0.1459
# 4 0.0679 0.0222 -0.1096 5.1518 0.1086 7.2530
# 5 8.6899 -3.3906 3.7561 0.1086 14.4122 -0.0371
# 6 -0.0576 -0.0664 -0.1459 7.2530 -0.0371 15.1223
#
#
#
# Elastic Compliance Matrix: (Units=1/GPa)
#
#
# Indices 1 2 3 4 5 6 
#
# 1 0.019175 -0.004730 0.001592 0.000084 -0.013090 -0.000005
# 2 -0.004730 0.014541 -0.006778 -0.000968 0.008048 0.000464
# 3 0.001592 -0.006778 0.020347 0.001204 -0.007867 -0.000424
# 4 0.000084 -0.000968 0.001204 0.598183 -0.005837 -0.286910
# 5 -0.013090 0.008048 -0.007867 -0.005837 0.081273 0.002909
# 6 -0.000005 0.000464 -0.000424 -0.286910 0.002909 0.203742
#
#
# Mechanical properties :
#
#
# Convention : Reuss Voigt Hill
#
# Bulk Modulus (GPa) = 29.21370 34.14052 31.67711
# Shear Modulus (GPa) = 5.16260 17.70496 11.43378
#
# Velocity S-wave (km/s) = 1.73240 3.20819 2.57815
# Velocity P-wave (km/s) = 4.58088 5.79399 5.22278
#
# Compressibility (1/GPa) = 0.03423052
#
# Stress axis : x y z
#
# Youngs Moduli (GPa) = 52.15106 68.77102 49.14656
#
# Poissons Ratio (x) = 0.32528 -0.07822
# Poissons Ratio (y) = 0.24667 0.33312
# Poissons Ratio (z) = -0.08300 0.46613
#
# Static dielectric constant tensor:
#      x y z
#    x 1.638320 0.000000 -0.002710 
#    y 0.000000 1.562380 0.000030 
#    z -0.002710 0.000030 1.560170 
# 
# From -- ./inp_files/165264.got.cif
#   From: 2010.05.17/outbox.cif.g08.bks.cpg/sg12_83_cif.got.tgz:165264.got - 2010.06.03 13:09:07.
