data_PCOD9175699
_publ_section_title
;
Structure prediction by ZEFSAII (Michael W. Deem and Ramdas Pophale) SiO2 
 PCOD9175699
Probable space group: C 2/M
;
_chemical_formula_sum "Si O2"
_cell_formula_units_Z 56
_cell_length_a 21.102869
_cell_length_b 8.327981
_cell_length_c 22.967460
_cell_angle_alpha 90.000000
_cell_angle_beta 131.735805
_cell_angle_gamma 90.000000
_cell_volume 3012.051788
_symmetry_space_group_name_H-M "C 2/M"
_symmetry_group_IT_number 12
_symmetry_cell_setting 'monoclinic'
loop_
_space_group_symop_operation_xyz
x,y,z
-x,y,-z
-x,-y,-z
x,-y,z
1/2+x,1/2+y,z
1/2-x,1/2+y,-z
1/2-x,1/2-y,-z
1/2+x,1/2-y,z
loop_
_atom_site_type_symbol
_atom_site_label
_atom_site_fract_x
_atom_site_fract_y
_atom_site_fract_z
Si Si1 0.009696 0.314233 0.593953
Si Si2 0.744292 0.305445 0.162728
Si Si3 0.568253 0.691806 0.751371
Si Si4 0.702750 0.306103 0.270290
Si Si5 0.131538 0.186261 0.570234
Si Si6 0.428907 0.304032 0.003474
Si Si7 0.490775 0.696188 0.826471
O O1 0.033065 0.500000 0.601108
O O2 0.019089 0.265461 0.666333
O O3 0.075787 0.215368 0.594600
O O4 0.917564 0.282880 0.509965
O O5 0.748840 0.500000 0.164351
O O6 0.833270 0.237487 0.195564
O O7 0.726483 0.257802 0.218779
O O8 0.664036 0.253896 0.074735
O O9 0.559667 0.500000 0.743409
O O10 0.531381 0.748621 0.790553
O O11 0.704960 0.500000 0.273265
O O12 0.773854 0.241159 0.357274
O O13 0.607228 0.254176 0.226607
O O14 0.129005 0.000000 0.553536
O O15 0.429125 0.500000 0.003380
O O16 0.456454 0.251150 0.084537
O O17 0.500000 0.254223 0.000000
O O18 0.491424 0.500000 0.827436
#
# Coordination Sequence:
#
# PCOD9175699 Si02
#       7
#     8   8   8   8   8   8   8
#     4  11  21  36  57  81 110 146 187 229 270 323
#     4  10  19  31  56  84 108 141 188 235 274 326
#     4  11  22  36  53  79 117 152 183 226 283 335
#     4  10  18  33  56  83 110 145 191 231 269 321
#     4  11  21  34  56  87 115 141 177 226 282 331
#     4   9  15  29  54  84 109 138 188 239 275 318
#     4   9  19  34  54  80 113 151 189 232 277 325
#
# _framework density 18.591978000000001
#
# number of rings (size 3 to 8) (size 9 to 14) (size 15 to 20)
#    0.000    1.857    2.857    3.857    0.000    0.571 
#    0.000    2.143    0.000    2.143    0.000    0.000 
#    0.000    0.000    0.000    0.000    0.000    0.000 
#
# Total GULP energy -156358.902311 kJ/mol
# GULP energy per Si atom -5584.246511 kJ/mol
# Density = 1.854966 g / cm^3
# Si number density = 18.591978 Si / 1000 Ang^3
#
#
#
# Elastic Constant Matrix: (Units=GPa)
#
#
# Indices 1 2 3 4 5 6 
#
# 1 116.4207 2.6892 68.4266 0.0000 -3.4167 0.0000
# 2 2.6892 14.9196 1.0974 0.0000 1.0935 0.0000
# 3 68.4266 1.0974 158.5341 0.0000 2.1549 0.0000
# 4 0.0000 0.0000 0.0000 0.5049 0.0000 -7.6724
# 5 -3.4167 1.0935 2.1549 0.0000 30.0798 0.0000
# 6 0.0000 0.0000 0.0000 -7.6724 0.0000 7.5536
#
#
#
# Elastic Compliance Matrix: (Units=1/GPa)
#
#
# Indices 1 2 3 4 5 6 
#
# 1 0.011644 -0.001857 -0.005037 0.000000 0.001751 0.000000
# 2 -0.001857 0.067531 0.000371 0.000000 -0.002692 0.000000
# 3 -0.005037 0.000371 0.008495 0.000000 -0.001194 0.000000
# 4 0.000000 0.000000 0.000000 -0.137211 0.000000 -0.139368
# 5 0.001751 -0.002692 -0.001194 0.000000 0.033627 0.000000
# 6 0.000000 0.000000 0.000000 -0.139368 0.000000 -0.009172
#
#
# Mechanical properties :
#
#
# Convention : Reuss Voigt Hill
#
# Bulk Modulus (GPa) = 13.40045 48.25563 30.82804
# Shear Modulus (GPa) = 389.55670 22.13843 205.84756
#
# Velocity S-wave (km/s) = 14.49084 3.45447 10.53370
# Velocity P-wave (km/s) = 16.94705 6.47477 12.82819
#
# Compressibility (1/GPa) = 0.07462436
#
# Stress axis : x y z
#
# Youngs Moduli (GPa) = 85.87953 14.80810 117.70993
#
# Poissons Ratio (x) = 0.02749 0.59289
# Poissons Ratio (y) = 0.15945 -0.04361
# Poissons Ratio (z) = 0.43256 -0.00549
#
# Static dielectric constant tensor:
#      x y z
#    x 1.614000 0.000000 0.003140 
#    y 0.000000 1.646680 0.000000 
#    z 0.003140 0.000000 1.637550 
# 
# From -- ./inp_files/320214.got.cif
#   From: 2010.05.17/outbox.cif.g08.bks.cpg/sg12_161_cif.got.tgz:320214.got - 2010.06.03 13:09:07.
