data_PCOD9175366
_publ_section_title
;
Structure prediction by ZEFSAII (Michael W. Deem and Ramdas Pophale) SiO2 
 PCOD9175366
Probable space group: C 2/M
;
_chemical_formula_sum "Si O2"
_cell_formula_units_Z 56
_cell_length_a 10.288925
_cell_length_b 18.362028
_cell_length_c 33.986913
_cell_angle_alpha 90.000000
_cell_angle_beta 28.043513
_cell_angle_gamma 90.000000
_cell_volume 3018.779530
_symmetry_space_group_name_H-M "C 2/M"
_symmetry_group_IT_number 12
_symmetry_cell_setting 'monoclinic'
loop_
_space_group_symop_operation_xyz
x,y,z
-x,y,-z
-x,-y,-z
x,-y,z
1/2+x,1/2+y,z
1/2-x,1/2+y,-z
1/2-x,1/2-y,-z
1/2+x,1/2-y,z
loop_
_atom_site_type_symbol
_atom_site_label
_atom_site_fract_x
_atom_site_fract_y
_atom_site_fract_z
Si Si1 0.512067 0.786037 0.813260
Si Si2 0.163612 0.587003 0.718114
Si Si3 0.490222 0.787496 0.911121
Si Si4 0.710158 0.911884 0.476320
Si Si5 0.163112 0.586094 0.916332
Si Si6 0.204856 0.640121 0.256281
Si Si7 0.692249 0.912021 0.569304
O O1 0.600882 0.864175 0.772995
O O2 0.426655 0.787077 0.881888
O O3 0.270302 0.754885 0.849456
O O4 0.757136 0.726510 0.748097
O O5 0.130751 0.500000 0.732827
O O6 0.475408 0.601507 0.620224
O O7 0.964601 0.614624 0.736468
O O8 0.530396 0.869065 0.916258
O O9 0.250000 0.750000 0.000000
O O10 0.500000 0.882993 0.500000
O O11 0.645528 0.885362 0.537416
O O12 0.680860 0.000000 0.485362
O O13 0.140469 0.500000 0.917422
O O14 0.484999 0.608692 0.831650
O O15 0.000000 0.606573 0.000000
O O16 0.041800 0.611127 0.337707
O O17 0.000000 0.888380 0.500000
O O18 0.695839 0.000000 0.568126
#
# Coordination Sequence:
#
# PCOD9175366 Si02
#       7
#     8   8   8   8   8   8   8
#     4  11  24  40  63  92 124 163 214 258 315 386
#     4  11  22  40  66  93 127 169 210 262 322 374
#     4  11  22  42  63  87 124 169 208 254 321 386
#     4   9  19  35  56  88 127 162 204 259 315 370
#     4  10  22  38  62  95 126 159 208 265 316 374
#     4  11  21  40  63  91 128 168 211 263 318 377
#     4  10  18  32  60  91 118 164 220 258 302 381
#
# _framework density 18.550543000000001
#
# number of rings (size 3 to 8) (size 9 to 14) (size 15 to 20)
#    0.000    1.571    2.857    3.429    0.000    2.857 
#    0.000    2.857    0.000    1.714    0.000    0.000 
#    0.000    0.000    0.000    0.000    0.000    0.000 
#
# Total GULP energy -156268.306890 kJ/mol
# GULP energy per Si atom -5581.010960 kJ/mol
# Density = 1.850832 g / cm^3
# Si number density = 18.550543 Si / 1000 Ang^3
#
#
#
# Elastic Constant Matrix: (Units=GPa)
#
#
# Indices 1 2 3 4 5 6 
#
# 1 116.6834 38.4355 61.5259 0.0058 18.7953 0.0064
# 2 38.4355 83.6830 37.2848 0.0413 5.5697 0.0148
# 3 61.5259 37.2848 123.5265 0.0652 14.8074 0.0056
# 4 0.0058 0.0413 0.0652 13.6733 0.0749 -1.4749
# 5 18.7953 5.5697 14.8074 0.0749 36.2456 -0.0228
# 6 0.0064 0.0148 0.0056 -1.4749 -0.0228 20.0535
#
#
#
# Elastic Compliance Matrix: (Units=1/GPa)
#
#
# Indices 1 2 3 4 5 6 
#
# 1 0.012987 -0.003498 -0.004910 0.000051 -0.004191 -0.000001
# 2 -0.003498 0.014756 -0.002794 -0.000035 0.000688 -0.000011
# 3 -0.004910 -0.002794 0.011596 -0.000036 -0.001762 -0.000004
# 4 0.000051 -0.000035 -0.000036 0.073721 -0.000156 0.005422
# 5 -0.004191 0.000688 -0.001762 -0.000156 0.030377 0.000024
# 6 -0.000001 -0.000011 -0.000004 0.005422 0.000024 0.050266
#
#
# Mechanical properties :
#
#
# Convention : Reuss Voigt Hill
#
# Bulk Modulus (GPa) = 59.05476 66.48725 62.77100
# Shear Modulus (GPa) = 22.54787 26.43759 24.49273
#
# Velocity S-wave (km/s) = 3.49016 3.77923 3.63757
# Velocity P-wave (km/s) = 6.93868 7.41366 7.18010
#
# Compressibility (1/GPa) = 0.01693344
#
# Stress axis : x y z
#
# Youngs Moduli (GPa) = 77.00241 67.77099 86.24008
#
# Poissons Ratio (x) = 0.23707 0.42345
# Poissons Ratio (y) = 0.26936 0.24094
# Poissons Ratio (z) = 0.37809 0.18934
#
# Static dielectric constant tensor:
#      x y z
#    x 1.643500 0.000040 -0.004350 
#    y 0.000040 1.645130 0.000000 
#    z -0.004350 0.000000 1.638250 
# 
# From -- ./inp_files/258007.got.cif
#   From: 2010.05.17/outbox.cif.g08.bks.cpg/sg12_130_cif.got.tgz:258007.got - 2010.06.03 13:09:07.
