data_PCOD9175407
_publ_section_title
;
Structure prediction by ZEFSAII (Michael W. Deem and Ramdas Pophale) SiO2 
 PCOD9175407
Probable space group: C 2/M
;
_chemical_formula_sum "Si O2"
_cell_formula_units_Z 56
_cell_length_a 9.724660
_cell_length_b 18.502044
_cell_length_c 21.093530
_cell_angle_alpha 90.000000
_cell_angle_beta 53.802314
_cell_angle_gamma 90.000000
_cell_volume 3062.727888
_symmetry_space_group_name_H-M "C 2/M"
_symmetry_group_IT_number 12
_symmetry_cell_setting 'monoclinic'
loop_
_space_group_symop_operation_xyz
x,y,z
-x,y,-z
-x,-y,-z
x,-y,z
1/2+x,1/2+y,z
1/2-x,1/2+y,-z
1/2-x,1/2-y,-z
1/2+x,1/2-y,z
loop_
_atom_site_type_symbol
_atom_site_label
_atom_site_fract_x
_atom_site_fract_y
_atom_site_fract_z
Si Si1 0.495348 0.651895 0.324786
Si Si2 0.651209 0.088102 0.376226
Si Si3 0.178662 0.579775 0.222986
Si Si4 0.879195 0.295277 0.421822
Si Si5 0.824329 0.642730 0.303621
Si Si6 0.386731 0.310191 0.092968
Si Si7 0.955462 0.225832 0.816687
O O1 0.311795 0.612393 0.375543
O O2 0.491557 0.731324 0.359263
O O3 0.655099 0.615438 0.315561
O O4 0.534099 0.665873 0.240659
O O5 0.698973 0.107067 0.289692
O O6 0.489451 0.142647 0.427519
O O7 0.619581 0.000000 0.389628
O O8 0.243933 0.500000 0.206915
O O9 0.277157 0.620103 0.141290
O O10 0.977360 0.585809 0.265699
O O11 0.750000 0.250000 0.500000
O O12 0.789034 0.332104 0.385528
O O13 0.914009 0.710733 0.242631
O O14 0.239280 0.250915 0.127701
O O15 0.493813 0.295894 0.126943
O O16 0.500000 0.315511 0.000000
#
# Coordination Sequence:
#
# PCOD9175407 Si02
#       7
#     8   8   8   8   8   8   8
#     4  11  19  33  58  83 111 149 191 233 281 343
#     4  10  21  38  60  86 115 152 193 238 287 337
#     4   9  19  36  54  74 106 146 188 226 274 345
#     4  10  21  37  57  86 118 151 191 234 285 342
#     4   9  19  32  56  79 106 146 186 229 275 334
#     4  11  20  31  52  80 109 142 180 236 295 330
#     4  10  18  33  49  78 110 140 185 232 276 334
#
# _framework density 18.284355000000001
#
# number of rings (size 3 to 8) (size 9 to 14) (size 15 to 20)
#    0.000    2.000    2.857    3.000    0.000    3.143 
#    0.000    1.429    0.000    0.000    0.000   10.000 
#    0.000    0.000    0.000    0.000    0.000    0.000 
#
# Total GULP energy -155948.155526 kJ/mol
# GULP energy per Si atom -5569.576983 kJ/mol
# Density = 1.824274 g / cm^3
# Si number density = 18.284355 Si / 1000 Ang^3
#
#
#
# Elastic Constant Matrix: (Units=GPa)
#
#
# Indices 1 2 3 4 5 6 
#
# 1 136.3166 18.9020 40.9304 -0.0001 -7.6183 0.0001
# 2 18.9020 49.6881 30.8208 0.0000 -7.1260 0.0000
# 3 40.9304 30.8208 115.8074 -0.0002 3.5800 0.0002
# 4 -0.0001 0.0000 -0.0002 -23.6936 0.0001 29.8828
# 5 -7.6183 -7.1260 3.5800 0.0001 22.8163 -0.0001
# 6 0.0001 0.0000 0.0002 29.8828 -0.0001 -9.7629
#
#
#
# Elastic Compliance Matrix: (Units=1/GPa)
#
#
# Indices 1 2 3 4 5 6 
#
# 1 0.008491 -0.001066 -0.002808 0.000000 0.002943 0.000000
# 2 -0.001066 0.026033 -0.006825 0.000000 0.008846 0.000000
# 3 -0.002808 -0.006825 0.011595 0.000000 -0.004889 0.000000
# 4 0.000000 0.000000 0.000000 0.014755 0.000000 0.045163
# 5 0.002943 0.008846 -0.004889 0.000000 0.048341 0.000000
# 6 0.000000 0.000000 0.000000 0.045163 0.000000 0.035809
#
#
# Mechanical properties :
#
#
# Convention : Reuss Voigt Hill
#
# Bulk Modulus (GPa) = 40.45225 53.67984 47.06604
# Shear Modulus (GPa) = 28.62635 11.94921 20.28778
#
# Velocity S-wave (km/s) = 3.96108 2.55918 3.33463
# Velocity P-wave (km/s) = 6.56447 6.17694 6.37365
#
# Compressibility (1/GPa) = 0.02472050
#
# Stress axis : x y z
#
# Youngs Moduli (GPa) = 117.76590 38.41251 86.24304
#
# Poissons Ratio (x) = 0.04095 0.24220
# Poissons Ratio (y) = 0.12556 0.58861
# Poissons Ratio (z) = 0.33073 0.26217
#
# Static dielectric constant tensor:
#      x y z
#    x 1.661150 0.000000 -0.006960 
#    y 0.000000 1.665320 0.000000 
#    z -0.006960 0.000000 1.645070 
# 
# From -- ./inp_files/257614.got.cif
#   From: 2010.05.17/outbox.cif.g08.bks.cpg/sg12_129_cif.got.tgz:257614.got - 2010.06.03 13:09:07.
