data_PCOD9175715
_publ_section_title
;
Structure prediction by ZEFSAII (Michael W. Deem and Ramdas Pophale) SiO2 
 PCOD9175715
Probable space group: C 2/M
;
_chemical_formula_sum "Si O2"
_cell_formula_units_Z 44
_cell_length_a 13.021040
_cell_length_b 18.002666
_cell_length_c 13.308962
_cell_angle_alpha 90.000000
_cell_angle_beta 49.015062
_cell_angle_gamma 90.000000
_cell_volume 2355.080538
_symmetry_space_group_name_H-M "C 2/M"
_symmetry_group_IT_number 12
_symmetry_cell_setting 'monoclinic'
loop_
_space_group_symop_operation_xyz
x,y,z
-x,y,-z
-x,-y,-z
x,-y,z
1/2+x,1/2+y,z
1/2-x,1/2+y,-z
1/2-x,1/2-y,-z
1/2+x,1/2-y,z
loop_
_atom_site_type_symbol
_atom_site_label
_atom_site_fract_x
_atom_site_fract_y
_atom_site_fract_z
Si Si1 0.939733 0.371825 0.147696
Si Si2 0.960143 0.844180 0.310919
Si Si3 0.000000 0.796913 0.500000
Si Si4 0.343877 0.793730 0.862593
Si Si5 0.726580 0.718224 0.736611
Si Si6 0.003331 0.000000 0.663043
Si Si7 0.265838 0.500000 0.649162
O O1 0.864386 0.291863 0.184075
O O2 0.831882 0.429190 0.264844
O O3 0.065514 0.355856 0.141792
O O4 0.000000 0.394639 0.000000
O O5 0.945347 0.844702 0.441518
O O6 0.838656 0.828010 0.312130
O O7 0.056264 0.773001 0.235594
O O8 0.014105 0.926466 0.258657
O O9 0.872599 0.746353 0.607648
O O10 0.254611 0.820450 0.825439
O O11 0.250000 0.750000 0.000000
O O12 0.151980 0.000000 0.510210
O O13 0.885111 0.000000 0.655671
#
# Coordination Sequence:
#
# PCOD9175715 Si02
#       7
#     8   8   4   8   8   4   4
#     4  11  21  35  58  86 115 148 190 241 289 340
#     4  10  21  34  57  83 113 152 193 236 290 341
#     4  10  18  33  56  85 112 146 196 248 284 333
#     4  10  20  37  59  85 114 150 193 240 288 342
#     4  10  20  35  57  85 114 149 193 239 290 339
#     4  11  22  38  57  81 120 155 190 238 290 348
#     4  11  23  38  57  86 118 152 194 241 290 337
#
# _framework density 18.683012999999999
#
# number of rings (size 3 to 8) (size 9 to 14) (size 15 to 20)
#    0.000    1.636    1.818    5.182    0.000    2.909 
#    0.000    0.909    0.000    2.727    0.000    0.000 
#    0.000    0.000    0.000    0.000    0.000    0.000 
#
# Total GULP energy -122557.629849 kJ/mol
# GULP energy per Si atom -5570.801357 kJ/mol
# Density = 1.864049 g / cm^3
# Si number density = 18.683013 Si / 1000 Ang^3
#
#
#
# Elastic Constant Matrix: (Units=GPa)
#
#
# Indices 1 2 3 4 5 6 
#
# 1 168.4697 34.3585 24.5736 0.0000 13.7648 0.0000
# 2 34.3585 58.3526 -6.4952 0.0000 7.4921 0.0000
# 3 24.5736 -6.4952 41.0466 0.0000 0.3138 0.0000
# 4 0.0000 0.0000 0.0000 -16.5561 0.0000 -5.1623
# 5 13.7648 7.4921 0.3138 0.0000 24.4929 0.0000
# 6 0.0000 0.0000 0.0000 -5.1623 0.0000 21.3985
#
#
#
# Elastic Compliance Matrix: (Units=1/GPa)
#
#
# Indices 1 2 3 4 5 6 
#
# 1 0.007992 -0.004950 -0.005545 0.000000 -0.002906 0.000000
# 2 -0.004950 0.021247 0.006354 0.000000 -0.003799 0.000000
# 3 -0.005545 0.006354 0.028682 0.000000 0.000805 0.000000
# 4 0.000000 0.000000 0.000000 -0.056175 0.000000 -0.013552
# 5 -0.002906 -0.003799 0.000805 0.000000 0.043613 0.000000
# 6 0.000000 0.000000 0.000000 -0.013552 0.000000 0.043463
#
#
# Mechanical properties :
#
#
# Convention : Reuss Voigt Hill
#
# Bulk Modulus (GPa) = 20.14557 41.41584 30.78070
# Shear Modulus (GPa) = 43.99532 20.22919 32.11226
#
# Velocity S-wave (km/s) = 4.85792 3.29410 4.15033
# Velocity P-wave (km/s) = 6.50170 6.05672 6.28315
#
# Compressibility (1/GPa) = 0.04963871
#
# Stress axis : x y z
#
# Youngs Moduli (GPa) = 125.13229 47.06627 34.86533
#
# Poissons Ratio (x) = 0.23296 0.19334
# Poissons Ratio (y) = 0.61936 -0.22155
# Poissons Ratio (z) = 0.69390 -0.29908
#
# Static dielectric constant tensor:
#      x y z
#    x 1.680960 0.000000 0.015660 
#    y 0.000000 1.746950 0.000000 
#    z 0.015660 0.000000 1.605720 
# 
# From -- ./inp_files/205992.got.cif
#   From: 2010.05.17/outbox.cif.g08.bks.cpg/sg12_103_cif.got.tgz:205992.got - 2010.06.03 13:09:07.
