data_PCOD9175581
_publ_section_title
;
Structure prediction by ZEFSAII (Michael W. Deem and Ramdas Pophale) SiO2 
 PCOD9175581
Probable space group: C 2/M
;
_chemical_formula_sum "Si O2"
_cell_formula_units_Z 64
_cell_length_a 15.209923
_cell_length_b 7.648226
_cell_length_c 30.511093
_cell_angle_alpha 90.000000
_cell_angle_beta 60.820564
_cell_angle_gamma 90.000000
_cell_volume 3098.903472
_symmetry_space_group_name_H-M "C 2/M"
_symmetry_group_IT_number 12
_symmetry_cell_setting 'monoclinic'
loop_
_space_group_symop_operation_xyz
x,y,z
-x,y,-z
-x,-y,-z
x,-y,z
1/2+x,1/2+y,z
1/2-x,1/2+y,-z
1/2-x,1/2-y,-z
1/2+x,1/2-y,z
loop_
_atom_site_type_symbol
_atom_site_label
_atom_site_fract_x
_atom_site_fract_y
_atom_site_fract_z
Si Si1 0.647546 0.786493 0.734421
Si Si2 0.510544 0.706641 0.363905
Si Si3 0.575487 0.285593 0.443789
Si Si4 0.573092 0.795843 0.184902
Si Si5 0.334589 0.288226 0.747048
Si Si6 0.200739 0.710969 0.623100
Si Si7 0.603563 0.202887 0.994853
Si Si8 0.172206 0.203014 0.070699
O O1 0.535968 0.725153 0.773732
O O2 0.729799 0.735144 0.750387
O O3 0.682131 0.728663 0.677673
O O4 0.646106 0.000000 0.733393
O O5 0.532625 0.500000 0.359863
O O6 0.541367 0.775089 0.403907
O O7 0.576914 0.775557 0.307247
O O8 0.393917 0.732857 0.382406
O O9 0.500000 0.226733 0.500000
O O10 0.573248 0.500000 0.444580
O O11 0.691341 0.231270 0.421076
O O12 0.645506 0.775655 0.209023
O O13 0.618053 0.714512 0.130288
O O14 0.559943 0.000000 0.178401
O O15 0.337178 0.500000 0.747946
O O16 0.201955 0.500000 0.623971
O O17 0.713417 0.276820 0.954260
O O18 0.604710 0.000000 0.980265
O O19 0.500000 0.279089 0.000000
O O20 0.609481 0.211993 0.046284
O O21 0.181775 0.000000 0.055684
#
# Coordination Sequence:
#
# PCOD9175581 Si02
#       8
#     8   8   8   8   8   8   8   8
#     4   9  18  33  53  74  99 139 182 215 257 319
#     4  10  19  32  53  78 103 132 172 222 270 317
#     4   9  18  33  54  78 104 138 179 220 265 325
#     4  11  22  36  54  79 112 144 179 223 270 321
#     4  10  19  34  54  75 100 137 181 222 264 315
#     4  10  18  33  55  76 101 136 178 216 261 323
#     4   9  19  38  63  85 109 147 190 224 264 317
#     4  10  21  37  57  84 116 146 180 226 272 315
#
# _framework density 20.652466
#
# number of rings (size 3 to 8) (size 9 to 14) (size 15 to 20)
#    0.000    2.250    2.500    0.750    0.000    2.250 
#    0.000    7.500    0.000    0.750    0.000    0.000 
#    0.000    0.000    0.000    0.000    0.000    0.000 
#
# Total GULP energy -178638.460669 kJ/mol
# GULP energy per Si atom -5582.451896 kJ/mol
# Density = 2.060546 g / cm^3
# Si number density = 20.652466 Si / 1000 Ang^3
#
#
#
# Elastic Constant Matrix: (Units=GPa)
#
#
# Indices 1 2 3 4 5 6 
#
# 1 87.4807 -3.4008 -9.2933 -0.0002 0.6850 -0.0001
# 2 -3.4008 38.1599 4.1227 0.0000 -4.8782 0.0000
# 3 -9.2933 4.1227 65.2768 -0.0002 1.1801 -0.0001
# 4 -0.0002 0.0000 -0.0002 -19.8849 0.0000 -18.5037
# 5 0.6850 -4.8782 1.1801 0.0000 20.8638 0.0000
# 6 -0.0001 0.0000 -0.0001 -18.5037 0.0000 6.6715
#
#
#
# Elastic Compliance Matrix: (Units=1/GPa)
#
#
# Indices 1 2 3 4 5 6 
#
# 1 0.011636 0.000827 0.001609 0.000000 -0.000280 0.000000
# 2 0.000827 0.027290 -0.001722 0.000000 0.006451 0.000000
# 3 0.001609 -0.001722 0.015682 0.000000 -0.001343 0.000000
# 4 0.000000 0.000000 0.000000 -0.014044 0.000000 -0.038951
# 5 -0.000280 0.006451 -0.001343 0.000000 0.049523 0.000000
# 6 0.000000 0.000000 0.000000 -0.038951 0.000000 0.041859
#
#
# Mechanical properties :
#
#
# Convention : Reuss Voigt Hill
#
# Bulk Modulus (GPa) = 17.84538 19.30830 18.57684
# Shear Modulus (GPa) = 33.51286 14.82931 24.17109
#
# Velocity S-wave (km/s) = 4.03265 2.68254 3.42478
# Velocity P-wave (km/s) = 5.50841 4.35478 4.96521
#
# Compressibility (1/GPa) = 0.05603691
#
# Stress axis : x y z
#
# Youngs Moduli (GPa) = 85.93706 36.64339 63.76917
#
# Poissons Ratio (x) = -0.03032 -0.10263
# Poissons Ratio (y) = -0.07110 0.10984
# Poissons Ratio (z) = -0.13831 0.06312
#
# Static dielectric constant tensor:
#      x y z
#    x 1.720290 0.000000 -0.023000 
#    y 0.000000 1.791190 0.000000 
#    z -0.023000 0.000000 1.705560 
# 
# From -- ./inp_files/375017.got.cif
#   From: 2010.05.17/outbox.cif.g08.bks.cpg/sg12_188_cif.got.tgz:375017.got - 2010.06.03 13:09:07.
