data_PCOD9175589
_publ_section_title
;
Structure prediction by ZEFSAII (Michael W. Deem and Ramdas Pophale) SiO2 
 PCOD9175589
Probable space group: C 2/M
;
_chemical_formula_sum "Si O2"
_cell_formula_units_Z 56
_cell_length_a 19.842456
_cell_length_b 8.681510
_cell_length_c 29.223421
_cell_angle_alpha 90.000000
_cell_angle_beta 140.929471
_cell_angle_gamma 90.000000
_cell_volume 3172.874549
_symmetry_space_group_name_H-M "C 2/M"
_symmetry_group_IT_number 12
_symmetry_cell_setting 'monoclinic'
loop_
_space_group_symop_operation_xyz
x,y,z
-x,y,-z
-x,-y,-z
x,-y,z
1/2+x,1/2+y,z
1/2-x,1/2+y,-z
1/2-x,1/2-y,-z
1/2+x,1/2-y,z
loop_
_atom_site_type_symbol
_atom_site_label
_atom_site_fract_x
_atom_site_fract_y
_atom_site_fract_z
Si Si1 0.879765 0.815589 0.185540
Si Si2 0.121316 0.186238 0.303536
Si Si3 0.773898 0.813541 0.735441
Si Si4 0.848831 0.683483 0.580369
Si Si5 0.079400 0.184668 0.688052
Si Si6 0.562367 0.312789 0.100510
Si Si7 0.841896 0.814693 0.947818
O O1 0.880813 0.768993 0.239852
O O2 0.776406 0.747169 0.106639
O O3 0.996937 0.771628 0.228881
O O4 0.872043 0.000000 0.179617
O O5 0.194078 0.230033 0.299027
O O6 0.155531 0.260101 0.369348
O O7 0.123978 0.000000 0.310155
O O8 0.663780 0.745197 0.695890
O O9 0.868101 0.762121 0.819797
O O10 0.768189 0.000000 0.734515
O O11 0.848332 0.500000 0.578333
O O12 0.750000 0.750000 0.500000
O O13 0.961382 0.746618 0.620389
O O14 0.073176 0.000000 0.683866
O O15 0.561131 0.500000 0.100441
O O16 0.620343 0.268079 0.083590
O O17 0.438661 0.263099 0.031842
O O18 0.838508 0.000000 0.946924
#
# Coordination Sequence:
#
# PCOD9175589 Si02
#       7
#     8   8   8   8   8   8   8
#     4   9  17  30  46  69 101 137 175 220 269 311
#     4   9  20  36  54  78 110 142 174 216 265 316
#     4  10  18  33  55  77 105 144 184 218 263 319
#     4  11  22  39  63  86 109 137 171 209 253 310
#     4  10  20  34  54  81 111 139 174 219 261 308
#     4   8  15  26  44  71 100 133 175 225 270 307
#     4   9  15  26  45  69  97 131 180 230 265 308
#
# _framework density 17.649611
#
# number of rings (size 3 to 8) (size 9 to 14) (size 15 to 20)
#    0.000    2.571    1.429    3.429    0.000    2.857 
#    0.000    3.571    0.000    4.286    0.000    0.000 
#    0.000    0.000    0.000    0.000    0.000    0.000 
#
# Total GULP energy -156128.029238 kJ/mol
# GULP energy per Si atom -5576.001044 kJ/mol
# Density = 1.760944 g / cm^3
# Si number density = 17.649611 Si / 1000 Ang^3
#
#
#
# Elastic Constant Matrix: (Units=GPa)
#
#
# Indices 1 2 3 4 5 6 
#
# 1 128.8491 41.2569 67.1307 0.0000 15.5512 0.0000
# 2 41.2569 34.6674 38.2415 0.0000 5.4804 0.0000
# 3 67.1307 38.2415 144.9454 0.0000 20.1614 0.0000
# 4 0.0000 0.0000 0.0000 26.6890 0.0000 6.3986
# 5 15.5512 5.4804 20.1614 0.0000 18.7703 0.0000
# 6 0.0000 0.0000 0.0000 6.3986 0.0000 22.9327
#
#
#
# Elastic Compliance Matrix: (Units=1/GPa)
#
#
# Indices 1 2 3 4 5 6 
#
# 1 0.013717 -0.013107 -0.002171 0.000000 -0.005206 0.000000
# 2 -0.013107 0.053213 -0.008604 0.000000 0.004564 0.000000
# 3 -0.002171 -0.008604 0.011257 0.000000 -0.007780 0.000000
# 4 0.000000 0.000000 0.000000 0.040155 0.000000 -0.011204
# 5 -0.005206 0.004564 -0.007780 0.000000 0.064613 0.000000
# 6 0.000000 0.000000 0.000000 -0.011204 0.000000 0.046732
#
#
# Mechanical properties :
#
#
# Convention : Reuss Voigt Hill
#
# Bulk Modulus (GPa) = 32.86887 66.85779 49.86333
# Shear Modulus (GPa) = 17.38579 24.46725 20.92652
#
# Velocity S-wave (km/s) = 3.14196 3.72731 3.44708
# Velocity P-wave (km/s) = 5.64145 7.51576 6.64502
#
# Compressibility (1/GPa) = 0.03042392
#
# Stress axis : x y z
#
# Youngs Moduli (GPa) = 72.90174 18.79241 88.83532
#
# Poissons Ratio (x) = 0.24631 0.19285
# Poissons Ratio (y) = 0.95550 0.76433
# Poissons Ratio (z) = 0.15826 0.16169
#
# Static dielectric constant tensor:
#      x y z
#    x 1.592920 0.000000 0.006030 
#    y 0.000000 1.600140 0.000000 
#    z 0.006030 0.000000 1.598010 
# 
# From -- ./inp_files/345473.got.cif
#   From: 2010.05.17/outbox.cif.g08.bks.cpg/sg12_173_cif.got.tgz:345473.got - 2010.06.03 13:09:07.
