data_PCOD9175625
_publ_section_title
;
Structure prediction by ZEFSAII (Michael W. Deem and Ramdas Pophale) SiO2 
 PCOD9175625
Probable space group: C 2/M
;
_chemical_formula_sum "Si O2"
_cell_formula_units_Z 56
_cell_length_a 19.078751
_cell_length_b 8.842619
_cell_length_c 19.832588
_cell_angle_alpha 90.000000
_cell_angle_beta 125.644518
_cell_angle_gamma 90.000000
_cell_volume 2719.022670
_symmetry_space_group_name_H-M "C 2/M"
_symmetry_group_IT_number 12
_symmetry_cell_setting 'monoclinic'
loop_
_space_group_symop_operation_xyz
x,y,z
-x,y,-z
-x,-y,-z
x,-y,z
1/2+x,1/2+y,z
1/2-x,1/2+y,-z
1/2-x,1/2-y,-z
1/2+x,1/2-y,z
loop_
_atom_site_type_symbol
_atom_site_label
_atom_site_fract_x
_atom_site_fract_y
_atom_site_fract_z
Si Si1 0.110078 0.821468 0.714794
Si Si2 0.205955 0.320806 0.128953
Si Si3 0.939873 0.172169 0.033568
Si Si4 0.351926 0.323335 0.422547
Si Si5 0.414501 0.176396 0.806232
Si Si6 0.561976 0.176748 0.411277
Si Si7 0.824368 0.176022 0.632308
O O1 0.195281 0.774026 0.803476
O O2 0.131356 0.804495 0.647222
O O3 0.023439 0.727752 0.676557
O O4 0.094560 0.000000 0.718720
O O5 0.204576 0.500000 0.113501
O O6 0.153089 0.302505 0.169698
O O7 0.152326 0.233096 0.042311
O O8 0.991473 0.277924 0.113974
O O9 0.934878 0.000000 0.055466
O O10 0.000000 0.172308 0.000000
O O11 0.332921 0.500000 0.423540
O O12 0.428372 0.271195 0.514520
O O13 0.270570 0.222914 0.397927
O O14 0.385291 0.282780 0.729458
O O15 0.410568 0.000000 0.784115
O O16 0.643097 0.222980 0.411182
O O17 0.560032 0.000000 0.424566
O O18 0.829579 0.000000 0.617658
#
# Coordination Sequence:
#
# PCOD9175625 Si02
#       7
#     8   8   8   8   8   8   8
#     4  10  21  39  61  85 115 152 191 233 285 341
#     4   9  17  32  54  81 112 149 187 227 279 337
#     4   9  17  28  46  79 116 148 183 231 279 325
#     4  11  22  41  64  86 113 148 190 238 288 340
#     4  10  18  33  55  82 113 149 188 231 282 337
#     4  12  26  41  57  83 116 152 193 237 286 340
#     4  12  24  39  60  85 115 151 191 238 287 340
#
# _framework density 20.595635000000001
#
# number of rings (size 3 to 8) (size 9 to 14) (size 15 to 20)
#    0.000    1.571    1.429    4.714    0.000    5.714 
#    0.000    0.000    0.000    0.857    0.000    0.000 
#    0.000    0.000    0.000    0.000    0.000    0.000 
#
# Total GULP energy -156531.023482 kJ/mol
# GULP energy per Si atom -5590.393696 kJ/mol
# Density = 2.054876 g / cm^3
# Si number density = 20.595635 Si / 1000 Ang^3
#
#
#
# Elastic Constant Matrix: (Units=GPa)
#
#
# Indices 1 2 3 4 5 6 
#
# 1 21.3530 -0.0782 1.6404 0.0000 10.7228 0.0000
# 2 -0.0782 39.8413 5.3539 0.0000 4.4782 0.0000
# 3 1.6404 5.3539 74.2917 0.0000 29.1279 0.0000
# 4 0.0000 0.0000 0.0000 33.6626 0.0000 8.1878
# 5 10.7228 4.4782 29.1279 0.0000 23.2073 0.0000
# 6 0.0000 0.0000 0.0000 8.1878 0.0000 20.3010
#
#
#
# Elastic Compliance Matrix: (Units=1/GPa)
#
#
# Indices 1 2 3 4 5 6 
#
# 1 0.079558 0.004554 0.024950 0.000000 -0.068952 0.000000
# 2 0.004554 0.025918 0.001609 0.000000 -0.009125 0.000000
# 3 0.024950 0.001609 0.034328 0.000000 -0.054924 0.000000
# 4 0.000000 0.000000 0.000000 0.032938 0.000000 -0.013284
# 5 -0.068952 -0.009125 -0.054924 0.000000 0.145646 0.000000
# 6 0.000000 0.000000 0.000000 -0.013284 0.000000 0.054616
#
#
# Mechanical properties :
#
#
# Convention : Reuss Voigt Hill
#
# Bulk Modulus (GPa) = 4.94979 16.59093 10.77036
# Shear Modulus (GPa) = 13.22329 24.00549 18.61439
#
# Velocity S-wave (km/s) = 2.53661 3.41774 3.00959
# Velocity P-wave (km/s) = 3.31477 4.86288 4.16145
#
# Compressibility (1/GPa) = 0.20202869
#
# Stress axis : x y z
#
# Youngs Moduli (GPa) = 12.56952 38.58332 29.13095
#
# Poissons Ratio (x) = -0.17570 -0.72681
# Poissons Ratio (y) = -0.05724 -0.04688
# Poissons Ratio (z) = -0.31360 -0.06210
#
# Static dielectric constant tensor:
#      x y z
#    x 1.746480 0.000000 0.007460 
#    y 0.000000 1.682340 0.000000 
#    z 0.007460 0.000000 1.751420 
# 
# From -- ./inp_files/319668.got.cif
#   From: 2010.05.17/outbox.cif.g08.bks.cpg/sg12_160_cif.got.tgz:319668.got - 2010.06.03 13:09:07.
