data_PCOD9175460
_publ_section_title
;
Structure prediction by ZEFSAII (Michael W. Deem and Ramdas Pophale) SiO2 
 PCOD9175460
Probable space group: C 2/M
;
_chemical_formula_sum "Si O2"
_cell_formula_units_Z 56
_cell_length_a 9.375958
_cell_length_b 27.922458
_cell_length_c 13.354408
_cell_angle_alpha 90.000000
_cell_angle_beta 107.966781
_cell_angle_gamma 90.000000
_cell_volume 3325.691790
_symmetry_space_group_name_H-M "C 2/M"
_symmetry_group_IT_number 12
_symmetry_cell_setting 'monoclinic'
loop_
_space_group_symop_operation_xyz
x,y,z
-x,y,-z
-x,-y,-z
x,-y,z
1/2+x,1/2+y,z
1/2-x,1/2+y,-z
1/2-x,1/2-y,-z
1/2+x,1/2-y,z
loop_
_atom_site_type_symbol
_atom_site_label
_atom_site_fract_x
_atom_site_fract_y
_atom_site_fract_z
Si Si1 0.321621 0.446446 0.974143
Si Si2 0.034297 0.555591 0.392516
Si Si3 0.423119 0.788478 0.091518
Si Si4 0.445491 0.112544 0.183790
Si Si5 0.124762 0.943888 0.605339
Si Si6 0.227581 0.096404 0.832148
Si Si7 0.609574 0.315840 0.937410
O O1 0.285643 0.500000 0.928895
O O2 0.205784 0.408500 0.899772
O O3 0.500000 0.438889 0.000000
O O4 0.294876 0.442610 0.086820
O O5 0.989573 0.500000 0.364174
O O6 0.211881 0.558754 0.410223
O O7 0.000000 0.566851 0.500000
O O8 0.955926 0.590573 0.296487
O O9 0.458698 0.829967 0.178146
O O10 0.455282 0.733242 0.125004
O O11 0.500000 0.798162 0.000000
O O12 0.249454 0.796814 0.031395
O O13 0.596203 0.096572 0.157422
O O14 0.137331 0.915615 0.711995
O O15 0.000000 0.926861 0.500000
O O16 0.093936 0.000000 0.620875
O O17 0.167215 0.145335 0.870637
O O18 0.500000 0.335007 0.000000
#
# Coordination Sequence:
#
# PCOD9175460 Si02
#       7
#     8   8   8   8   8   8   8
#     4  11  23  34  46  74 110 138 165 207 262 313
#     4   9  19  35  54  76 100 131 174 218 258 305
#     4  10  18  33  52  77 106 141 172 207 257 315
#     4  11  20  34  55  76 102 137 175 212 257 315
#     4   9  19  35  54  74  99 135 176 215 257 307
#     4  11  20  34  53  77 103 137 176 214 255 311
#     4  10  20  32  51  77 110 138 172 211 255 312
#
# _framework density 16.838601000000001
#
# number of rings (size 3 to 8) (size 9 to 14) (size 15 to 20)
#    0.000    1.857    2.857    1.714    0.000    3.429 
#    0.000    2.857    0.000    0.857    0.000    4.000 
#    0.000    0.000    0.000    0.000    0.000    0.000 
#
# Total GULP energy -155970.336323 kJ/mol
# GULP energy per Si atom -5570.369154 kJ/mol
# Density = 1.680028 g / cm^3
# Si number density = 16.838601 Si / 1000 Ang^3
#
#
#
# Elastic Constant Matrix: (Units=GPa)
#
#
# Indices 1 2 3 4 5 6 
#
# 1 67.4599 21.0302 36.7393 0.0000 -5.3531 0.0000
# 2 21.0302 107.3546 44.2309 0.0000 -9.6239 0.0000
# 3 36.7393 44.2309 100.5116 0.0000 -6.3751 0.0000
# 4 0.0000 0.0000 0.0000 17.5902 0.0000 -4.4847
# 5 -5.3531 -9.6239 -6.3751 0.0000 27.7581 0.0000
# 6 0.0000 0.0000 0.0000 -4.4847 0.0000 15.6155
#
#
#
# Elastic Compliance Matrix: (Units=1/GPa)
#
#
# Indices 1 2 3 4 5 6 
#
# 1 0.018691 -0.000891 -0.006323 0.000000 0.001843 0.000000
# 2 -0.000891 0.011645 -0.004621 0.000000 0.002804 0.000000
# 3 -0.006323 -0.004621 0.014323 0.000000 0.000468 0.000000
# 4 0.000000 0.000000 0.000000 0.061342 0.000000 0.017617
# 5 0.001843 0.002804 0.000468 0.000000 0.037461 0.000000
# 6 0.000000 0.000000 0.000000 0.017617 0.000000 0.069098
#
#
# Mechanical properties :
#
#
# Convention : Reuss Voigt Hill
#
# Bulk Modulus (GPa) = 47.64272 53.25855 50.45063
# Shear Modulus (GPa) = 20.55696 23.74779 22.15238
#
# Velocity S-wave (km/s) = 3.49782 3.75949 3.63102
# Velocity P-wave (km/s) = 6.68342 7.10933 6.89966
#
# Compressibility (1/GPa) = 0.02098957
#
# Stress axis : x y z
#
# Youngs Moduli (GPa) = 53.50079 85.87626 69.81580
#
# Poissons Ratio (x) = 0.07653 0.44145
# Poissons Ratio (y) = 0.04768 0.32260
# Poissons Ratio (z) = 0.33829 0.39681
#
# Static dielectric constant tensor:
#      x y z
#    x 1.609350 0.000000 0.015700 
#    y 0.000000 1.651010 0.000000 
#    z 0.015700 0.000000 1.540810 
# 
# From -- ./inp_files/125331.got.cif
#   From: 2010.05.17/outbox.cif.g08.bks.cpg/sg12_63_cif.got.tgz:125331.got - 2010.06.03 13:09:07.
