data_PCOD9175931
_publ_section_title
;
Structure prediction by ZEFSAII (Michael W. Deem and Ramdas Pophale) SiO2 
 PCOD9175931
Probable space group: C 2/M
;
_chemical_formula_sum "Si O2"
_cell_formula_units_Z 58
_cell_length_a 8.503497
_cell_length_b 18.479217
_cell_length_c 20.151840
_cell_angle_alpha 90.000000
_cell_angle_beta 107.576134
_cell_angle_gamma 90.000000
_cell_volume 3018.790399
_symmetry_space_group_name_H-M "C 2/M"
_symmetry_group_IT_number 12
_symmetry_cell_setting 'monoclinic'
loop_
_space_group_symop_operation_xyz
x,y,z
-x,y,-z
-x,-y,-z
x,-y,z
1/2+x,1/2+y,z
1/2-x,1/2+y,-z
1/2-x,1/2-y,-z
1/2+x,1/2-y,z
loop_
_atom_site_type_symbol
_atom_site_label
_atom_site_fract_x
_atom_site_fract_y
_atom_site_fract_z
Si Si1 0.190005 0.807406 0.720152
Si Si2 0.415607 0.138339 0.399666
Si Si3 0.454584 0.916968 0.810703
Si Si4 0.769338 0.085117 0.757361
Si Si5 0.500000 0.000000 0.500000
Si Si6 0.451910 0.304107 0.160530
Si Si7 0.588663 0.817891 0.080789
Si Si8 0.631274 0.730338 0.375899
O O1 0.306806 0.872110 0.757622
O O2 0.121148 0.772299 0.779369
O O3 0.295674 0.757518 0.685211
O O4 0.024748 0.821951 0.657058
O O5 0.314865 0.113895 0.320986
O O6 0.557642 0.197084 0.399932
O O7 0.280748 0.184239 0.425500
O O8 0.476825 0.065242 0.441157
O O9 0.624673 0.907765 0.793233
O O10 0.474586 0.887566 0.887459
O O11 0.408166 0.000000 0.803935
O O12 0.927193 0.131524 0.801119
O O13 0.811343 0.000000 0.755509
O O14 0.545011 0.247458 0.125858
O O15 0.285812 0.325930 0.100471
O O16 0.500000 0.807027 0.000000
#
# Coordination Sequence:
#
# PCOD9175931 Si02
#       8
#     8   8   8   8   2   8   8   8
#     4  10  18  33  59  95 124 147 206 272 329 357
#     4  11  23  42  69  97 134 175 221 263 332 397
#     4  10  22  36  56  87 124 165 212 268 323 385
#     4  11  22  39  63  95 124 163 212 283 328 380
#     4  12  28  48  68  98 140 190 210 250 330 434
#     4  11  22  34  62  91 123 157 218 271 318 384
#     4  11  24  40  59  87 129 175 212 265 332 404
#     4  10  21  36  66  97 125 166 211 273 319 380
#
# _framework density 19.212993999999998
#
# number of rings (size 3 to 8) (size 9 to 14) (size 15 to 20)
#    0.000    1.379    3.448    2.897    5.793    3.034 
#    1.241    0.000    0.000    5.379    0.000    0.000 
#    0.000    0.000    0.000    0.000    0.000    0.000 
#
# Total GULP energy -161451.554610 kJ/mol
# GULP energy per Si atom -5567.294987 kJ/mol
# Density = 1.916926 g / cm^3
# Si number density = 19.212994 Si / 1000 Ang^3
#
#
#
# Elastic Constant Matrix: (Units=GPa)
#
#
# Indices 1 2 3 4 5 6 
#
# 1 89.0996 51.1973 32.8546 0.0000 -9.1501 0.0000
# 2 51.1973 138.0157 49.6634 0.0000 0.7354 0.0000
# 3 32.8546 49.6634 67.8603 0.0000 -16.1059 0.0000
# 4 0.0000 0.0000 0.0000 21.7364 0.0000 -0.3959
# 5 -9.1501 0.7354 -16.1059 0.0000 -23.8325 0.0000
# 6 0.0000 0.0000 0.0000 -0.3959 0.0000 22.7791
#
#
#
# Elastic Compliance Matrix: (Units=1/GPa)
#
#
# Indices 1 2 3 4 5 6 
#
# 1 0.014993 -0.003707 -0.005118 0.000000 -0.002412 0.000000
# 2 -0.003707 0.010233 -0.004551 0.000000 0.004815 0.000000
# 3 -0.005118 -0.004551 0.018078 0.000000 -0.010393 0.000000
# 4 0.000000 0.000000 0.000000 0.046020 0.000000 0.000800
# 5 -0.002412 0.004815 -0.010393 0.000000 -0.033862 0.000000
# 6 0.000000 0.000000 0.000000 0.000800 0.000000 0.043914
#
#
# Mechanical properties :
#
#
# Convention : Reuss Voigt Hill
#
# Bulk Modulus (GPa) = 60.41953 62.48956 61.45455
# Shear Modulus (GPa) = 37.98020 14.88728 26.43374
#
# Velocity S-wave (km/s) = 4.45094 2.78664 3.71324
# Velocity P-wave (km/s) = 7.61118 6.55355 7.10208
#
# Compressibility (1/GPa) = 0.01655094
#
# Stress axis : x y z
#
# Youngs Moduli (GPa) = 66.69692 97.72488 55.31446
#
# Poissons Ratio (x) = 0.36228 0.28312
# Poissons Ratio (y) = 0.24726 0.25175
# Poissons Ratio (z) = 0.34138 0.44478
#
# Static dielectric constant tensor:
#      x y z
#    x 1.720110 0.000000 0.016370 
#    y 0.000000 1.681030 0.000000 
#    z 0.016370 0.000000 1.695070 
# 
# From -- ./inp_files/257117.got.cif
#   From: 2010.05.17/outbox.cif.g08.bks.cpg/sg12_129_cif.got.tgz:257117.got - 2010.06.03 13:09:07.
