data_PCOD9175574
_publ_section_title
;
Structure prediction by ZEFSAII (Michael W. Deem and Ramdas Pophale) SiO2 
 PCOD9175574
Probable space group: C 2/M
;
_chemical_formula_sum "Si O2"
_cell_formula_units_Z 60
_cell_length_a 7.135510
_cell_length_b 14.960080
_cell_length_c 21.330760
_cell_angle_alpha 90.000000
_cell_angle_beta 76.580047
_cell_angle_gamma 90.000000
_cell_volume 2214.838167
_symmetry_space_group_name_H-M "C 2/M"
_symmetry_group_IT_number 12
_symmetry_cell_setting 'monoclinic'
loop_
_space_group_symop_operation_xyz
x,y,z
-x,y,-z
-x,-y,-z
x,-y,z
1/2+x,1/2+y,z
1/2-x,1/2+y,-z
1/2-x,1/2-y,-z
1/2+x,1/2-y,z
loop_
_atom_site_type_symbol
_atom_site_label
_atom_site_fract_x
_atom_site_fract_y
_atom_site_fract_z
Si Si1 0.374774 0.854076 0.424288
Si Si2 0.982227 0.134798 0.302855
Si Si3 0.562208 0.500000 0.196651
Si Si4 0.949243 0.346485 0.712942
Si Si5 0.195199 0.399257 0.957491
Si Si6 0.075199 0.156061 0.886883
Si Si7 0.807666 0.139627 0.440878
Si Si8 0.503632 0.852939 0.852127
O O1 0.391348 0.877538 0.349961
O O2 0.214647 0.889579 0.485049
O O3 0.589788 0.875196 0.432508
O O4 0.347563 0.746624 0.433362
O O5 0.762895 0.125435 0.293049
O O6 0.955573 0.105155 0.377306
O O7 0.107555 0.076902 0.246864
O O8 0.043823 0.238233 0.292563
O O9 0.471320 0.577089 0.156811
O O10 0.981495 0.376003 0.781347
O O11 0.220318 0.500000 0.980096
O O12 0.391084 0.345610 0.946796
O O13 0.143130 0.407351 0.886859
O O14 0.000000 0.358703 0.000000
O O15 0.076501 0.251302 0.852390
O O16 0.287326 0.141048 0.896898
#
# Coordination Sequence:
#
# PCOD9175574 Si02
#       8
#     8   8   4   8   8   8   8   8
#     4   8  14  24  45  70 110 143 198 258 308 369
#     4  10  20  32  56  81 122 156 209 265 323 384
#     4  12  22  36  59  92 131 168 210 278 328 394
#     4  10  18  33  54  86 116 157 208 265 319 382
#     4  11  28  50  72 104 140 174 217 264 320 400
#     4  12  25  44  70 100 136 173 224 272 329 392
#     4   8  14  26  42  73 104 152 194 253 318 366
#     4  12  23  43  71 100 136 178 216 279 331 383
#
# _framework density 27.090015000000001
#
# number of rings (size 3 to 8) (size 9 to 14) (size 15 to 20)
#    0.000    1.733    4.667    0.000    0.933    1.067 
#    0.000    1.333    0.000    6.400    0.000    0.000 
#    0.000  176.000    0.000    0.000    0.000    0.000 
#
# Total GULP energy -167442.087571 kJ/mol
# GULP energy per Si atom -5581.402919 kJ/mol
# Density = 2.702836 g / cm^3
# Si number density = 27.090015 Si / 1000 Ang^3
#
#
#
# Elastic Constant Matrix: (Units=GPa)
#
#
# Indices 1 2 3 4 5 6 
#
# 1 139.2582 3.5514 24.2457 0.0000 -14.5182 0.0000
# 2 3.5514 87.8539 -1.2754 0.0000 8.4862 0.0000
# 3 24.2457 -1.2754 128.9628 0.0000 2.7151 0.0000
# 4 0.0000 0.0000 0.0000 409.8726 0.0000 463.7008
# 5 -14.5182 8.4862 2.7151 0.0000 37.3388 0.0000
# 6 0.0000 0.0000 0.0000 463.7008 0.0000 593.2830
#
#
#
# Elastic Compliance Matrix: (Units=1/GPa)
#
#
# Indices 1 2 3 4 5 6 
#
# 1 0.007810 -0.000657 -0.001544 0.000000 0.003298 0.000000
# 2 -0.000657 0.011697 0.000301 0.000000 -0.002936 0.000000
# 3 -0.001544 0.000301 0.008074 0.000000 -0.001256 0.000000
# 4 0.000000 0.000000 0.000000 0.021074 0.000000 -0.016471
# 5 0.003298 -0.002936 -0.001256 0.000000 0.028823 0.000000
# 6 0.000000 0.000000 0.000000 -0.016471 0.000000 0.014559
#
#
# Mechanical properties :
#
#
# Convention : Reuss Voigt Hill
#
# Bulk Modulus (GPa) = 42.05021 45.45760 43.75390
# Shear Modulus (GPa) = 48.18576 230.06908 139.12742
#
# Velocity S-wave (km/s) = 4.22207 9.22562 7.17419
# Velocity P-wave (km/s) = 6.27088 11.41487 9.20932
#
# Compressibility (1/GPa) = 0.02378109
#
# Stress axis : x y z
#
# Youngs Moduli (GPa) = 128.03432 85.49189 123.85536
#
# Poissons Ratio (x) = 0.05615 0.19127
# Poissons Ratio (y) = 0.08409 -0.03728
# Poissons Ratio (z) = 0.19773 -0.02573
#
# Static dielectric constant tensor:
#      x y z
#    x 2.111780 0.000000 -0.055510 
#    y 0.000000 2.054660 0.000000 
#    z -0.055510 0.000000 2.277390 
# 
# From -- ./inp_files/332898.got.cif
#   From: 2010.05.17/outbox.cif.g08.bks.cpg/sg12_167_cif.got.tgz:332898.got - 2010.06.03 13:09:07.
