data_PCOD9175212
_publ_section_title
;
Structure prediction by ZEFSAII (Michael W. Deem and Ramdas Pophale) SiO2 
 PCOD9175212
Probable space group: C 2/M
;
_chemical_formula_sum "Si O2"
_cell_formula_units_Z 56
_cell_length_a 18.793359
_cell_length_b 18.465098
_cell_length_c 11.294539
_cell_angle_alpha 90.000000
_cell_angle_beta 53.151093
_cell_angle_gamma 90.000000
_cell_volume 3136.417060
_symmetry_space_group_name_H-M "C 2/M"
_symmetry_group_IT_number 12
_symmetry_cell_setting 'monoclinic'
loop_
_space_group_symop_operation_xyz
x,y,z
-x,y,-z
-x,-y,-z
x,-y,z
1/2+x,1/2+y,z
1/2-x,1/2+y,-z
1/2-x,1/2-y,-z
1/2+x,1/2-y,z
loop_
_atom_site_type_symbol
_atom_site_label
_atom_site_fract_x
_atom_site_fract_y
_atom_site_fract_z
Si Si1 0.512339 0.813294 0.116912
Si Si2 0.060171 0.081952 0.552126
Si Si3 0.786799 0.726378 0.090457
Si Si4 0.398719 0.914885 0.362334
Si Si5 0.882568 0.199449 0.347834
Si Si6 0.790803 0.313017 0.615166
Si Si7 0.233498 0.416908 0.731924
O O1 0.489433 0.873776 0.236922
O O2 0.436004 0.753758 0.211620
O O3 0.500000 0.847519 0.000000
O O4 0.606519 0.774175 0.028318
O O5 0.052598 0.140117 0.662637
O O6 0.164297 0.082959 0.413397
O O7 0.000000 0.101774 0.500000
O O8 0.036351 0.000000 0.610646
O O9 0.739846 0.781744 0.229044
O O10 0.772303 0.645672 0.162643
O O11 0.750000 0.750000 0.000000
O O12 0.356830 0.879089 0.521788
O O13 0.330788 0.901225 0.317556
O O14 0.409342 0.000000 0.362929
O O15 0.837968 0.246872 0.497190
O O16 0.800822 0.166452 0.358581
O O17 0.212950 0.500000 0.791923
#
# Coordination Sequence:
#
# PCOD9175212 Si02
#       7
#     8   8   8   8   8   8   8
#     4  11  21  35  55  87 119 147 190 242 294 345
#     4  10  20  32  52  82 112 144 185 236 291 341
#     4  12  24  38  55  84 120 162 195 233 294 358
#     4  10  20  36  64  92 113 146 194 251 301 345
#     4  10  18  32  57  78 111 146 186 242 287 333
#     4  10  18  35  56  82 111 146 195 236 279 349
#     4  10  19  35  57  84 112 141 188 244 294 342
#
# _framework density 17.854769000000001
#
# number of rings (size 3 to 8) (size 9 to 14) (size 15 to 20)
#    0.000    1.571    5.714    0.857    2.000    0.857 
#    0.000    2.857    0.000    2.143    0.000    0.000 
#    0.000    0.000    0.000    0.000    0.000    0.000 
#
# Total GULP energy -155972.343157 kJ/mol
# GULP energy per Si atom -5570.440827 kJ/mol
# Density = 1.781413 g / cm^3
# Si number density = 17.854769 Si / 1000 Ang^3
#
#
#
# Elastic Constant Matrix: (Units=GPa)
#
#
# Indices 1 2 3 4 5 6 
#
# 1 39.9308 8.7777 23.5815 0.0000 5.2488 0.0000
# 2 8.7777 86.9900 38.3380 0.0000 15.0701 0.0000
# 3 23.5815 38.3380 106.8539 0.0000 -4.3936 0.0000
# 4 0.0000 0.0000 0.0000 20.0675 0.0000 2.4011
# 5 5.2488 15.0701 -4.3936 0.0000 23.2165 0.0000
# 6 0.0000 0.0000 0.0000 2.4011 0.0000 18.4603
#
#
#
# Elastic Compliance Matrix: (Units=1/GPa)
#
#
# Indices 1 2 3 4 5 6 
#
# 1 0.030522 0.002083 -0.007884 0.000000 -0.009744 0.000000
# 2 0.002083 0.016481 -0.006886 0.000000 -0.012472 0.000000
# 3 -0.007884 -0.006886 0.013934 0.000000 0.008889 0.000000
# 4 0.000000 0.000000 0.000000 0.050620 0.000000 -0.006584
# 5 -0.009744 -0.012472 0.008889 0.000000 0.055054 0.000000
# 6 0.000000 0.000000 0.000000 -0.006584 0.000000 0.055027
#
#
# Mechanical properties :
#
#
# Convention : Reuss Voigt Hill
#
# Bulk Modulus (GPa) = 28.11823 41.68546 34.90184
# Shear Modulus (GPa) = 19.31508 23.22069 21.26788
#
# Velocity S-wave (km/s) = 3.29262 3.61020 3.45506
# Velocity P-wave (km/s) = 5.49888 6.38559 5.95875
#
# Compressibility (1/GPa) = 0.03556412
#
# Stress axis : x y z
#
# Youngs Moduli (GPa) = 32.76294 60.67753 71.76479
#
# Poissons Ratio (x) = -0.12638 0.56579
# Poissons Ratio (y) = -0.06824 0.49414
# Poissons Ratio (z) = 0.25830 0.41780
#
# Static dielectric constant tensor:
#      x y z
#    x 1.620520 0.000000 -0.014260 
#    y 0.000000 1.631500 0.000000 
#    z -0.014260 0.000000 1.621640 
# 
# From -- ./inp_files/158209.got.cif
#   From: 2010.05.17/outbox.cif.g08.bks.cpg/sg12_80_cif.got.tgz:158209.got - 2010.06.03 13:09:07.
