data_PCOD9175613
_publ_section_title
;
Structure prediction by ZEFSAII (Michael W. Deem and Ramdas Pophale) SiO2 
 PCOD9175613
Probable space group: C 2/M
;
_chemical_formula_sum "Si O2"
_cell_formula_units_Z 64
_cell_length_a 30.037526
_cell_length_b 7.610610
_cell_length_c 12.208234
_cell_angle_alpha 90.000000
_cell_angle_beta 87.493130
_cell_angle_gamma 90.000000
_cell_volume 2788.178965
_symmetry_space_group_name_H-M "C 2/M"
_symmetry_group_IT_number 12
_symmetry_cell_setting 'monoclinic'
loop_
_space_group_symop_operation_xyz
x,y,z
-x,y,-z
-x,-y,-z
x,-y,z
1/2+x,1/2+y,z
1/2-x,1/2+y,-z
1/2-x,1/2-y,-z
1/2+x,1/2-y,z
loop_
_atom_site_type_symbol
_atom_site_label
_atom_site_fract_x
_atom_site_fract_y
_atom_site_fract_z
Si Si1 0.761451 0.785595 0.294601
Si Si2 0.339162 0.796834 0.687530
Si Si3 0.005716 0.298418 0.621679
Si Si4 0.204632 0.790087 0.941263
Si Si5 0.591121 0.703030 0.744670
Si Si6 0.162543 0.213918 0.561089
Si Si7 0.428677 0.300161 0.785854
Si Si8 0.606031 0.715878 0.987663
O O1 0.710710 0.724413 0.291183
O O2 0.788530 0.729153 0.184172
O O3 0.788951 0.732997 0.398698
O O4 0.760039 0.000000 0.295412
O O5 0.347567 0.786258 0.556915
O O6 0.378323 0.700697 0.746321
O O7 0.339930 0.000000 0.722788
O O8 0.020167 0.500000 0.605733
O O9 0.960103 0.292769 0.694863
O O10 0.000000 0.222163 0.500000
O O11 0.043677 0.211055 0.690994
O O12 0.157772 0.727135 0.995378
O O13 0.200849 0.000000 0.937743
O O14 0.250000 0.750000 0.000000
O O15 0.604867 0.500000 0.757452
O O16 0.626982 0.776050 0.655174
O O17 0.591257 0.774457 0.868064
O O18 0.160806 0.000000 0.554010
O O19 0.445395 0.500000 0.790292
O O20 0.424619 0.223984 0.908547
O O21 0.604580 0.500000 0.993457
#
# Coordination Sequence:
#
# PCOD9175613 Si02
#       8
#     8   8   8   8   8   8   8   8
#     4   9  18  33  54  80 113 155 197 237 286 343
#     4  11  22  35  53  82 121 158 192 240 298 343
#     4  11  25  44  64  88 120 152 185 234 297 354
#     4  10  18  33  55  80 114 155 199 241 285 335
#     4  10  20  38  65  90 114 150 197 244 289 343
#     4  10  19  35  59  84 112 153 201 241 283 343
#     4  11  23  40  62  87 115 150 195 239 284 345
#     4   9  19  37  61  87 116 151 193 243 289 335
#
# _framework density 22.954052000000001
#
# number of rings (size 3 to 8) (size 9 to 14) (size 15 to 20)
#    0.000    1.875    1.250    3.000    0.000    4.000 
#    0.000    6.875    0.000    0.000    0.000    0.000 
#    0.000    0.000    0.000    0.000    0.000    0.000 
#
# Total GULP energy -178861.880858 kJ/mol
# GULP energy per Si atom -5589.433777 kJ/mol
# Density = 2.290181 g / cm^3
# Si number density = 22.954052 Si / 1000 Ang^3
#
#
#
# Elastic Constant Matrix: (Units=GPa)
#
#
# Indices 1 2 3 4 5 6 
#
# 1 93.9904 -5.5818 34.3397 0.0000 -10.0345 0.0000
# 2 -5.5818 50.6706 -6.4855 0.0000 -4.0305 0.0000
# 3 34.3397 -6.4855 113.8145 0.0000 -23.2982 0.0000
# 4 0.0000 0.0000 0.0000 -4.8463 0.0000 -2.8467
# 5 -10.0345 -4.0305 -23.2982 0.0000 34.8257 0.0000
# 6 0.0000 0.0000 0.0000 -2.8467 0.0000 16.0736
#
#
#
# Elastic Compliance Matrix: (Units=1/GPa)
#
#
# Indices 1 2 3 4 5 6 
#
# 1 0.012051 0.001016 -0.003294 0.000000 0.001386 0.000000
# 2 0.001016 0.020351 0.001617 0.000000 0.003730 0.000000
# 3 -0.003294 0.001617 0.011258 0.000000 0.006769 0.000000
# 4 0.000000 0.000000 0.000000 -0.186900 0.000000 -0.033101
# 5 0.001386 0.003730 0.006769 0.000000 0.034074 0.000000
# 6 0.000000 0.000000 0.000000 -0.033101 0.000000 0.056351
#
#
# Mechanical properties :
#
#
# Convention : Reuss Voigt Hill
#
# Bulk Modulus (GPa) = 23.62023 33.66892 28.64458
# Shear Modulus (GPa) = -133.76616 24.95747 -54.40434
#
# Velocity S-wave (km/s) = -7.64213 3.30097 -4.87369
# Velocity P-wave (km/s) = 8.21930 5.40632 4.37771
#
# Compressibility (1/GPa) = 0.04233660
#
# Stress axis : x y z
#
# Youngs Moduli (GPa) = 82.97826 49.13807 88.82535
#
# Poissons Ratio (x) = -0.04993 0.29263
# Poissons Ratio (y) = -0.08432 -0.14359
# Poissons Ratio (z) = 0.27337 -0.07943
#
# Static dielectric constant tensor:
#      x y z
#    x 1.833940 0.000000 -0.010780 
#    y 0.000000 1.440020 0.000000 
#    z -0.010780 0.000000 1.855320 
# 
# From -- ./inp_files/187619.got.cif
#   From: 2010.05.17/outbox.cif.g08.bks.cpg/sg12_94_cif.got.tgz:187619.got - 2010.06.03 13:09:07.
