data_PCOD9175992
_publ_section_title
;
Structure prediction by ZEFSAII (Michael W. Deem and Ramdas Pophale) SiO2 
 PCOD9175992
Probable space group: C 2/M
;
_chemical_formula_sum "Si O2"
_cell_formula_units_Z 64
_cell_length_a 18.647609
_cell_length_b 30.883343
_cell_length_c 7.978111
_cell_angle_alpha 90.000000
_cell_angle_beta 139.228945
_cell_angle_gamma 90.000000
_cell_volume 3000.447637
_symmetry_space_group_name_H-M "C 2/M"
_symmetry_group_IT_number 12
_symmetry_cell_setting 'monoclinic'
loop_
_space_group_symop_operation_xyz
x,y,z
-x,y,-z
-x,-y,-z
x,-y,z
1/2+x,1/2+y,z
1/2-x,1/2+y,-z
1/2-x,1/2-y,-z
1/2+x,1/2-y,z
loop_
_atom_site_type_symbol
_atom_site_label
_atom_site_fract_x
_atom_site_fract_y
_atom_site_fract_z
Si Si1 0.752267 0.326383 0.206543
Si Si2 0.833804 0.809290 0.587410
Si Si3 0.573586 0.077812 0.969073
Si Si4 0.877803 0.863784 0.343343
Si Si5 0.403060 0.821447 0.962844
Si Si6 0.051248 0.739901 0.424910
Si Si7 0.261498 0.548521 0.117849
Si Si8 0.598613 0.903396 0.578222
O O1 0.671084 0.318386 0.221584
O O2 0.836806 0.286626 0.339598
O O3 0.828775 0.368035 0.389168
O O4 0.698456 0.338912 0.931361
O O5 0.862541 0.847536 0.506783
O O6 0.914337 0.771731 0.664882
O O7 0.706403 0.800996 0.309585
O O8 0.613487 0.128059 0.018824
O O9 0.480728 0.066451 0.668836
O O10 0.500000 0.074982 0.000000
O O11 0.682193 0.050144 0.140224
O O12 0.851943 0.914747 0.292817
O O13 0.000000 0.857047 0.500000
O O14 0.454266 0.792251 0.197570
O O15 0.500000 0.822574 0.000000
O O16 0.000000 0.761797 0.500000
O O17 0.297930 0.500000 0.147913
O O18 0.179949 0.568067 0.832019
O O19 0.500000 0.877908 0.500000
#
# Coordination Sequence:
#
# PCOD9175992 Si02
#       8
#     8   8   8   8   8   8   8   8
#     4  11  22  42  69  90 124 177 217 263 335 376
#     4  12  25  44  64  97 128 171 224 272 313 384
#     4  10  18  33  62  94 129 169 205 250 324 393
#     4  11  26  46  67  92 127 167 218 276 325 386
#     4  11  21  38  63  91 128 171 220 261 314 387
#     4  12  25  39  63  94 136 173 220 272 320 373
#     4  10  22  39  63  93 126 165 211 261 321 393
#     4   9  18  33  60  93 126 160 205 254 316 392
#
# _framework density 21.330148999999999
#
# number of rings (size 3 to 8) (size 9 to 14) (size 15 to 20)
#    0.000    1.250    3.750    2.625    1.750    6.250 
#    0.000    0.000    0.000    0.000    0.000    2.625 
#    0.000    0.000    0.000    0.000    0.000    0.000 
#
# Total GULP energy -178529.981701 kJ/mol
# GULP energy per Si atom -5579.061928 kJ/mol
# Density = 2.128160 g / cm^3
# Si number density = 21.330149 Si / 1000 Ang^3
#
#
#
# Elastic Constant Matrix: (Units=GPa)
#
#
# Indices 1 2 3 4 5 6 
#
# 1 120.7124 35.1673 0.9886 0.0000 -2.8720 0.0000
# 2 35.1673 114.6910 12.6576 0.0000 1.1646 0.0000
# 3 0.9886 12.6576 35.1985 0.0000 8.0103 0.0000
# 4 0.0000 0.0000 0.0000 3.4369 0.0000 4.7906
# 5 -2.8720 1.1646 8.0103 0.0000 26.7220 0.0000
# 6 0.0000 0.0000 0.0000 4.7906 0.0000 19.8799
#
#
#
# Elastic Compliance Matrix: (Units=1/GPa)
#
#
# Indices 1 2 3 4 5 6 
#
# 1 0.009139 -0.002874 0.000563 0.000000 0.000939 0.000000
# 2 -0.002874 0.009993 -0.003588 0.000000 0.000331 0.000000
# 3 0.000563 -0.003588 0.031805 0.000000 -0.009317 0.000000
# 4 0.000000 0.000000 0.000000 0.438123 0.000000 -0.105579
# 5 0.000939 0.000331 -0.009317 0.000000 0.040302 0.000000
# 6 0.000000 0.000000 0.000000 -0.105579 0.000000 0.075744
#
#
# Mechanical properties :
#
#
# Convention : Reuss Voigt Hill
#
# Bulk Modulus (GPa) = 25.54976 40.91432 33.23204
# Shear Modulus (GPa) = 7.93712 24.79366 16.36539
#
# Velocity S-wave (km/s) = 1.93110 3.41306 2.77292
# Velocity P-wave (km/s) = 4.12025 5.89534 5.08584
#
# Compressibility (1/GPa) = 0.03913931
#
# Stress axis : x y z
#
# Youngs Moduli (GPa) = 109.41927 100.07049 31.44146
#
# Poissons Ratio (x) = 0.28760 -0.01771
# Poissons Ratio (y) = 0.31447 0.11282
# Poissons Ratio (z) = -0.06162 0.35907
#
# Static dielectric constant tensor:
#      x y z
#    x 1.890720 0.000000 -0.073750 
#    y 0.000000 1.796280 0.000000 
#    z -0.073750 0.000000 1.808180 
# 
# From -- ./inp_files/80744.got.cif
#   From: 2010.05.17/outbox.cif.g08.bks.cpg/sg12_41_cif.got.tgz:80744.got - 2010.06.03 13:09:07.
