data_PCOD9175193
_publ_section_title
;
Structure prediction by ZEFSAII (Michael W. Deem and Ramdas Pophale) SiO2 
 PCOD9175193
Probable space group: C 2/M
;
_chemical_formula_sum "Si O2"
_cell_formula_units_Z 56
_cell_length_a 21.174429
_cell_length_b 15.176309
_cell_length_c 17.927493
_cell_angle_alpha 90.000000
_cell_angle_beta 147.951179
_cell_angle_gamma 90.000000
_cell_volume 3057.023599
_symmetry_space_group_name_H-M "C 2/M"
_symmetry_group_IT_number 12
_symmetry_cell_setting 'monoclinic'
loop_
_space_group_symop_operation_xyz
x,y,z
-x,y,-z
-x,-y,-z
x,-y,z
1/2+x,1/2+y,z
1/2-x,1/2+y,-z
1/2-x,1/2-y,-z
1/2+x,1/2-y,z
loop_
_atom_site_type_symbol
_atom_site_label
_atom_site_fract_x
_atom_site_fract_y
_atom_site_fract_z
Si Si1 0.004596 0.101778 0.623434
Si Si2 0.233507 0.825462 0.048143
Si Si3 0.063393 0.400475 0.829712
Si Si4 0.477536 0.401004 0.770044
Si Si5 0.729574 0.163613 0.130160
Si Si6 0.252405 0.605004 0.316377
Si Si7 0.854529 0.272666 0.662309
O O1 0.955610 0.107254 0.659019
O O2 0.129725 0.150253 0.743969
O O3 0.893935 0.126930 0.460818
O O4 0.033860 0.000000 0.636739
O O5 0.351743 0.882233 0.156178
O O6 0.211518 0.767719 0.099529
O O7 0.250000 0.750000 0.000000
O O8 0.118252 0.884033 0.918638
O O9 0.017429 0.500000 0.783923
O O10 0.960598 0.327838 0.729852
O O11 0.148147 0.386100 0.987425
O O12 0.445906 0.500000 0.761593
O O13 0.408952 0.321443 0.740788
O O14 0.703853 0.127572 0.186191
O O15 0.240865 0.500000 0.320305
O O16 0.190256 0.665558 0.315762
O O17 0.750000 0.250000 0.500000
#
# Coordination Sequence:
#
# PCOD9175193 Si02
#       7
#     8   8   8   8   8   8   8
#     4  10  18  32  56  87 117 148 185 228 283 347
#     4  10  18  34  59  87 113 145 188 240 289 330
#     4  11  21  36  61  90 117 149 190 240 292 337
#     4  11  20  37  62  84 110 149 197 245 285 332
#     4  11  20  35  58  87 124 150 183 235 293 346
#     4  11  24  37  55  87 124 159 186 226 292 356
#     4  12  24  39  56  81 118 156 197 236 278 347
#
# _framework density 18.318470999999999
#
# number of rings (size 3 to 8) (size 9 to 14) (size 15 to 20)
#    0.000    1.143    7.143    2.571    0.000    2.286 
#    0.000    1.429    0.000    2.571    0.000    1.000 
#    0.000    0.000    0.000    0.000    0.000    0.000 
#
# Total GULP energy -156210.981861 kJ/mol
# GULP energy per Si atom -5578.963638 kJ/mol
# Density = 1.827678 g / cm^3
# Si number density = 18.318471 Si / 1000 Ang^3
#
#
#
# Elastic Constant Matrix: (Units=GPa)
#
#
# Indices 1 2 3 4 5 6 
#
# 1 48.5617 34.1915 15.3284 0.0000 3.3462 0.0000
# 2 34.1915 126.2700 35.2408 0.0000 6.8846 0.0000
# 3 15.3284 35.2408 62.5741 0.0000 9.6764 0.0000
# 4 0.0000 0.0000 0.0000 24.6779 0.0000 0.2447
# 5 3.3462 6.8846 9.6764 0.0000 20.9157 0.0000
# 6 0.0000 0.0000 0.0000 0.2447 0.0000 20.5726
#
#
#
# Elastic Compliance Matrix: (Units=1/GPa)
#
#
# Indices 1 2 3 4 5 6 
#
# 1 0.025875 -0.006203 -0.002715 0.000000 -0.000842 0.000000
# 2 -0.006203 0.010893 -0.004539 0.000000 -0.000493 0.000000
# 3 -0.002715 -0.004539 0.020361 0.000000 -0.007491 0.000000
# 4 0.000000 0.000000 0.000000 0.040527 0.000000 -0.000482
# 5 -0.000842 -0.000493 -0.007491 0.000000 0.051574 0.000000
# 6 0.000000 0.000000 0.000000 -0.000482 0.000000 0.048614
#
#
# Mechanical properties :
#
#
# Convention : Reuss Voigt Hill
#
# Bulk Modulus (GPa) = 33.09605 45.21414 39.15510
# Shear Modulus (GPa) = 21.29222 23.40959 22.35090
#
# Velocity S-wave (km/s) = 3.41300 3.57868 3.49682
# Velocity P-wave (km/s) = 5.79980 6.46621 6.14205
#
# Compressibility (1/GPa) = 0.03021509
#
# Stress axis : x y z
#
# Youngs Moduli (GPa) = 38.64797 91.80384 49.11401
#
# Poissons Ratio (x) = 0.56944 0.13334
# Poissons Ratio (y) = 0.23972 0.22293
# Poissons Ratio (z) = 0.10492 0.41669
#
# Static dielectric constant tensor:
#      x y z
#    x 1.665530 0.000000 0.003750 
#    y 0.000000 1.653920 0.000000 
#    z 0.003750 0.000000 1.655210 
# 
# From -- ./inp_files/284576.got.cif
#   From: 2010.05.17/outbox.cif.g08.bks.cpg/sg12_143_cif.got.tgz:284576.got - 2010.06.03 13:09:07.
