data_PCOD9175965
_publ_section_title
;
Structure prediction by ZEFSAII (Michael W. Deem and Ramdas Pophale) SiO2 
 PCOD9175965
Probable space group: C 2/M
;
_chemical_formula_sum "Si O2"
_cell_formula_units_Z 64
_cell_length_a 17.686214
_cell_length_b 12.018437
_cell_length_c 22.061919
_cell_angle_alpha 90.000000
_cell_angle_beta 47.779815
_cell_angle_gamma 90.000000
_cell_volume 3472.890099
_symmetry_space_group_name_H-M "C 2/M"
_symmetry_group_IT_number 12
_symmetry_cell_setting 'monoclinic'
loop_
_space_group_symop_operation_xyz
x,y,z
-x,y,-z
-x,-y,-z
x,-y,z
1/2+x,1/2+y,z
1/2-x,1/2+y,-z
1/2-x,1/2-y,-z
1/2+x,1/2-y,z
loop_
_atom_site_type_symbol
_atom_site_label
_atom_site_fract_x
_atom_site_fract_y
_atom_site_fract_z
Si Si1 0.163111 0.628878 0.711117
Si Si2 0.226163 0.131193 0.478968
Si Si3 0.902168 0.324586 0.019803
Si Si4 0.509871 0.376819 0.422710
Si Si5 0.637479 0.623583 0.864403
Si Si6 0.186969 0.761023 0.273473
Si Si7 0.984580 0.226327 0.854639
Si Si8 0.170665 0.123221 0.155067
O O1 0.135370 0.500000 0.732181
O O2 0.224307 0.642246 0.615050
O O3 0.234559 0.664143 0.729260
O O4 0.063024 0.705092 0.770487
O O5 0.250000 0.250000 0.500000
O O6 0.103557 0.129700 0.541990
O O7 0.254427 0.000000 0.483802
O O8 0.883553 0.213268 0.071227
O O9 0.791872 0.379799 0.077777
O O10 0.935915 0.301549 0.933373
O O11 0.000000 0.378687 0.000000
O O12 0.500000 0.376546 0.500000
O O13 0.554166 0.500000 0.381953
O O14 0.581178 0.274341 0.365542
O O15 0.633116 0.500000 0.891383
O O16 0.747533 0.650755 0.775007
O O17 0.553727 0.641190 0.856734
O O18 0.161014 0.808956 0.221855
O O19 0.894603 0.175152 0.863695
O O20 0.131046 0.000000 0.186707
#
# Coordination Sequence:
#
# PCOD9175965 Si02
#       8
#     8   8   8   8   8   8   8   8
#     4  10  20  38  60  81 112 152 189 229 283 346
#     4  10  22  39  61  88 118 155 195 241 295 351
#     4   9  20  37  56  79 107 144 190 229 270 336
#     4  10  18  33  61  86 109 147 194 236 279 339
#     4   9  19  37  58  77 107 155 195 228 276 340
#     4  10  20  35  55  83 112 139 189 238 275 335
#     4  10  21  35  54  84 113 141 183 234 277 337
#     4  11  22  34  53  81 113 141 174 230 287 329
#
# _framework density 18.428456000000001
#
# number of rings (size 3 to 8) (size 9 to 14) (size 15 to 20)
#    0.000    2.125    1.250    2.625    1.750    3.500 
#    0.000    5.625    0.000    0.750    0.000    0.000 
#    0.000    0.000    0.000    0.000    0.000    0.000 
#
# Total GULP energy -178136.203764 kJ/mol
# GULP energy per Si atom -5566.756368 kJ/mol
# Density = 1.838651 g / cm^3
# Si number density = 18.428456 Si / 1000 Ang^3
#
#
#
# Elastic Constant Matrix: (Units=GPa)
#
#
# Indices 1 2 3 4 5 6 
#
# 1 101.7968 29.2566 12.8380 0.0000 2.9822 0.0000
# 2 29.2566 80.7052 6.4772 0.0000 -0.4194 0.0000
# 3 12.8380 6.4772 61.3550 0.0000 -9.8514 0.0000
# 4 0.0000 0.0000 0.0000 -24.8053 0.0000 31.8458
# 5 2.9822 -0.4194 -9.8514 0.0000 29.8470 0.0000
# 6 0.0000 0.0000 0.0000 31.8458 0.0000 -43.9445
#
#
#
# Elastic Compliance Matrix: (Units=1/GPa)
#
#
# Indices 1 2 3 4 5 6 
#
# 1 0.011292 -0.003922 -0.002258 0.000000 -0.001929 0.000000
# 2 -0.003922 0.013861 -0.000579 0.000000 0.000396 0.000000
# 3 -0.002258 -0.000579 0.017811 0.000000 0.006096 0.000000
# 4 0.000000 0.000000 0.000000 -0.578941 0.000000 -0.419548
# 5 -0.001929 0.000396 0.006096 0.000000 0.035715 0.000000
# 6 0.000000 0.000000 0.000000 -0.419548 0.000000 -0.326795
#
#
# Mechanical properties :
#
#
# Convention : Reuss Voigt Hill
#
# Bulk Modulus (GPa) = 33.96184 37.88897 35.92540
# Shear Modulus (GPa) = -6.22105 5.23844 -0.49131
#
# Velocity S-wave (km/s) = -1.83932 1.68782 -0.51690
# Velocity P-wave (km/s) = 3.73607 4.93994 4.37957
#
# Compressibility (1/GPa) = 0.02944481
#
# Stress axis : x y z
#
# Youngs Moduli (GPa) = 88.55765 72.14395 56.14472
#
# Poissons Ratio (x) = 0.28297 0.12680
# Poissons Ratio (y) = 0.34735 0.03251
# Poissons Ratio (z) = 0.20000 0.04178
#
# Static dielectric constant tensor:
#      x y z
#    x 1.639980 0.000000 -0.024600 
#    y 0.000000 1.659750 0.000000 
#    z -0.024600 0.000000 1.647230 
# 
# From -- ./inp_files/315688.got.cif
#   From: 2010.05.17/outbox.cif.g08.bks.cpg/sg12_158_cif.got.tgz:315688.got - 2010.06.03 13:09:07.
