data_PCOD9175346
_publ_section_title
;
Structure prediction by ZEFSAII (Michael W. Deem and Ramdas Pophale) SiO2 
 PCOD9175346
Probable space group: C 2/M
;
_chemical_formula_sum "Si O2"
_cell_formula_units_Z 56
_cell_length_a 13.078006
_cell_length_b 13.870118
_cell_length_c 24.673923
_cell_angle_alpha 90.000000
_cell_angle_beta 33.494606
_cell_angle_gamma 90.000000
_cell_volume 2469.946875
_symmetry_space_group_name_H-M "C 2/M"
_symmetry_group_IT_number 12
_symmetry_cell_setting 'monoclinic'
loop_
_space_group_symop_operation_xyz
x,y,z
-x,y,-z
-x,-y,-z
x,-y,z
1/2+x,1/2+y,z
1/2-x,1/2+y,-z
1/2-x,1/2-y,-z
1/2+x,1/2-y,z
loop_
_atom_site_type_symbol
_atom_site_label
_atom_site_fract_x
_atom_site_fract_y
_atom_site_fract_z
Si Si1 0.043148 0.114566 0.044780
Si Si2 0.340625 0.392535 0.736778
Si Si3 0.484766 0.883520 0.443519
Si Si4 0.672798 0.183574 0.257428
Si Si5 0.955101 0.612351 0.860328
Si Si6 0.856279 0.113480 0.480493
Si Si7 0.140854 0.609927 0.673026
O O1 0.884680 0.165850 0.149212
O O2 0.029573 0.000000 0.062340
O O3 0.252313 0.149951 0.963294
O O4 0.000000 0.128078 0.000000
O O5 0.399004 0.500000 0.730910
O O6 0.388899 0.288205 0.738763
O O7 0.438789 0.382059 0.634195
O O8 0.118008 0.391232 0.832122
O O9 0.500000 0.860281 0.500000
O O10 0.630724 0.831660 0.339432
O O11 0.286722 0.856062 0.503690
O O12 0.506563 0.000000 0.429654
O O13 0.538516 0.108446 0.287070
O O14 0.916651 0.500000 0.861993
O O15 0.057298 0.658269 0.763472
O O16 0.798096 0.154573 0.564538
O O17 0.820549 0.000000 0.503350
O O18 0.196643 0.500000 0.663016
#
# Coordination Sequence:
#
# PCOD9175346 Si02
#       7
#     8   8   8   8   8   8   8
#     4  10  18  32  59  90 111 129 166 229 296 333
#     4  10  22  38  50  72 111 158 191 215 259 317
#     4   9  18  34  54  81 115 145 179 226 275 325
#     4  11  20  33  55  84 108 145 179 229 272 326
#     4   9  18  33  53  80 113 139 170 223 277 329
#     4   8  16  32  53  73 105 148 182 216 265 319
#     4   9  16  30  55  86 109 131 170 228 287 326
#
# _framework density 22.672553000000001
#
# number of rings (size 3 to 8) (size 9 to 14) (size 15 to 20)
#    0.000    2.571    1.429    2.143    0.000    3.429 
#    5.143    2.857    0.000    0.429    0.000    0.000 
#    0.000    0.000    0.000    0.000    0.000    0.000 
#
# Total GULP energy -156000.385435 kJ/mol
# GULP energy per Si atom -5571.442337 kJ/mol
# Density = 2.262095 g / cm^3
# Si number density = 22.672553 Si / 1000 Ang^3
#
#
#
# Elastic Constant Matrix: (Units=GPa)
#
#
# Indices 1 2 3 4 5 6 
#
# 1 35.7744 24.9386 34.2180 0.0000 -0.8631 0.0000
# 2 24.9386 119.0017 28.4863 0.0000 3.8876 0.0000
# 3 34.2180 28.4863 130.5118 0.0009 -30.7723 -0.0001
# 4 0.0000 0.0000 0.0009 -54.0223 -0.0003 -11.9260
# 5 -0.8631 3.8876 -30.7723 -0.0003 30.4340 0.0000
# 6 0.0000 0.0000 -0.0001 -11.9260 0.0000 12.8418
#
#
#
# Elastic Compliance Matrix: (Units=1/GPa)
#
#
# Indices 1 2 3 4 5 6 
#
# 1 0.044049 -0.005785 -0.012891 0.000000 -0.011046 0.000000
# 2 -0.005785 0.010025 -0.001329 0.000000 -0.002788 0.000000
# 3 -0.012891 -0.001329 0.014819 0.000000 0.014787 0.000000
# 4 0.000000 0.000000 0.000000 -0.015362 0.000000 -0.014266
# 5 -0.011046 -0.002788 0.014787 0.000000 0.047853 0.000000
# 6 0.000000 0.000000 0.000000 -0.014266 0.000000 0.064622
#
#
# Mechanical properties :
#
#
# Convention : Reuss Voigt Hill
#
# Bulk Modulus (GPa) = 34.62146 51.17488 42.89817
# Shear Modulus (GPa) = 23.18665 11.02704 17.10684
#
# Velocity S-wave (km/s) = 3.20140 2.20775 2.74983
# Velocity P-wave (km/s) = 5.38225 5.39622 5.38924
#
# Compressibility (1/GPa) = 0.02888382
#
# Stress axis : x y z
#
# Youngs Moduli (GPa) = 22.70207 99.75410 67.48311
#
# Poissons Ratio (x) = 0.57703 0.86991
# Poissons Ratio (y) = 0.13132 0.08967
# Poissons Ratio (z) = 0.29265 0.13256
#
# Static dielectric constant tensor:
#      x y z
#    x 1.874370 0.000000 -0.013250 
#    y 0.000000 1.917260 0.000000 
#    z -0.013250 0.000000 1.863480 
# 
# From -- ./inp_files/361389.got.cif
#   From: 2010.05.17/outbox.cif.g08.bks.cpg/sg12_181_cif.got.tgz:361389.got - 2010.06.03 13:09:07.
