data_PCOD9175441
_publ_section_title
;
Structure prediction by ZEFSAII (Michael W. Deem and Ramdas Pophale) SiO2 
 PCOD9175441
Probable space group: C 2/M
;
_chemical_formula_sum "Si O2"
_cell_formula_units_Z 64
_cell_length_a 15.014832
_cell_length_b 12.513346
_cell_length_c 28.843728
_cell_angle_alpha 90.000000
_cell_angle_beta 40.674891
_cell_angle_gamma 90.000000
_cell_volume 3532.133341
_symmetry_space_group_name_H-M "C 2/M"
_symmetry_group_IT_number 12
_symmetry_cell_setting 'monoclinic'
loop_
_space_group_symop_operation_xyz
x,y,z
-x,y,-z
-x,-y,-z
x,-y,z
1/2+x,1/2+y,z
1/2-x,1/2+y,-z
1/2-x,1/2-y,-z
1/2+x,1/2-y,z
loop_
_atom_site_type_symbol
_atom_site_label
_atom_site_fract_x
_atom_site_fract_y
_atom_site_fract_z
Si Si1 0.163697 0.617940 0.767104
Si Si2 0.295526 0.874092 0.054839
Si Si3 0.594805 0.126679 0.418652
Si Si4 0.942321 0.762051 0.808554
Si Si5 0.262339 0.873603 0.811711
Si Si6 0.575063 0.249161 0.332039
Si Si7 0.403266 0.375040 0.331607
Si Si8 0.437150 0.189732 0.096030
O O1 0.141855 0.500000 0.756509
O O2 0.320873 0.651798 0.703782
O O3 0.111502 0.623397 0.840520
O O4 0.076380 0.706356 0.775033
O O5 0.148950 0.818097 0.116324
O O6 0.361357 0.855225 0.080083
O O7 0.286308 0.000000 0.049472
O O8 0.402815 0.821209 0.977207
O O9 0.500000 0.152171 0.500000
O O10 0.554484 0.193488 0.389328
O O11 0.752372 0.145420 0.370974
O O12 0.580511 0.000000 0.414314
O O13 0.852282 0.671138 0.818922
O O14 0.987187 0.847395 0.751942
O O15 0.343419 0.832595 0.734130
O O16 0.120403 0.808657 0.872072
O O17 0.246678 0.000000 0.818092
O O18 0.443594 0.295889 0.357484
O O19 0.411766 0.500000 0.341061
#
# Coordination Sequence:
#
# PCOD9175441 Si02
#       8
#     8   8   8   8   8   8   8   8
#     4  11  20  33  52  76 107 141 180 229 285 330
#     4  10  18  33  52  71 100 137 184 236 282 331
#     4  10  21  38  61  89 121 153 184 227 283 337
#     4  10  20  32  50  78 105 142 182 232 282 335
#     4   9  18  33  51  74 105 141 185 228 276 336
#     4  10  20  35  59  85 111 149 192 233 273 330
#     4  10  20  37  60  86 115 149 193 234 276 332
#     4   9  19  32  50  73  99 137 185 229 282 333
#
# _framework density 18.119361000000001
#
# number of rings (size 3 to 8) (size 9 to 14) (size 15 to 20)
#    0.000    2.125    1.250    3.750    0.000    1.000 
#    0.000    6.250    0.000    1.500    0.000    0.000 
#    0.000    0.000    0.000    0.000    0.000    0.000 
#
# Total GULP energy -178550.878210 kJ/mol
# GULP energy per Si atom -5579.714944 kJ/mol
# Density = 1.807812 g / cm^3
# Si number density = 18.119361 Si / 1000 Ang^3
#
#
#
# Elastic Constant Matrix: (Units=GPa)
#
#
# Indices 1 2 3 4 5 6 
#
# 1 37.4989 21.4976 2.3706 0.0000 10.3809 0.0000
# 2 21.4976 110.1628 31.0367 0.0000 2.8638 0.0000
# 3 2.3706 31.0367 61.0626 0.0000 12.9677 0.0000
# 4 0.0000 0.0000 0.0000 10.3343 0.0000 -5.0523
# 5 10.3809 2.8638 12.9677 0.0000 23.7262 0.0000
# 6 0.0000 0.0000 0.0000 -5.0523 0.0000 20.4085
#
#
#
# Elastic Compliance Matrix: (Units=1/GPa)
#
#
# Indices 1 2 3 4 5 6 
#
# 1 0.036274 -0.008533 0.006879 0.000000 -0.018601 0.000000
# 2 -0.008533 0.012677 -0.007444 0.000000 0.006272 0.000000
# 3 0.006879 -0.007444 0.023013 0.000000 -0.014689 0.000000
# 4 0.000000 0.000000 0.000000 0.110089 0.000000 0.027253
# 5 -0.018601 0.006272 -0.014689 0.000000 0.057557 0.000000
# 6 0.000000 0.000000 0.000000 0.027253 0.000000 0.055746
#
#
# Mechanical properties :
#
#
# Convention : Reuss Voigt Hill
#
# Bulk Modulus (GPa) = 18.59869 35.39270 26.99569
# Shear Modulus (GPa) = 15.08413 21.14842 18.11627
#
# Velocity S-wave (km/s) = 2.88841 3.42010 3.16544
# Velocity P-wave (km/s) = 4.62717 5.93056 5.31894
#
# Compressibility (1/GPa) = 0.05376722
#
# Stress axis : x y z
#
# Youngs Moduli (GPa) = 27.56810 78.88372 43.45428
#
# Poissons Ratio (x) = 0.67313 -0.29893
# Poissons Ratio (y) = 0.23524 0.32348
# Poissons Ratio (z) = -0.18965 0.58722
#
# Static dielectric constant tensor:
#      x y z
#    x 1.642850 0.000000 -0.004400 
#    y 0.000000 1.599600 0.000000 
#    z -0.004400 0.000000 1.610280 
# 
# From -- ./inp_files/361027.got.cif
#   From: 2010.05.17/outbox.cif.g08.bks.cpg/sg12_181_cif.got.tgz:361027.got - 2010.06.03 13:09:07.
