data_PCOD9175226
_publ_section_title
;
Structure prediction by ZEFSAII (Michael W. Deem and Ramdas Pophale) SiO2 
 PCOD9175226
Probable space group: C 2/M
;
_chemical_formula_sum "Si O2"
_cell_formula_units_Z 64
_cell_length_a 29.542793
_cell_length_b 7.444653
_cell_length_c 13.752885
_cell_angle_alpha 90.000000
_cell_angle_beta 68.151641
_cell_angle_gamma 90.000000
_cell_volume 2807.490598
_symmetry_space_group_name_H-M "C 2/M"
_symmetry_group_IT_number 12
_symmetry_cell_setting 'monoclinic'
loop_
_space_group_symop_operation_xyz
x,y,z
-x,y,-z
-x,-y,-z
x,-y,z
1/2+x,1/2+y,z
1/2-x,1/2+y,-z
1/2-x,1/2-y,-z
1/2+x,1/2-y,z
loop_
_atom_site_type_symbol
_atom_site_label
_atom_site_fract_x
_atom_site_fract_y
_atom_site_fract_z
Si Si1 0.694784 0.214866 0.011353
Si Si2 0.045088 0.296996 0.407515
Si Si3 0.591267 0.216996 0.731507
Si Si4 0.736173 0.714644 0.399860
Si Si5 0.176102 0.280093 0.806934
Si Si6 0.127404 0.209992 0.486526
Si Si7 0.989970 0.281145 0.898119
Si Si8 0.094920 0.280193 0.172912
O O1 0.683371 0.280374 0.911406
O O2 0.690361 0.000000 0.011649
O O3 0.750000 0.250000 0.000000
O O4 0.650774 0.279816 0.115691
O O5 0.028487 0.500000 0.393790
O O6 0.088274 0.304173 0.450557
O O7 0.067303 0.216713 0.291718
O O8 0.000000 0.209091 0.500000
O O9 0.626792 0.274591 0.790954
O O10 0.612926 0.275139 0.611144
O O11 0.535886 0.274932 0.795300
O O12 0.591395 0.000000 0.730506
O O13 0.734335 0.500000 0.389108
O O14 0.750000 0.750000 0.500000
O O15 0.778088 0.780648 0.294659
O O16 0.681701 0.783069 0.426569
O O17 0.175672 0.500000 0.808021
O O18 0.126522 0.000000 0.461004
O O19 0.989710 0.500000 0.900113
O O20 0.938635 0.228380 0.892051
O O21 0.000000 0.221459 0.000000
O O22 0.095678 0.500000 0.176953
#
# Coordination Sequence:
#
# PCOD9175226 Si02
#       8
#     8   8   8   8   8   8   8   8
#     4  10  21  37  56  78 107 144 183 226 271 321
#     4  10  21  38  59  81 109 147 188 229 271 324
#     4  10  18  32  57  83 107 141 178 219 271 329
#     4  10  20  35  53  78 109 143 180 224 273 325
#     4   9  18  33  54  77 105 139 179 222 266 317
#     4  11  23  35  52  80 112 144 180 224 276 330
#     4   9  16  28  53  86 110 130 168 220 272 322
#     4   9  18  33  52  79 111 138 174 225 272 314
#
# _framework density 22.796157000000001
#
# number of rings (size 3 to 8) (size 9 to 14) (size 15 to 20)
#    0.000    2.250    1.250    1.875    1.750    5.750 
#    0.000    1.250    0.000    1.125    0.000    0.000 
#    0.000    0.000    0.000    0.000    0.000    0.000 
#
# Total GULP energy -178839.444145 kJ/mol
# GULP energy per Si atom -5588.732630 kJ/mol
# Density = 2.274427 g / cm^3
# Si number density = 22.796157 Si / 1000 Ang^3
#
#
#
# Elastic Constant Matrix: (Units=GPa)
#
#
# Indices 1 2 3 4 5 6 
#
# 1 157.0563 -0.3029 52.7086 0.0000 -16.5505 0.0000
# 2 -0.3029 72.4907 0.9236 0.0000 -4.6574 0.0000
# 3 52.7086 0.9236 125.8422 0.0000 -12.1108 0.0000
# 4 0.0000 0.0000 0.0000 1.1510 0.0000 -7.8927
# 5 -16.5505 -4.6574 -12.1108 0.0000 45.6978 0.0000
# 6 0.0000 0.0000 0.0000 -7.8927 0.0000 5.7959
#
#
#
# Elastic Compliance Matrix: (Units=1/GPa)
#
#
# Indices 1 2 3 4 5 6 
#
# 1 0.007577 0.000196 -0.002985 0.000000 0.001973 0.000000
# 2 0.000196 0.013891 -0.000042 0.000000 0.001476 0.000000
# 3 -0.002985 -0.000042 0.009331 0.000000 0.001387 0.000000
# 4 0.000000 0.000000 0.000000 -0.104196 0.000000 -0.141893
# 5 0.001973 0.001476 0.001387 0.000000 0.023116 0.000000
# 6 0.000000 0.000000 0.000000 -0.141893 0.000000 -0.020691
#
#
# Mechanical properties :
#
#
# Convention : Reuss Voigt Hill
#
# Bulk Modulus (GPa) = 39.78209 51.33865 45.56037
# Shear Modulus (GPa) = -87.82380 30.66625 -28.57877
#
# Velocity S-wave (km/s) = -6.21364 3.67173 -3.54456
# Velocity P-wave (km/s) = 5.83010 6.36750 1.81040
#
# Compressibility (1/GPa) = 0.02513694
#
# Stress axis : x y z
#
# Youngs Moduli (GPa) = 131.97266 71.98885 107.17355
#
# Poissons Ratio (x) = -0.01414 0.31994
# Poissons Ratio (y) = -0.02593 0.00453
# Poissons Ratio (z) = 0.39398 0.00304
#
# Static dielectric constant tensor:
#      x y z
#    x 1.815660 0.000000 -0.029260 
#    y 0.000000 1.938420 0.000000 
#    z -0.029260 0.000000 1.817930 
# 
# From -- ./inp_files/188332.got.cif
#   From: 2010.05.17/outbox.cif.g08.bks.cpg/sg12_95_cif.got.tgz:188332.got - 2010.06.03 13:09:07.
