data_PCOD9175927
_publ_section_title
;
Structure prediction by ZEFSAII (Michael W. Deem and Ramdas Pophale) SiO2 
 PCOD9175927
Probable space group: C 2/M
;
_chemical_formula_sum "Si O2"
_cell_formula_units_Z 48
_cell_length_a 20.728860
_cell_length_b 13.678862
_cell_length_c 8.267187
_cell_angle_alpha 90.000000
_cell_angle_beta 105.344094
_cell_angle_gamma 90.000000
_cell_volume 2260.578855
_symmetry_space_group_name_H-M "C 2/M"
_symmetry_group_IT_number 12
_symmetry_cell_setting 'monoclinic'
loop_
_space_group_symop_operation_xyz
x,y,z
-x,y,-z
-x,-y,-z
x,-y,z
1/2+x,1/2+y,z
1/2-x,1/2+y,-z
1/2-x,1/2-y,-z
1/2+x,1/2-y,z
loop_
_atom_site_type_symbol
_atom_site_label
_atom_site_fract_x
_atom_site_fract_y
_atom_site_fract_z
Si Si1 0.352591 0.389126 0.001376
Si Si2 0.440399 0.764448 0.862887
Si Si3 0.682877 0.884994 0.210973
Si Si4 0.551184 0.389291 0.385846
Si Si5 0.326787 0.309886 0.340307
Si Si6 0.803069 0.611351 0.167600
O O1 0.376521 0.500000 0.997519
O O2 0.344368 0.366675 0.185468
O O3 0.399698 0.311706 0.947592
O O4 0.277724 0.381326 0.878465
O O5 0.384918 0.839706 0.765290
O O6 0.472494 0.693964 0.751294
O O7 0.500000 0.814632 0.000000
O O8 0.749122 0.832916 0.321635
O O9 0.688717 0.000000 0.243812
O O10 0.681201 0.870943 0.013077
O O11 0.500000 0.391331 0.500000
O O12 0.555301 0.500000 0.323317
O O13 0.623818 0.352661 0.493602
O O14 0.333613 0.195718 0.299167
O O15 0.822537 0.500000 0.220196
#
# Coordination Sequence:
#
# PCOD9175927 Si02
#       6
#     8   8   8   8   8   8
#     4  10  18  33  59  90 117 149 197 243 289 348
#     4  12  24  39  60  85 118 161 202 246 292 346
#     4  10  20  37  62  93 120 154 201 243 290 349
#     4  11  26  43  60  87 121 156 194 245 308 360
#     4  11  18  38  64  89 123 159 189 238 303 354
#     4   9  17  32  61  94 122 152 191 241 292 346
#
# _framework density 21.233499999999999
#
# number of rings (size 3 to 8) (size 9 to 14) (size 15 to 20)
#    0.000    1.500    3.333    5.000    0.000    3.667 
#    0.000    0.833    0.000    1.000    0.000    0.000 
#    0.000    0.000    0.000    0.000    0.000    0.000 
#
# Total GULP energy -134186.131661 kJ/mol
# GULP energy per Si atom -5591.088819 kJ/mol
# Density = 2.118517 g / cm^3
# Si number density = 21.233500 Si / 1000 Ang^3
#
#
#
# Elastic Constant Matrix: (Units=GPa)
#
#
# Indices 1 2 3 4 5 6 
#
# 1 48.0669 21.5183 1.0275 0.0000 0.7753 0.0000
# 2 21.5183 111.1004 7.0440 0.0000 9.1686 0.0000
# 3 1.0275 7.0440 21.2596 0.0000 8.3218 0.0000
# 4 0.0000 0.0000 0.0000 12.4694 0.0000 -6.1687
# 5 0.7753 9.1686 8.3218 0.0000 18.3820 0.0000
# 6 0.0000 0.0000 0.0000 -6.1687 0.0000 12.2697
#
#
#
# Elastic Compliance Matrix: (Units=1/GPa)
#
#
# Indices 1 2 3 4 5 6 
#
# 1 0.022809 -0.004521 -0.000134 0.000000 0.001354 0.000000
# 2 -0.004521 0.010326 -0.001533 0.000000 -0.004266 0.000000
# 3 -0.000134 -0.001533 0.057427 0.000000 -0.025228 0.000000
# 4 0.000000 0.000000 0.000000 0.106747 0.000000 0.053668
# 5 0.001354 -0.004266 -0.025228 0.000000 0.067893 0.000000
# 6 0.000000 0.000000 0.000000 0.053668 0.000000 0.108484
#
#
# Mechanical properties :
#
#
# Convention : Reuss Voigt Hill
#
# Bulk Modulus (GPa) = 12.79011 26.62293 19.70652
# Shear Modulus (GPa) = 12.13225 18.68001 15.40613
#
# Velocity S-wave (km/s) = 2.39293 2.96926 2.69654
# Velocity P-wave (km/s) = 3.69750 4.93161 4.35845
#
# Compressibility (1/GPa) = 0.07818544
#
# Stress axis : x y z
#
# Youngs Moduli (GPa) = 43.84177 96.84559 17.41336
#
# Poissons Ratio (x) = 0.43784 0.00234
# Poissons Ratio (y) = 0.19821 0.02670
# Poissons Ratio (z) = 0.00589 0.14847
#
# Static dielectric constant tensor:
#      x y z
#    x 1.767730 0.000000 -0.012120 
#    y 0.000000 1.759490 0.000000 
#    z -0.012120 0.000000 1.801700 
# 
# From -- ./inp_files/85975.got.cif
#   From: 2010.05.17/outbox.cif.g08.bks.cpg/sg12_43_cif.got.tgz:85975.got - 2010.06.03 13:09:07.
