data_PCOD9175929
_publ_section_title
;
Structure prediction by ZEFSAII (Michael W. Deem and Ramdas Pophale) SiO2 
 PCOD9175929
Probable space group: C 2/M
;
_chemical_formula_sum "Si O2"
_cell_formula_units_Z 36
_cell_length_a 22.146127
_cell_length_b 13.065968
_cell_length_c 7.213666
_cell_angle_alpha 90.000000
_cell_angle_beta 136.103021
_cell_angle_gamma 90.000000
_cell_volume 1447.293436
_symmetry_space_group_name_H-M "C 2/M"
_symmetry_group_IT_number 12
_symmetry_cell_setting 'monoclinic'
loop_
_space_group_symop_operation_xyz
x,y,z
-x,y,-z
-x,-y,-z
x,-y,z
1/2+x,1/2+y,z
1/2-x,1/2+y,-z
1/2-x,1/2-y,-z
1/2+x,1/2-y,z
loop_
_atom_site_type_symbol
_atom_site_label
_atom_site_fract_x
_atom_site_fract_y
_atom_site_fract_z
Si Si1 0.919287 0.779447 0.184512
Si Si2 0.246756 0.671919 0.231468
Si Si3 0.380299 0.500000 0.533595
Si Si4 0.585836 0.500000 0.947200
Si Si5 0.000000 0.683181 0.000000
Si Si6 0.181814 0.611364 0.495455
O O1 0.000000 0.776204 0.500000
O O2 0.884266 0.894367 0.078599
O O3 0.844608 0.697103 0.070905
O O4 0.955526 0.751290 0.060150
O O5 0.324190 0.597485 0.343369
O O6 0.216863 0.623937 0.362259
O O7 0.286032 0.784499 0.342382
O O8 0.480160 0.500000 0.691158
O O9 0.389901 0.500000 0.780514
O O10 0.922525 0.617969 0.742008
O O11 0.208064 0.500000 0.626873
#
# Coordination Sequence:
#
# PCOD9175929 Si02
#       6
#     8   8   4   4   4   8
#     4  11  24  42  64  94 132 168 217 264 318 385
#     4  10  21  34  61  93 128 167 210 265 321 371
#     4  11  20  40  67  99 130 167 218 265 321 389
#     4  11  21  36  66  95 129 170 215 267 320 379
#     4  10  21  39  62  92 120 175 206 257 324 378
#     4  10  18  33  59  92 124 159 216 259 311 384
#
# _framework density 24.874016000000001
#
# number of rings (size 3 to 8) (size 9 to 14) (size 15 to 20)
#    0.000    1.556    1.111    7.333    1.556    0.000 
#    0.000    5.000    0.000    0.000    0.000    0.000 
#    0.000    0.000    0.000    0.000    0.000    0.000 
#
# Total GULP energy -100805.483511 kJ/mol
# GULP energy per Si atom -5600.304639 kJ/mol
# Density = 2.481740 g / cm^3
# Si number density = 24.874016 Si / 1000 Ang^3
#
#
#
# Elastic Constant Matrix: (Units=GPa)
#
#
# Indices 1 2 3 4 5 6 
#
# 1 76.7560 16.9471 25.8525 0.0000 6.1871 0.0000
# 2 16.9471 200.5455 73.2369 0.0000 22.4328 0.0000
# 3 25.8525 73.2369 135.2580 0.0000 27.2685 0.0000
# 4 0.0000 0.0000 0.0000 48.0617 0.0000 19.1309
# 5 6.1871 22.4328 27.2685 0.0000 45.5645 0.0000
# 6 0.0000 0.0000 0.0000 19.1309 0.0000 3.4362
#
#
#
# Elastic Compliance Matrix: (Units=1/GPa)
#
#
# Indices 1 2 3 4 5 6 
#
# 1 0.013939 -0.000242 -0.002474 0.000000 -0.000293 0.000000
# 2 -0.000242 0.006277 -0.003111 0.000000 -0.001195 0.000000
# 3 -0.002474 -0.003111 0.010433 0.000000 -0.004376 0.000000
# 4 0.000000 0.000000 0.000000 -0.017109 0.000000 0.095252
# 5 -0.000293 -0.001195 -0.004376 0.000000 0.025194 0.000000
# 6 0.000000 0.000000 0.000000 0.095252 0.000000 -0.239298
#
#
# Mechanical properties :
#
#
# Convention : Reuss Voigt Hill
#
# Bulk Modulus (GPa) = 52.64833 71.62584 62.13709
# Shear Modulus (GPa) = -27.38557 39.18068 5.89755
#
# Velocity S-wave (km/s) = -3.32169 3.97314 1.54147
# Velocity P-wave (km/s) = 2.54960 7.06440 5.31066
#
# Compressibility (1/GPa) = 0.01899395
#
# Stress axis : x y z
#
# Youngs Moduli (GPa) = 71.74315 159.31690 95.84825
#
# Poissons Ratio (x) = 0.03848 0.23716
# Poissons Ratio (y) = 0.01733 0.29823
# Poissons Ratio (z) = 0.17751 0.49571
#
# Static dielectric constant tensor:
#      x y z
#    x 1.999900 0.000000 -0.000660 
#    y 0.000000 1.920320 0.000000 
#    z -0.000660 0.000000 1.994800 
# 
# From -- ./inp_files/105125.got.cif
#   From: 2010.05.17/outbox.cif.g08.bks.cpg/sg12_53_cif.got.tgz:105125.got - 2010.06.03 13:09:07.
