data_PCOD9175622
_publ_section_title
;
Structure prediction by ZEFSAII (Michael W. Deem and Ramdas Pophale) SiO2 
 PCOD9175622
Probable space group: C 2/M
;
_chemical_formula_sum "Si O2"
_cell_formula_units_Z 48
_cell_length_a 20.451220
_cell_length_b 17.976439
_cell_length_c 15.329854
_cell_angle_alpha 90.000000
_cell_angle_beta 150.839386
_cell_angle_gamma 90.000000
_cell_volume 2746.130714
_symmetry_space_group_name_H-M "C 2/M"
_symmetry_group_IT_number 12
_symmetry_cell_setting 'monoclinic'
loop_
_space_group_symop_operation_xyz
x,y,z
-x,y,-z
-x,-y,-z
x,-y,z
1/2+x,1/2+y,z
1/2-x,1/2+y,-z
1/2-x,1/2-y,-z
1/2+x,1/2-y,z
loop_
_atom_site_type_symbol
_atom_site_label
_atom_site_fract_x
_atom_site_fract_y
_atom_site_fract_z
Si Si1 0.892303 0.085981 0.599985
Si Si2 0.847822 0.636412 0.359482
Si Si3 0.069378 0.791209 0.492818
Si Si4 0.910126 0.300225 0.161431
Si Si5 0.357447 0.915334 0.565391
Si Si6 0.830993 0.149192 0.009686
O O1 0.872216 0.143087 0.497079
O O2 0.778490 0.099193 0.539957
O O3 0.885565 0.000000 0.565152
O O4 0.038612 0.103843 0.810319
O O5 0.833881 0.724160 0.365852
O O6 0.834210 0.593998 0.434606
O O7 0.742515 0.618368 0.161381
O O8 0.000000 0.626106 0.500000
O O9 0.000000 0.819446 0.500000
O O10 0.962756 0.747417 0.306669
O O11 0.780952 0.345378 0.044211
O O12 0.028712 0.356144 0.276043
O O13 0.875026 0.236114 0.051608
O O14 0.400325 0.000000 0.632908
#
# Coordination Sequence:
#
# PCOD9175622 Si02
#       6
#     8   8   8   8   8   8
#     4  10  23  36  50  77 112 142 172 212 261 312
#     4  10  18  34  56  81 103 134 177 219 259 308
#     4   9  16  33  57  77 100 131 175 218 260 307
#     4   9  18  33  57  79 103 136 174 218 262 306
#     4  10  21  37  52  74 111 149 173 202 258 322
#     4  10  18  33  55  82 106 128 176 226 259 298
#
# _framework density 17.479139
#
# number of rings (size 3 to 8) (size 9 to 14) (size 15 to 20)
#    0.000    2.333    5.000    0.000    0.000    8.667 
#    0.000    1.667    0.000    0.000    0.000    2.333 
#    0.000    0.000    0.000    0.000    0.000    0.000 
#
# Total GULP energy -133720.340963 kJ/mol
# GULP energy per Si atom -5571.680873 kJ/mol
# Density = 1.743936 g / cm^3
# Si number density = 17.479139 Si / 1000 Ang^3
#
#
#
# Elastic Constant Matrix: (Units=GPa)
#
#
# Indices 1 2 3 4 5 6 
#
# 1 86.4813 46.8239 11.1982 0.0000 14.5504 0.0000
# 2 46.8239 58.8244 12.4648 0.0000 20.8019 0.0000
# 3 11.1982 12.4648 41.8661 0.0000 12.0962 0.0000
# 4 0.0000 0.0000 0.0000 16.3608 0.0000 8.1011
# 5 14.5504 20.8019 12.0962 0.0000 24.0031 0.0000
# 6 0.0000 0.0000 0.0000 8.1011 0.0000 29.3369
#
#
#
# Elastic Compliance Matrix: (Units=1/GPa)
#
#
# Indices 1 2 3 4 5 6 
#
# 1 0.020479 -0.017113 -0.001265 0.000000 0.003054 0.000000
# 2 -0.017113 0.038878 -0.000305 0.000000 -0.023166 0.000000
# 3 -0.001265 -0.000305 0.028110 0.000000 -0.013135 0.000000
# 4 0.000000 0.000000 0.000000 0.070803 0.000000 -0.019552
# 5 0.003054 -0.023166 -0.013135 0.000000 0.066506 0.000000
# 6 0.000000 0.000000 0.000000 -0.019552 0.000000 0.039486
#
#
# Mechanical properties :
#
#
# Convention : Reuss Voigt Hill
#
# Bulk Modulus (GPa) = 19.95941 36.46062 28.21001
# Shear Modulus (GPa) = 15.70714 21.71914 18.71314
#
# Velocity S-wave (km/s) = 3.00095 3.52884 3.27555
# Velocity P-wave (km/s) = 4.84267 6.12441 5.52086
#
# Compressibility (1/GPa) = 0.05010169
#
# Stress axis : x y z
#
# Youngs Moduli (GPa) = 48.83136 25.72131 35.57480
#
# Poissons Ratio (x) = 0.44017 0.04500
# Poissons Ratio (y) = 0.83565 0.01084
# Poissons Ratio (z) = 0.06177 0.00783
#
# Static dielectric constant tensor:
#      x y z
#    x 1.587910 0.000000 -0.009850 
#    y 0.000000 1.606720 0.000000 
#    z -0.009850 0.000000 1.605480 
# 
# From -- ./inp_files/226949.got.cif
#   From: 2010.05.17/outbox.cif.g08.bks.cpg/sg12_114_cif.got.tgz:226949.got - 2010.06.03 13:09:07.
