data_PCOD9175739
_publ_section_title
;
Structure prediction by ZEFSAII (Michael W. Deem and Ramdas Pophale) SiO2 
 PCOD9175739
Probable space group: C 2/M
;
_chemical_formula_sum "Si O2"
_cell_formula_units_Z 64
_cell_length_a 15.079726
_cell_length_b 7.434915
_cell_length_c 22.747027
_cell_angle_alpha 90.000000
_cell_angle_beta 78.301120
_cell_angle_gamma 90.000000
_cell_volume 2497.338319
_symmetry_space_group_name_H-M "C 2/M"
_symmetry_group_IT_number 12
_symmetry_cell_setting 'monoclinic'
loop_
_space_group_symop_operation_xyz
x,y,z
-x,y,-z
-x,-y,-z
x,-y,z
1/2+x,1/2+y,z
1/2-x,1/2+y,-z
1/2-x,1/2-y,-z
1/2+x,1/2-y,z
loop_
_atom_site_type_symbol
_atom_site_label
_atom_site_fract_x
_atom_site_fract_y
_atom_site_fract_z
Si Si1 0.065871 0.794816 0.039859
Si Si2 0.615798 0.719144 0.226510
Si Si3 0.801195 0.215876 0.387973
Si Si4 0.900216 0.711132 0.128498
Si Si5 0.094036 0.784496 0.742184
Si Si6 0.779010 0.779763 0.904217
Si Si7 0.455165 0.719936 0.445658
Si Si8 0.876372 0.787636 0.647624
O O1 0.997466 0.799463 0.104917
O O2 0.160377 0.714689 0.049226
O O3 0.082959 0.000000 0.019581
O O4 0.000000 0.708753 0.000000
O O5 0.619142 0.500000 0.223485
O O6 0.510613 0.775332 0.241800
O O7 0.669022 0.779659 0.161976
O O8 0.654114 0.781486 0.284614
O O9 0.851399 0.282755 0.321733
O O10 0.696770 0.261200 0.393453
O O11 0.856214 0.279280 0.437657
O O12 0.806970 0.000000 0.386989
O O13 0.912756 0.500000 0.118592
O O14 0.866095 0.738010 0.199414
O O15 0.824626 0.775046 0.092150
O O16 0.092002 0.000000 0.737652
O O17 0.779947 0.000000 0.906114
O O18 0.500000 0.782187 0.500000
O O19 0.453951 0.500000 0.448433
O O20 0.525801 0.777486 0.385706
O O21 0.887174 0.000000 0.653665
#
# Coordination Sequence:
#
# PCOD9175739 Si02
#       8
#     8   8   8   8   8   8   8   8
#     4  10  21  39  61  80 103 145 193 224 255 313
#     4   9  15  29  55  77  99 137 179 212 254 320
#     4  10  20  34  54  81 109 139 177 226 274 313
#     4  11  22  35  55  84 113 140 172 220 278 321
#     4  10  18  33  57  79 105 142 180 216 261 324
#     4   9  18  33  54  78 106 139 172 211 264 322
#     4   9  18  34  55  77 104 144 191 225 258 322
#     4  10  19  33  55  80 104 140 182 218 267 329
#
# _framework density 25.627285000000001
#
# number of rings (size 3 to 8) (size 9 to 14) (size 15 to 20)
#    0.000    2.250    2.500    1.125    0.000    2.750 
#    0.000    2.500    0.000    0.750    0.000    0.000 
#    0.000    0.000    0.000    0.000    0.000    0.000 
#
# Total GULP energy -178935.578180 kJ/mol
# GULP energy per Si atom -5591.736818 kJ/mol
# Density = 2.556896 g / cm^3
# Si number density = 25.627285 Si / 1000 Ang^3
#
#
#
# Elastic Constant Matrix: (Units=GPa)
#
#
# Indices 1 2 3 4 5 6 
#
# 1 124.6639 -5.6588 6.1081 0.0000 37.4061 0.0000
# 2 -5.6588 85.1015 -2.6398 0.0000 -4.5040 0.0000
# 3 6.1081 -2.6398 72.0355 0.0000 38.4178 0.0000
# 4 0.0000 0.0000 0.0000 4.7186 0.0000 6.1654
# 5 37.4061 -4.5040 38.4178 0.0000 40.5054 0.0000
# 6 0.0000 0.0000 0.0000 6.1654 0.0000 5.7520
#
#
#
# Elastic Compliance Matrix: (Units=1/GPa)
#
#
# Indices 1 2 3 4 5 6 
#
# 1 0.015177 0.000027 0.012521 0.000000 -0.025889 0.000000
# 2 0.000027 0.011831 -0.000520 0.000000 0.001783 0.000000
# 3 0.012521 -0.000520 0.038446 0.000000 -0.048085 0.000000
# 4 0.000000 0.000000 0.000000 -0.529134 0.000000 0.567163
# 5 -0.025889 0.001783 -0.048085 0.000000 0.094401 0.000000
# 6 0.000000 0.000000 0.000000 0.567163 0.000000 -0.434071
#
#
# Mechanical properties :
#
#
# Convention : Reuss Voigt Hill
#
# Bulk Modulus (GPa) = 11.17180 30.82444 20.99812
# Shear Modulus (GPa) = -6.26904 29.12794 11.42945
#
# Velocity S-wave (km/s) = -1.56574 3.37501 2.11413
# Velocity P-wave (km/s) = 1.04884 5.21935 3.76442
#
# Compressibility (1/GPa) = 0.08951110
#
# Stress axis : x y z
#
# Youngs Moduli (GPa) = 65.88768 84.52550 26.01061
#
# Poissons Ratio (x) = -0.00232 -0.32568
# Poissons Ratio (y) = -0.00181 0.01352
# Poissons Ratio (z) = -0.82497 0.04393
#
# Static dielectric constant tensor:
#      x y z
#    x 1.991430 0.000000 0.024570 
#    y 0.000000 1.954350 0.000000 
#    z 0.024570 0.000000 2.066360 
# 
# From -- ./inp_files/338719.got.cif
#   From: 2010.05.17/outbox.cif.g08.bks.cpg/sg12_170_cif.got.tgz:338719.got - 2010.06.03 13:09:07.
