data_PCOD9175252
_publ_section_title
;
Structure prediction by ZEFSAII (Michael W. Deem and Ramdas Pophale) SiO2 
 PCOD9175252
Probable space group: C 2/M
;
_chemical_formula_sum "Si O2"
_cell_formula_units_Z 64
_cell_length_a 15.108448
_cell_length_b 7.889505
_cell_length_c 28.864069
_cell_angle_alpha 90.000000
_cell_angle_beta 129.703700
_cell_angle_gamma 90.000000
_cell_volume 2647.011386
_symmetry_space_group_name_H-M "C 2/M"
_symmetry_group_IT_number 12
_symmetry_cell_setting 'monoclinic'
loop_
_space_group_symop_operation_xyz
x,y,z
-x,y,-z
-x,-y,-z
x,-y,z
1/2+x,1/2+y,z
1/2-x,1/2+y,-z
1/2-x,1/2-y,-z
1/2+x,1/2-y,z
loop_
_atom_site_type_symbol
_atom_site_label
_atom_site_fract_x
_atom_site_fract_y
_atom_site_fract_z
Si Si1 0.732300 0.296136 0.352024
Si Si2 0.007367 0.701186 0.701965
Si Si3 0.670694 0.203989 0.517042
Si Si4 0.463813 0.207016 0.389673
Si Si5 0.735236 0.798039 0.188571
Si Si6 0.492589 0.193620 0.851156
Si Si7 0.434531 0.697104 0.024867
Si Si8 0.233505 0.801994 0.902411
O O1 0.733848 0.500000 0.352733
O O2 0.600418 0.245080 0.301959
O O3 0.777244 0.232352 0.417390
O O4 0.831618 0.237891 0.350193
O O5 0.017116 0.500000 0.704570
O O6 0.983025 0.763073 0.641295
O O7 0.132706 0.769670 0.755306
O O8 0.750000 0.250000 0.500000
O O9 0.543389 0.261869 0.459018
O O10 0.665894 0.000000 0.519720
O O11 0.464839 0.000000 0.390418
O O12 0.636594 0.731370 0.190096
O O13 0.722883 0.730437 0.132098
O O14 0.715497 0.000000 0.180150
O O15 0.530545 0.201303 0.918011
O O16 0.596155 0.283989 0.859416
O O17 0.490524 0.000000 0.833714
O O18 0.461609 0.500000 0.042723
O O19 0.500000 0.754121 0.000000
O O20 0.300787 0.712396 0.966285
O O21 0.261681 0.000000 0.914831
#
# Coordination Sequence:
#
# PCOD9175252 Si02
#       8
#     8   8   8   8   8   8   8   8
#     4  10  20  36  60  85 113 154 195 233 284 350
#     4  11  23  39  60  84 115 150 191 248 294 338
#     4  10  18  32  57  85 116 150 188 233 285 346
#     4   9  19  36  57  84 116 151 191 232 284 347
#     4  10  24  44  63  83 115 157 200 243 290 352
#     4  11  23  41  64  91 123 158 197 243 296 352
#     4  11  22  37  62  94 126 159 197 242 291 351
#     4  11  23  41  64  90 121 158 198 243 296 352
#
# _framework density 24.178211000000001
#
# number of rings (size 3 to 8) (size 9 to 14) (size 15 to 20)
#    0.000    1.625    2.500    2.250    0.000    5.000 
#    0.000    5.625    0.000    1.500    0.000    0.000 
#    0.000    0.000    0.000    0.000    0.000    0.000 
#
# Total GULP energy -178921.465379 kJ/mol
# GULP energy per Si atom -5591.295793 kJ/mol
# Density = 2.412318 g / cm^3
# Si number density = 24.178211 Si / 1000 Ang^3
#
#
#
# Elastic Constant Matrix: (Units=GPa)
#
#
# Indices 1 2 3 4 5 6 
#
# 1 121.8780 -0.5221 6.6463 0.0000 33.4314 0.0000
# 2 -0.5221 38.4425 -5.9642 0.0000 1.2703 0.0000
# 3 6.6463 -5.9642 59.8906 0.0000 30.2904 0.0000
# 4 0.0000 0.0000 0.0000 15.0343 0.0000 3.4427
# 5 33.4314 1.2703 30.2904 0.0000 45.2205 0.0000
# 6 0.0000 0.0000 0.0000 3.4427 0.0000 19.5039
#
#
#
# Elastic Compliance Matrix: (Units=1/GPa)
#
#
# Indices 1 2 3 4 5 6 
#
# 1 0.011058 0.001239 0.004610 0.000000 -0.011298 0.000000
# 2 0.001239 0.026996 0.005138 0.000000 -0.005116 0.000000
# 3 0.004610 0.005138 0.027970 0.000000 -0.022288 0.000000
# 4 0.000000 0.000000 0.000000 0.069316 0.000000 -0.012235
# 5 -0.011298 -0.005116 -0.022288 0.000000 0.045539 0.000000
# 6 0.000000 0.000000 0.000000 -0.012235 0.000000 0.053432
#
#
# Mechanical properties :
#
#
# Convention : Reuss Voigt Hill
#
# Bulk Modulus (GPa) = 11.36382 24.50346 17.93364
# Shear Modulus (GPa) = 20.68951 30.62181 25.65566
#
# Velocity S-wave (km/s) = 2.92842 3.56266 3.26100
# Velocity P-wave (km/s) = 4.01802 5.20384 4.64889
#
# Compressibility (1/GPa) = 0.08799860
#
# Stress axis : x y z
#
# Youngs Moduli (GPa) = 90.43309 37.04257 35.75323
#
# Poissons Ratio (x) = -0.04589 -0.16484
# Poissons Ratio (y) = -0.11203 -0.18372
# Poissons Ratio (z) = -0.41693 -0.19034
#
# Static dielectric constant tensor:
#      x y z
#    x 1.965320 0.000000 0.029320 
#    y 0.000000 1.854690 0.000000 
#    z 0.029320 0.000000 1.966470 
# 
# From -- ./inp_files/375540.got.cif
#   From: 2010.05.17/outbox.cif.g08.bks.cpg/sg12_188_cif.got.tgz:375540.got - 2010.06.03 13:09:07.
