data_PCOD9175549
_publ_section_title
;
Structure prediction by ZEFSAII (Michael W. Deem and Ramdas Pophale) SiO2 
 PCOD9175549
Probable space group: C 2/M
;
_chemical_formula_sum "Si O2"
_cell_formula_units_Z 56
_cell_length_a 20.303869
_cell_length_b 8.960888
_cell_length_c 15.353163
_cell_angle_alpha 90.000000
_cell_angle_beta 117.667499
_cell_angle_gamma 90.000000
_cell_volume 2473.963870
_symmetry_space_group_name_H-M "C 2/M"
_symmetry_group_IT_number 12
_symmetry_cell_setting 'monoclinic'
loop_
_space_group_symop_operation_xyz
x,y,z
-x,y,-z
-x,-y,-z
x,-y,z
1/2+x,1/2+y,z
1/2-x,1/2+y,-z
1/2-x,1/2-y,-z
1/2+x,1/2-y,z
loop_
_atom_site_type_symbol
_atom_site_label
_atom_site_fract_x
_atom_site_fract_y
_atom_site_fract_z
Si Si1 0.518315 0.826682 0.833922
Si Si2 0.716340 0.324063 0.347524
Si Si3 0.876591 0.822893 0.417311
Si Si4 0.629612 0.176139 0.765397
Si Si5 0.100194 0.325780 0.396824
Si Si6 0.096358 0.175723 0.117683
Si Si7 0.714156 0.675421 0.061572
O O1 0.593485 0.769792 0.834243
O O2 0.462016 0.816232 0.716404
O O3 0.478368 0.745135 0.889096
O O4 0.527429 0.000000 0.863070
O O5 0.733036 0.500000 0.366683
O O6 0.791429 0.233112 0.377915
O O7 0.671298 0.261094 0.402277
O O8 0.658084 0.307956 0.232055
O O9 0.898151 0.764332 0.335183
O O10 0.920312 0.747426 0.523937
O O11 0.881833 0.000000 0.425335
O O12 0.718478 0.186368 0.827294
O O13 0.610906 0.000000 0.745036
O O14 0.117078 0.500000 0.419736
O O15 0.138919 0.238413 0.058745
O O16 0.084181 0.000000 0.096832
O O17 0.702659 0.500000 0.037125
O O18 0.750000 0.750000 0.000000
#
# Coordination Sequence:
#
# PCOD9175549 Si02
#       7
#     8   8   8   8   8   8   8
#     4   9  20  37  60  84 110 150 195 234 273 328
#     4  10  18  33  54  77 109 149 191 237 284 330
#     4  12  23  33  50  79 112 150 194 237 282 331
#     4  10  21  41  61  81 113 150 188 232 285 334
#     4  10  20  34  51  78 112 149 193 238 280 327
#     4   9  18  35  59  84 113 149 183 225 284 335
#     4  10  21  39  63  90 115 144 180 227 283 339
#
# _framework density 22.635739999999998
#
# number of rings (size 3 to 8) (size 9 to 14) (size 15 to 20)
#    0.000    2.000    1.429    2.571    0.000    3.429 
#    0.000    3.571    0.000    4.286    0.000    0.000 
#    0.000    0.000    0.000    0.000    0.000    0.000 
#
# Total GULP energy -156541.775335 kJ/mol
# GULP energy per Si atom -5590.777691 kJ/mol
# Density = 2.258422 g / cm^3
# Si number density = 22.635740 Si / 1000 Ang^3
#
#
#
# Elastic Constant Matrix: (Units=GPa)
#
#
# Indices 1 2 3 4 5 6 
#
# 1 148.8856 24.8098 33.3545 0.0000 -33.1350 0.0000
# 2 24.8098 59.0508 35.6393 0.0000 -27.6800 0.0000
# 3 33.3545 35.6393 92.8153 0.0000 -33.0979 0.0000
# 4 0.0000 0.0000 0.0000 23.9579 0.0000 -13.1307
# 5 -33.1350 -27.6800 -33.0979 0.0000 52.0659 0.0000
# 6 0.0000 0.0000 0.0000 -13.1307 0.0000 29.3159
#
#
#
# Elastic Compliance Matrix: (Units=1/GPa)
#
#
# Indices 1 2 3 4 5 6 
#
# 1 0.007983 -0.000823 -0.001160 0.000000 0.003905 0.000000
# 2 -0.000823 0.025211 -0.006197 0.000000 0.008940 0.000000
# 3 -0.001160 -0.006197 0.015689 0.000000 0.005941 0.000000
# 4 0.000000 0.000000 0.000000 0.055320 0.000000 0.024778
# 5 0.003905 0.008940 0.005941 0.000000 0.030221 0.000000
# 6 0.000000 0.000000 0.000000 0.024778 0.000000 0.045210
#
#
# Mechanical properties :
#
#
# Convention : Reuss Voigt Hill
#
# Bulk Modulus (GPa) = 30.74786 54.26207 42.50496
# Shear Modulus (GPa) = 24.17398 34.86447 29.51922
#
# Velocity S-wave (km/s) = 3.27151 3.92885 3.61515
# Velocity P-wave (km/s) = 5.28049 6.67870 6.02032
#
# Compressibility (1/GPa) = 0.03252259
#
# Stress axis : x y z
#
# Youngs Moduli (GPa) = 125.27030 39.66528 63.73973
#
# Poissons Ratio (x) = 0.03265 0.07394
# Poissons Ratio (y) = 0.10313 0.39498
# Poissons Ratio (z) = 0.14532 0.24579
#
# Static dielectric constant tensor:
#      x y z
#    x 1.872720 0.000000 0.021660 
#    y 0.000000 1.755270 0.000000 
#    z 0.021660 0.000000 1.889250 
# 
# From -- ./inp_files/280397.got.cif
#   From: 2010.05.17/outbox.cif.g08.bks.cpg/sg12_141_cif.got.tgz:280397.got - 2010.06.03 13:09:07.
