data_PCOD9175181
_publ_section_title
;
Structure prediction by ZEFSAII (Michael W. Deem and Ramdas Pophale) SiO2 
 PCOD9175181
Probable space group: C 2/M
;
_chemical_formula_sum "Si O2"
_cell_formula_units_Z 40
_cell_length_a 19.041061
_cell_length_b 8.810715
_cell_length_c 20.417875
_cell_angle_alpha 90.000000
_cell_angle_beta 134.523333
_cell_angle_gamma 90.000000
_cell_volume 2442.198839
_symmetry_space_group_name_H-M "C 2/M"
_symmetry_group_IT_number 12
_symmetry_cell_setting 'monoclinic'
loop_
_space_group_symop_operation_xyz
x,y,z
-x,y,-z
-x,-y,-z
x,-y,z
1/2+x,1/2+y,z
1/2-x,1/2+y,-z
1/2-x,1/2-y,-z
1/2+x,1/2-y,z
loop_
_atom_site_type_symbol
_atom_site_label
_atom_site_fract_x
_atom_site_fract_y
_atom_site_fract_z
Si Si1 0.867136 0.678694 0.760140
Si Si2 0.114891 0.181296 0.087027
Si Si3 0.265469 0.680893 0.082042
Si Si4 0.974924 0.321260 0.239076
Si Si5 0.326626 0.318653 0.601166
O O1 0.844738 0.500000 0.749310
O O2 0.857292 0.757954 0.822955
O O3 0.806102 0.757543 0.661568
O O4 0.979028 0.692961 0.804499
O O5 0.182230 0.258763 0.076518
O O6 0.127291 0.000000 0.092017
O O7 0.000000 0.216694 0.000000
O O8 0.262970 0.500000 0.076752
O O9 0.371982 0.737762 0.176426
O O10 0.250000 0.750000 0.000000
O O11 0.965589 0.500000 0.247127
O O12 0.062829 0.246135 0.338693
O O13 0.326256 0.500000 0.599450
O O14 0.250000 0.250000 0.500000
#
# Coordination Sequence:
#
# PCOD9175181 Si02
#       5
#     8   8   8   8   8
#     4   9  19  34  54  80 110 142 182 227 275 324
#     4  11  23  37  55  78 109 147 189 230 276 330
#     4  12  24  37  55  78 110 148 187 230 277 330
#     4   9  19  35  55  80 110 141 182 228 274 326
#     4  10  18  32  56  85 114 145 185 230 278 326
#
# _framework density 16.378682999999999
#
# number of rings (size 3 to 8) (size 9 to 14) (size 15 to 20)
#    1.200    0.600    0.000    6.000    0.000    4.800 
#    0.000    0.000    0.000    1.200    0.000    8.400 
#    0.000    0.000    0.000    0.000    0.000    0.000 
#
# Total GULP energy -111460.883062 kJ/mol
# GULP energy per Si atom -5573.044153 kJ/mol
# Density = 1.634140 g / cm^3
# Si number density = 16.378683 Si / 1000 Ang^3
#
#
#
# Elastic Constant Matrix: (Units=GPa)
#
#
# Indices 1 2 3 4 5 6 
#
# 1 106.7733 81.2260 73.0313 0.0000 2.8789 0.0000
# 2 81.2260 156.8789 83.1807 0.0000 3.5254 0.0000
# 3 73.0313 83.1807 145.5834 0.0000 1.0712 0.0000
# 4 0.0000 0.0000 0.0000 30.7892 0.0000 -1.1173
# 5 2.8789 3.5254 1.0712 0.0000 26.3420 0.0000
# 6 0.0000 0.0000 0.0000 -1.1173 0.0000 29.0186
#
#
#
# Elastic Compliance Matrix: (Units=1/GPa)
#
#
# Indices 1 2 3 4 5 6 
#
# 1 0.017919 -0.006449 -0.005298 0.000000 -0.000880 0.000000
# 2 -0.006449 0.011493 -0.003326 0.000000 -0.000698 0.000000
# 3 -0.005298 -0.003326 0.011423 0.000000 0.000560 0.000000
# 4 0.000000 0.000000 0.000000 0.032524 0.000000 0.001252
# 5 -0.000880 -0.000698 0.000560 0.000000 0.038129 0.000000
# 6 0.000000 0.000000 0.000000 0.001252 0.000000 0.034509
#
#
# Mechanical properties :
#
#
# Convention : Reuss Voigt Hill
#
# Bulk Modulus (GPa) = 93.55839 98.23464 95.89651
# Shear Modulus (GPa) = 27.82329 28.68315 28.25322
#
# Velocity S-wave (km/s) = 4.12606 4.18933 4.15782
# Velocity P-wave (km/s) = 8.94121 9.13827 9.04028
#
# Compressibility (1/GPa) = 0.01068851
#
# Stress axis : x y z
#
# Youngs Moduli (GPa) = 55.80701 87.01164 87.54337
#
# Poissons Ratio (x) = 0.56113 0.46379
# Poissons Ratio (y) = 0.35990 0.29119
# Poissons Ratio (z) = 0.29565 0.28942
#
# Static dielectric constant tensor:
#      x y z
#    x 1.540120 0.000000 0.006530 
#    y 0.000000 1.538250 0.000000 
#    z 0.006530 0.000000 1.539510 
# 
# From -- ./inp_files/220605.got.cif
#   From: 2010.05.17/outbox.cif.g08.bks.cpg/sg12_111_cif.got.tgz:220605.got - 2010.06.03 13:09:07.
