data_PCOD9175482
_publ_section_title
;
Structure prediction by ZEFSAII (Michael W. Deem and Ramdas Pophale) SiO2 
 PCOD9175482
Probable space group: C 2/M
;
_chemical_formula_sum "Si O2"
_cell_formula_units_Z 64
_cell_length_a 32.609421
_cell_length_b 8.450910
_cell_length_c 18.631017
_cell_angle_alpha 90.000000
_cell_angle_beta 41.182902
_cell_angle_gamma 90.000000
_cell_volume 3380.771001
_symmetry_space_group_name_H-M "C 2/M"
_symmetry_group_IT_number 12
_symmetry_cell_setting 'monoclinic'
loop_
_space_group_symop_operation_xyz
x,y,z
-x,y,-z
-x,-y,-z
x,-y,z
1/2+x,1/2+y,z
1/2-x,1/2+y,-z
1/2-x,1/2-y,-z
1/2+x,1/2-y,z
loop_
_atom_site_type_symbol
_atom_site_label
_atom_site_fract_x
_atom_site_fract_y
_atom_site_fract_z
Si Si1 0.275532 0.308960 0.693000
Si Si2 0.422517 0.307160 0.280383
Si Si3 0.038690 0.309467 0.342650
Si Si4 0.208918 0.808880 0.487978
Si Si5 0.148690 0.313034 0.923600
Si Si6 0.055776 0.811557 0.164482
Si Si7 0.907098 0.691207 0.576181
Si Si8 0.573544 0.687998 0.888797
O O1 0.273055 0.500000 0.695192
O O2 0.267865 0.254052 0.620559
O O3 0.218679 0.252374 0.817431
O O4 0.342599 0.257935 0.633024
O O5 0.424559 0.500000 0.277465
O O6 0.362800 0.258297 0.405176
O O7 0.488967 0.250535 0.222478
O O8 0.413185 0.259176 0.209896
O O9 0.038665 0.500000 0.341496
O O10 0.063961 0.247807 0.234445
O O11 0.077270 0.260894 0.362454
O O12 0.966977 0.257836 0.450195
O O13 0.250000 0.750000 0.500000
O O14 0.210140 0.000000 0.487126
O O15 0.150952 0.500000 0.933346
O O16 0.111760 0.278580 0.898652
O O17 0.110387 0.237321 0.038793
O O18 0.052158 0.000000 0.169897
O O19 0.904833 0.500000 0.577180
O O20 0.587346 0.500000 0.876850
O O21 0.500000 0.706873 0.000000
#
# Coordination Sequence:
#
# PCOD9175482 Si02
#       8
#     8   8   8   8   8   8   8   8
#     4  10  22  38  55  78 113 149 188 233 275 320
#     4   9  18  32  52  76 104 137 175 224 276 318
#     4   9  19  37  59  88 119 141 169 223 280 327
#     4  10  20  35  53  76 107 141 177 222 271 321
#     4  11  23  37  52  76 111 149 186 235 285 325
#     4  11  21  36  57  82 108 142 185 228 275 332
#     4   9  19  37  62  87 114 146 179 215 270 336
#     4  10  18  33  53  74 105 143 184 230 272 326
#
# _framework density 18.930592000000001
#
# number of rings (size 3 to 8) (size 9 to 14) (size 15 to 20)
#    0.000    2.125    1.250    3.000    0.000    3.750 
#    0.000    3.125    0.000    0.000    0.000    0.000 
#    0.000    0.000    0.000    0.000    0.000    0.000 
#
# Total GULP energy -178679.824578 kJ/mol
# GULP energy per Si atom -5583.744518 kJ/mol
# Density = 1.888751 g / cm^3
# Si number density = 18.930592 Si / 1000 Ang^3
#
#
#
# Elastic Constant Matrix: (Units=GPa)
#
#
# Indices 1 2 3 4 5 6 
#
# 1 96.6116 10.3593 61.7138 0.0058 1.9912 0.0024
# 2 10.3593 6.9077 17.0066 0.0226 1.5730 -0.0104
# 3 61.7138 17.0066 135.4138 0.0082 10.7972 -0.0089
# 4 0.0058 0.0226 0.0082 13.2080 -0.0104 -1.5973
# 5 1.9912 1.5730 10.7972 -0.0104 30.6517 0.0030
# 6 0.0024 -0.0104 -0.0089 -1.5973 0.0030 29.8862
#
#
#
# Elastic Compliance Matrix: (Units=1/GPa)
#
#
# Indices 1 2 3 4 5 6 
#
# 1 0.014982 -0.008260 -0.005913 0.000012 0.001533 -0.000005
# 2 -0.008260 0.214190 -0.022946 -0.000344 -0.002373 0.000050
# 3 -0.005913 -0.022946 0.013208 0.000031 -0.003091 -0.000002
# 4 0.000012 -0.000344 0.000031 0.076205 0.000031 0.004073
# 5 0.001533 -0.002373 -0.003091 0.000031 0.033735 -0.000004
# 6 -0.000005 0.000050 -0.000002 0.004073 -0.000004 0.033678
#
#
# Mechanical properties :
#
#
# Convention : Reuss Voigt Hill
#
# Bulk Modulus (GPa) = 5.94740 46.34362 26.14551
# Shear Modulus (GPa) = 9.68462 24.73941 17.21201
#
# Velocity S-wave (km/s) = 2.26428 3.61896 3.01859
# Velocity P-wave (km/s) = 3.15982 6.48046 5.09808
#
# Compressibility (1/GPa) = 0.16814071
#
# Stress axis : x y z
#
# Youngs Moduli (GPa) = 66.74787 4.66876 75.71353
#
# Poissons Ratio (x) = 0.03857 0.44767
# Poissons Ratio (y) = 0.55136 1.73734
# Poissons Ratio (z) = 0.39466 0.10713
#
# Static dielectric constant tensor:
#      x y z
#    x 1.631910 0.000000 -0.002140 
#    y 0.000000 1.656310 0.000000 
#    z -0.002140 0.000000 1.663550 
# 
# From -- ./inp_files/295576.got.cif
#   From: 2010.05.17/outbox.cif.g08.bks.cpg/sg12_148_cif.got.tgz:295576.got - 2010.06.03 13:09:07.
