data_PCOD9175590
_publ_section_title
;
Structure prediction by ZEFSAII (Michael W. Deem and Ramdas Pophale) SiO2 
 PCOD9175590
Probable space group: C 2/M
;
_chemical_formula_sum "Si O2"
_cell_formula_units_Z 56
_cell_length_a 24.733921
_cell_length_b 8.385496
_cell_length_c 16.031769
_cell_angle_alpha 90.000000
_cell_angle_beta 117.154122
_cell_angle_gamma 90.000000
_cell_volume 2958.603965
_symmetry_space_group_name_H-M "C 2/M"
_symmetry_group_IT_number 12
_symmetry_cell_setting 'monoclinic'
loop_
_space_group_symop_operation_xyz
x,y,z
-x,y,-z
-x,-y,-z
x,-y,z
1/2+x,1/2+y,z
1/2-x,1/2+y,-z
1/2-x,1/2-y,-z
1/2+x,1/2-y,z
loop_
_atom_site_type_symbol
_atom_site_label
_atom_site_fract_x
_atom_site_fract_y
_atom_site_fract_z
Si Si1 0.558058 0.189424 0.601250
Si Si2 0.393193 0.189725 0.671790
Si Si3 0.971831 0.188239 0.238107
Si Si4 0.840749 0.694696 0.457605
Si Si5 0.715106 0.307679 0.295777
Si Si6 0.741040 0.692808 0.125965
Si Si7 0.654209 0.692555 0.915238
O O1 0.500000 0.208053 0.500000
O O2 0.546497 0.278482 0.679028
O O3 0.616744 0.242232 0.590107
O O4 0.563894 0.000000 0.623811
O O5 0.463117 0.235012 0.732996
O O6 0.369262 0.251002 0.564743
O O7 0.348184 0.253021 0.710609
O O8 0.388627 0.000000 0.666397
O O9 0.914875 0.248583 0.143438
O O10 0.977976 0.000000 0.229250
O O11 0.842110 0.500000 0.459638
O O12 0.771772 0.746260 0.392964
O O13 0.715912 0.500000 0.295475
O O14 0.727159 0.252790 0.209688
O O15 0.742415 0.500000 0.127212
O O16 0.804812 0.751416 0.133601
O O17 0.689403 0.745216 0.023501
O O18 0.653696 0.500000 0.914651
#
# Coordination Sequence:
#
# PCOD9175590 Si02
#       7
#     8   8   8   8   8   8   8
#     4  10  18  33  55  77 106 140 174 213 258 310
#     4  11  22  37  53  72 104 144 182 217 260 312
#     4  11  22  35  52  78 111 142 176 216 263 314
#     4   9  18  33  53  77 104 137 174 214 260 312
#     4  10  20  35  55  78 103 134 177 221 264 312
#     4   9  18  35  59  83 107 136 172 216 267 318
#     4   9  19  35  56  83 111 137 169 215 266 316
#
# _framework density 18.927845999999999
#
# number of rings (size 3 to 8) (size 9 to 14) (size 15 to 20)
#    0.000    2.143    1.429    2.143    0.000    3.143 
#    0.000    2.143    0.000    4.286    0.000    0.000 
#    0.000    0.000    0.000    0.000    0.000    0.000 
#
# Total GULP energy -156330.577295 kJ/mol
# GULP energy per Si atom -5583.234903 kJ/mol
# Density = 1.888477 g / cm^3
# Si number density = 18.927846 Si / 1000 Ang^3
#
#
#
# Elastic Constant Matrix: (Units=GPa)
#
#
# Indices 1 2 3 4 5 6 
#
# 1 148.4949 11.4232 72.2786 0.0000 13.6107 0.0000
# 2 11.4232 6.0953 14.2948 0.0000 1.6254 0.0000
# 3 72.2786 14.2948 74.8658 0.0000 15.0038 0.0000
# 4 0.0000 0.0000 0.0000 15.0647 0.0000 -2.7590
# 5 13.6107 1.6254 15.0038 0.0000 21.8505 0.0000
# 6 0.0000 0.0000 0.0000 -2.7590 0.0000 29.2718
#
#
#
# Elastic Compliance Matrix: (Units=1/GPa)
#
#
# Indices 1 2 3 4 5 6 
#
# 1 0.013009 0.009646 -0.014650 0.000000 0.001238 0.000000
# 2 0.009646 0.311631 -0.073012 0.000000 0.020944 0.000000
# 3 -0.014650 -0.073012 0.044672 0.000000 -0.016118 0.000000
# 4 0.000000 0.000000 0.000000 0.067547 0.000000 0.006366
# 5 0.001238 0.020944 -0.016118 0.000000 0.054503 0.000000
# 6 0.000000 0.000000 0.000000 0.006366 0.000000 0.034763
#
#
# Mechanical properties :
#
#
# Convention : Reuss Voigt Hill
#
# Bulk Modulus (GPa) = 4.68868 47.27214 25.98041
# Shear Modulus (GPa) = 6.63790 22.00135 14.31962
#
# Velocity S-wave (km/s) = 1.87472 3.41307 2.75351
# Velocity P-wave (km/s) = 2.67742 6.36877 4.88517
#
# Compressibility (1/GPa) = 0.21327954
#
# Stress axis : x y z
#
# Youngs Moduli (GPa) = 76.86796 3.20892 22.38555
#
# Poissons Ratio (x) = -0.03095 0.32794
# Poissons Ratio (y) = -0.74146 1.63442
# Poissons Ratio (z) = 1.12609 0.23429
#
# Static dielectric constant tensor:
#      x y z
#    x 1.633680 0.000000 0.022380 
#    y 0.000000 1.660410 0.000000 
#    z 0.022380 0.000000 1.667990 
# 
# From -- ./inp_files/237852.got.cif
#   From: 2010.05.17/outbox.cif.g08.bks.cpg/sg12_119_cif.got.tgz:237852.got - 2010.06.03 13:09:07.
