data_PCOD9175986
_publ_section_title
;
Structure prediction by ZEFSAII (Michael W. Deem and Ramdas Pophale) SiO2 
 PCOD9175986
Probable space group: C 2/M
;
_chemical_formula_sum "Si O2"
_cell_formula_units_Z 40
_cell_length_a 16.403236
_cell_length_b 9.971600
_cell_length_c 23.923642
_cell_angle_alpha 90.000000
_cell_angle_beta 149.816498
_cell_angle_gamma 90.000000
_cell_volume 1967.396755
_symmetry_space_group_name_H-M "C 2/M"
_symmetry_group_IT_number 12
_symmetry_cell_setting 'monoclinic'
loop_
_space_group_symop_operation_xyz
x,y,z
-x,y,-z
-x,-y,-z
x,-y,z
1/2+x,1/2+y,z
1/2-x,1/2+y,-z
1/2-x,1/2-y,-z
1/2+x,1/2-y,z
loop_
_atom_site_type_symbol
_atom_site_label
_atom_site_fract_x
_atom_site_fract_y
_atom_site_fract_z
Si Si1 0.935919 0.000000 0.175671
Si Si2 0.530741 0.000000 0.269630
Si Si3 0.056892 0.000000 0.956683
Si Si4 0.000952 0.297126 0.435561
Si Si5 0.185996 0.500000 0.746203
Si Si6 0.096245 0.000000 0.471442
Si Si7 0.774569 0.000000 0.573527
Si Si8 0.196418 0.721984 0.904877
O O1 0.845018 0.132760 0.143156
O O2 0.944255 0.000000 0.112743
O O3 0.115292 0.000000 0.306649
O O4 0.463675 0.129687 0.196712
O O5 0.433746 0.000000 0.271351
O O6 0.722035 0.000000 0.394170
O O7 0.159685 0.131391 0.034389
O O8 0.124546 0.000000 0.129524
O O9 0.161578 0.368461 0.506109
O O10 0.000000 0.334253 0.500000
O O11 0.857851 0.369633 0.317061
O O12 0.007927 0.137567 0.435018
O O13 0.118004 0.000000 0.417794
O O14 0.250000 0.750000 0.000000
#
# Coordination Sequence:
#
# PCOD9175986 Si02
#       8
#     4   4   4   8   4   4   4   8
#     4  10  18  33  62  88 114 150 196 254 311 358
#     4  11  22  38  63  87 119 156 205 255 305 364
#     4   9  19  39  57  83 116 157 202 247 302 371
#     4  11  23  40  59  91 132 166 206 250 302 376
#     4  11  23  38  63  86 119 169 210 243 308 372
#     4  12  24  39  62  97 127 161 203 264 313 357
#     4  11  21  36  65  88 126 163 210 242 306 378
#     4   9  20  36  58  87 115 149 201 257 305 363
#
# _framework density 20.331436
#
# number of rings (size 3 to 8) (size 9 to 14) (size 15 to 20)
#    0.000    1.600    2.000    5.100    2.800    3.200 
#    0.000    1.000    0.000    1.200    0.000    0.000 
#    0.000    0.000    0.000    0.000    0.000    0.000 
#
# Total GULP energy -111695.637648 kJ/mol
# GULP energy per Si atom -5584.781882 kJ/mol
# Density = 2.028516 g / cm^3
# Si number density = 20.331436 Si / 1000 Ang^3
#
#
#
# Elastic Constant Matrix: (Units=GPa)
#
#
# Indices 1 2 3 4 5 6 
#
# 1 44.7099 12.2266 -3.3862 0.0000 -2.7561 0.0000
# 2 12.2266 183.5614 38.5442 -0.0001 18.9760 0.0001
# 3 -3.3862 38.5442 65.8793 0.0000 14.9300 0.0002
# 4 0.0000 -0.0001 0.0000 21.8009 0.0000 -17.6231
# 5 -2.7561 18.9760 14.9300 0.0000 39.9286 0.0001
# 6 0.0000 0.0001 0.0002 -17.6231 0.0001 18.4732
#
#
#
# Elastic Compliance Matrix: (Units=1/GPa)
#
#
# Indices 1 2 3 4 5 6 
#
# 1 0.023229 -0.002169 0.002039 0.000000 0.001872 0.000000
# 2 -0.002169 0.006526 -0.003488 0.000000 -0.001947 0.000000
# 3 0.002039 -0.003488 0.018484 0.000000 -0.005113 -0.000001
# 4 0.000000 0.000000 0.000000 0.200454 0.000000 0.191230
# 5 0.001872 -0.001947 -0.005113 0.000000 0.028011 0.000000
# 6 0.000000 0.000000 -0.000001 0.191230 0.000000 0.236563
#
#
# Mechanical properties :
#
#
# Convention : Reuss Voigt Hill
#
# Bulk Modulus (GPa) = 24.38914 43.21330 33.80122
# Shear Modulus (GPa) = 9.36029 32.49160 20.92595
#
# Velocity S-wave (km/s) = 2.14799 4.00196 3.21166
# Velocity P-wave (km/s) = 4.26305 6.53106 5.51491
#
# Compressibility (1/GPa) = 0.04100185
#
# Stress axis : x y z
#
# Youngs Moduli (GPa) = 43.04909 153.23350 54.10149
#
# Poissons Ratio (x) = 0.33234 -0.11030
# Poissons Ratio (y) = 0.09337 0.18873
# Poissons Ratio (z) = -0.08776 0.53455
#
# Static dielectric constant tensor:
#      x y z
#    x 1.709030 0.000000 -0.009380 
#    y 0.000000 1.732870 0.000000 
#    z -0.009380 0.000000 1.737330 
# 
# From -- ./inp_files/314568.got.cif
#   From: 2010.05.17/outbox.cif.g08.bks.cpg/sg12_158_cif.got.tgz:314568.got - 2010.06.03 13:09:07.
