data_PCOD9175309
_publ_section_title
;
Structure prediction by ZEFSAII (Michael W. Deem and Ramdas Pophale) SiO2 
 PCOD9175309
Probable space group: C 2/M
;
_chemical_formula_sum "Si O2"
_cell_formula_units_Z 48
_cell_length_a 20.314945
_cell_length_b 12.363163
_cell_length_c 23.318318
_cell_angle_alpha 90.000000
_cell_angle_beta 28.003116
_cell_angle_gamma 90.000000
_cell_volume 2749.768771
_symmetry_space_group_name_H-M "C 2/M"
_symmetry_group_IT_number 12
_symmetry_cell_setting 'monoclinic'
loop_
_space_group_symop_operation_xyz
x,y,z
-x,y,-z
-x,-y,-z
x,-y,z
1/2+x,1/2+y,z
1/2-x,1/2+y,-z
1/2-x,1/2-y,-z
1/2+x,1/2-y,z
loop_
_atom_site_type_symbol
_atom_site_label
_atom_site_fract_x
_atom_site_fract_y
_atom_site_fract_z
Si Si1 0.721431 0.627167 0.261054
Si Si2 0.689066 0.000000 0.183058
Si Si3 0.954673 0.698980 0.174274
Si Si4 0.636718 0.283803 0.934439
Si Si5 0.872014 0.500000 0.435567
Si Si6 0.000000 0.260654 0.500000
Si Si7 0.748832 0.878022 0.375296
Si Si8 0.988692 0.500000 0.787597
O O1 0.702749 0.500000 0.266811
O O2 0.841911 0.647768 0.216395
O O3 0.775080 0.688651 0.163366
O O4 0.582582 0.684896 0.391727
O O5 0.773533 0.892654 0.132929
O O6 0.534856 0.000000 0.330723
O O7 0.648444 0.000000 0.146978
O O8 0.874221 0.795414 0.268699
O O9 0.001750 0.605930 0.181134
O O10 0.079831 0.747024 0.039832
O O11 0.500000 0.302458 0.000000
O O12 0.885816 0.500000 0.356664
O O13 0.796256 0.398425 0.523945
O O14 0.884099 0.332811 0.557260
O O15 0.783409 0.000000 0.327654
#
# Coordination Sequence:
#
# PCOD9175309 Si02
#       8
#     8   4   8   8   4   4   8   4
#     4  10  20  35  58  88 118 148 186 237 284 342
#     4  10  21  39  56  83 115 150 187 233 292 330
#     4  10  21  36  60  83 110 157 197 227 282 334
#     4  10  22  36  61  88 115 147 183 245 286 343
#     4   8  20  35  55  79 106 152 181 237 277 323
#     4  10  18  32  58  88 120 148 180 232 294 348
#     4   9  19  35  56  84 114 146 187 235 289 335
#     4  10  22  39  58  79 114 158 196 233 267 347
#
# _framework density 17.456012999999999
#
# number of rings (size 3 to 8) (size 9 to 14) (size 15 to 20)
#    1.000    1.333    0.833    1.750    2.333    2.333 
#    9.000    0.000    0.000    0.000    0.000    0.000 
#    0.000    0.000    0.000    0.000    0.000    0.000 
#
# Total GULP energy -133717.786220 kJ/mol
# GULP energy per Si atom -5571.574426 kJ/mol
# Density = 1.741628 g / cm^3
# Si number density = 17.456013 Si / 1000 Ang^3
#
#
#
# Elastic Constant Matrix: (Units=GPa)
#
#
# Indices 1 2 3 4 5 6 
#
# 1 31.0180 27.2520 15.1189 0.0002 13.8114 0.0000
# 2 27.2520 137.6341 43.7495 -0.0006 7.0641 0.0004
# 3 15.1189 43.7495 99.4760 -0.0011 20.7723 0.0008
# 4 0.0002 -0.0006 -0.0011 12.2871 0.0006 9.3089
# 5 13.8114 7.0641 20.7723 0.0006 24.8991 -0.0004
# 6 0.0000 0.0004 0.0008 9.3089 -0.0004 24.0524
#
#
#
# Elastic Compliance Matrix: (Units=1/GPa)
#
#
# Indices 1 2 3 4 5 6 
#
# 1 0.052019 -0.009541 0.002119 0.000001 -0.027916 -0.000001
# 2 -0.009541 0.010211 -0.004288 0.000000 0.005972 0.000000
# 3 0.002119 -0.004288 0.014057 0.000003 -0.011686 -0.000002
# 4 0.000001 0.000000 0.000003 0.115150 -0.000006 -0.044566
# 5 -0.027916 0.005972 -0.011686 -0.000006 0.063701 0.000004
# 6 -0.000001 0.000000 -0.000002 -0.044566 0.000004 0.058824
#
#
# Mechanical properties :
#
#
# Convention : Reuss Voigt Hill
#
# Bulk Modulus (GPa) = 18.91517 48.92986 33.92252
# Shear Modulus (GPa) = 14.08436 24.38157 19.23296
#
# Velocity S-wave (km/s) = 2.84359 3.74136 3.32293
# Velocity P-wave (km/s) = 4.65196 6.83776 5.84789
#
# Compressibility (1/GPa) = 0.05286761
#
# Stress axis : x y z
#
# Youngs Moduli (GPa) = 19.22384 97.93162 71.14067
#
# Poissons Ratio (x) = 0.93434 -0.15076
# Poissons Ratio (y) = 0.18341 0.30505
# Poissons Ratio (z) = -0.04074 0.41993
#
# Static dielectric constant tensor:
#      x y z
#    x 1.583450 0.000000 0.015020 
#    y 0.000000 1.560360 0.000000 
#    z 0.015020 0.000000 1.595250 
# 
# From -- ./inp_files/346786.got.cif
#   From: 2010.05.17/outbox.cif.g08.bks.cpg/sg12_174_cif.got.tgz:346786.got - 2010.06.03 13:09:07.
