data_PCOD9175573
_publ_section_title
;
Structure prediction by ZEFSAII (Michael W. Deem and Ramdas Pophale) SiO2 
 PCOD9175573
Probable space group: C 2/M
;
_chemical_formula_sum "Si O2"
_cell_formula_units_Z 48
_cell_length_a 9.030784
_cell_length_b 27.410300
_cell_length_c 14.419548
_cell_angle_alpha 90.000000
_cell_angle_beta 136.918702
_cell_angle_gamma 90.000000
_cell_volume 2438.002271
_symmetry_space_group_name_H-M "C 2/M"
_symmetry_group_IT_number 12
_symmetry_cell_setting 'monoclinic'
loop_
_space_group_symop_operation_xyz
x,y,z
-x,y,-z
-x,-y,-z
x,-y,z
1/2+x,1/2+y,z
1/2-x,1/2+y,-z
1/2-x,1/2-y,-z
1/2+x,1/2-y,z
loop_
_atom_site_type_symbol
_atom_site_label
_atom_site_fract_x
_atom_site_fract_y
_atom_site_fract_z
Si Si1 0.450643 0.114167 0.766424
Si Si2 0.770002 0.682372 0.423605
Si Si3 0.578023 0.946001 0.428966
Si Si4 0.473796 0.589521 0.313114
Si Si5 0.240450 0.287694 0.375229
Si Si6 0.205392 0.554923 0.023762
O O1 0.483202 0.093688 0.677192
O O2 0.231909 0.091799 0.712745
O O3 0.394241 0.171778 0.741909
O O4 0.646620 0.094566 0.919128
O O5 0.582365 0.642708 0.346328
O O6 0.827614 0.703494 0.550616
O O7 0.710646 0.730783 0.337586
O O8 0.000000 0.660513 0.500000
O O9 0.500000 0.940926 0.500000
O O10 0.837456 0.941945 0.555250
O O11 0.510435 0.000000 0.365991
O O12 0.402674 0.568951 0.180960
O O13 0.500000 0.297826 0.500000
O O14 0.229568 0.500000 0.997043
O O15 0.000000 0.554481 0.000000
#
# Coordination Sequence:
#
# PCOD9175573 Si02
#       6
#     8   8   8   8   8   8
#     4  11  20  36  59  83 109 144 193 234 277 333
#     4  10  20  32  55  84 118 145 178 233 287 334
#     4  11  23  36  54  82 112 140 183 239 289 336
#     4  11  20  36  57  84 111 147 190 230 281 332
#     4  10  18  33  54  86 113 144 187 231 281 334
#     4   9  20  36  56  81 112 148 187 235 284 330
#
# _framework density 19.68825
#
# number of rings (size 3 to 8) (size 9 to 14) (size 15 to 20)
#    0.000    1.667    3.333    2.000    0.000    2.667 
#    0.000    1.667    0.000    3.000    0.000    0.000 
#    0.000    0.000    0.000    0.000    0.000    0.000 
#
# Total GULP energy -133716.168296 kJ/mol
# GULP energy per Si atom -5571.507012 kJ/mol
# Density = 1.964344 g / cm^3
# Si number density = 19.688250 Si / 1000 Ang^3
#
#
#
# Elastic Constant Matrix: (Units=GPa)
#
#
# Indices 1 2 3 4 5 6 
#
# 1 55.5272 -8.1752 -11.2306 0.0000 -8.9148 0.0000
# 2 -8.1752 126.5855 12.3553 0.0000 -10.8802 0.0000
# 3 -11.2306 12.3553 52.7289 0.0000 -17.9618 0.0000
# 4 0.0000 0.0000 0.0000 19.0664 0.0000 -9.6436
# 5 -8.9148 -10.8802 -17.9618 0.0000 14.4202 0.0000
# 6 0.0000 0.0000 0.0000 -9.6436 0.0000 8.1881
#
#
#
# Elastic Compliance Matrix: (Units=1/GPa)
#
#
# Indices 1 2 3 4 5 6 
#
# 1 0.031769 0.004237 0.023542 0.000000 0.052160 0.000000
# 2 0.004237 0.009016 0.003473 0.000000 0.013748 0.000000
# 3 0.023542 0.003473 0.050401 0.000000 0.079954 0.000000
# 4 0.000000 0.000000 0.000000 0.129726 0.000000 0.152785
# 5 0.052160 0.013748 0.079954 0.000000 0.211557 0.000000
# 6 0.000000 0.000000 0.000000 0.152785 0.000000 0.302072
#
#
# Mechanical properties :
#
#
# Convention : Reuss Voigt Hill
#
# Bulk Modulus (GPa) = 6.50664 24.52673 15.51668
# Shear Modulus (GPa) = 6.91308 24.46109 15.68709
#
# Velocity S-wave (km/s) = 1.87587 3.52862 2.82578
# Velocity P-wave (km/s) = 2.82911 5.39316 4.30639
#
# Compressibility (1/GPa) = 0.15368923
#
# Stress axis : x y z
#
# Youngs Moduli (GPa) = 31.47769 110.91226 19.84087
#
# Poissons Ratio (x) = -0.46995 -0.46708
# Poissons Ratio (y) = -0.13338 -0.06891
# Poissons Ratio (z) = -0.74103 -0.38521
#
# Static dielectric constant tensor:
#      x y z
#    x 1.752260 0.000000 -0.003750 
#    y 0.000000 1.798050 0.000000 
#    z -0.003750 0.000000 1.666270 
# 
# From -- ./inp_files/201067.got.cif
#   From: 2010.05.17/outbox.cif.g08.bks.cpg/sg12_101_cif.got.tgz:201067.got - 2010.06.03 13:09:07.
