data_PCOD9175260
_publ_section_title
;
Structure prediction by ZEFSAII (Michael W. Deem and Ramdas Pophale) SiO2 
 PCOD9175260
Probable space group: C 2/M
;
_chemical_formula_sum "Si O2"
_cell_formula_units_Z 56
_cell_length_a 11.443185
_cell_length_b 28.467154
_cell_length_c 9.766641
_cell_angle_alpha 90.000000
_cell_angle_beta 133.384049
_cell_angle_gamma 90.000000
_cell_volume 2312.228510
_symmetry_space_group_name_H-M "C 2/M"
_symmetry_group_IT_number 12
_symmetry_cell_setting 'monoclinic'
loop_
_space_group_symop_operation_xyz
x,y,z
-x,y,-z
-x,-y,-z
x,-y,z
1/2+x,1/2+y,z
1/2-x,1/2+y,-z
1/2-x,1/2-y,-z
1/2+x,1/2-y,z
loop_
_atom_site_type_symbol
_atom_site_label
_atom_site_fract_x
_atom_site_fract_y
_atom_site_fract_z
Si Si1 0.575675 0.551323 0.822991
Si Si2 0.166025 0.550828 0.744347
Si Si3 0.357783 0.621252 0.770453
Si Si4 0.850814 0.770059 0.270632
Si Si5 0.182328 0.124177 0.698520
Si Si6 0.127463 0.225236 0.296305
Si Si7 0.592080 0.051723 0.221093
O O1 0.561086 0.500000 0.748716
O O2 0.411964 0.577197 0.722672
O O3 0.679631 0.587291 0.819760
O O4 0.667567 0.547206 0.039300
O O5 0.156233 0.500000 0.661134
O O6 0.189772 0.601281 0.692343
O O7 0.028904 0.552337 0.748586
O O8 0.356237 0.668989 0.684058
O O9 0.500000 0.629422 0.000000
O O10 0.784049 0.823275 0.226120
O O11 0.703946 0.738657 0.209926
O O12 0.000000 0.766464 0.500000
O O13 0.947175 0.761970 0.205117
O O14 0.302875 0.098894 0.692383
O O15 0.000000 0.124374 0.500000
O O16 0.250000 0.250000 0.500000
O O17 0.675408 0.000000 0.292613
O O18 0.500000 0.052172 0.000000
#
# Coordination Sequence:
#
# PCOD9175260 Si02
#       7
#     8   8   8   8   8   8   8
#     4  10  18  32  57  86 120 156 192 236 294 358
#     4   9  18  33  56  87 123 161 196 237 296 367
#     4  10  20  35  59  88 119 148 199 254 301 354
#     4   9  20  37  59  83 110 146 202 251 301 364
#     4  11  21  34  55  85 118 152 200 249 295 357
#     4  10  20  39  62  82 109 154 196 249 306 368
#     4  10  19  33  53  80 120 163 199 239 296 364
#
# _framework density 24.219059000000001
#
# number of rings (size 3 to 8) (size 9 to 14) (size 15 to 20)
#    0.000    2.143    2.857    0.857    0.000    4.000 
#    0.000    2.857    0.000    0.000    0.000    3.000 
#    0.000    0.000    0.000    0.000    0.000    0.429 
#
# Total GULP energy -156183.303629 kJ/mol
# GULP energy per Si atom -5577.975130 kJ/mol
# Density = 2.416394 g / cm^3
# Si number density = 24.219059 Si / 1000 Ang^3
#
#
#
# Elastic Constant Matrix: (Units=GPa)
#
#
# Indices 1 2 3 4 5 6 
#
# 1 167.2449 44.6804 -0.4569 0.0000 21.0947 0.0000
# 2 44.6804 93.2237 2.4775 0.0000 18.9971 0.0000
# 3 -0.4569 2.4775 56.5683 0.0000 -4.8930 0.0000
# 4 0.0000 0.0000 0.0000 22.5533 0.0000 -6.7129
# 5 21.0947 18.9971 -4.8930 0.0000 22.0424 0.0000
# 6 0.0000 0.0000 0.0000 -6.7129 0.0000 46.3941
#
#
#
# Elastic Compliance Matrix: (Units=1/GPa)
#
#
# Indices 1 2 3 4 5 6 
#
# 1 0.007254 -0.002479 -0.000253 0.000000 -0.004862 0.000000
# 2 -0.002479 0.013998 -0.001500 0.000000 -0.010024 0.000000
# 3 -0.000253 -0.001500 0.018224 0.000000 0.005581 0.000000
# 4 0.000000 0.000000 0.000000 0.046335 0.000000 0.006704
# 5 -0.004862 -0.010024 0.005581 0.000000 0.059898 0.000000
# 6 0.000000 0.000000 0.000000 0.006704 0.000000 0.022525
#
#
# Mechanical properties :
#
#
# Convention : Reuss Voigt Hill
#
# Bulk Modulus (GPa) = 32.24724 45.60431 38.92578
# Shear Modulus (GPa) = 26.73282 36.22034 31.47658
#
# Velocity S-wave (km/s) = 3.32594 3.87140 3.60899
# Velocity P-wave (km/s) = 5.30027 6.23334 5.78565
#
# Compressibility (1/GPa) = 0.03101040
#
# Stress axis : x y z
#
# Youngs Moduli (GPa) = 137.85228 71.43992 54.87232
#
# Poissons Ratio (x) = 0.17712 0.01390
# Poissons Ratio (y) = 0.34178 0.08232
# Poissons Ratio (z) = 0.03493 0.10717
#
# Static dielectric constant tensor:
#      x y z
#    x 2.098980 0.000000 -0.028220 
#    y 0.000000 1.931160 0.000000 
#    z -0.028220 0.000000 2.010360 
# 
# From -- ./inp_files/137007.got.cif
#   From: 2010.05.17/outbox.cif.g08.bks.cpg/sg12_69_cif.got.tgz:137007.got - 2010.06.03 13:09:07.
