data_PCOD9175513
_publ_section_title
;
Structure prediction by ZEFSAII (Michael W. Deem and Ramdas Pophale) SiO2 
 PCOD9175513
Probable space group: C 2/M
;
_chemical_formula_sum "Si O2"
_cell_formula_units_Z 58
_cell_length_a 12.340134
_cell_length_b 26.687489
_cell_length_c 8.861439
_cell_angle_alpha 90.000000
_cell_angle_beta 94.921144
_cell_angle_gamma 90.000000
_cell_volume 2907.555052
_symmetry_space_group_name_H-M "C 2/M"
_symmetry_group_IT_number 12
_symmetry_cell_setting 'monoclinic'
loop_
_space_group_symop_operation_xyz
x,y,z
-x,y,-z
-x,-y,-z
x,-y,z
1/2+x,1/2+y,z
1/2-x,1/2+y,-z
1/2-x,1/2-y,-z
1/2+x,1/2-y,z
loop_
_atom_site_type_symbol
_atom_site_label
_atom_site_fract_x
_atom_site_fract_y
_atom_site_fract_z
Si Si1 0.000000 0.500000 0.500000
Si Si2 0.858299 0.786902 0.836413
Si Si3 0.551640 0.334474 0.658469
Si Si4 0.953053 0.422162 0.760440
Si Si5 0.172182 0.442711 0.951191
Si Si6 0.146151 0.726551 0.622461
Si Si7 0.879564 0.876499 0.046634
Si Si8 0.585856 0.808737 0.292420
O O1 0.955970 0.456319 0.613448
O O2 0.746494 0.790931 0.733374
O O3 0.883424 0.727603 0.843091
O O4 0.952658 0.812269 0.746929
O O5 0.858149 0.819214 0.987833
O O6 0.500000 0.355658 0.500000
O O7 0.623340 0.286015 0.626785
O O8 0.614080 0.373257 0.771946
O O9 0.904144 0.367171 0.730096
O O10 0.078742 0.419448 0.833112
O O11 0.883445 0.444081 0.890591
O O12 0.191820 0.500000 0.902948
O O13 0.283060 0.411100 0.973912
O O14 0.150143 0.710243 0.448438
O O15 0.038735 0.701927 0.679999
O O16 0.000000 0.891181 0.000000
#
# Coordination Sequence:
#
# PCOD9175513 Si02
#       8
#     2   8   8   8   8   8   8   8
#     4  12  20  42  72  96 130 158 214 272 308 404
#     4  10  20  36  56  84 128 167 215 253 301 383
#     4  10  20  37  54  80 123 167 207 258 318 369
#     4  11  23  40  67  99 128 165 205 268 336 387
#     4  11  23  48  67  90 129 165 212 277 342 377
#     4  10  18  33  53  82 125 176 202 249 306 372
#     4  10  24  41  63  93 120 174 224 265 315 378
#     4  10  20  34  54  94 128 167 214 247 313 390
#
# _framework density 19.948032000000001
#
# number of rings (size 3 to 8) (size 9 to 14) (size 15 to 20)
#    0.000    1.655    4.138    2.483    1.931    0.828 
#   12.414    1.379    0.000    0.414    0.000    0.000 
#    0.000    0.000    0.000    0.000    0.000    0.000 
#
# Total GULP energy -161714.743087 kJ/mol
# GULP energy per Si atom -5576.370451 kJ/mol
# Density = 1.990263 g / cm^3
# Si number density = 19.948032 Si / 1000 Ang^3
#
#
#
# Elastic Constant Matrix: (Units=GPa)
#
#
# Indices 1 2 3 4 5 6 
#
# 1 108.5098 14.8550 16.5175 0.0000 17.3316 0.0000
# 2 14.8550 71.5291 19.6699 0.0000 -0.7769 0.0000
# 3 16.5175 19.6699 62.8702 0.0000 7.6405 0.0000
# 4 0.0000 0.0000 0.0000 79.0052 0.0000 -53.2667
# 5 17.3316 -0.7769 7.6405 0.0000 23.6224 0.0000
# 6 0.0000 0.0000 0.0000 -53.2667 0.0000 30.6759
#
#
#
# Elastic Compliance Matrix: (Units=1/GPa)
#
#
# Indices 1 2 3 4 5 6 
#
# 1 0.010909 -0.001987 -0.001316 0.000000 -0.007644 0.000000
# 2 -0.001987 0.015762 -0.004840 0.000000 0.003542 0.000000
# 3 -0.001316 -0.004840 0.018391 0.000000 -0.005142 0.000000
# 4 0.000000 0.000000 0.000000 -0.074134 0.000000 -0.128729
# 5 -0.007644 0.003542 -0.005142 0.000000 0.049720 0.000000
# 6 0.000000 0.000000 0.000000 -0.128729 0.000000 -0.190930
#
#
# Mechanical properties :
#
#
# Convention : Reuss Voigt Hill
#
# Bulk Modulus (GPa) = 34.74954 38.33266 36.54110
# Shear Modulus (GPa) = -34.62476 39.45181 2.41353
#
# Velocity S-wave (km/s) = -4.17075 4.45199 1.10115
# Velocity P-wave (km/s) = 2.39493 6.75906 4.46930
#
# Compressibility (1/GPa) = 0.02877736
#
# Stress axis : x y z
#
# Youngs Moduli (GPa) = 91.66847 63.44235 54.37564
#
# Poissons Ratio (x) = 0.12605 0.07153
# Poissons Ratio (y) = 0.18213 0.26317
# Poissons Ratio (z) = 0.12059 0.30706
#
# Static dielectric constant tensor:
#      x y z
#    x 1.730060 0.000000 -0.000160 
#    y 0.000000 1.708760 0.000000 
#    z -0.000160 0.000000 1.742360 
# 
# From -- ./inp_files/53255.got.cif
#   From: 2010.05.17/outbox.cif.g08.bks.cpg/sg12_27_cif.got.tgz:53255.got - 2010.06.03 13:09:07.
