data_PCOD9175448
_publ_section_title
;
Structure prediction by ZEFSAII (Michael W. Deem and Ramdas Pophale) SiO2 
 PCOD9175448
Probable space group: C 2/M
;
_chemical_formula_sum "Si O2"
_cell_formula_units_Z 64
_cell_length_a 22.635958
_cell_length_b 13.305085
_cell_length_c 18.968178
_cell_angle_alpha 90.000000
_cell_angle_beta 139.090999
_cell_angle_gamma 90.000000
_cell_volume 3741.022441
_symmetry_space_group_name_H-M "C 2/M"
_symmetry_group_IT_number 12
_symmetry_cell_setting 'monoclinic'
loop_
_space_group_symop_operation_xyz
x,y,z
-x,y,-z
-x,-y,-z
x,-y,z
1/2+x,1/2+y,z
1/2-x,1/2+y,-z
1/2-x,1/2-y,-z
1/2+x,1/2-y,z
loop_
_atom_site_type_symbol
_atom_site_label
_atom_site_fract_x
_atom_site_fract_y
_atom_site_fract_z
Si Si1 0.320083 0.117143 0.558815
Si Si2 0.482898 0.380397 0.298767
Si Si3 0.535133 0.887501 0.110319
Si Si4 0.241644 0.382652 0.257784
Si Si5 0.502538 0.793612 0.788628
Si Si6 0.219811 0.813727 0.861791
Si Si7 0.168100 0.802527 0.525956
Si Si8 0.310169 0.114648 0.086871
O O1 0.409056 0.156264 0.679700
O O2 0.234411 0.136000 0.532657
O O3 0.316229 0.188494 0.486597
O O4 0.327156 0.000000 0.549125
O O5 0.487916 0.500000 0.297257
O O6 0.493076 0.320108 0.234426
O O7 0.384871 0.347282 0.238330
O O8 0.566025 0.338240 0.419739
O O9 0.642479 0.879283 0.202470
O O10 0.493125 0.806799 0.124187
O O11 0.511704 0.000000 0.116047
O O12 0.500000 0.879457 0.000000
O O13 0.269020 0.500000 0.278397
O O14 0.237999 0.339420 0.175529
O O15 0.304965 0.324048 0.369559
O O16 0.585760 0.853825 0.830162
O O17 0.227311 0.697327 0.892275
O O18 0.262803 0.871194 0.967715
O O19 0.300843 0.000000 0.101222
#
# Coordination Sequence:
#
# PCOD9175448 Si02
#       8
#     8   8   8   8   8   8   8   8
#     4  10  18  33  52  74 104 133 167 211 253 301
#     4  10  20  35  52  73 101 136 174 210 247 291
#     4  10  19  30  48  75 104 130 157 202 263 310
#     4  11  20  33  51  73 106 137 165 210 258 302
#     4  10  19  31  54  80 100 127 168 211 256 310
#     4  10  22  35  52  77 103 136 176 209 250 306
#     4  10  21  32  50  77 102 134 173 206 251 306
#     4  10  19  35  56  77 101 132 172 217 255 296
#
# _framework density 17.107623
#
# number of rings (size 3 to 8) (size 9 to 14) (size 15 to 20)
#    0.000    1.875    1.250    4.125    0.000    1.500 
#    0.000    1.875    0.000    1.125    0.000    5.250 
#    0.000    0.000    0.000    0.000    0.000    0.000 
#
# Total GULP energy -178517.952105 kJ/mol
# GULP energy per Si atom -5578.686003 kJ/mol
# Density = 1.706869 g / cm^3
# Si number density = 17.107623 Si / 1000 Ang^3
#
#
#
# Elastic Constant Matrix: (Units=GPa)
#
#
# Indices 1 2 3 4 5 6 
#
# 1 24.5530 10.6692 -6.7400 0.0000 -12.8156 0.0000
# 2 10.6692 114.0510 3.1450 0.0000 -16.5696 0.0000
# 3 -6.7400 3.1450 46.3816 0.0000 -2.6456 0.0000
# 4 0.0000 0.0000 0.0000 18.5444 0.0000 0.0145
# 5 -12.8156 -16.5696 -2.6456 0.0000 34.7590 0.0000
# 6 0.0000 0.0000 0.0000 0.0145 0.0000 14.1412
#
#
#
# Elastic Compliance Matrix: (Units=1/GPa)
#
#
# Indices 1 2 3 4 5 6 
#
# 1 0.054600 -0.002509 0.009225 0.000000 0.019637 0.000000
# 2 -0.002509 0.009543 -0.000808 0.000000 0.003562 0.000000
# 3 0.009225 -0.000808 0.023228 0.000000 0.004784 0.000000
# 4 0.000000 0.000000 0.000000 0.053925 0.000000 -0.000055
# 5 0.019637 0.003562 0.004784 0.000000 0.038072 0.000000
# 6 0.000000 0.000000 0.000000 -0.000055 0.000000 0.070715
#
#
# Mechanical properties :
#
#
# Convention : Reuss Voigt Hill
#
# Bulk Modulus (GPa) = 10.08216 22.12602 16.10409
# Shear Modulus (GPa) = 18.42766 25.34969 21.88867
#
# Velocity S-wave (km/s) = 3.28557 3.85356 3.58085
# Velocity P-wave (km/s) = 4.50550 5.72376 5.15077
#
# Compressibility (1/GPa) = 0.09918506
#
# Stress axis : x y z
#
# Youngs Moduli (GPa) = 18.31490 104.79364 43.05067
#
# Poissons Ratio (x) = 0.26295 -0.39712
# Poissons Ratio (y) = 0.04596 0.03481
# Poissons Ratio (z) = -0.16895 0.08473
#
# Static dielectric constant tensor:
#      x y z
#    x 1.575260 0.000000 0.023300 
#    y 0.000000 1.575210 0.000000 
#    z 0.023300 0.000000 1.604820 
# 
# From -- ./inp_files/283308.got.cif
#   From: 2010.05.17/outbox.cif.g08.bks.cpg/sg12_142_cif.got.tgz:283308.got - 2010.06.03 13:09:07.
