data_PCOD9175726
_publ_section_title
;
Structure prediction by ZEFSAII (Michael W. Deem and Ramdas Pophale) SiO2 
 PCOD9175726
Probable space group: C 2/M
;
_chemical_formula_sum "Si O2"
_cell_formula_units_Z 40
_cell_length_a 8.193118
_cell_length_b 27.880724
_cell_length_c 9.130952
_cell_angle_alpha 90.000000
_cell_angle_beta 109.867253
_cell_angle_gamma 90.000000
_cell_volume 1961.643315
_symmetry_space_group_name_H-M "C 2/M"
_symmetry_group_IT_number 12
_symmetry_cell_setting 'monoclinic'
loop_
_space_group_symop_operation_xyz
x,y,z
-x,y,-z
-x,-y,-z
x,-y,z
1/2+x,1/2+y,z
1/2-x,1/2+y,-z
1/2-x,1/2-y,-z
1/2+x,1/2-y,z
loop_
_atom_site_type_symbol
_atom_site_label
_atom_site_fract_x
_atom_site_fract_y
_atom_site_fract_z
Si Si1 0.908984 0.403738 0.669750
Si Si2 0.959251 0.297006 0.329765
Si Si3 0.751204 0.443448 0.317328
Si Si4 0.551447 0.705723 0.182924
Si Si5 0.434141 0.384161 0.310304
O O1 0.829424 0.429253 0.501230
O O2 0.759141 0.405686 0.745113
O O3 0.940550 0.347381 0.648257
O O4 0.099122 0.426253 0.748951
O O5 0.754310 0.306029 0.261458
O O6 0.000000 0.274372 0.500000
O O7 0.016198 0.259787 0.224120
O O8 0.726395 0.500000 0.301068
O O9 0.570153 0.415313 0.257997
O O10 0.442520 0.669274 0.249693
O O11 0.500000 0.699780 0.000000
O O12 0.500000 0.383285 0.500000
#
# Coordination Sequence:
#
# PCOD9175726 Si02
#       5
#     8   8   8   8   8
#     4  10  18  33  56  87 123 155 199 252 310 363
#     4  12  21  39  62  87 124 168 212 254 308 372
#     4  10  19  34  58  93 129 155 198 268 319 357
#     4  12  25  40  59  91 131 168 210 258 310 371
#     4  10  20  37  59  89 124 163 210 250 307 371
#
# _framework density 20.391067
#
# number of rings (size 3 to 8) (size 9 to 14) (size 15 to 20)
#    0.000    1.200    4.000    5.400    0.000    4.400 
#    0.000    0.000    0.000    0.600    0.000    1.400 
#    0.000    0.000    0.000    0.000    0.000    0.000 
#
# Total GULP energy -111715.818635 kJ/mol
# GULP energy per Si atom -5585.790932 kJ/mol
# Density = 2.034466 g / cm^3
# Si number density = 20.391067 Si / 1000 Ang^3
#
#
#
# Elastic Constant Matrix: (Units=GPa)
#
#
# Indices 1 2 3 4 5 6 
#
# 1 125.9775 12.1374 24.4429 0.0000 -6.6763 0.0000
# 2 12.1374 104.0271 1.7856 0.0000 -11.7064 0.0000
# 3 24.4429 1.7856 47.8206 0.0000 2.6164 0.0000
# 4 0.0000 0.0000 0.0000 -5.0919 0.0000 -10.3293
# 5 -6.6763 -11.7064 2.6164 0.0000 8.2049 0.0000
# 6 0.0000 0.0000 0.0000 -10.3293 0.0000 48.2767
#
#
#
# Elastic Compliance Matrix: (Units=1/GPa)
#
#
# Indices 1 2 3 4 5 6 
#
# 1 0.009477 0.000056 -0.005366 0.000000 0.009502 0.000000
# 2 0.000056 0.011537 -0.001387 0.000000 0.016948 0.000000
# 3 -0.005366 -0.001387 0.024480 0.000000 -0.014151 0.000000
# 4 0.000000 0.000000 0.000000 -0.136949 0.000000 -0.029302
# 5 0.009502 0.016948 -0.014151 0.000000 0.158303 0.000000
# 6 0.000000 0.000000 0.000000 -0.029302 0.000000 0.014445
#
#
# Mechanical properties :
#
#
# Convention : Reuss Voigt Hill
#
# Bulk Modulus (GPa) = 31.15174 39.39521 35.27348
# Shear Modulus (GPa) = 47.44379 26.24190 36.84284
#
# Velocity S-wave (km/s) = 4.82882 3.59127 4.25527
# Velocity P-wave (km/s) = 6.81177 6.04633 6.44043
#
# Compressibility (1/GPa) = 0.03210093
#
# Stress axis : x y z
#
# Youngs Moduli (GPa) = 105.51513 86.67451 40.84905
#
# Poissons Ratio (x) = -0.00482 0.21920
# Poissons Ratio (y) = -0.00587 0.05664
# Poissons Ratio (z) = 0.56621 0.12018
#
# Static dielectric constant tensor:
#      x y z
#    x 1.743640 0.000000 -0.006540 
#    y 0.000000 1.694390 0.000000 
#    z -0.006540 0.000000 1.683180 
# 
# From -- ./inp_files/40540.got.cif
#   From: 2010.05.17/outbox.cif.g08.bks.cpg/sg12_21_cif.got.tgz:40540.got - 2010.06.03 13:09:07.
