data_PCOD9175937
_publ_section_title
;
Structure prediction by ZEFSAII (Michael W. Deem and Ramdas Pophale) SiO2 
 PCOD9175937
Probable space group: C 2/M
;
_chemical_formula_sum "Si O2"
_cell_formula_units_Z 56
_cell_length_a 17.556675
_cell_length_b 25.784961
_cell_length_c 10.446019
_cell_angle_alpha 90.000000
_cell_angle_beta 145.725574
_cell_angle_gamma 90.000000
_cell_volume 2663.110887
_symmetry_space_group_name_H-M "C 2/M"
_symmetry_group_IT_number 12
_symmetry_cell_setting 'monoclinic'
loop_
_space_group_symop_operation_xyz
x,y,z
-x,y,-z
-x,-y,-z
x,-y,z
1/2+x,1/2+y,z
1/2-x,1/2+y,-z
1/2-x,1/2-y,-z
1/2+x,1/2-y,z
loop_
_atom_site_type_symbol
_atom_site_label
_atom_site_fract_x
_atom_site_fract_y
_atom_site_fract_z
Si Si1 0.717868 0.500000 0.283436
Si Si2 0.850878 0.695280 0.445410
Si Si3 0.666858 0.833580 0.860434
Si Si4 0.838812 0.083812 0.427798
Si Si5 0.357155 0.940920 0.065121
Si Si6 0.643559 0.301557 0.639187
Si Si7 0.999098 0.000000 0.782337
Si Si8 0.352089 0.093864 0.597116
O O1 0.605334 0.500000 0.241715
O O2 0.802258 0.551935 0.423849
O O3 0.644994 0.500000 0.046755
O O4 0.788822 0.682405 0.219541
O O5 0.818907 0.756339 0.409357
O O6 0.812760 0.651620 0.495773
O O7 0.013039 0.686035 0.663545
O O8 0.666489 0.896133 0.864224
O O9 0.753581 0.810893 0.099095
O O10 0.874137 0.143131 0.451682
O O11 0.724616 0.081687 0.378850
O O12 0.963641 0.050115 0.649834
O O13 0.770427 0.060696 0.206593
O O14 0.488238 0.917707 0.171726
O O15 0.382616 0.000000 0.141029
O O16 0.500000 0.286190 0.500000
#
# Coordination Sequence:
#
# PCOD9175937 Si02
#       8
#     4   8   8   8   8   8   4   8
#     4   9  18  33  51  76 111 152 178 203 256 337
#     4  10  20  37  58  79 111 144 176 230 273 318
#     4   9  20  37  55  84 107 139 185 226 262 319
#     4  10  21  35  57  83 111 141 180 229 266 326
#     4  10  18  33  60  86 111 140 174 223 276 322
#     4  11  22  37  60  79 102 149 189 221 273 322
#     4   9  18  35  52  73 113 147 178 213 258 315
#     4  10  20  34  55  87 111 140 181 218 280 324
#
# _framework density 21.028039
#
# number of rings (size 3 to 8) (size 9 to 14) (size 15 to 20)
#    0.000    2.143    2.857    0.857    0.000    2.286 
#    1.286    1.786    0.000    0.000    0.000    0.000 
#    0.000    0.000    0.000    0.000    0.000    0.000 
#
# Total GULP energy -156252.191750 kJ/mol
# GULP energy per Si atom -5580.435420 kJ/mol
# Density = 2.098018 g / cm^3
# Si number density = 21.028039 Si / 1000 Ang^3
#
#
#
# Elastic Constant Matrix: (Units=GPa)
#
#
# Indices 1 2 3 4 5 6 
#
# 1 16.1605 -1.9769 -2.4387 0.0000 1.9164 0.0000
# 2 -1.9769 175.1643 41.8352 0.0000 -12.1371 0.0000
# 3 -2.4387 41.8352 95.6855 0.0000 -11.0536 0.0000
# 4 0.0000 0.0000 0.0000 369.9432 0.0000 147.3869
# 5 1.9164 -12.1371 -11.0536 0.0000 9.5482 0.0000
# 6 0.0000 0.0000 0.0000 147.3869 0.0000 92.2349
#
#
#
# Elastic Compliance Matrix: (Units=1/GPa)
#
#
# Indices 1 2 3 4 5 6 
#
# 1 0.063398 -0.000225 0.000244 0.000000 -0.012728 0.000000
# 2 -0.000225 0.006649 -0.002229 0.000000 0.005916 0.000000
# 3 0.000244 -0.002229 0.012812 0.000000 0.011950 0.000000
# 4 0.000000 0.000000 0.000000 0.007439 0.000000 -0.011887
# 5 -0.012728 0.005916 0.011950 0.000000 0.128640 0.000000
# 6 0.000000 0.000000 0.000000 -0.011887 0.000000 0.029837
#
#
# Mechanical properties :
#
#
# Convention : Reuss Voigt Hill
#
# Bulk Modulus (GPa) = 12.74884 40.20549 26.47716
# Shear Modulus (GPa) = 17.89923 110.98464 64.44193
#
# Velocity S-wave (km/s) = 2.92071 7.27282 5.54186
# Velocity P-wave (km/s) = 4.17732 9.47031 7.31904
#
# Compressibility (1/GPa) = 0.07843849
#
# Stress axis : x y z
#
# Youngs Moduli (GPa) = 15.77337 150.40494 78.05060
#
# Poissons Ratio (x) = 0.03378 -0.01902
# Poissons Ratio (y) = 0.00354 0.17399
# Poissons Ratio (z) = -0.00384 0.33529
#
# Static dielectric constant tensor:
#      x y z
#    x 1.771810 0.000000 -0.000620 
#    y 0.000000 1.800890 0.000000 
#    z -0.000620 0.000000 1.731230 
# 
# From -- ./inp_files/178337.got.cif
#   From: 2010.05.17/outbox.cif.g08.bks.cpg/sg12_90_cif.got.tgz:178337.got - 2010.06.03 13:09:07.
