data_PCOD9175657
_publ_section_title
;
Structure prediction by ZEFSAII (Michael W. Deem and Ramdas Pophale) SiO2 
 PCOD9175657
Probable space group: C 2/M
;
_chemical_formula_sum "Si O2"
_cell_formula_units_Z 40
_cell_length_a 18.075523
_cell_length_b 16.363998
_cell_length_c 7.909005
_cell_angle_alpha 90.000000
_cell_angle_beta 128.661983
_cell_angle_gamma 90.000000
_cell_volume 1826.699155
_symmetry_space_group_name_H-M "C 2/M"
_symmetry_group_IT_number 12
_symmetry_cell_setting 'monoclinic'
loop_
_space_group_symop_operation_xyz
x,y,z
-x,y,-z
-x,-y,-z
x,-y,z
1/2+x,1/2+y,z
1/2-x,1/2+y,-z
1/2-x,1/2-y,-z
1/2+x,1/2-y,z
loop_
_atom_site_type_symbol
_atom_site_label
_atom_site_fract_x
_atom_site_fract_y
_atom_site_fract_z
Si Si1 0.884137 0.406137 0.170515
Si Si2 0.095682 0.862128 0.200879
Si Si3 0.553436 0.178183 0.246026
Si Si4 0.262413 0.868648 0.660292
Si Si5 0.248552 0.701535 0.819946
O O1 0.909137 0.500000 0.231503
O O2 0.827645 0.367305 0.245981
O O3 0.978343 0.352506 0.274946
O O4 0.813373 0.402273 0.902968
O O5 0.062233 0.776144 0.239781
O O6 0.168376 0.903503 0.436999
O O7 0.156923 0.838640 0.121260
O O8 0.000000 0.903999 0.000000
O O9 0.656323 0.138209 0.366620
O O10 0.500000 0.150433 0.000000
O O11 0.233048 0.776374 0.669890
O O12 0.250000 0.750000 0.000000
#
# Coordination Sequence:
#
# PCOD9175657 Si02
#       5
#     8   8   8   8   8
#     4  10  20  35  56  86 121 146 170 222 297 354
#     4  10  18  33  56  78 102 142 198 240 260 301
#     4   8  15  28  50  80 107 136 173 219 275 332
#     4   9  18  33  55  79 108 149 191 226 264 327
#     4   9  17  32  53  80 111 144 182 228 278 329
#
# _framework density 21.897421999999999
#
# number of rings (size 3 to 8) (size 9 to 14) (size 15 to 20)
#    0.000    2.800    0.000    6.000    0.000    3.600 
#    0.000   15.000    0.000   12.000    0.000    0.000 
#    0.000    0.000    0.000    0.000    0.000    0.000 
#
# Total GULP energy -111348.424691 kJ/mol
# GULP energy per Si atom -5567.421235 kJ/mol
# Density = 2.184758 g / cm^3
# Si number density = 21.897422 Si / 1000 Ang^3
#
#
#
# Elastic Constant Matrix: (Units=GPa)
#
#
# Indices 1 2 3 4 5 6 
#
# 1 160.6544 63.2054 51.8276 0.0000 1.0599 0.0000
# 2 63.2054 83.1812 8.0854 0.0000 5.0314 0.0000
# 3 51.8276 8.0854 149.4534 0.0000 19.7507 0.0000
# 4 0.0000 0.0000 0.0000 1.8452 0.0000 -4.9552
# 5 1.0599 5.0314 19.7507 0.0000 41.6558 0.0000
# 6 0.0000 0.0000 0.0000 -4.9552 0.0000 -3.5483
#
#
#
# Elastic Compliance Matrix: (Units=1/GPa)
#
#
# Indices 1 2 3 4 5 6 
#
# 1 0.010347 -0.007664 -0.003479 0.000000 0.002312 0.000000
# 2 -0.007664 0.017821 0.002083 0.000000 -0.002945 0.000000
# 3 -0.003479 0.002083 0.008328 0.000000 -0.004112 0.000000
# 4 0.000000 0.000000 0.000000 0.114087 0.000000 -0.159323
# 5 0.002312 -0.002945 -0.004112 0.000000 0.026253 0.000000
# 6 0.000000 0.000000 0.000000 -0.159323 0.000000 -0.059329
#
#
# Mechanical properties :
#
#
# Convention : Reuss Voigt Hill
#
# Bulk Modulus (GPa) = 54.41900 71.05843 62.73871
# Shear Modulus (GPa) = 35.27310 26.00192 30.63751
#
# Velocity S-wave (km/s) = 4.01787 3.44967 3.74456
# Velocity P-wave (km/s) = 6.81397 6.95615 6.88542
#
# Compressibility (1/GPa) = 0.01837593
#
# Stress axis : x y z
#
# Youngs Moduli (GPa) = 96.64955 56.11408 120.07402
#
# Poissons Ratio (x) = 0.43004 0.41773
# Poissons Ratio (y) = 0.74068 -0.25008
# Poissons Ratio (z) = 0.33624 -0.11687
#
# Static dielectric constant tensor:
#      x y z
#    x 1.786230 0.000000 0.028850 
#    y 0.000000 1.814600 0.000000 
#    z 0.028850 0.000000 1.971770 
# 
# From -- ./inp_files/62588.got.cif
#   From: 2010.05.17/outbox.cif.g08.bks.cpg/sg12_32_cif.got.tgz:62588.got - 2010.06.03 13:09:07.
