data_PCOD9175465
_publ_section_title
;
Structure prediction by ZEFSAII (Michael W. Deem and Ramdas Pophale) SiO2 
 PCOD9175465
Probable space group: C 2/M
;
_chemical_formula_sum "Si O2"
_cell_formula_units_Z 52
_cell_length_a 15.088479
_cell_length_b 29.525095
_cell_length_c 8.554318
_cell_angle_alpha 90.000000
_cell_angle_beta 44.137383
_cell_angle_gamma 90.000000
_cell_volume 2653.806124
_symmetry_space_group_name_H-M "C 2/M"
_symmetry_group_IT_number 12
_symmetry_cell_setting 'monoclinic'
loop_
_space_group_symop_operation_xyz
x,y,z
-x,y,-z
-x,-y,-z
x,-y,z
1/2+x,1/2+y,z
1/2-x,1/2+y,-z
1/2-x,1/2-y,-z
1/2+x,1/2-y,z
loop_
_atom_site_type_symbol
_atom_site_label
_atom_site_fract_x
_atom_site_fract_y
_atom_site_fract_z
Si Si1 0.154011 0.597233 0.808236
Si Si2 0.191834 0.182087 0.472660
Si Si3 0.257990 0.773247 0.717469
Si Si4 0.794544 0.600267 0.892702
Si Si5 0.000000 0.331056 0.500000
Si Si6 0.865324 0.500000 0.763010
Si Si7 0.066624 0.838050 0.084971
Si Si8 0.649275 0.000000 0.837574
O O1 0.215790 0.639120 0.641104
O O2 0.196029 0.546803 0.703026
O O3 0.204133 0.598913 0.921867
O O4 0.000000 0.600123 0.000000
O O5 0.203713 0.209437 0.619978
O O6 0.229371 0.219282 0.296590
O O7 0.046651 0.166148 0.648101
O O8 0.394417 0.797844 0.558908
O O9 0.154305 0.792933 0.968641
O O10 0.810779 0.550270 0.798063
O O11 0.912320 0.633974 0.707599
O O12 0.665848 0.622479 0.993502
O O13 0.000000 0.500000 0.500000
O O14 0.849735 0.500000 0.973793
O O15 0.000000 0.845028 0.000000
O O16 0.500000 0.000000 0.000000
#
# Coordination Sequence:
#
# PCOD9175465 Si02
#       8
#     8   8   8   8   4   4   8   4
#     4  10  20  34  56  82 109 139 182 229 276 333
#     4  10  20  36  55  77 107 151 182 215 283 332
#     4   9  20  34  54  77 106 141 185 231 266 325
#     4  10  20  34  56  81 110 141 182 229 277 324
#     4  10  18  33  52  78 106 135 176 230 280 308
#     4  10  18  34  58  86 108 146 187 236 281 334
#     4   9  20  38  53  74 111 145 180 227 269 328
#     4   8  18  36  51  80 117 135 174 237 280 322
#
# _framework density 19.5945
#
# number of rings (size 3 to 8) (size 9 to 14) (size 15 to 20)
#    0.000    2.462    0.769    0.923    0.000    6.154 
#    2.769    4.231    0.000    2.769    0.000    0.000 
#    0.000    0.000    0.000    0.000    0.000    0.000 
#
# Total GULP energy -144743.504760 kJ/mol
# GULP energy per Si atom -5567.057875 kJ/mol
# Density = 1.954990 g / cm^3
# Si number density = 19.594500 Si / 1000 Ang^3
#
#
#
# Elastic Constant Matrix: (Units=GPa)
#
#
# Indices 1 2 3 4 5 6 
#
# 1 50.6606 1.0033 5.1048 0.0000 -22.6222 0.0000
# 2 1.0033 146.7335 39.9076 0.0000 -20.8608 0.0000
# 3 5.1048 39.9076 54.2239 0.0000 -27.3684 0.0000
# 4 0.0000 0.0000 0.0000 6.7558 0.0000 4.7771
# 5 -22.6222 -20.8608 -27.3684 0.0000 25.9654 0.0000
# 6 0.0000 0.0000 0.0000 4.7771 0.0000 21.0202
#
#
#
# Elastic Compliance Matrix: (Units=1/GPa)
#
#
# Indices 1 2 3 4 5 6 
#
# 1 0.058892 0.001977 0.042094 0.000000 0.097266 0.000000
# 2 0.001977 0.008590 -0.004606 0.000000 0.003769 0.000000
# 3 0.042094 -0.004606 0.073744 0.000000 0.110702 0.000000
# 4 0.000000 0.000000 0.000000 0.176363 0.000000 -0.040081
# 5 0.097266 0.003769 0.110702 0.000000 0.242967 0.000000
# 6 0.000000 0.000000 0.000000 -0.040081 0.000000 0.056682
#
#
# Mechanical properties :
#
#
# Convention : Reuss Voigt Hill
#
# Bulk Modulus (GPa) = 4.54225 38.18324 21.36275
# Shear Modulus (GPa) = 8.17403 24.45508 16.31456
#
# Velocity S-wave (km/s) = 2.04466 3.53662 2.88863
# Velocity P-wave (km/s) = 2.81022 6.01714 4.69592
#
# Compressibility (1/GPa) = 0.22015529
#
# Stress axis : x y z
#
# Youngs Moduli (GPa) = 16.98028 116.41345 13.56047
#
# Poissons Ratio (x) = -0.23015 -0.57081
# Poissons Ratio (y) = -0.03357 0.06246
# Poissons Ratio (z) = -0.71476 0.53619
#
# Static dielectric constant tensor:
#      x y z
#    x 1.707550 0.000000 0.040730 
#    y 0.000000 1.741280 0.000000 
#    z 0.040730 0.000000 1.708890 
# 
# From -- ./inp_files/68562.got.cif
#   From: 2010.05.17/outbox.cif.g08.bks.cpg/sg12_35_cif.got.tgz:68562.got - 2010.06.03 13:09:07.
