data_PCOD9175484
_publ_section_title
;
Structure prediction by ZEFSAII (Michael W. Deem and Ramdas Pophale) SiO2 
 PCOD9175484
Probable space group: C 2/M
;
_chemical_formula_sum "Si O2"
_cell_formula_units_Z 56
_cell_length_a 12.824200
_cell_length_b 23.956524
_cell_length_c 11.485296
_cell_angle_alpha 90.000000
_cell_angle_beta 90.000039
_cell_angle_gamma 90.000000
_cell_volume 3528.550023
_symmetry_space_group_name_H-M "C 2/M"
_symmetry_group_IT_number 12
_symmetry_cell_setting 'monoclinic'
loop_
_space_group_symop_operation_xyz
x,y,z
-x,y,-z
-x,-y,-z
x,-y,z
1/2+x,1/2+y,z
1/2-x,1/2+y,-z
1/2-x,1/2-y,-z
1/2+x,1/2-y,z
loop_
_atom_site_type_symbol
_atom_site_label
_atom_site_fract_x
_atom_site_fract_y
_atom_site_fract_z
Si Si1 0.875357 0.671953 0.632505
Si Si2 0.376082 0.318921 0.999999
Si Si3 0.749999 0.750000 0.807283
Si Si4 0.124640 0.328047 0.632507
Si Si5 0.878336 0.563516 0.774447
Si Si6 0.621660 0.063516 0.774450
Si Si7 0.732226 0.564458 0.000000
O O1 0.821227 0.712359 0.724269
O O2 0.839176 0.680385 0.499998
O O3 0.855154 0.609044 0.676628
O O4 0.999999 0.680438 0.635133
O O5 0.321127 0.289146 0.110453
O O6 0.349394 0.384903 0.999998
O O7 0.500000 0.309885 0.000000
O O8 0.321128 0.289145 0.889545
O O9 0.678769 0.787641 0.724273
O O10 0.144844 0.390957 0.676630
O O11 0.865776 0.500000 0.732475
O O12 0.805307 0.571141 0.886416
O O13 0.999998 0.570551 0.809398
O O14 0.634221 0.000000 0.732477
O O15 0.694688 0.071141 0.886419
O O16 0.692439 0.500000 0.000002
#
# Coordination Sequence:
#
# PCOD9175484 Si02
#       7
#     8   8   8   8   8   8   8
#     4  10  20  33  52  77 103 135 172 205 243 297
#     4  11  23  36  54  78  99 129 172 214 258 305
#     4  11  21  38  52  72 105 139 162 208 256 305
#     4  10  20  33  52  77 103 135 172 205 243 297
#     4   9  17  30  50  77 106 133 164 205 254 306
#     4   9  17  30  50  77 106 133 164 205 254 306
#     4  10  18  33  53  75 101 132 167 210 262 304
#
# _framework density 15.870542
#
# number of rings (size 3 to 8) (size 9 to 14) (size 15 to 20)
#    0.000    2.000    2.857    1.714    0.000    2.571 
#    0.000    2.857    0.000    0.000    0.000    0.000 
#    0.000    4.571    0.000    0.000    0.000    0.000 
#
# Total GULP energy -156120.136563 kJ/mol
# GULP energy per Si atom -5575.719163 kJ/mol
# Density = 1.583442 g / cm^3
# Si number density = 15.870542 Si / 1000 Ang^3
#
#
#
# Elastic Constant Matrix: (Units=GPa)
#
#
# Indices 1 2 3 4 5 6 
#
# 1 58.3397 48.9169 45.2794 0.0000 -0.0017 0.0000
# 2 48.9169 109.1958 63.9207 0.0000 -0.0017 0.0000
# 3 45.2794 63.9207 122.5894 0.0000 -0.0030 0.0000
# 4 0.0000 0.0000 0.0000 10.6038 0.0000 -0.0012
# 5 -0.0017 -0.0017 -0.0030 0.0000 22.0198 0.0000
# 6 0.0000 0.0000 0.0000 -0.0012 0.0000 26.4635
#
#
#
# Elastic Compliance Matrix: (Units=1/GPa)
#
#
# Indices 1 2 3 4 5 6 
#
# 1 0.030145 -0.010056 -0.005891 0.000000 0.000001 0.000000
# 2 -0.010056 0.016535 -0.004908 0.000000 0.000000 0.000000
# 3 -0.005891 -0.004908 0.012892 0.000000 0.000001 0.000000
# 4 0.000000 0.000000 0.000000 0.094306 0.000000 0.000004
# 5 0.000001 0.000000 0.000001 0.000000 0.045414 0.000000
# 6 0.000000 0.000000 0.000000 0.000004 0.000000 0.037788
#
#
# Mechanical properties :
#
#
# Convention : Reuss Voigt Hill
#
# Bulk Modulus (GPa) = 55.97990 67.37320 61.67655
# Shear Modulus (GPa) = 17.55969 20.61794 19.08882
#
# Velocity S-wave (km/s) = 3.32992 3.60826 3.47188
# Velocity P-wave (km/s) = 7.08053 7.73972 7.41745
#
# Compressibility (1/GPa) = 0.01786355
#
# Stress axis : x y z
#
# Youngs Moduli (GPa) = 33.17347 60.47630 77.56607
#
# Poissons Ratio (x) = 0.60812 0.45694
# Poissons Ratio (y) = 0.33358 0.38068
# Poissons Ratio (z) = 0.19542 0.29681
#
# Static dielectric constant tensor:
#      x y z
#    x 1.504640 0.000000 0.000000 
#    y 0.000000 1.541160 0.000000 
#    z 0.000000 0.000000 1.504910 
# 
# From -- ./inp_files/133220.got.cif
#   From: 2010.05.17/outbox.cif.g08.bks.cpg/sg12_67_cif.got.tgz:133220.got - 2010.06.03 13:09:07.
