data_PCOD9175386
_publ_section_title
;
Structure prediction by ZEFSAII (Michael W. Deem and Ramdas Pophale) SiO2 
 PCOD9175386
Probable space group: C 2/M
;
_chemical_formula_sum "Si O2"
_cell_formula_units_Z 48
_cell_length_a 22.037813
_cell_length_b 17.899472
_cell_length_c 11.742309
_cell_angle_alpha 90.000000
_cell_angle_beta 149.208836
_cell_angle_gamma 90.000000
_cell_volume 2371.134365
_symmetry_space_group_name_H-M "C 2/M"
_symmetry_group_IT_number 12
_symmetry_cell_setting 'monoclinic'
loop_
_space_group_symop_operation_xyz
x,y,z
-x,y,-z
-x,-y,-z
x,-y,z
1/2+x,1/2+y,z
1/2-x,1/2+y,-z
1/2-x,1/2-y,-z
1/2+x,1/2-y,z
loop_
_atom_site_type_symbol
_atom_site_label
_atom_site_fract_x
_atom_site_fract_y
_atom_site_fract_z
Si Si1 0.631912 0.846449 0.372957
Si Si2 0.109675 0.303996 0.996835
Si Si3 0.684142 0.326438 0.526231
Si Si4 0.298484 0.082282 0.283593
Si Si5 0.951411 0.865796 0.049627
Si Si6 0.620894 0.786486 0.755605
O O1 0.495792 0.850287 0.117189
O O2 0.655231 0.760359 0.451393
O O3 0.725988 0.856618 0.424708
O O4 0.652862 0.899916 0.512554
O O5 0.096837 0.219952 0.025941
O O6 0.079703 0.307072 0.815801
O O7 0.242272 0.329326 0.239077
O O8 0.561329 0.368410 0.313135
O O9 0.343095 0.145411 0.268624
O O10 0.332483 0.000000 0.299016
O O11 0.157344 0.087623 0.077916
O O12 0.000000 0.881780 0.000000
O O13 0.500000 0.751848 0.500000
O O14 0.750000 0.750000 0.000000
#
# Coordination Sequence:
#
# PCOD9175386 Si02
#       6
#     8   8   8   8   8   8
#     4  10  18  35  56  93 125 157 205 257 321 376
#     4  11  20  34  63  93 126 154 212 273 321 369
#     4  10  18  32  63  93 127 152 201 274 328 368
#     4  12  25  42  61  92 133 174 215 255 314 393
#     4  11  20  36  61  98 128 159 204 263 330 384
#     4  12  25  43  68  98 126 166 224 276 321 370
#
# _framework density 20.243473999999999
#
# number of rings (size 3 to 8) (size 9 to 14) (size 15 to 20)
#    0.000    1.000    6.667    2.500    2.333    0.667 
#    0.000    0.000    0.000    8.500    0.000    0.000 
#    0.000    0.000    0.000    0.000    0.000    0.000 
#
# Total GULP energy -133764.558176 kJ/mol
# GULP energy per Si atom -5573.523257 kJ/mol
# Density = 2.019740 g / cm^3
# Si number density = 20.243474 Si / 1000 Ang^3
#
#
#
# Elastic Constant Matrix: (Units=GPa)
#
#
# Indices 1 2 3 4 5 6 
#
# 1 74.8853 4.1137 13.8290 0.0000 -3.3426 0.0000
# 2 4.1137 43.7643 8.1757 0.0000 5.1552 0.0000
# 3 13.8290 8.1757 162.0801 0.0000 8.1262 0.0000
# 4 0.0000 0.0000 0.0000 -3.9863 0.0000 -8.6025
# 5 -3.3426 5.1552 8.1262 0.0000 43.0054 0.0000
# 6 0.0000 0.0000 0.0000 -8.6025 0.0000 5.5268
#
#
#
# Elastic Compliance Matrix: (Units=1/GPa)
#
#
# Indices 1 2 3 4 5 6 
#
# 1 0.013704 -0.001237 -0.001179 0.000000 0.001436 0.000000
# 2 -0.001237 0.023463 -0.000941 0.000000 -0.002731 0.000000
# 3 -0.001179 -0.000941 0.006377 0.000000 -0.001184 0.000000
# 4 0.000000 0.000000 0.000000 -0.057550 0.000000 -0.089577
# 5 0.001436 -0.002731 -0.001184 0.000000 0.023916 0.000000
# 6 0.000000 0.000000 0.000000 -0.089577 0.000000 0.041509
#
#
# Mechanical properties :
#
#
# Convention : Reuss Voigt Hill
#
# Bulk Modulus (GPa) = 27.15156 36.99627 32.07392
# Shear Modulus (GPa) = 71.01327 25.88328 48.44828
#
# Velocity S-wave (km/s) = 5.92923 3.57963 4.89742
# Velocity P-wave (km/s) = 7.76633 5.94982 6.91796
#
# Compressibility (1/GPa) = 0.03683030
#
# Stress axis : x y z
#
# Youngs Moduli (GPa) = 72.97400 42.61949 156.80887
#
# Poissons Ratio (x) = 0.05272 0.18485
# Poissons Ratio (y) = 0.09027 0.14757
# Poissons Ratio (z) = 0.08602 0.04011
#
# Static dielectric constant tensor:
#      x y z
#    x 2.481070 0.000000 0.252750 
#    y 0.000000 1.739470 0.000000 
#    z 0.252750 0.000000 1.877110 
# 
# From -- ./inp_files/177428.got.cif
#   From: 2010.05.17/outbox.cif.g08.bks.cpg/sg12_89_cif.got.tgz:177428.got - 2010.06.03 13:09:07.
