data_PCOD9175350
_publ_section_title
;
Structure prediction by ZEFSAII (Michael W. Deem and Ramdas Pophale) SiO2 
 PCOD9175350
Probable space group: C 2/M
;
_chemical_formula_sum "Si O2"
_cell_formula_units_Z 56
_cell_length_a 10.643186
_cell_length_b 29.882282
_cell_length_c 9.991888
_cell_angle_alpha 90.000000
_cell_angle_beta 109.003750
_cell_angle_gamma 90.000000
_cell_volume 3004.645546
_symmetry_space_group_name_H-M "C 2/M"
_symmetry_group_IT_number 12
_symmetry_cell_setting 'monoclinic'
loop_
_space_group_symop_operation_xyz
x,y,z
-x,y,-z
-x,-y,-z
x,-y,z
1/2+x,1/2+y,z
1/2-x,1/2+y,-z
1/2-x,1/2-y,-z
1/2+x,1/2-y,z
loop_
_atom_site_type_symbol
_atom_site_label
_atom_site_fract_x
_atom_site_fract_y
_atom_site_fract_z
Si Si1 0.376529 0.550888 0.054355
Si Si2 0.480508 0.202740 0.151286
Si Si3 0.360841 0.211238 0.534544
Si Si4 0.232926 0.365954 0.934281
Si Si5 0.057336 0.049537 0.371864
Si Si6 0.163821 0.143805 0.327260
Si Si7 0.566617 0.300696 0.873005
O O1 0.341608 0.500000 0.008218
O O2 0.438454 0.552860 0.223050
O O3 0.500000 0.564261 0.000000
O O4 0.255432 0.584639 0.996265
O O5 0.600331 0.203585 0.297093
O O6 0.407202 0.155901 0.144059
O O7 0.402685 0.249468 0.156548
O O8 0.500000 0.205438 0.000000
O O9 0.500000 0.219583 0.500000
O O10 0.250000 0.250000 0.500000
O O11 0.283542 0.169889 0.439684
O O12 0.303882 0.364782 0.816108
O O13 0.306678 0.331960 0.061334
O O14 0.138921 0.095176 0.381733
O O15 0.000000 0.049110 0.500000
O O16 0.121139 0.000000 0.368878
O O17 0.033741 0.176099 0.267715
O O18 0.500000 0.299414 0.000000
#
# Coordination Sequence:
#
# PCOD9175350 Si02
#       7
#     8   8   8   8   8   8   8
#     4  10  18  32  59  91 117 147 198 254 307 371
#     4  11  24  40  59  84 123 168 212 258 309 381
#     4  12  26  44  63  91 129 171 218 267 318 381
#     4  11  19  34  61  87 120 155 205 257 311 371
#     4  10  21  36  56  91 132 163 200 262 326 378
#     4  11  20  37  61  85 124 162 206 259 318 370
#     4   9  18  33  55  89 116 153 198 251 303 360
#
# _framework density 18.637806000000001
#
# number of rings (size 3 to 8) (size 9 to 14) (size 15 to 20)
#    0.000    1.429    5.714    0.857    0.000    2.857 
#    0.000    0.000    0.000    1.714    0.000    0.000 
#    0.000    0.000    0.000    0.000    0.000    0.000 
#
# Total GULP energy -155997.459619 kJ/mol
# GULP energy per Si atom -5571.337844 kJ/mol
# Density = 1.859539 g / cm^3
# Si number density = 18.637806 Si / 1000 Ang^3
#
#
#
# Elastic Constant Matrix: (Units=GPa)
#
#
# Indices 1 2 3 4 5 6 
#
# 1 50.0208 49.6572 30.7634 0.0000 16.6751 0.0000
# 2 49.6572 152.1528 41.7657 0.0000 13.9720 0.0000
# 3 30.7634 41.7657 118.4320 0.0000 13.0197 0.0000
# 4 0.0000 0.0000 0.0000 28.2481 0.0000 6.9549
# 5 16.6751 13.9720 13.0197 0.0000 26.9546 0.0000
# 6 0.0000 0.0000 0.0000 6.9549 0.0000 31.9893
#
#
#
# Elastic Compliance Matrix: (Units=1/GPa)
#
#
# Indices 1 2 3 4 5 6 
#
# 1 0.037711 -0.009548 -0.004655 0.000000 -0.016132 0.000000
# 2 -0.009548 0.009882 -0.001152 0.000000 0.001341 0.000000
# 3 -0.004655 -0.001152 0.010220 0.000000 -0.001459 0.000000
# 4 0.000000 0.000000 0.000000 0.037403 0.000000 -0.008132
# 5 -0.016132 0.001341 -0.001459 0.000000 0.047089 0.000000
# 6 0.000000 0.000000 0.000000 -0.008132 0.000000 0.033028
#
#
# Mechanical properties :
#
#
# Convention : Reuss Voigt Hill
#
# Bulk Modulus (GPa) = 36.89827 62.77536 49.83681
# Shear Modulus (GPa) = 23.24746 30.66635 26.95691
#
# Velocity S-wave (km/s) = 3.53559 4.06073 3.80722
# Velocity P-wave (km/s) = 6.04216 7.46599 6.79149
#
# Compressibility (1/GPa) = 0.02710154
#
# Stress axis : x y z
#
# Youngs Moduli (GPa) = 26.51725 101.19752 97.85191
#
# Poissons Ratio (x) = 0.96628 0.45550
# Poissons Ratio (y) = 0.25320 0.11273
# Poissons Ratio (z) = 0.12344 0.11658
#
# Static dielectric constant tensor:
#      x y z
#    x 1.688090 0.000000 -0.018030 
#    y 0.000000 1.693560 0.000000 
#    z -0.018030 0.000000 1.640250 
# 
# From -- ./inp_files/54297.got.cif
#   From: 2010.05.17/outbox.cif.g08.bks.cpg/sg12_28_cif.got.tgz:54297.got - 2010.06.03 13:09:07.
