data_PCOD9175609
_publ_section_title
;
Structure prediction by ZEFSAII (Michael W. Deem and Ramdas Pophale) SiO2 
 PCOD9175609
Probable space group: C 2/M
;
_chemical_formula_sum "Si O2"
_cell_formula_units_Z 64
_cell_length_a 34.348337
_cell_length_b 7.978452
_cell_length_c 15.036908
_cell_angle_alpha 90.000000
_cell_angle_beta 44.246496
_cell_angle_gamma 90.000000
_cell_volume 2875.283392
_symmetry_space_group_name_H-M "C 2/M"
_symmetry_group_IT_number 12
_symmetry_cell_setting 'monoclinic'
loop_
_space_group_symop_operation_xyz
x,y,z
-x,y,-z
-x,-y,-z
x,-y,z
1/2+x,1/2+y,z
1/2-x,1/2+y,-z
1/2-x,1/2-y,-z
1/2+x,1/2-y,z
loop_
_atom_site_type_symbol
_atom_site_label
_atom_site_fract_x
_atom_site_fract_y
_atom_site_fract_z
Si Si1 0.989490 0.305229 0.365610
Si Si2 0.598744 0.296264 0.725463
Si Si3 0.314620 0.293590 0.054384
Si Si4 0.371447 0.305957 0.522082
Si Si5 0.476210 0.198000 0.891140
Si Si6 0.639115 0.305400 0.841297
Si Si7 0.398597 0.693884 0.769469
Si Si8 0.693231 0.192678 0.213404
O O1 0.974081 0.500000 0.387861
O O2 0.012965 0.254747 0.229591
O O3 0.042274 0.281260 0.343257
O O4 0.932018 0.207399 0.470778
O O5 0.597359 0.500000 0.728519
O O6 0.619564 0.244710 0.593625
O O7 0.535303 0.234792 0.840788
O O8 0.635853 0.234403 0.747236
O O9 0.314733 0.500000 0.053990
O O10 0.323088 0.233555 0.141447
O O11 0.256146 0.240925 0.107363
O O12 0.366281 0.237900 0.909310
O O13 0.354571 0.500000 0.547579
O O14 0.327284 0.204255 0.651462
O O15 0.464320 0.000000 0.915042
O O16 0.424066 0.293679 0.017653
O O17 0.654941 0.500000 0.806698
O O18 0.411869 0.500000 0.762249
O O19 0.352484 0.710625 0.768769
O O20 0.692560 0.000000 0.184739
#
# Coordination Sequence:
#
# PCOD9175609 Si02
#       8
#     8   8   8   8   8   8   8   8
#     4  10  20  35  56  85 117 150 181 224 280 333
#     4   9  19  33  54  79 108 147 188 226 268 322
#     4   9  20  37  59  84 113 146 185 228 276 330
#     4  10  21  39  58  81 112 149 192 234 272 323
#     4  10  19  30  48  79 118 149 177 220 275 328
#     4  10  18  33  55  80 109 146 187 224 268 328
#     4  11  21  37  61  88 113 143 182 229 279 334
#     4  11  23  40  59  81 109 148 189 232 282 332
#
# _framework density 22.258676000000001
#
# number of rings (size 3 to 8) (size 9 to 14) (size 15 to 20)
#    0.000    2.000    1.250    2.625    0.000    4.000 
#    0.000    6.250    0.000    0.000    0.000    0.000 
#    0.000    0.000    0.000    0.000    0.000    0.000 
#
# Total GULP energy -178782.656806 kJ/mol
# GULP energy per Si atom -5586.958025 kJ/mol
# Density = 2.220801 g / cm^3
# Si number density = 22.258676 Si / 1000 Ang^3
#
#
#
# Elastic Constant Matrix: (Units=GPa)
#
#
# Indices 1 2 3 4 5 6 
#
# 1 91.8059 -1.9234 8.6260 0.0000 9.4459 -0.0001
# 2 -1.9234 31.1998 -2.1684 0.0004 -3.1562 -0.0005
# 3 8.6260 -2.1684 43.9667 0.0001 -7.3189 -0.0001
# 4 0.0000 0.0004 0.0001 15.9440 -0.0001 3.0054
# 5 9.4459 -3.1562 -7.3189 -0.0001 17.5286 0.0001
# 6 -0.0001 -0.0005 -0.0001 3.0054 0.0001 14.1069
#
#
#
# Elastic Compliance Matrix: (Units=1/GPa)
#
#
# Indices 1 2 3 4 5 6 
#
# 1 0.012073 -0.000338 -0.003738 0.000000 -0.008128 0.000000
# 2 -0.000338 0.032975 0.002914 -0.000001 0.007336 0.000001
# 3 -0.003738 0.002914 0.025840 0.000000 0.013328 0.000000
# 4 0.000000 -0.000001 0.000000 0.065344 0.000000 -0.013921
# 5 -0.008128 0.007336 0.013328 0.000000 0.068316 0.000000
# 6 0.000000 0.000001 0.000000 -0.013921 0.000000 0.073853
#
#
# Mechanical properties :
#
#
# Convention : Reuss Voigt Hill
#
# Bulk Modulus (GPa) = 14.58488 19.56010 17.07249
# Shear Modulus (GPa) = 16.47013 20.34511 18.40762
#
# Velocity S-wave (km/s) = 2.72314 3.02657 2.87886
# Velocity P-wave (km/s) = 4.05635 4.58478 4.32864
#
# Compressibility (1/GPa) = 0.06856418
#
# Stress axis : x y z
#
# Youngs Moduli (GPa) = 82.82975 30.32573 38.69921
#
# Poissons Ratio (x) = 0.01024 0.14467
# Poissons Ratio (y) = 0.02798 -0.11276
# Poissons Ratio (z) = 0.30964 -0.08836
#
# Static dielectric constant tensor:
#      x y z
#    x 1.867350 0.000000 0.051730 
#    y 0.000000 1.768130 0.000000 
#    z 0.051730 0.000000 1.799680 
# 
# From -- ./inp_files/249798.got.cif
#   From: 2010.05.17/outbox.cif.g08.bks.cpg/sg12_125_cif.got.tgz:249798.got - 2010.06.03 13:09:07.
