data_PCOD9175769
_publ_section_title
;
Structure prediction by ZEFSAII (Michael W. Deem and Ramdas Pophale) SiO2 
 PCOD9175769
Probable space group: C 2/M
;
_chemical_formula_sum "Si O2"
_cell_formula_units_Z 48
_cell_length_a 25.993952
_cell_length_b 7.640367
_cell_length_c 24.898536
_cell_angle_alpha 90.000000
_cell_angle_beta 150.774936
_cell_angle_gamma 90.000000
_cell_volume 2414.320993
_symmetry_space_group_name_H-M "C 2/M"
_symmetry_group_IT_number 12
_symmetry_cell_setting 'monoclinic'
loop_
_space_group_symop_operation_xyz
x,y,z
-x,y,-z
-x,-y,-z
x,-y,z
1/2+x,1/2+y,z
1/2-x,1/2+y,-z
1/2-x,1/2-y,-z
1/2+x,1/2-y,z
loop_
_atom_site_type_symbol
_atom_site_label
_atom_site_fract_x
_atom_site_fract_y
_atom_site_fract_z
Si Si1 0.760960 0.709862 0.379280
Si Si2 0.428652 0.214596 0.619623
Si Si3 0.312119 0.208207 0.001825
Si Si4 0.144424 0.706953 0.760324
Si Si5 0.877961 0.286187 0.379650
Si Si6 0.546445 0.209984 0.236322
O O1 0.772131 0.500000 0.388780
O O2 0.833354 0.773566 0.494781
O O3 0.807368 0.775550 0.365137
O O4 0.640054 0.750361 0.280849
O O5 0.539204 0.273744 0.694149
O O6 0.423408 0.274152 0.676428
O O7 0.427939 0.000000 0.619530
O O8 0.244261 0.270231 0.889520
O O9 0.317907 0.000000 0.002877
O O10 0.250000 0.250000 0.000000
O O11 0.431305 0.277680 0.114682
O O12 0.125947 0.500000 0.737732
O O13 0.155919 0.775806 0.710323
O O14 0.873567 0.500000 0.376289
O O15 0.000000 0.238831 0.500000
O O16 0.537637 0.000000 0.232288
#
# Coordination Sequence:
#
# PCOD9175769 Si02
#       6
#     8   8   8   8   8   8
#     4  10  19  32  54  83 108 137 180 221 260 316
#     4   9  16  30  53  79 108 137 170 215 268 319
#     4  11  22  37  57  79 106 141 182 223 266 318
#     4  10  18  33  57  83 109 138 175 223 269 314
#     4   9  16  30  56  83 107 139 179 220 266 315
#     4  10  21  36  51  73 109 147 174 210 272 328
#
# _framework density 19.881366
#
# number of rings (size 3 to 8) (size 9 to 14) (size 15 to 20)
#    0.000    2.167    3.333    1.000    0.000    1.333 
#    0.000    2.500    0.000    6.000    0.000    0.000 
#    0.000    0.000    0.000    0.000    0.000    0.000 
#
# Total GULP energy -134002.903290 kJ/mol
# GULP energy per Si atom -5583.454304 kJ/mol
# Density = 1.983612 g / cm^3
# Si number density = 19.881366 Si / 1000 Ang^3
#
#
#
# Elastic Constant Matrix: (Units=GPa)
#
#
# Indices 1 2 3 4 5 6 
#
# 1 169.8909 -8.1725 98.4809 0.0000 10.0302 0.0000
# 2 -8.1725 28.8899 -11.8868 0.0000 0.8024 0.0000
# 3 98.4809 -11.8868 142.6803 0.0000 4.1120 0.0000
# 4 0.0000 0.0000 0.0000 17.8077 0.0000 2.2585
# 5 10.0302 0.8024 4.1120 0.0000 38.1756 0.0000
# 6 0.0000 0.0000 0.0000 2.2585 0.0000 11.7152
#
#
#
# Elastic Compliance Matrix: (Units=1/GPa)
#
#
# Indices 1 2 3 4 5 6 
#
# 1 0.009945 0.000066 -0.006804 0.000000 -0.001881 0.000000
# 2 0.000066 0.035888 0.002976 0.000000 -0.001092 0.000000
# 3 -0.006804 0.002976 0.011940 0.000000 0.000439 0.000000
# 4 0.000000 0.000000 0.000000 0.057563 0.000000 -0.011097
# 5 -0.001881 -0.001092 0.000439 0.000000 0.026665 0.000000
# 6 0.000000 0.000000 0.000000 -0.011097 0.000000 0.087498
#
#
# Mechanical properties :
#
#
# Convention : Reuss Voigt Hill
#
# Bulk Modulus (GPa) = 19.90155 55.36715 37.63435
# Shear Modulus (GPa) = 19.70267 31.07567 25.38917
#
# Velocity S-wave (km/s) = 3.15145 3.95784 3.57744
# Velocity P-wave (km/s) = 4.82432 6.98536 6.00289
#
# Compressibility (1/GPa) = 0.05024734
#
# Stress axis : x y z
#
# Youngs Moduli (GPa) = 100.55690 27.86484 83.74930
#
# Poissons Ratio (x) = -0.00183 0.56985
# Poissons Ratio (y) = -0.00662 -0.24923
# Poissons Ratio (z) = 0.68422 -0.08292
#
# Static dielectric constant tensor:
#      x y z
#    x 1.687520 0.000000 -0.000800 
#    y 0.000000 1.771860 0.000000 
#    z -0.000800 0.000000 1.673130 
# 
# From -- ./inp_files/172057.got.cif
#   From: 2010.05.17/outbox.cif.g08.bks.cpg/sg12_87_cif.got.tgz:172057.got - 2010.06.03 13:09:07.
