data_PCOD9175960
_publ_section_title
;
Structure prediction by ZEFSAII (Michael W. Deem and Ramdas Pophale) SiO2 
 PCOD9175960
Probable space group: C 2/M
;
_chemical_formula_sum "Si O2"
_cell_formula_units_Z 40
_cell_length_a 15.844085
_cell_length_b 19.760951
_cell_length_c 12.432332
_cell_angle_alpha 90.000000
_cell_angle_beta 26.690709
_cell_angle_gamma 90.000000
_cell_volume 1748.406187
_symmetry_space_group_name_H-M "C 2/M"
_symmetry_group_IT_number 12
_symmetry_cell_setting 'monoclinic'
loop_
_space_group_symop_operation_xyz
x,y,z
-x,y,-z
-x,-y,-z
x,-y,z
1/2+x,1/2+y,z
1/2-x,1/2+y,-z
1/2-x,1/2-y,-z
1/2+x,1/2-y,z
loop_
_atom_site_type_symbol
_atom_site_label
_atom_site_fract_x
_atom_site_fract_y
_atom_site_fract_z
Si Si1 0.436290 0.500000 0.339835
Si Si2 0.102254 0.363345 0.046055
Si Si3 0.535518 0.276543 0.745846
Si Si4 0.240433 0.500000 0.334175
Si Si5 0.000000 0.126304 0.000000
Si Si6 0.313181 0.368400 0.591861
Si Si7 0.144921 0.500000 0.136037
O O1 0.300310 0.500000 0.392783
O O2 0.400165 0.438156 0.457843
O O3 0.646079 0.500000 0.056224
O O4 0.123759 0.430671 0.092139
O O5 0.094232 0.289407 0.108551
O O6 0.894295 0.366801 0.228082
O O7 0.261308 0.362252 0.774138
O O8 0.750000 0.250000 0.500000
O O9 0.542233 0.316851 0.627202
O O10 0.506237 0.325369 0.885283
O O11 0.327895 0.428300 0.194121
O O12 0.017594 0.500000 0.591699
#
# Coordination Sequence:
#
# PCOD9175960 Si02
#       7
#     4   8   8   4   4   8   4
#     4  12  22  40  64  87 128 160 199 264 294 355
#     4  10  20  35  59  94 120 160 205 251 303 366
#     4  10  18  33  60  95 123 154 206 247 302 369
#     4  11  22  42  64  94 127 156 208 251 296 369
#     4  11  20  36  70  93 118 170 198 241 318 362
#     4  10  19  35  60  86 126 155 198 257 301 353
#     4  12  24  40  63  91 121 166 208 247 309 353
#
# _framework density 22.877980000000001
#
# number of rings (size 3 to 8) (size 9 to 14) (size 15 to 20)
#    0.000    1.400    4.000    4.200    0.000    3.200 
#    0.000    3.000    0.000    2.400    0.000    0.000 
#    0.000    0.000    0.000    0.000    0.000    0.000 
#
# Total GULP energy -111690.823579 kJ/mol
# GULP energy per Si atom -5584.541179 kJ/mol
# Density = 2.282591 g / cm^3
# Si number density = 22.877980 Si / 1000 Ang^3
#
#
#
# Elastic Constant Matrix: (Units=GPa)
#
#
# Indices 1 2 3 4 5 6 
#
# 1 77.7637 47.9731 45.4631 0.0002 18.8890 0.0032
# 2 47.9731 205.7789 91.7220 0.0073 35.5333 -0.0049
# 3 45.4631 91.7220 184.6535 -0.0022 28.2541 -0.0059
# 4 0.0002 0.0073 -0.0022 49.4425 0.0030 6.9918
# 5 18.8890 35.5333 28.2541 0.0030 35.3631 0.0089
# 6 0.0032 -0.0049 -0.0059 6.9918 0.0089 33.4217
#
#
#
# Elastic Compliance Matrix: (Units=1/GPa)
#
#
# Indices 1 2 3 4 5 6 
#
# 1 0.016676 -0.001965 -0.002357 0.000001 -0.005050 -0.000001
# 2 -0.001965 0.007113 -0.002411 -0.000001 -0.004171 0.000002
# 3 -0.002357 -0.002411 0.007554 0.000001 -0.002354 0.000002
# 4 0.000001 -0.000001 0.000001 0.020842 0.000000 -0.004360
# 5 -0.005050 -0.004171 -0.002354 0.000000 0.037047 -0.000010
# 6 -0.000001 0.000002 0.000002 -0.004360 -0.000010 0.030833
#
#
# Mechanical properties :
#
#
# Convention : Reuss Voigt Hill
#
# Bulk Modulus (GPa) = 55.94027 93.16804 74.55416
# Shear Modulus (GPa) = 35.84505 42.51465 39.17985
#
# Velocity S-wave (km/s) = 3.96257 4.31550 4.14279
# Velocity P-wave (km/s) = 6.74096 8.10208 7.45266
#
# Compressibility (1/GPa) = 0.01787621
#
# Stress axis : x y z
#
# Youngs Moduli (GPa) = 59.96497 140.59612 132.38770
#
# Poissons Ratio (x) = 0.27630 0.31204
# Poissons Ratio (y) = 0.11784 0.31918
# Poissons Ratio (z) = 0.14134 0.33897
#
# Static dielectric constant tensor:
#      x y z
#    x 1.920330 -0.000070 -0.023180 
#    y -0.000070 1.737470 -0.000030 
#    z -0.023180 -0.000030 1.848220 
# 
# From -- ./inp_files/235165.got.cif
#   From: 2010.05.17/outbox.cif.g08.bks.cpg/sg12_118_cif.got.tgz:235165.got - 2010.06.03 13:09:07.
