data_PCOD9175701
_publ_section_title
;
Structure prediction by ZEFSAII (Michael W. Deem and Ramdas Pophale) SiO2 
 PCOD9175701
Probable space group: C 2/M
;
_chemical_formula_sum "Si O2"
_cell_formula_units_Z 64
_cell_length_a 24.223193
_cell_length_b 8.934090
_cell_length_c 19.130089
_cell_angle_alpha 90.000000
_cell_angle_beta 126.140943
_cell_angle_gamma 90.000000
_cell_volume 3343.321575
_symmetry_space_group_name_H-M "C 2/M"
_symmetry_group_IT_number 12
_symmetry_cell_setting 'monoclinic'
loop_
_space_group_symop_operation_xyz
x,y,z
-x,y,-z
-x,-y,-z
x,-y,z
1/2+x,1/2+y,z
1/2-x,1/2+y,-z
1/2-x,1/2-y,-z
1/2+x,1/2-y,z
loop_
_atom_site_type_symbol
_atom_site_label
_atom_site_fract_x
_atom_site_fract_y
_atom_site_fract_z
Si Si1 0.899174 0.179049 0.959311
Si Si2 0.975798 0.677815 0.883837
Si Si3 0.895077 0.673619 0.453690
Si Si4 0.523364 0.675674 0.369998
Si Si5 0.246662 0.822222 0.646582
Si Si6 0.740841 0.177513 0.177674
Si Si7 0.888162 0.323511 0.678908
Si Si8 0.615691 0.175076 0.721919
O O1 0.930774 0.243257 0.910421
O O2 0.821888 0.237128 0.904833
O O3 0.902585 0.000000 0.962391
O O4 0.949420 0.249176 0.054903
O O5 0.979372 0.500000 0.900986
O O6 0.938366 0.697306 0.782461
O O7 0.907049 0.500000 0.479539
O O8 0.951095 0.770536 0.535133
O O9 0.820046 0.727503 0.421353
O O10 0.894546 0.690197 0.369701
O O11 0.512578 0.500000 0.360992
O O12 0.582998 0.726074 0.362135
O O13 0.453065 0.757871 0.297216
O O14 0.263567 0.796284 0.741370
O O15 0.312195 0.785830 0.648661
O O16 0.231837 0.000000 0.628725
O O17 0.814596 0.238068 0.209137
O O18 0.735073 0.000000 0.162228
O O19 0.889180 0.500000 0.660762
O O20 0.622833 0.000000 0.743456
#
# Coordination Sequence:
#
# PCOD9175701 Si02
#       8
#     8   8   8   8   8   8   8   8
#     4  11  20  30  50  83 117 146 178 220 268 319
#     4  10  19  34  54  78 109 147 184 222 269 320
#     4  10  21  37  58  82 107 138 177 228 278 320
#     4  12  25  38  55  79 106 145 186 224 270 326
#     4   9  18  34  55  80 108 141 179 221 272 323
#     4  10  18  33  56  83 112 143 180 224 270 323
#     4  10  21  38  57  77 108 148 184 224 270 322
#     4  10  21  38  59  83 108 138 179 231 278 319
#
# _framework density 19.14264
#
# number of rings (size 3 to 8) (size 9 to 14) (size 15 to 20)
#    0.000    1.750    1.250    4.875    0.000    5.500 
#    0.000    0.000    0.000    0.750    0.000    0.000 
#    0.000    0.000    0.000    0.000    0.000    0.000 
#
# Total GULP energy -178801.437560 kJ/mol
# GULP energy per Si atom -5587.544924 kJ/mol
# Density = 1.909907 g / cm^3
# Si number density = 19.142640 Si / 1000 Ang^3
#
#
#
# Elastic Constant Matrix: (Units=GPa)
#
#
# Indices 1 2 3 4 5 6 
#
# 1 57.7118 25.7571 4.4204 0.0000 21.6152 0.0000
# 2 25.7571 92.5523 23.8053 0.0000 14.9231 0.0000
# 3 4.4204 23.8053 38.8527 0.0000 21.0547 0.0000
# 4 0.0000 0.0000 0.0000 23.0044 0.0000 14.6644
# 5 21.6152 14.9231 21.0547 0.0000 28.1185 0.0000
# 6 0.0000 0.0000 0.0000 14.6644 0.0000 16.4044
#
#
#
# Elastic Compliance Matrix: (Units=1/GPa)
#
#
# Indices 1 2 3 4 5 6 
#
# 1 0.033811 -0.009015 0.022161 0.000000 -0.037801 0.000000
# 2 -0.009015 0.015270 -0.012948 0.000000 0.008521 0.000000
# 3 0.022161 -0.012948 0.061690 0.000000 -0.056357 0.000000
# 4 0.000000 0.000000 0.000000 0.101056 0.000000 -0.090337
# 5 -0.037801 0.008521 -0.056357 0.000000 0.102299 0.000000
# 6 0.000000 0.000000 0.000000 -0.090337 0.000000 0.141714
#
#
# Mechanical properties :
#
#
# Convention : Reuss Voigt Hill
#
# Bulk Modulus (GPa) = 8.99532 33.00917 21.00225
# Shear Modulus (GPa) = 10.15231 22.51439 16.33335
#
# Velocity S-wave (km/s) = 2.30543 3.43321 2.92420
# Velocity P-wave (km/s) = 3.43453 5.74431 4.73250
#
# Compressibility (1/GPa) = 0.11116894
#
# Stress axis : x y z
#
# Youngs Moduli (GPa) = 29.57606 65.48854 16.21000
#
# Poissons Ratio (x) = 0.59035 -0.35923
# Poissons Ratio (y) = 0.26662 0.20988
# Poissons Ratio (z) = -0.65544 0.84793
#
# Static dielectric constant tensor:
#      x y z
#    x 1.672510 0.000000 0.000050 
#    y 0.000000 1.632040 0.000000 
#    z 0.000050 0.000000 1.668750 
# 
# From -- ./inp_files/324155.got.cif
#   From: 2010.05.17/outbox.cif.g08.bks.cpg/sg12_163_cif.got.tgz:324155.got - 2010.06.03 13:09:07.
