data_PCOD9175942
_publ_section_title
;
Structure prediction by ZEFSAII (Michael W. Deem and Ramdas Pophale) SiO2 
 PCOD9175942
Probable space group: C 2/M
;
_chemical_formula_sum "Si O2"
_cell_formula_units_Z 56
_cell_length_a 30.399701
_cell_length_b 8.738908
_cell_length_c 11.775381
_cell_angle_alpha 90.000000
_cell_angle_beta 66.338089
_cell_angle_gamma 90.000000
_cell_volume 2865.256723
_symmetry_space_group_name_H-M "C 2/M"
_symmetry_group_IT_number 12
_symmetry_cell_setting 'monoclinic'
loop_
_space_group_symop_operation_xyz
x,y,z
-x,y,-z
-x,-y,-z
x,-y,z
1/2+x,1/2+y,z
1/2-x,1/2+y,-z
1/2-x,1/2-y,-z
1/2+x,1/2-y,z
loop_
_atom_site_type_symbol
_atom_site_label
_atom_site_fract_x
_atom_site_fract_y
_atom_site_fract_z
Si Si1 0.077141 0.186408 0.183864
Si Si2 0.100706 0.318382 0.636216
Si Si3 0.792908 0.316275 0.530748
Si Si4 0.319731 0.315896 0.987319
Si Si5 0.557318 0.681104 0.454864
Si Si6 0.730630 0.317835 0.200760
Si Si7 0.515625 0.315543 0.857841
O O1 0.124664 0.231992 0.066355
O O2 0.080350 0.231695 0.312047
O O3 0.026907 0.237459 0.182336
O O4 0.076250 0.000000 0.184792
O O5 0.100212 0.500000 0.649683
O O6 0.155837 0.265772 0.573755
O O7 0.076981 0.271999 0.540935
O O8 0.066941 0.245787 0.766614
O O9 0.791187 0.500000 0.530884
O O10 0.750000 0.250000 0.500000
O O11 0.787866 0.260269 0.665738
O O12 0.316533 0.500000 0.005031
O O13 0.300547 0.280739 0.879663
O O14 0.284288 0.236584 0.112732
O O15 0.500000 0.696391 0.500000
O O16 0.567225 0.500000 0.462506
O O17 0.729350 0.500000 0.217488
O O18 0.517291 0.500000 0.850502
O O19 0.500000 0.270987 0.000000
#
# Coordination Sequence:
#
# PCOD9175942 Si02
#       7
#     8   8   8   8   8   8   8
#     4   9  17  32  54  84 114 148 195 239 279 332
#     4  11  24  40  59  87 122 151 185 240 301 351
#     4  11  25  43  62  85 115 153 197 244 294 353
#     4   9  18  33  56  83 117 155 193 241 292 343
#     4  10  18  33  60  87 117 154 194 239 281 335
#     4  10  20  36  58  85 115 150 194 243 297 350
#     4  10  21  38  59  82 112 153 200 238 275 337
#
# _framework density 19.544497
#
# number of rings (size 3 to 8) (size 9 to 14) (size 15 to 20)
#    0.000    2.000    1.429    2.143    0.000    5.714 
#    0.000    2.857    0.000    0.000    0.000    0.000 
#    0.000    0.000    0.000    0.000    0.000    0.000 
#
# Total GULP energy -156392.573203 kJ/mol
# GULP energy per Si atom -5585.449043 kJ/mol
# Density = 1.950001 g / cm^3
# Si number density = 19.544497 Si / 1000 Ang^3
#
#
#
# Elastic Constant Matrix: (Units=GPa)
#
#
# Indices 1 2 3 4 5 6 
#
# 1 81.2638 25.0188 59.3574 0.0000 -25.7962 0.0000
# 2 25.0188 20.3781 33.8032 0.0000 -6.7451 0.0000
# 3 59.3574 33.8032 143.4344 0.0000 -27.9919 0.0000
# 4 0.0000 0.0000 0.0000 30.3063 0.0000 -5.5649
# 5 -25.7962 -6.7451 -27.9919 0.0000 33.3761 0.0000
# 6 0.0000 0.0000 0.0000 -5.5649 0.0000 18.1574
#
#
#
# Elastic Compliance Matrix: (Units=1/GPa)
#
#
# Indices 1 2 3 4 5 6 
#
# 1 0.025129 -0.022180 -0.002698 0.000000 0.012677 0.000000
# 2 -0.022180 0.100152 -0.016524 0.000000 -0.010761 0.000000
# 3 -0.002698 -0.016524 0.013062 0.000000 0.005530 0.000000
# 4 0.000000 0.000000 0.000000 0.034964 0.000000 0.010716
# 5 0.012677 -0.010761 0.005530 0.000000 0.042223 0.000000
# 6 0.000000 0.000000 0.000000 0.010716 0.000000 0.058358
#
#
# Mechanical properties :
#
#
# Convention : Reuss Voigt Hill
#
# Bulk Modulus (GPa) = 18.00570 53.49279 35.74924
# Shear Modulus (GPa) = 13.32607 24.82776 19.07691
#
# Velocity S-wave (km/s) = 2.61402 3.56802 3.12761
# Velocity P-wave (km/s) = 4.28293 6.66360 5.60121
#
# Compressibility (1/GPa) = 0.05553796
#
# Stress axis : x y z
#
# Youngs Moduli (GPa) = 39.79455 9.98485 76.55941
#
# Poissons Ratio (x) = 0.22147 0.20655
# Poissons Ratio (y) = 0.88266 1.26507
# Poissons Ratio (z) = 0.10736 0.16499
#
# Static dielectric constant tensor:
#      x y z
#    x 1.688400 0.000000 -0.013360 
#    y 0.000000 1.663330 0.000000 
#    z -0.013360 0.000000 1.680930 
# 
# From -- ./inp_files/187252.got.cif
#   From: 2010.05.17/outbox.cif.g08.bks.cpg/sg12_94_cif.got.tgz:187252.got - 2010.06.03 13:09:07.
