data_PCOD9175249
_publ_section_title
;
Structure prediction by ZEFSAII (Michael W. Deem and Ramdas Pophale) SiO2 
 PCOD9175249
Probable space group: C 2/M
;
_chemical_formula_sum "Si O2"
_cell_formula_units_Z 56
_cell_length_a 16.729202
_cell_length_b 8.782891
_cell_length_c 28.295689
_cell_angle_alpha 90.000000
_cell_angle_beta 134.969508
_cell_angle_gamma 90.000000
_cell_volume 2941.365514
_symmetry_space_group_name_H-M "C 2/M"
_symmetry_group_IT_number 12
_symmetry_cell_setting 'monoclinic'
loop_
_space_group_symop_operation_xyz
x,y,z
-x,y,-z
-x,-y,-z
x,-y,z
1/2+x,1/2+y,z
1/2-x,1/2+y,-z
1/2-x,1/2-y,-z
1/2+x,1/2-y,z
loop_
_atom_site_type_symbol
_atom_site_label
_atom_site_fract_x
_atom_site_fract_y
_atom_site_fract_z
Si Si1 0.009598 0.318136 0.218986
Si Si2 0.267132 0.315917 0.146653
Si Si3 0.337275 0.816660 0.998040
Si Si4 0.923258 0.314870 0.859953
Si Si5 0.936904 0.823896 0.421905
Si Si6 0.675047 0.319114 0.508303
Si Si7 0.274956 0.322116 0.645223
O O1 0.997127 0.500000 0.212056
O O2 0.047572 0.265725 0.181733
O O3 0.113924 0.269413 0.295304
O O4 0.892778 0.249126 0.190147
O O5 0.275887 0.500000 0.152696
O O6 0.198998 0.275658 0.070191
O O7 0.191387 0.265736 0.160465
O O8 0.332012 0.000000 0.999594
O O9 0.250000 0.750000 0.000000
O O10 0.465544 0.771008 0.063595
O O11 0.917890 0.500000 0.856557
O O12 0.831567 0.719385 0.365950
O O13 0.000000 0.808052 0.500000
O O14 0.046837 0.791809 0.437471
O O15 0.900967 0.000000 0.403774
O O16 0.685761 0.500000 0.519844
O O17 0.750000 0.250000 0.500000
O O18 0.719616 0.236126 0.573645
O O19 0.298318 0.500000 0.654191
#
# Coordination Sequence:
#
# PCOD9175249 Si02
#       7
#     8   8   8   8   8   8   8
#     4  11  22  39  59  80 115 157 194 240 295 355
#     4  10  20  36  59  85 113 149 195 246 289 349
#     4  10  18  32  57  85 113 147 190 239 294 348
#     4   9  19  36  58  83 112 151 194 235 293 356
#     4   8  16  33  56  80 107 140 177 220 272 329
#     4  10  20  36  59  88 119 149 185 231 283 335
#     4  11  22  37  58  83 112 150 193 234 282 340
#
# _framework density 19.038775999999999
#
# number of rings (size 3 to 8) (size 9 to 14) (size 15 to 20)
#    0.000    2.143    1.429    3.429    0.000    4.857 
#    2.571    2.143    0.000    1.714    0.000    0.000 
#    0.000    0.000    0.000    0.000    0.000    0.000 
#
# Total GULP energy -155917.517712 kJ/mol
# GULP energy per Si atom -5568.482775 kJ/mol
# Density = 1.899544 g / cm^3
# Si number density = 19.038776 Si / 1000 Ang^3
#
#
#
# Elastic Constant Matrix: (Units=GPa)
#
#
# Indices 1 2 3 4 5 6 
#
# 1 139.3352 28.8740 35.0307 0.0000 29.0014 0.0000
# 2 28.8740 19.3991 11.2379 0.0000 9.4848 0.0000
# 3 35.0307 11.2379 64.5405 0.0000 21.9756 0.0000
# 4 0.0000 0.0000 0.0000 20.0286 0.0000 6.0821
# 5 29.0014 9.4848 21.9756 0.0000 21.4113 0.0000
# 6 0.0000 0.0000 0.0000 6.0821 0.0000 31.5407
#
#
#
# Elastic Compliance Matrix: (Units=1/GPa)
#
#
# Indices 1 2 3 4 5 6 
#
# 1 0.012073 -0.012627 -0.001062 0.000000 -0.009670 0.000000
# 2 -0.012627 0.079240 -0.001253 0.000000 -0.016712 0.000000
# 3 -0.001062 -0.001253 0.023996 0.000000 -0.022635 0.000000
# 4 0.000000 0.000000 0.000000 0.053034 0.000000 -0.010227
# 5 -0.009670 -0.016712 -0.022635 0.000000 0.090436 0.000000
# 6 0.000000 0.000000 0.000000 -0.010227 0.000000 0.033677
#
#
# Mechanical properties :
#
#
# Convention : Reuss Voigt Hill
#
# Bulk Modulus (GPa) = 11.70625 41.50665 26.60645
# Shear Modulus (GPa) = 14.25250 24.47162 19.36206
#
# Velocity S-wave (km/s) = 2.73903 3.58908 3.19247
# Velocity P-wave (km/s) = 4.02058 6.24690 5.25304
#
# Compressibility (1/GPa) = 0.08542446
#
# Stress axis : x y z
#
# Youngs Moduli (GPa) = 82.82786 12.61985 41.67416
#
# Poissons Ratio (x) = 0.15935 0.04425
# Poissons Ratio (y) = 1.04587 0.05223
# Poissons Ratio (z) = 0.08796 0.01582
#
# Static dielectric constant tensor:
#      x y z
#    x 1.801390 0.000000 -0.013710 
#    y 0.000000 1.643170 0.000000 
#    z -0.013710 0.000000 1.649480 
# 
# From -- ./inp_files/377720.got.cif
#   From: 2010.05.17/outbox.cif.g08.bks.cpg/sg12_189_cif.got.tgz:377720.got - 2010.06.03 13:09:07.
