data_PCOD9175782
_publ_section_title
;
Structure prediction by ZEFSAII (Michael W. Deem and Ramdas Pophale) SiO2 
 PCOD9175782
Probable space group: C 2/M
;
_chemical_formula_sum "Si O2"
_cell_formula_units_Z 44
_cell_length_a 11.476164
_cell_length_b 23.290878
_cell_length_c 9.482992
_cell_angle_alpha 90.000000
_cell_angle_beta 63.992985
_cell_angle_gamma 90.000000
_cell_volume 2278.044689
_symmetry_space_group_name_H-M "C 2/M"
_symmetry_group_IT_number 12
_symmetry_cell_setting 'monoclinic'
loop_
_space_group_symop_operation_xyz
x,y,z
-x,y,-z
-x,-y,-z
x,-y,z
1/2+x,1/2+y,z
1/2-x,1/2+y,-z
1/2-x,1/2-y,-z
1/2+x,1/2-y,z
loop_
_atom_site_type_symbol
_atom_site_label
_atom_site_fract_x
_atom_site_fract_y
_atom_site_fract_z
Si Si1 0.435634 0.723816 0.185800
Si Si2 0.950000 0.087208 0.182560
Si Si3 0.226503 0.500000 0.343569
Si Si4 0.374989 0.000000 0.913374
Si Si5 0.165053 0.500000 0.684331
Si Si6 0.215079 0.912735 0.183233
Si Si7 0.800602 0.775230 0.823439
O O1 0.426127 0.655097 0.192793
O O2 0.290782 0.749416 0.251209
O O3 0.544066 0.737744 0.248162
O O4 0.500000 0.740227 0.000000
O O5 0.067062 0.072887 0.225049
O O6 0.821791 0.054302 0.290655
O O7 0.000000 0.070535 0.000000
O O8 0.152428 0.500000 0.237292
O O9 0.146499 0.500000 0.528533
O O10 0.529528 0.000000 0.838823
O O11 0.305985 0.055503 0.019619
O O12 0.242068 0.443488 0.695607
O O13 0.221998 0.843975 0.170302
O O14 0.750000 0.750000 0.000000
#
# Coordination Sequence:
#
# PCOD9175782 Si02
#       7
#     8   8   4   4   4   8   8
#     4   8  16  28  46  79 114 135 174 224 274 327
#     4  10  18  33  57  85 106 138 190 233 270 325
#     4  12  22  36  58  77 110 151 182 229 286 333
#     4  11  22  37  57  77 110 150 188 225 272 335
#     4  11  26  38  49  82 117 146 184 223 289 337
#     4  10  20  37  58  84 111 141 184 236 272 322
#     4   9  17  29  51  83 114 138 174 230 279 320
#
# _framework density 19.314810000000001
#
# number of rings (size 3 to 8) (size 9 to 14) (size 15 to 20)
#    0.000    2.182    1.818    3.818    0.000    5.818 
#    0.000    0.000    0.000    1.091    0.000    0.000 
#    0.000    0.000    0.000    0.000    0.000    0.000 
#
# Total GULP energy -122579.285363 kJ/mol
# GULP energy per Si atom -5571.785698 kJ/mol
# Density = 1.927085 g / cm^3
# Si number density = 19.314810 Si / 1000 Ang^3
#
#
#
# Elastic Constant Matrix: (Units=GPa)
#
#
# Indices 1 2 3 4 5 6 
#
# 1 155.2303 45.7531 6.2819 0.0000 2.0930 0.0000
# 2 45.7531 74.3895 2.2956 0.0000 2.4620 0.0000
# 3 6.2819 2.2956 45.2896 0.0000 8.9097 0.0000
# 4 0.0000 0.0000 0.0000 -2.6050 0.0000 -1.3181
# 5 2.0930 2.4620 8.9097 0.0000 22.1286 0.0000
# 6 0.0000 0.0000 0.0000 -1.3181 0.0000 19.9902
#
#
#
# Elastic Compliance Matrix: (Units=1/GPa)
#
#
# Indices 1 2 3 4 5 6 
#
# 1 0.007901 -0.004837 -0.000879 0.000000 0.000145 0.000000
# 2 -0.004837 0.016461 0.000116 0.000000 -0.001421 0.000000
# 3 -0.000879 0.000116 0.024091 0.000000 -0.009629 0.000000
# 4 0.000000 0.000000 0.000000 -0.371479 0.000000 -0.024494
# 5 0.000145 -0.001421 -0.009629 0.000000 0.049212 0.000000
# 6 0.000000 0.000000 0.000000 -0.024494 0.000000 0.048410
#
#
# Mechanical properties :
#
#
# Convention : Reuss Voigt Hill
#
# Bulk Modulus (GPa) = 26.84410 42.61896 34.73153
# Shear Modulus (GPa) = -24.77877 22.60801 -1.08538
#
# Velocity S-wave (km/s) = -3.58563 3.42497 -0.75044
# Velocity P-wave (km/s) = 1.79275 6.14442 4.15571
#
# Compressibility (1/GPa) = 0.03725214
#
# Stress axis : x y z
#
# Youngs Moduli (GPa) = 126.55869 60.74803 41.51009
#
# Poissons Ratio (x) = 0.29386 0.03650
# Poissons Ratio (y) = 0.61222 -0.00482
# Poissons Ratio (z) = 0.11128 -0.00705
#
# Static dielectric constant tensor:
#      x y z
#    x 1.729280 0.000000 0.021590 
#    y 0.000000 1.643960 0.000000 
#    z 0.021590 0.000000 1.656160 
# 
# From -- ./inp_files/50536.got.cif
#   From: 2010.05.17/outbox.cif.g08.bks.cpg/sg12_26_cif.got.tgz:50536.got - 2010.06.03 13:09:07.
