data_PCOD9175007
_publ_section_title
;
Structure prediction by ZEFSAII (Michael W. Deem and Ramdas Pophale) SiO2 
 PCOD9175007
Probable space group: C 2/M
;
_chemical_formula_sum "Si O2"
_cell_formula_units_Z 56
_cell_length_a 19.171934
_cell_length_b 14.112685
_cell_length_c 9.161229
_cell_angle_alpha 90.000000
_cell_angle_beta 104.278268
_cell_angle_gamma 90.000000
_cell_volume 2402.160907
_symmetry_space_group_name_H-M "C 2/M"
_symmetry_group_IT_number 12
_symmetry_cell_setting 'monoclinic'
loop_
_space_group_symop_operation_xyz
x,y,z
-x,y,-z
-x,-y,-z
x,-y,z
1/2+x,1/2+y,z
1/2-x,1/2+y,-z
1/2-x,1/2-y,-z
1/2+x,1/2-y,z
loop_
_atom_site_type_symbol
_atom_site_label
_atom_site_fract_x
_atom_site_fract_y
_atom_site_fract_z
Si Si1 0.809461 0.891081 0.180610
Si Si2 0.077475 0.395950 0.118489
Si Si3 0.238090 0.108565 0.545754
Si Si4 0.522188 0.611003 0.216483
Si Si5 0.888503 0.196141 0.978468
Si Si6 0.398569 0.894471 0.527384
Si Si7 0.097695 0.810296 0.525953
O O1 0.749233 0.874141 0.273633
O O2 0.820239 0.832022 0.040481
O O3 0.879147 0.868896 0.320106
O O4 0.808370 0.000000 0.137786
O O5 0.111264 0.500000 0.110813
O O6 0.114095 0.304176 0.070173
O O7 0.071924 0.385077 0.291439
O O8 0.000000 0.397972 0.000000
O O9 0.311914 0.109606 0.498371
O O10 0.174483 0.180924 0.476094
O O11 0.209308 0.000000 0.520224
O O12 0.504148 0.500000 0.198486
O O13 0.459228 0.674449 0.114186
O O14 0.540849 0.643882 0.388466
O O15 0.592473 0.631838 0.151959
O O16 0.418438 0.799500 0.451416
O O17 0.417470 0.000000 0.481383
#
# Coordination Sequence:
#
# PCOD9175007 Si02
#       7
#     8   8   8   8   8   8   8
#     4   9  19  33  50  73 109 140 163 204 260 315
#     4  10  19  34  54  76  99 131 175 217 253 296
#     4   8  17  32  51  75 103 135 168 205 259 310
#     4  11  20  31  52  77 106 133 171 213 250 306
#     4  11  19  34  49  77 104 137 171 205 259 299
#     4  10  18  32  55  77  99 133 176 219 253 297
#     4  10  18  33  51  77 102 135 172 206 255 301
#
# _framework density 23.312344
#
# number of rings (size 3 to 8) (size 9 to 14) (size 15 to 20)
#    0.857    1.286    2.857    3.000    0.000    0.571 
#    0.000    2.857    0.000    0.000    0.000    5.000 
#    0.000    0.000    0.000    0.000    0.000    0.000 
#
# Total GULP energy -156173.608256 kJ/mol
# GULP energy per Si atom -5577.628866 kJ/mol
# Density = 2.325928 g / cm^3
# Si number density = 23.312344 Si / 1000 Ang^3
#
#
#
# Elastic Constant Matrix: (Units=GPa)
#
#
# Indices 1 2 3 4 5 6 
#
# 1 53.7463 8.6644 -5.9554 0.0000 1.8346 0.0000
# 2 8.6644 151.5863 4.2653 0.0000 5.9160 0.0000
# 3 -5.9554 4.2653 47.2776 0.0000 4.6615 0.0000
# 4 0.0000 0.0000 0.0000 22.6461 0.0000 12.3807
# 5 1.8346 5.9160 4.6615 0.0000 36.6854 0.0000
# 6 0.0000 0.0000 0.0000 12.3807 0.0000 -3.0270
#
#
#
# Elastic Compliance Matrix: (Units=1/GPa)
#
#
# Indices 1 2 3 4 5 6 
#
# 1 0.019115 -0.001123 0.002618 0.000000 -0.001108 0.000000
# 2 -0.001123 0.006716 -0.000654 0.000000 -0.000944 0.000000
# 3 0.002618 -0.000654 0.021816 0.000000 -0.002798 0.000000
# 4 0.000000 0.000000 0.000000 0.013645 0.000000 0.055811
# 5 -0.001108 -0.000944 -0.002798 0.000000 0.027822 0.000000
# 6 0.000000 0.000000 0.000000 0.055811 0.000000 -0.102087
#
#
# Mechanical properties :
#
#
# Convention : Reuss Voigt Hill
#
# Bulk Modulus (GPa) = 20.27179 29.61764 24.94471
# Shear Modulus (GPa) = 2794.32421 27.63662 1410.98042
#
# Velocity S-wave (km/s) = 34.65902 3.44683 24.62853
# Velocity P-wave (km/s) = 40.12952 5.34539 28.62649
#
# Compressibility (1/GPa) = 0.04932963
#
# Stress axis : x y z
#
# Youngs Moduli (GPa) = 52.31518 148.89073 45.83714
#
# Poissons Ratio (x) = 0.16721 -0.12002
# Poissons Ratio (y) = 0.05875 0.02999
# Poissons Ratio (z) = -0.13698 0.09743
#
# Static dielectric constant tensor:
#      x y z
#    x 2.045620 0.000000 -0.055120 
#    y 0.000000 1.850500 0.000000 
#    z -0.055120 0.000000 1.866680 
# 
# From -- ./inp_files/110896.got.cif
#   From: 2010.05.17/outbox.cif.g08.bks.cpg/sg12_56_cif.got.tgz:110896.got - 2010.06.03 13:09:07.
