data_PCOD9175907
_publ_section_title
;
Structure prediction by ZEFSAII (Michael W. Deem and Ramdas Pophale) SiO2 
 PCOD9175907
Probable space group: C 2/M
;
_chemical_formula_sum "Si O2"
_cell_formula_units_Z 54
_cell_length_a 19.134921
_cell_length_b 15.026318
_cell_length_c 13.823988
_cell_angle_alpha 90.000000
_cell_angle_beta 129.961402
_cell_angle_gamma 90.000000
_cell_volume 3046.575108
_symmetry_space_group_name_H-M "C 2/M"
_symmetry_group_IT_number 12
_symmetry_cell_setting 'monoclinic'
loop_
_space_group_symop_operation_xyz
x,y,z
-x,y,-z
-x,-y,-z
x,-y,z
1/2+x,1/2+y,z
1/2-x,1/2+y,-z
1/2-x,1/2-y,-z
1/2+x,1/2-y,z
loop_
_atom_site_type_symbol
_atom_site_label
_atom_site_fract_x
_atom_site_fract_y
_atom_site_fract_z
Si Si1 0.350989 0.735758 0.337156
Si Si2 0.000000 0.000000 0.000000
Si Si3 0.310223 0.103720 0.784996
Si Si4 0.134651 0.601556 0.385309
Si Si5 0.528257 0.731527 0.366359
Si Si6 0.756971 0.896837 0.682357
Si Si7 0.036816 0.841760 0.169324
Si Si8 0.000000 0.317147 0.000000
O O1 0.269682 0.666615 0.247797
O O2 0.429048 0.735349 0.326087
O O3 0.400745 0.712131 0.483464
O O4 0.306750 0.833501 0.310452
O O5 0.986443 0.078117 0.071063
O O6 0.324043 0.122959 0.682608
O O7 0.288089 0.000000 0.776557
O O8 0.408091 0.125890 0.918313
O O9 0.099039 0.500000 0.350177
O O10 0.212962 0.604329 0.536398
O O11 0.060428 0.673481 0.351696
O O12 0.531233 0.663352 0.279902
O O13 0.857532 0.856533 0.765984
O O14 0.763224 0.000000 0.719936
O O15 0.003152 0.749165 0.094265
#
# Coordination Sequence:
#
# PCOD9175907 Si02
#       8
#     8   2   8   8   8   8   8   4
#     4  10  21  37  57  87 120 150 187 227 298 353
#     4  10  24  36  58  86 110 146 194 240 270 342
#     4  11  21  37  56  81 112 147 194 243 283 340
#     4   9  18  32  58  87 111 143 192 241 289 332
#     4  10  20  37  59  84 119 154 180 235 291 348
#     4  10  18  33  59  87 112 146 188 245 292 333
#     4  11  20  37  60  82 113 146 197 240 285 325
#     4  11  21  35  61  80 102 150 192 244 282 324
#
# _framework density 17.724822
#
# number of rings (size 3 to 8) (size 9 to 14) (size 15 to 20)
#    0.000    1.778    3.704    1.111    0.000    2.963 
#    2.667    4.444    0.000    0.000    0.000    0.000 
#    0.000    0.000    0.000    0.000    0.000    0.000 
#
# Total GULP energy -150367.701681 kJ/mol
# GULP energy per Si atom -5569.174136 kJ/mol
# Density = 1.768448 g / cm^3
# Si number density = 17.724822 Si / 1000 Ang^3
#
#
#
# Elastic Constant Matrix: (Units=GPa)
#
#
# Indices 1 2 3 4 5 6 
#
# 1 74.0408 21.8321 32.5112 0.0000 14.7989 0.0000
# 2 21.8321 57.9464 16.5018 0.0000 7.6310 0.0000
# 3 32.5112 16.5018 40.2942 0.0000 9.2699 0.0000
# 4 0.0000 0.0000 0.0000 14.3523 0.0000 -9.9674
# 5 14.7989 7.6310 9.2699 0.0000 25.7946 0.0000
# 6 0.0000 0.0000 0.0000 -9.9674 0.0000 6.6982
#
#
#
# Elastic Compliance Matrix: (Units=1/GPa)
#
#
# Indices 1 2 3 4 5 6 
#
# 1 0.022481 -0.003259 -0.015325 0.000000 -0.006426 0.000000
# 2 -0.003259 0.020248 -0.005140 0.000000 -0.002273 0.000000
# 3 -0.015325 -0.005140 0.040242 0.000000 -0.004149 0.000000
# 4 0.000000 0.000000 0.000000 -2.083917 0.000000 -3.101006
# 5 -0.006426 -0.002273 -0.004149 0.000000 0.044618 0.000000
# 6 0.000000 0.000000 0.000000 -3.101006 0.000000 -4.465209
#
#
# Mechanical properties :
#
#
# Convention : Reuss Voigt Hill
#
# Bulk Modulus (GPa) = 28.15121 34.88573 31.51847
# Shear Modulus (GPa) = -0.78589 16.13145 7.67278
#
# Velocity S-wave (km/s) = -0.66659 3.02007 2.08284
# Velocity P-wave (km/s) = 3.91464 5.64674 4.85850
#
# Compressibility (1/GPa) = 0.03552245
#
# Stress axis : x y z
#
# Youngs Moduli (GPa) = 44.48213 49.38671 24.84956
#
# Poissons Ratio (x) = 0.16097 0.38083
# Poissons Ratio (y) = 0.14499 0.12772
# Poissons Ratio (z) = 0.68171 0.25383
#
# Static dielectric constant tensor:
#      x y z
#    x 1.558880 0.000000 -0.004650 
#    y 0.000000 1.613350 0.000000 
#    z -0.004650 0.000000 1.646260 
# 
# From -- ./inp_files/233778.got.cif
#   From: 2010.05.17/outbox.cif.g08.bks.cpg/sg12_117_cif.got.tgz:233778.got - 2010.06.03 13:09:07.
