data_PCOD9175431
_publ_section_title
;
Structure prediction by ZEFSAII (Michael W. Deem and Ramdas Pophale) SiO2 
 PCOD9175431
Probable space group: C 2/M
;
_chemical_formula_sum "Si O2"
_cell_formula_units_Z 64
_cell_length_a 10.026201
_cell_length_b 14.724250
_cell_length_c 19.949874
_cell_angle_alpha 90.000000
_cell_angle_beta 91.257525
_cell_angle_gamma 90.000000
_cell_volume 2944.456453
_symmetry_space_group_name_H-M "C 2/M"
_symmetry_group_IT_number 12
_symmetry_cell_setting 'monoclinic'
loop_
_space_group_symop_operation_xyz
x,y,z
-x,y,-z
-x,-y,-z
x,-y,z
1/2+x,1/2+y,z
1/2-x,1/2+y,-z
1/2-x,1/2-y,-z
1/2+x,1/2-y,z
loop_
_atom_site_type_symbol
_atom_site_label
_atom_site_fract_x
_atom_site_fract_y
_atom_site_fract_z
Si Si1 0.155561 0.160717 0.077540
Si Si2 0.210231 0.864003 0.788572
Si Si3 0.162140 0.841571 0.930139
Si Si4 0.726077 0.858250 0.782151
Si Si5 0.901802 0.891187 0.441102
Si Si6 0.532922 0.351892 0.300477
Si Si7 0.462469 0.133868 0.707790
Si Si8 0.400776 0.105601 0.555172
O O1 0.244114 0.252086 0.070340
O O2 0.212900 0.114058 0.145226
O O3 0.996259 0.180196 0.083761
O O4 0.170339 0.115473 0.004252
O O5 0.212828 0.893990 0.865367
O O6 0.218787 0.752710 0.787136
O O7 0.070827 0.888998 0.754571
O O8 0.326823 0.896218 0.741596
O O9 0.582606 0.892663 0.758031
O O10 0.822902 0.883139 0.721746
O O11 0.975486 0.873945 0.372037
O O12 0.749665 0.854156 0.441931
O O13 0.000000 0.857023 0.500000
O O14 0.891875 0.000000 0.448002
O O15 0.535479 0.243139 0.294622
O O16 0.464723 0.106854 0.630055
O O17 0.500000 0.145177 0.500000
O O18 0.382355 0.000000 0.536167
#
# Coordination Sequence:
#
# PCOD9175431 Si02
#       8
#     8   8   8   8   8   8   8   8
#     4   9  16  25  36  60  93 133 173 199 245 297
#     4   9  16  29  44  66  98 133 166 203 248 288
#     4   9  16  24  38  58  93 136 168 204 243 295
#     4   9  18  27  44  69  98 132 162 206 247 291
#     4  10  22  39  57  76 100 130 164 205 249 297
#     4  10  18  33  51  74 103 129 167 205 248 293
#     4  10  20  33  51  75 101 132 167 204 249 298
#     4  10  22  40  57  74 100 132 165 203 249 298
#
# _framework density 21.735759000000002
#
# number of rings (size 3 to 8) (size 9 to 14) (size 15 to 20)
#    0.000    2.500    2.500    0.000    7.000    0.500 
#    0.000    1.250    0.000    0.000    0.000    0.000 
#    0.000    6.000    0.000    0.000    0.000    0.000 
#
# Total GULP energy -178390.841231 kJ/mol
# GULP energy per Si atom -5574.713788 kJ/mol
# Density = 2.168629 g / cm^3
# Si number density = 21.735759 Si / 1000 Ang^3
#
#
#
# Elastic Constant Matrix: (Units=GPa)
#
#
# Indices 1 2 3 4 5 6 
#
# 1 66.2185 9.7079 11.1767 0.0000 -4.5258 0.0000
# 2 9.7079 59.3846 1.4695 0.0000 0.1518 0.0000
# 3 11.1767 1.4695 140.5943 0.0000 -11.3935 0.0000
# 4 0.0000 0.0000 0.0000 30.1373 0.0000 -9.7480
# 5 -4.5258 0.1518 -11.3935 0.0000 39.8650 0.0000
# 6 0.0000 0.0000 0.0000 -9.7480 0.0000 -6.7496
#
#
#
# Elastic Compliance Matrix: (Units=1/GPa)
#
#
# Indices 1 2 3 4 5 6 
#
# 1 0.015764 -0.002553 -0.001106 0.000000 0.001483 0.000000
# 2 -0.002553 0.017258 -0.000006 0.000000 -0.000357 0.000000
# 3 -0.001106 -0.000006 0.007361 0.000000 0.001978 0.000000
# 4 0.000000 0.000000 0.000000 0.022616 0.000000 -0.032663
# 5 0.001483 -0.000357 0.001978 0.000000 0.025820 0.000000
# 6 0.000000 0.000000 0.000000 -0.032663 0.000000 -0.100984
#
#
# Mechanical properties :
#
#
# Convention : Reuss Voigt Hill
#
# Bulk Modulus (GPa) = 30.25657 34.54506 32.40081
# Shear Modulus (GPa) = 808.47762 28.90676 418.69219
#
# Velocity S-wave (km/s) = 19.30712 3.65076 13.89412
# Velocity P-wave (km/s) = 22.60465 5.80503 16.50256
#
# Compressibility (1/GPa) = 0.03305067
#
# Stress axis : x y z
#
# Youngs Moduli (GPa) = 63.43586 57.94460 135.85132
#
# Poissons Ratio (x) = 0.14796 0.15029
# Poissons Ratio (y) = 0.16198 0.00086
# Poissons Ratio (z) = 0.07018 0.00037
#
# Static dielectric constant tensor:
#      x y z
#    x 1.777390 0.000000 0.006540 
#    y 0.000000 1.846510 0.000000 
#    z 0.006540 0.000000 1.804910 
# 
# From -- ./inp_files/258945.got.cif
#   From: 2010.05.17/outbox.cif.g08.bks.cpg/sg12_130_cif.got.tgz:258945.got - 2010.06.03 13:09:07.
