data_PCOD9175734
_publ_section_title
;
Structure prediction by ZEFSAII (Michael W. Deem and Ramdas Pophale) SiO2 
 PCOD9175734
Probable space group: C 2/M
;
_chemical_formula_sum "Si O2"
_cell_formula_units_Z 52
_cell_length_a 5.081311
_cell_length_b 31.339401
_cell_length_c 20.727895
_cell_angle_alpha 90.000000
_cell_angle_beta 57.166693
_cell_angle_gamma 90.000000
_cell_volume 2773.518034
_symmetry_space_group_name_H-M "C 2/M"
_symmetry_group_IT_number 12
_symmetry_cell_setting 'monoclinic'
loop_
_space_group_symop_operation_xyz
x,y,z
-x,y,-z
-x,-y,-z
x,-y,z
1/2+x,1/2+y,z
1/2-x,1/2+y,-z
1/2-x,1/2-y,-z
1/2+x,1/2-y,z
loop_
_atom_site_type_symbol
_atom_site_label
_atom_site_fract_x
_atom_site_fract_y
_atom_site_fract_z
Si Si1 0.348123 0.823951 0.086042
Si Si2 0.652077 0.616669 0.914048
Si Si3 0.761761 0.371558 0.691275
Si Si4 0.057351 0.221454 0.755251
Si Si5 0.117915 0.417475 0.755601
Si Si6 0.370663 0.073329 0.447391
Si Si7 0.893058 0.500000 0.334199
O O1 0.619282 0.844765 0.093762
O O2 0.148112 0.791464 0.154635
O O3 0.118790 0.862301 0.093466
O O4 0.500000 0.806182 0.000000
O O5 0.862901 0.583824 0.846417
O O6 0.500000 0.599302 0.000000
O O7 0.656714 0.322997 0.709868
O O8 0.452550 0.401229 0.736165
O O9 0.987902 0.383159 0.720872
O O10 0.941645 0.385565 0.602791
O O11 0.850027 0.251048 0.738039
O O12 0.144488 0.462189 0.715758
O O13 0.500000 0.059977 0.500000
O O14 0.000000 0.080775 0.500000
O O15 0.424199 0.037008 0.386844
#
# Coordination Sequence:
#
# PCOD9175734 Si02
#       7
#     8   8   8   8   8   8   4
#     4  10  20  35  54  82 115 153 199 247 297 342
#     4  10  18  33  57  78 112 163 205 240 281 336
#     4  11  23  40  61  85 117 160 193 233 295 357
#     4  12  23  36  59  86 118 152 200 248 289 343
#     4  11  20  38  58  85 122 158 200 237 284 352
#     4  11  23  41  64  91 123 152 185 231 294 368
#     4  10  24  36  63  98 124 150 184 242 293 342
#
# _framework density 18.748750999999999
#
# number of rings (size 3 to 8) (size 9 to 14) (size 15 to 20)
#    0.000    1.231    3.077    4.154    0.000    5.538 
#    0.000    0.385    0.000    2.769    0.000    8.615 
#    0.000    0.000    0.000    0.000    0.000    0.000 
#
# Total GULP energy -144753.206026 kJ/mol
# GULP energy per Si atom -5567.431001 kJ/mol
# Density = 1.870608 g / cm^3
# Si number density = 18.748751 Si / 1000 Ang^3
#
#
#
# Elastic Constant Matrix: (Units=GPa)
#
#
# Indices 1 2 3 4 5 6 
#
# 1 83.1201 22.4775 19.3702 0.0000 -6.0844 0.0000
# 2 22.4775 126.6877 49.6683 0.0000 -3.8252 0.0000
# 3 19.3702 49.6683 61.6123 0.0000 1.2348 0.0000
# 4 0.0000 0.0000 0.0000 1276.3432 0.0000 -157.3933
# 5 -6.0844 -3.8252 1.2348 0.0000 25.7315 0.0000
# 6 0.0000 0.0000 0.0000 -157.3933 0.0000 25.4296
#
#
#
# Elastic Compliance Matrix: (Units=1/GPa)
#
#
# Indices 1 2 3 4 5 6 
#
# 1 0.013328 -0.000878 -0.003546 0.000000 0.003191 0.000000
# 2 -0.000878 0.011720 -0.009212 0.000000 0.001977 0.000000
# 3 -0.003546 -0.009212 0.024840 0.000000 -0.003400 0.000000
# 4 0.000000 0.000000 0.000000 0.003309 0.000000 0.020483
# 5 0.003191 0.001977 -0.003400 0.000000 0.040074 0.000000
# 6 0.000000 0.000000 0.000000 0.020483 0.000000 0.166099
#
#
# Mechanical properties :
#
#
# Convention : Reuss Voigt Hill
#
# Bulk Modulus (GPa) = 44.21697 50.49468 47.35582
# Shear Modulus (GPa) = 16.99626 277.49448 147.24537
#
# Velocity S-wave (km/s) = 3.01413 12.17901 8.87167
# Velocity P-wave (km/s) = 5.97900 14.99206 11.41293
#
# Compressibility (1/GPa) = 0.02261575
#
# Stress axis : x y z
#
# Youngs Moduli (GPa) = 75.02859 85.32080 40.25809
#
# Poissons Ratio (x) = 0.07491 0.14277
# Poissons Ratio (y) = 0.06588 0.37086
# Poissons Ratio (z) = 0.26608 0.78597
#
# Static dielectric constant tensor:
#      x y z
#    x 1.656860 0.000000 -0.014810 
#    y 0.000000 1.603210 0.000000 
#    z -0.014810 0.000000 1.679820 
# 
# From -- ./inp_files/298067.got.cif
#   From: 2010.05.17/outbox.cif.g08.bks.cpg/sg12_150_cif.got.tgz:298067.got - 2010.06.03 13:09:07.
