data_PCOD9175241
_publ_section_title
;
Structure prediction by ZEFSAII (Michael W. Deem and Ramdas Pophale) SiO2 
 PCOD9175241
Probable space group: C 2/M
;
_chemical_formula_sum "Si O2"
_cell_formula_units_Z 56
_cell_length_a 24.419637
_cell_length_b 14.382761
_cell_length_c 8.005883
_cell_angle_alpha 90.000000
_cell_angle_beta 124.090495
_cell_angle_gamma 90.000000
_cell_volume 2328.635204
_symmetry_space_group_name_H-M "C 2/M"
_symmetry_group_IT_number 12
_symmetry_cell_setting 'monoclinic'
loop_
_space_group_symop_operation_xyz
x,y,z
-x,y,-z
-x,-y,-z
x,-y,z
1/2+x,1/2+y,z
1/2-x,1/2+y,-z
1/2-x,1/2-y,-z
1/2+x,1/2-y,z
loop_
_atom_site_type_symbol
_atom_site_label
_atom_site_fract_x
_atom_site_fract_y
_atom_site_fract_z
Si Si1 0.871816 0.893613 0.225918
Si Si2 0.483854 0.104617 0.168536
Si Si3 0.204393 0.803247 0.593784
Si Si4 0.239857 0.343275 0.871110
Si Si5 0.096191 0.889273 0.210519
Si Si6 0.512905 0.692025 0.762859
Si Si7 0.672156 0.898543 0.077618
O O1 0.832092 0.861455 0.320990
O O2 0.813357 0.884809 0.985364
O O3 0.936571 0.833376 0.298748
O O4 0.892090 0.000000 0.270066
O O5 0.405148 0.118727 0.049931
O O6 0.500822 0.000000 0.262658
O O7 0.500000 0.104345 0.000000
O O8 0.511671 0.201341 0.288777
O O9 0.203322 0.694952 0.644804
O O10 0.165775 0.841331 0.370001
O O11 0.281223 0.830241 0.738851
O O12 0.194327 0.399145 0.921206
O O13 0.250000 0.250000 0.000000
O O14 0.048685 0.873057 0.292073
O O15 0.099122 0.000000 0.180904
O O16 0.060759 0.831045 0.003775
O O17 0.685433 0.000000 0.172284
#
# Coordination Sequence:
#
# PCOD9175241 Si02
#       7
#     8   8   8   8   8   8   8
#     4  10  18  32  57  84 113 149 188 225 265 325
#     4  10  19  34  58  81  99 134 187 231 268 325
#     4  10  19  33  53  82 114 145 184 227 268 318
#     4   8  15  29  49  77 107 140 176 218 268 313
#     4  11  22  36  53  76 113 152 184 221 275 328
#     4  11  21  38  55  78 108 147 187 226 275 328
#     4   9  16  30  54  81 109 139 176 223 275 325
#
# _framework density 24.048421000000001
#
# number of rings (size 3 to 8) (size 9 to 14) (size 15 to 20)
#    0.000    2.429    1.429    6.857    0.000    0.571 
#    0.000    4.286    0.000    5.143    0.000    3.000 
#    0.000    0.000    0.000    0.000    0.000    0.000 
#
# Total GULP energy -156213.021641 kJ/mol
# GULP energy per Si atom -5579.036487 kJ/mol
# Density = 2.399369 g / cm^3
# Si number density = 24.048421 Si / 1000 Ang^3
#
#
#
# Elastic Constant Matrix: (Units=GPa)
#
#
# Indices 1 2 3 4 5 6 
#
# 1 74.8223 19.4703 -18.4623 0.0000 -8.4847 0.0000
# 2 19.4703 139.8244 13.5721 0.0000 2.7958 0.0000
# 3 -18.4623 13.5721 56.6221 0.0000 3.4649 0.0000
# 4 0.0000 0.0000 0.0000 14.2984 0.0000 1.1281
# 5 -8.4847 2.7958 3.4649 0.0000 21.6537 0.0000
# 6 0.0000 0.0000 0.0000 1.1281 0.0000 41.1148
#
#
#
# Elastic Compliance Matrix: (Units=1/GPa)
#
#
# Indices 1 2 3 4 5 6 
#
# 1 0.016167 -0.002912 0.005614 0.000000 0.005813 0.000000
# 2 -0.002912 0.007856 -0.002728 0.000000 -0.001719 0.000000
# 3 0.005614 -0.002728 0.020187 0.000000 -0.000678 0.000000
# 4 0.000000 0.000000 0.000000 0.070089 0.000000 -0.001923
# 5 0.005813 -0.001719 -0.000678 0.000000 0.048790 0.000000
# 6 0.000000 0.000000 0.000000 -0.001923 0.000000 0.024375
#
#
# Mechanical properties :
#
#
# Convention : Reuss Voigt Hill
#
# Bulk Modulus (GPa) = 22.64581 33.38101 28.01341
# Shear Modulus (GPa) = 24.72358 32.52597 28.62478
#
# Velocity S-wave (km/s) = 3.20984 3.68165 3.45381
# Velocity P-wave (km/s) = 4.81400 5.65541 5.25158
#
# Compressibility (1/GPa) = 0.04415827
#
# Stress axis : x y z
#
# Youngs Moduli (GPa) = 61.85347 127.28315 49.53753
#
# Poissons Ratio (x) = 0.37070 -0.27810
# Poissons Ratio (y) = 0.18014 0.13512
# Poissons Ratio (z) = -0.34724 0.34718
#
# Static dielectric constant tensor:
#      x y z
#    x 1.986050 0.000000 -0.065600 
#    y 0.000000 1.609980 0.000000 
#    z -0.065600 0.000000 2.061200 
# 
# From -- ./inp_files/96951.got.cif
#   From: 2010.05.17/outbox.cif.g08.bks.cpg/sg12_49_cif.got.tgz:96951.got - 2010.06.03 13:09:07.
