data_PCOD9175248
_publ_section_title
;
Structure prediction by ZEFSAII (Michael W. Deem and Ramdas Pophale) SiO2 
 PCOD9175248
Probable space group: C 2/M
;
_chemical_formula_sum "Si O2"
_cell_formula_units_Z 56
_cell_length_a 15.759548
_cell_length_b 8.174891
_cell_length_c 25.340453
_cell_angle_alpha 90.000000
_cell_angle_beta 119.824076
_cell_angle_gamma 90.000000
_cell_volume 2832.291136
_symmetry_space_group_name_H-M "C 2/M"
_symmetry_group_IT_number 12
_symmetry_cell_setting 'monoclinic'
loop_
_space_group_symop_operation_xyz
x,y,z
-x,y,-z
-x,-y,-z
x,-y,z
1/2+x,1/2+y,z
1/2-x,1/2+y,-z
1/2-x,1/2-y,-z
1/2+x,1/2-y,z
loop_
_atom_site_type_symbol
_atom_site_label
_atom_site_fract_x
_atom_site_fract_y
_atom_site_fract_z
Si Si1 0.647191 0.197396 0.492897
Si Si2 0.415851 0.695057 0.710838
Si Si3 0.195261 0.699968 0.624133
Si Si4 0.774738 0.304367 0.067073
Si Si5 0.996233 0.697402 0.151436
Si Si6 0.020616 0.302423 0.639237
Si Si7 0.917243 0.302577 0.932754
O O1 0.750000 0.250000 0.500000
O O2 0.647475 0.252020 0.553804
O O3 0.559912 0.256053 0.428400
O O4 0.641934 0.000000 0.491834
O O5 0.410962 0.500000 0.709806
O O6 0.306629 0.757835 0.663557
O O7 0.451507 0.753055 0.778683
O O8 0.488923 0.747027 0.687051
O O9 0.196952 0.500000 0.623989
O O10 0.126351 0.751200 0.651013
O O11 0.776794 0.500000 0.068531
O O12 0.689119 0.247541 0.079599
O O13 0.883577 0.244055 0.115133
O O14 0.750000 0.250000 0.000000
O O15 0.993845 0.500000 0.148383
O O16 0.052858 0.755172 0.116384
O O17 0.019251 0.500000 0.638418
O O18 0.920387 0.500000 0.933606
O O19 0.000000 0.245854 0.000000
#
# Coordination Sequence:
#
# PCOD9175248 Si02
#       7
#     8   8   8   8   8   8   8
#     4  10  18  32  57  85 113 146 188 238 291 342
#     4  11  23  39  58  82 116 152 192 244 286 332
#     4   9  19  36  57  82 114 150 191 237 284 340
#     4  11  22  38  62  91 120 152 191 238 288 344
#     4  10  23  42  61  83 119 158 191 232 287 352
#     4  10  20  36  60  84 111 153 195 233 288 352
#     4  10  20  39  63  89 121 153 186 233 293 347
#
# _framework density 19.771979000000002
#
# number of rings (size 3 to 8) (size 9 to 14) (size 15 to 20)
#    0.000    1.857    2.857    1.286    0.000    4.857 
#    0.000    6.429    0.000    1.714    0.000    0.000 
#    0.000    0.000    0.000    0.000    0.000    0.000 
#
# Total GULP energy -156387.005198 kJ/mol
# GULP energy per Si atom -5585.250186 kJ/mol
# Density = 1.972698 g / cm^3
# Si number density = 19.771979 Si / 1000 Ang^3
#
#
#
# Elastic Constant Matrix: (Units=GPa)
#
#
# Indices 1 2 3 4 5 6 
#
# 1 153.2473 12.0316 50.8727 0.0000 -38.4720 0.0000
# 2 12.0316 11.7656 10.9523 0.0000 -3.5603 0.0000
# 3 50.8727 10.9523 116.0941 0.0000 -36.2081 0.0000
# 4 0.0000 0.0000 0.0000 18.8329 0.0000 0.4429
# 5 -38.4720 -3.5603 -36.2081 0.0000 27.2625 0.0000
# 6 0.0000 0.0000 0.0000 0.4429 0.0000 28.5130
#
#
#
# Elastic Compliance Matrix: (Units=1/GPa)
#
#
# Indices 1 2 3 4 5 6 
#
# 1 0.010598 -0.006941 0.000670 0.000000 0.014940 0.000000
# 2 -0.006941 0.097733 -0.008967 0.000000 -0.008941 0.000000
# 3 0.000670 -0.008967 0.015528 0.000000 0.020397 0.000000
# 4 0.000000 0.000000 0.000000 0.053118 0.000000 -0.000825
# 5 0.014940 -0.008941 0.020397 0.000000 0.083685 0.000000
# 6 0.000000 0.000000 0.000000 -0.000825 0.000000 0.035085
#
#
# Mechanical properties :
#
#
# Convention : Reuss Voigt Hill
#
# Bulk Modulus (GPa) = 10.70859 47.64668 29.17764
# Shear Modulus (GPa) = 13.99183 28.73837 21.36510
#
# Velocity S-wave (km/s) = 2.66307 3.81660 3.29078
# Velocity P-wave (km/s) = 3.85795 6.60093 5.40630
#
# Compressibility (1/GPa) = 0.09338295
#
# Stress axis : x y z
#
# Youngs Moduli (GPa) = 94.35330 10.23192 64.40131
#
# Poissons Ratio (x) = 0.07102 -0.04315
# Poissons Ratio (y) = 0.65491 0.57750
# Poissons Ratio (z) = -0.06322 0.09175
#
# Static dielectric constant tensor:
#      x y z
#    x 1.680230 0.000000 0.009750 
#    y 0.000000 1.701940 0.000000 
#    z 0.009750 0.000000 1.673660 
# 
# From -- ./inp_files/309030.got.cif
#   From: 2010.05.17/outbox.cif.g08.bks.cpg/sg12_155_cif.got.tgz:309030.got - 2010.06.03 13:09:07.
