data_PCOD9175969
_publ_section_title
;
Structure prediction by ZEFSAII (Michael W. Deem and Ramdas Pophale) SiO2 
 PCOD9175969
Probable space group: C 2/M
;
_chemical_formula_sum "Si O2"
_cell_formula_units_Z 56
_cell_length_a 16.472156
_cell_length_b 17.505270
_cell_length_c 26.447106
_cell_angle_alpha 90.000000
_cell_angle_beta 23.816137
_cell_angle_gamma 90.000000
_cell_volume 3079.405835
_symmetry_space_group_name_H-M "C 2/M"
_symmetry_group_IT_number 12
_symmetry_cell_setting 'monoclinic'
loop_
_space_group_symop_operation_xyz
x,y,z
-x,y,-z
-x,-y,-z
x,-y,z
1/2+x,1/2+y,z
1/2-x,1/2+y,-z
1/2-x,1/2-y,-z
1/2+x,1/2-y,z
loop_
_atom_site_type_symbol
_atom_site_label
_atom_site_fract_x
_atom_site_fract_y
_atom_site_fract_z
Si Si1 0.754613 0.177003 0.282714
Si Si2 0.561095 0.805749 0.220525
Si Si3 0.288695 0.785066 0.532939
Si Si4 0.933923 0.690549 0.892650
Si Si5 0.813041 0.091010 0.145274
Si Si6 0.680507 0.851435 0.936175
Si Si7 0.611586 0.586684 0.692160
O O1 0.521503 0.200067 0.411869
O O2 0.829934 0.128036 0.191304
O O3 0.810762 0.131076 0.301825
O O4 0.872471 0.256372 0.214640
O O5 0.341543 0.770337 0.356203
O O6 0.572363 0.845002 0.159279
O O7 0.628151 0.864580 0.224863
O O8 0.716690 0.733105 0.131147
O O9 0.250000 0.750000 0.500000
O O10 0.192230 0.867923 0.597687
O O11 0.750000 0.750000 0.000000
O O12 0.909865 0.641486 0.956174
O O13 0.786166 0.000000 0.164603
O O14 0.000000 0.104879 0.000000
O O15 0.871028 0.906857 0.825712
O O16 0.500000 0.862052 0.000000
O O17 0.680030 0.500000 0.655095
#
# Coordination Sequence:
#
# PCOD9175969 Si02
#       7
#     8   8   8   8   8   8   8
#     4  12  21  38  63  88 123 155 202 252 307 355
#     4  10  19  38  55  86 120 153 205 247 294 352
#     4  11  23  40  60  86 113 158 206 250 299 355
#     4  10  18  33  61  88 112 152 196 249 297 347
#     4  11  23  35  56  88 126 162 193 242 307 367
#     4  10  20  36  61  88 119 160 201 252 299 360
#     4  11  25  41  59  91 128 159 200 252 315 373
#
# _framework density 18.185326
#
# number of rings (size 3 to 8) (size 9 to 14) (size 15 to 20)
#    0.000    1.286    5.714    3.857    2.000    2.000 
#    0.000    0.000    0.000    0.000    0.000    1.000 
#    0.000    0.000    0.000    0.000    0.000    0.000 
#
# Total GULP energy -156147.998578 kJ/mol
# GULP energy per Si atom -5576.714235 kJ/mol
# Density = 1.814394 g / cm^3
# Si number density = 18.185326 Si / 1000 Ang^3
#
#
#
# Elastic Constant Matrix: (Units=GPa)
#
#
# Indices 1 2 3 4 5 6 
#
# 1 110.4826 16.5526 43.7420 0.0110 5.6428 -0.0065
# 2 16.5526 41.1822 19.3385 0.0361 -4.6484 -0.0048
# 3 43.7420 19.3385 92.6437 0.0343 -10.8508 0.0048
# 4 0.0110 0.0361 0.0343 15.1900 0.0215 2.2915
# 5 5.6428 -4.6484 -10.8508 0.0215 36.1500 -0.0020
# 6 -0.0065 -0.0048 0.0048 2.2915 -0.0020 12.6852
#
#
#
# Elastic Compliance Matrix: (Units=1/GPa)
#
#
# Indices 1 2 3 4 5 6 
#
# 1 0.011805 -0.002604 -0.005478 0.000015 -0.003822 0.000004
# 2 -0.002604 0.027614 -0.004220 -0.000061 0.002691 0.000022
# 3 -0.005478 -0.004220 0.014819 -0.000025 0.004761 -0.000005
# 4 0.000015 -0.000061 -0.000025 0.067678 -0.000059 -0.012226
# 5 -0.003822 0.002691 0.004761 -0.000059 0.030034 0.000013
# 6 0.000004 0.000022 -0.000005 -0.012226 0.000013 0.081040
#
#
# Mechanical properties :
#
#
# Convention : Reuss Voigt Hill
#
# Bulk Modulus (GPa) = 33.74354 44.84162 39.29258
# Shear Modulus (GPa) = 18.69355 23.78340 21.23847
#
# Velocity S-wave (km/s) = 3.20964 3.62032 3.42115
# Velocity P-wave (km/s) = 5.68607 6.49518 6.10404
#
# Compressibility (1/GPa) = 0.02963530
#
# Stress axis : x y z
#
# Youngs Moduli (GPa) = 84.70715 36.21328 67.48147
#
# Poissons Ratio (x) = 0.09430 0.36966
# Poissons Ratio (y) = 0.22058 0.28474
# Poissons Ratio (z) = 0.46403 0.15280
#
# Static dielectric constant tensor:
#      x y z
#    x 1.658480 -0.000010 0.009120 
#    y -0.000010 1.571240 0.000040 
#    z 0.009120 0.000040 1.615570 
# 
# From -- ./inp_files/364435.got.cif
#   From: 2010.05.17/outbox.cif.g08.bks.cpg/sg12_183_cif.got.tgz:364435.got - 2010.06.03 13:09:07.
