data_PCOD9175009
_publ_section_title
;
Structure prediction by ZEFSAII (Michael W. Deem and Ramdas Pophale) SiO2 
 PCOD9175009
Probable space group: C 2/M
;
_chemical_formula_sum "Si O2"
_cell_formula_units_Z 40
_cell_length_a 13.454833
_cell_length_b 14.320771
_cell_length_c 10.552337
_cell_angle_alpha 90.000000
_cell_angle_beta 130.523983
_cell_angle_gamma 90.000000
_cell_volume 1545.551753
_symmetry_space_group_name_H-M "C 2/M"
_symmetry_group_IT_number 12
_symmetry_cell_setting 'monoclinic'
loop_
_space_group_symop_operation_xyz
x,y,z
-x,y,-z
-x,-y,-z
x,-y,z
1/2+x,1/2+y,z
1/2-x,1/2+y,-z
1/2-x,1/2-y,-z
1/2+x,1/2-y,z
loop_
_atom_site_type_symbol
_atom_site_label
_atom_site_fract_x
_atom_site_fract_y
_atom_site_fract_z
Si Si1 0.630636 0.291905 0.170561
Si Si2 0.750615 0.138982 0.972308
Si Si3 0.001321 0.854392 0.317561
Si Si4 0.488713 0.134150 0.637023
Si Si5 0.737563 0.899612 0.355150
O O1 0.693259 0.363054 0.123832
O O2 0.580937 0.345526 0.251521
O O3 0.713959 0.200106 0.269073
O O4 0.500000 0.251113 0.000000
O O5 0.603801 0.103666 0.830552
O O6 0.750000 0.250000 0.000000
O O7 0.859652 0.104757 0.162388
O O8 0.991876 0.746170 0.350774
O O9 0.107429 0.902013 0.493700
O O10 0.500000 0.102500 0.500000
O O11 0.351310 0.110886 0.590307
O O12 0.697733 0.000000 0.264935
#
# Coordination Sequence:
#
# PCOD9175009 Si02
#       5
#     8   8   8   8   8
#     4   9  17  33  56  78  99 132 179 221 255 300
#     4   9  17  30  55  81  97 121 172 231 265 287
#     4   9  18  33  53  76 101 136 180 216 253 304
#     4  10  18  32  55  78 100 131 178 229 260 290
#     4  11  22  34  50  77 113 146 170 200 257 327
#
# _framework density 25.880724000000001
#
# number of rings (size 3 to 8) (size 9 to 14) (size 15 to 20)
#    0.000    2.400    0.000    6.000    0.000    0.800 
#    0.000    1.000    0.000   26.400    0.000    0.000 
#    0.000    0.000    0.000    0.000    0.000    0.000 
#
# Total GULP energy -111681.778854 kJ/mol
# GULP energy per Si atom -5584.088943 kJ/mol
# Density = 2.582182 g / cm^3
# Si number density = 25.880724 Si / 1000 Ang^3
#
#
#
# Elastic Constant Matrix: (Units=GPa)
#
#
# Indices 1 2 3 4 5 6 
#
# 1 118.4816 -15.4997 24.2381 0.0000 11.6404 0.0000
# 2 -15.4997 87.5549 1.9926 0.0000 20.9510 0.0000
# 3 24.2381 1.9926 170.8084 0.0000 59.3686 0.0000
# 4 0.0000 0.0000 0.0000 -36.9500 0.0000 -4.7041
# 5 11.6404 20.9510 59.3686 0.0000 45.4723 0.0000
# 6 0.0000 0.0000 0.0000 -4.7041 0.0000 -19.0542
#
#
#
# Elastic Compliance Matrix: (Units=1/GPa)
#
#
# Indices 1 2 3 4 5 6 
#
# 1 0.009103 0.002360 -0.000241 0.000000 -0.003103 0.000000
# 2 0.002360 0.014695 0.003766 0.000000 -0.012291 0.000000
# 3 -0.000241 0.003766 0.011765 0.000000 -0.017034 0.000000
# 4 0.000000 0.000000 0.000000 -0.027942 0.000000 0.006898
# 5 -0.003103 -0.012291 -0.017034 0.000000 0.050689 0.000000
# 6 0.000000 0.000000 0.000000 0.006898 0.000000 -0.054185
#
#
# Mechanical properties :
#
#
# Convention : Reuss Voigt Hill
#
# Bulk Modulus (GPa) = 21.12729 44.25632 32.69181
# Shear Modulus (GPa) = 614.75972 22.30122 318.53047
#
# Velocity S-wave (km/s) = 15.42892 2.93864 11.10601
# Velocity P-wave (km/s) = 18.04392 5.35270 13.30854
#
# Compressibility (1/GPa) = 0.04733214
#
# Stress axis : x y z
#
# Youngs Moduli (GPa) = 109.85503 68.05259 84.99456
#
# Poissons Ratio (x) = -0.16057 0.02046
# Poissons Ratio (y) = -0.25920 -0.32007
# Poissons Ratio (z) = 0.02644 -0.25627
#
# Static dielectric constant tensor:
#      x y z
#    x 2.087360 0.000000 -0.028800 
#    y 0.000000 1.971440 0.000000 
#    z -0.028800 0.000000 2.110140 
# 
# From -- ./inp_files/142504.got.cif
#   From: 2010.05.17/outbox.cif.g08.bks.cpg/sg12_72_cif.got.tgz:142504.got - 2010.06.03 13:09:07.
