data_PCOD9175858
_publ_section_title
;
Structure prediction by ZEFSAII (Michael W. Deem and Ramdas Pophale) SiO2 
 PCOD9175858
Probable space group: C 2/M
;
_chemical_formula_sum "Si O2"
_cell_formula_units_Z 48
_cell_length_a 18.599286
_cell_length_b 13.891856
_cell_length_c 7.138142
_cell_angle_alpha 90.000000
_cell_angle_beta 86.699704
_cell_angle_gamma 90.000000
_cell_volume 1841.284349
_symmetry_space_group_name_H-M "C 2/M"
_symmetry_group_IT_number 12
_symmetry_cell_setting 'monoclinic'
loop_
_space_group_symop_operation_xyz
x,y,z
-x,y,-z
-x,-y,-z
x,-y,z
1/2+x,1/2+y,z
1/2-x,1/2+y,-z
1/2-x,1/2-y,-z
1/2+x,1/2-y,z
loop_
_atom_site_type_symbol
_atom_site_label
_atom_site_fract_x
_atom_site_fract_y
_atom_site_fract_z
Si Si1 0.178125 0.103859 0.790773
Si Si2 0.798325 0.107435 0.626658
Si Si3 0.974234 0.609838 0.224405
Si Si4 0.171086 0.685609 0.881479
Si Si5 0.492113 0.392700 0.275320
Si Si6 0.401743 0.230484 0.751719
O O1 0.221060 0.107918 0.589096
O O2 0.193009 0.202503 0.890554
O O3 0.092662 0.108676 0.755808
O O4 0.191672 0.000000 0.879767
O O5 0.731915 0.123636 0.774167
O O6 0.850200 0.199411 0.643910
O O7 0.830282 0.000000 0.652893
O O8 0.959020 0.500000 0.275686
O O9 0.900757 0.670808 0.233794
O O10 0.040325 0.654709 0.330240
O O11 0.000000 0.611277 0.000000
O O12 0.145342 0.668312 0.096184
O O13 0.500000 0.380611 0.500000
O O14 0.517318 0.500000 0.220444
O O15 0.542649 0.312203 0.174157
#
# Coordination Sequence:
#
# PCOD9175858 Si02
#       6
#     8   8   8   8   8   8
#     4  10  21  36  58  86 116 155 194 234 290 346
#     4  11  23  40  61  84 116 160 197 231 288 357
#     4   9  19  36  57  81 113 152 192 233 283 343
#     4  11  22  38  58  88 119 151 193 244 291 337
#     4  10  18  33  58  86 117 152 190 232 285 349
#     4  11  21  36  60  90 113 149 195 245 290 332
#
# _framework density 26.068760000000001
#
# number of rings (size 3 to 8) (size 9 to 14) (size 15 to 20)
#    0.000    1.667    3.333    2.000    0.000    2.000 
#    0.000    2.500    0.000    5.500    0.000    0.000 
#    0.000    0.000    0.000    0.000    0.000    0.000 
#
# Total GULP energy -134225.661892 kJ/mol
# GULP energy per Si atom -5592.735912 kJ/mol
# Density = 2.600943 g / cm^3
# Si number density = 26.068760 Si / 1000 Ang^3
#
#
#
# Elastic Constant Matrix: (Units=GPa)
#
#
# Indices 1 2 3 4 5 6 
#
# 1 85.6914 26.8468 22.3205 0.0000 -11.4448 0.0000
# 2 26.8468 134.7397 4.1353 0.0000 -7.3089 0.0000
# 3 22.3205 4.1353 89.8184 0.0000 -17.4335 0.0000
# 4 0.0000 0.0000 0.0000 26.4094 0.0000 12.8095
# 5 -11.4448 -7.3089 -17.4335 0.0000 32.1532 0.0000
# 6 0.0000 0.0000 0.0000 12.8095 0.0000 6.8339
#
#
#
# Elastic Compliance Matrix: (Units=1/GPa)
#
#
# Indices 1 2 3 4 5 6 
#
# 1 0.013517 -0.002459 -0.002705 0.000000 0.002786 0.000000
# 2 -0.002459 0.007962 0.000476 0.000000 0.001193 0.000000
# 3 -0.002705 0.000476 0.012985 0.000000 0.006186 0.000000
# 4 0.000000 0.000000 0.000000 0.416863 0.000000 -0.781378
# 5 0.002786 0.001193 0.006186 0.000000 0.035717 0.000000
# 6 0.000000 0.000000 0.000000 -0.781378 0.000000 1.610965
#
#
# Mechanical properties :
#
#
# Convention : Reuss Voigt Hill
#
# Bulk Modulus (GPa) = 39.86179 46.31718 43.08949
# Shear Modulus (GPa) = 2.36323 30.20908 16.28616
#
# Velocity S-wave (km/s) = 0.95316 3.40784 2.50219
# Velocity P-wave (km/s) = 4.06639 5.76978 4.99129
#
# Compressibility (1/GPa) = 0.02508668
#
# Stress axis : x y z
#
# Youngs Moduli (GPa) = 73.98169 125.60011 77.01484
#
# Poissons Ratio (x) = 0.30886 0.20834
# Poissons Ratio (y) = 0.18193 -0.03666
# Poissons Ratio (z) = 0.20013 -0.05979
#
# Static dielectric constant tensor:
#      x y z
#    x 2.077490 0.000000 0.029890 
#    y 0.000000 1.988160 0.000000 
#    z 0.029890 0.000000 2.111390 
# 
# From -- ./inp_files/85705.got.cif
#   From: 2010.05.17/outbox.cif.g08.bks.cpg/sg12_43_cif.got.tgz:85705.got - 2010.06.03 13:09:07.
