data_PCOD9175566
_publ_section_title
;
Structure prediction by ZEFSAII (Michael W. Deem and Ramdas Pophale) SiO2 
 PCOD9175566
Probable space group: C 2/M
;
_chemical_formula_sum "Si O2"
_cell_formula_units_Z 56
_cell_length_a 14.864128
_cell_length_b 18.370139
_cell_length_c 20.804106
_cell_angle_alpha 90.000000
_cell_angle_beta 32.487922
_cell_angle_gamma 90.000000
_cell_volume 3051.221411
_symmetry_space_group_name_H-M "C 2/M"
_symmetry_group_IT_number 12
_symmetry_cell_setting 'monoclinic'
loop_
_space_group_symop_operation_xyz
x,y,z
-x,y,-z
-x,-y,-z
x,-y,z
1/2+x,1/2+y,z
1/2-x,1/2+y,-z
1/2-x,1/2-y,-z
1/2+x,1/2-y,z
loop_
_atom_site_type_symbol
_atom_site_label
_atom_site_fract_x
_atom_site_fract_y
_atom_site_fract_z
Si Si1 0.886186 0.300300 0.999600
Si Si2 0.347358 0.584720 0.816774
Si Si3 0.003134 0.084373 0.866056
Si Si4 0.315986 0.160011 0.893355
Si Si5 0.707007 0.270905 0.761399
Si Si6 0.471861 0.307205 0.381474
Si Si7 0.342703 0.798158 0.349410
O O1 0.855867 0.319120 0.942799
O O2 0.073770 0.270560 0.887695
O O3 0.825861 0.372304 0.070678
O O4 0.761790 0.233428 0.089718
O O5 0.323495 0.500000 0.821661
O O6 0.447809 0.594592 0.824318
O O7 0.440810 0.622560 0.701516
O O8 0.143367 0.145215 0.798032
O O9 0.051757 0.000000 0.845694
O O10 0.836069 0.102789 0.009128
O O11 0.496535 0.147841 0.752153
O O12 0.683674 0.237996 0.704135
O O13 0.892503 0.248932 0.670830
O O14 0.390573 0.265528 0.370166
O O15 0.330469 0.328372 0.518264
#
# Coordination Sequence:
#
# PCOD9175566 Si02
#       7
#     8   8   8   8   8   8   8
#     4   8  14  28  49  76 102 134 171 218 275 318
#     4  10  18  33  54  83 114 137 175 230 290 327
#     4   9  17  32  58  86 113 141 173 228 294 335
#     4   8  13  28  52  73 103 137 179 221 257 320
#     4  10  19  34  56  81 111 140 185 231 268 322
#     4  11  21  32  54  82 107 150 187 224 268 317
#     4  10  19  35  53  76 108 142 199 224 252 317
#
# _framework density 18.353306
#
# number of rings (size 3 to 8) (size 9 to 14) (size 15 to 20)
#    0.000    2.571    2.857    2.143    0.000    0.571 
#    0.000    2.143    0.000   10.286    0.000    0.000 
#    0.000    0.000    0.000    0.000    0.000    0.000 
#
# Total GULP energy -155999.583778 kJ/mol
# GULP energy per Si atom -5571.413706 kJ/mol
# Density = 1.831153 g / cm^3
# Si number density = 18.353306 Si / 1000 Ang^3
#
#
#
# Elastic Constant Matrix: (Units=GPa)
#
#
# Indices 1 2 3 4 5 6 
#
# 1 59.1710 37.8746 31.2652 -0.0025 -7.1216 0.0008
# 2 37.8746 116.8336 53.0609 0.0059 3.9672 -0.0010
# 3 31.2652 53.0609 158.1444 0.0071 4.8233 -0.0030
# 4 -0.0025 0.0059 0.0071 19.6558 -0.0034 0.8656
# 5 -7.1216 3.9672 4.8233 -0.0034 16.1800 0.0002
# 6 0.0008 -0.0010 -0.0030 0.8656 0.0002 20.1791
#
#
#
# Elastic Compliance Matrix: (Units=1/GPa)
#
#
# Indices 1 2 3 4 5 6 
#
# 1 0.024598 -0.007121 -0.002884 0.000009 0.013432 -0.000002
# 2 -0.007121 0.012194 -0.002520 -0.000005 -0.005373 0.000001
# 3 -0.002884 -0.002520 0.007830 -0.000003 -0.002986 0.000001
# 4 0.000009 -0.000005 -0.000003 0.050972 0.000017 -0.002186
# 5 0.013432 -0.005373 -0.002986 0.000017 0.069924 -0.000002
# 6 -0.000002 0.000001 0.000001 -0.002186 -0.000002 0.049650
#
#
# Mechanical properties :
#
#
# Convention : Reuss Voigt Hill
#
# Bulk Modulus (GPa) = 51.08723 64.28338 57.68530
# Shear Modulus (GPa) = 20.26407 25.33286 22.79847
#
# Velocity S-wave (km/s) = 3.32642 3.71925 3.52831
# Velocity P-wave (km/s) = 6.53064 7.31747 6.93522
#
# Compressibility (1/GPa) = 0.01957436
#
# Stress axis : x y z
#
# Youngs Moduli (GPa) = 40.65312 82.00497 127.71473
#
# Poissons Ratio (x) = 0.58393 0.36828
# Poissons Ratio (y) = 0.28948 0.32182
# Poissons Ratio (z) = 0.11723 0.20664
#
# Static dielectric constant tensor:
#      x y z
#    x 1.691540 0.000000 -0.006060 
#    y 0.000000 1.590790 0.000000 
#    z -0.006060 0.000000 1.677200 
# 
# From -- ./inp_files/311660.got.cif
#   From: 2010.05.17/outbox.cif.g08.bks.cpg/sg12_156_cif.got.tgz:311660.got - 2010.06.03 13:09:07.
