data_PCOD9175382
_publ_section_title
;
Structure prediction by ZEFSAII (Michael W. Deem and Ramdas Pophale) SiO2 
 PCOD9175382
Probable space group: C 2/M
;
_chemical_formula_sum "Si O2"
_cell_formula_units_Z 48
_cell_length_a 15.606625
_cell_length_b 24.849549
_cell_length_c 11.692422
_cell_angle_alpha 90.000000
_cell_angle_beta 151.995144
_cell_angle_gamma 90.000000
_cell_volume 2129.170778
_symmetry_space_group_name_H-M "C 2/M"
_symmetry_group_IT_number 12
_symmetry_cell_setting 'monoclinic'
loop_
_space_group_symop_operation_xyz
x,y,z
-x,y,-z
-x,-y,-z
x,-y,z
1/2+x,1/2+y,z
1/2-x,1/2+y,-z
1/2-x,1/2-y,-z
1/2+x,1/2-y,z
loop_
_atom_site_type_symbol
_atom_site_label
_atom_site_fract_x
_atom_site_fract_y
_atom_site_fract_z
Si Si1 0.567532 0.061582 0.706092
Si Si2 0.301696 0.360749 0.133161
Si Si3 0.508384 0.211702 0.142409
Si Si4 0.098506 0.171124 0.317935
Si Si5 0.215767 0.560822 0.234589
Si Si6 0.683288 0.558965 0.382780
O O1 0.500000 0.076685 0.500000
O O2 0.714065 0.101753 0.931159
O O3 0.389122 0.061402 0.576936
O O4 0.637213 0.000000 0.783325
O O5 0.164461 0.312176 0.996843
O O6 0.489791 0.337419 0.308138
O O7 0.297121 0.397936 0.240109
O O8 0.690407 0.184914 0.408914
O O9 0.518507 0.275969 0.165226
O O10 0.500000 0.196995 0.000000
O O11 0.087576 0.114720 0.237406
O O12 0.233263 0.500000 0.208339
O O13 0.304532 0.561284 0.464658
O O14 0.000000 0.570846 0.000000
O O15 0.607625 0.500000 0.260794
#
# Coordination Sequence:
#
# PCOD9175382 Si02
#       6
#     8   8   8   8   8   8
#     4  10  21  38  63  94 135 181 220 266 328 394
#     4  12  22  40  67  97 129 171 225 274 328 392
#     4  11  25  46  67  92 133 177 218 278 341 391
#     4  11  25  43  65  98 133 171 224 270 331 402
#     4  10  18  32  62  96 130 169 206 261 331 388
#     4  10  20  38  62  93 132 169 210 266 329 389
#
# _framework density 22.543987000000001
#
# number of rings (size 3 to 8) (size 9 to 14) (size 15 to 20)
#    0.000    1.333    3.333    2.500    0.000    5.333 
#    0.000    1.667    0.000    3.500    0.000    0.000 
#    0.000    0.000    0.000    0.000    0.000    0.000 
#
# Total GULP energy -134311.498458 kJ/mol
# GULP energy per Si atom -5596.312436 kJ/mol
# Density = 2.249268 g / cm^3
# Si number density = 22.543987 Si / 1000 Ang^3
#
#
#
# Elastic Constant Matrix: (Units=GPa)
#
#
# Indices 1 2 3 4 5 6 
#
# 1 48.2047 14.5860 11.4414 0.0000 4.1155 0.0000
# 2 14.5860 170.2705 31.0961 0.0000 6.0096 0.0000
# 3 11.4414 31.0961 31.8188 0.0000 2.3099 0.0000
# 4 0.0000 0.0000 0.0000 20.3140 0.0000 25.3447
# 5 4.1155 6.0096 2.3099 0.0000 48.2614 0.0000
# 6 0.0000 0.0000 0.0000 25.3447 0.0000 110.2597
#
#
#
# Elastic Compliance Matrix: (Units=1/GPa)
#
#
# Indices 1 2 3 4 5 6 
#
# 1 0.022834 -0.000515 -0.007597 0.000000 -0.001519 0.000000
# 2 -0.000515 0.007176 -0.006789 0.000000 -0.000525 0.000000
# 3 -0.007597 -0.006789 0.040828 0.000000 -0.000461 0.000000
# 4 0.000000 0.000000 0.000000 0.069022 0.000000 -0.015866
# 5 -0.001519 -0.000525 -0.000461 0.000000 0.020937 0.000000
# 6 0.000000 0.000000 0.000000 -0.015866 0.000000 0.012716
#
#
# Mechanical properties :
#
#
# Convention : Reuss Voigt Hill
#
# Bulk Modulus (GPa) = 24.36946 40.50455 32.43701
# Shear Modulus (GPa) = 23.04214 48.64504 35.84359
#
# Velocity S-wave (km/s) = 3.20049 4.65023 3.99173
# Velocity P-wave (km/s) = 4.94881 6.84389 5.97200
#
# Compressibility (1/GPa) = 0.04103496
#
# Stress axis : x y z
#
# Youngs Moduli (GPa) = 43.79527 139.36195 24.49285
#
# Poissons Ratio (x) = 0.07177 0.18607
# Poissons Ratio (y) = 0.02255 0.16629
# Poissons Ratio (z) = 0.33271 0.94617
#
# Static dielectric constant tensor:
#      x y z
#    x 1.798640 0.000000 0.001250 
#    y 0.000000 1.862660 0.000000 
#    z 0.001250 0.000000 1.836830 
# 
# From -- ./inp_files/149855.got.cif
#   From: 2010.05.17/outbox.cif.g08.bks.cpg/sg12_75_cif.got.tgz:149855.got - 2010.06.03 13:09:07.
