data_PCOD9175692
_publ_section_title
;
Structure prediction by ZEFSAII (Michael W. Deem and Ramdas Pophale) SiO2 
 PCOD9175692
Probable space group: C 2/M
;
_chemical_formula_sum "Si O2"
_cell_formula_units_Z 64
_cell_length_a 12.299066
_cell_length_b 21.020748
_cell_length_c 15.284945
_cell_angle_alpha 90.000000
_cell_angle_beta 68.395349
_cell_angle_gamma 90.000000
_cell_volume 3674.081427
_symmetry_space_group_name_H-M "C 2/M"
_symmetry_group_IT_number 12
_symmetry_cell_setting 'monoclinic'
loop_
_space_group_symop_operation_xyz
x,y,z
-x,y,-z
-x,-y,-z
x,-y,z
1/2+x,1/2+y,z
1/2-x,1/2+y,-z
1/2-x,1/2-y,-z
1/2+x,1/2-y,z
loop_
_atom_site_type_symbol
_atom_site_label
_atom_site_fract_x
_atom_site_fract_y
_atom_site_fract_z
Si Si1 0.419885 0.927831 0.609847
Si Si2 0.377847 0.703921 0.208530
Si Si3 0.206765 0.668947 0.110060
Si Si4 0.252049 0.824440 0.588342
Si Si5 0.863240 0.812286 0.555440
Si Si6 0.000562 0.575697 0.219753
Si Si7 0.782968 0.655486 0.229867
Si Si8 0.358738 0.316968 0.897009
O O1 0.500000 0.925429 0.500000
O O2 0.316108 0.880714 0.618644
O O3 0.487679 0.910999 0.679115
O O4 0.377632 0.000000 0.633760
O O5 0.277812 0.671050 0.179786
O O6 0.356026 0.695360 0.318160
O O7 0.359004 0.779288 0.197886
O O8 0.502315 0.676291 0.145086
O O9 0.104182 0.617153 0.145163
O O10 0.158356 0.740549 0.109934
O O11 0.297326 0.660221 0.003838
O O12 0.209106 0.840590 0.504503
O O13 0.338083 0.763652 0.558765
O O14 0.806783 0.835499 0.662775
O O15 0.000000 0.824589 0.500000
O O16 0.013816 0.500000 0.202127
O O17 0.876084 0.600574 0.222027
O O18 0.707008 0.650188 0.164637
#
# Coordination Sequence:
#
# PCOD9175692 Si02
#       8
#     8   8   8   8   8   8   8   8
#     4  10  20  34  55  79 107 148 192 233 268 326
#     4  10  18  33  56  82 114 141 181 245 284 338
#     4  10  20  35  56  84 109 145 191 236 290 333
#     4  10  19  31  52  80 110 146 180 227 283 340
#     4  10  20  32  51  81 116 149 179 231 289 341
#     4  11  22  39  60  82 118 151 193 243 282 342
#     4  10  21  34  53  82 114 150 189 228 288 346
#     4  10  20  34  57  81 113 145 184 238 288 348
#
# _framework density 17.419321
#
# number of rings (size 3 to 8) (size 9 to 14) (size 15 to 20)
#    0.000    1.875    2.500    2.250    0.000    2.500 
#    0.000    1.250    0.000    6.750    0.000    0.000 
#    0.000    0.000    0.000    0.000    0.000    0.000 
#
# Total GULP energy -178469.248790 kJ/mol
# GULP energy per Si atom -5577.164025 kJ/mol
# Density = 1.737967 g / cm^3
# Si number density = 17.419321 Si / 1000 Ang^3
#
#
#
# Elastic Constant Matrix: (Units=GPa)
#
#
# Indices 1 2 3 4 5 6 
#
# 1 66.0979 34.7638 23.3336 0.0000 -15.6473 0.0000
# 2 34.7638 54.2977 20.0611 0.0000 -3.5464 0.0000
# 3 23.3336 20.0611 82.8222 0.0000 1.0495 0.0000
# 4 0.0000 0.0000 0.0000 16.1269 0.0000 2.3002
# 5 -15.6473 -3.5464 1.0495 0.0000 26.1812 0.0000
# 6 0.0000 0.0000 0.0000 2.3002 0.0000 24.9209
#
#
#
# Elastic Compliance Matrix: (Units=1/GPa)
#
#
# Indices 1 2 3 4 5 6 
#
# 1 0.028472 -0.015606 -0.004432 0.000000 0.015080 0.000000
# 2 -0.015606 0.029010 -0.002563 0.000000 -0.005295 0.000000
# 3 -0.004432 -0.002563 0.013989 0.000000 -0.003557 0.000000
# 4 0.000000 0.000000 0.000000 0.062835 0.000000 -0.005800
# 5 0.015080 -0.005295 -0.003557 0.000000 0.046633 0.000000
# 6 0.000000 0.000000 0.000000 -0.005800 0.000000 0.040662
#
#
# Mechanical properties :
#
#
# Convention : Reuss Voigt Hill
#
# Bulk Modulus (GPa) = 38.07025 39.94831 39.00928
# Shear Modulus (GPa) = 18.14489 21.78308 19.96398
#
# Velocity S-wave (km/s) = 3.23097 3.54010 3.38906
# Velocity P-wave (km/s) = 5.98511 6.30022 6.14469
#
# Compressibility (1/GPa) = 0.02626723
#
# Stress axis : x y z
#
# Youngs Moduli (GPa) = 35.12267 34.47098 71.48663
#
# Poissons Ratio (x) = 0.53796 0.31685
# Poissons Ratio (y) = 0.54814 0.18321
# Poissons Ratio (z) = 0.15567 0.08835
#
# Static dielectric constant tensor:
#      x y z
#    x 1.577880 0.000000 -0.001450 
#    y 0.000000 1.576530 0.000000 
#    z -0.001450 0.000000 1.608160 
# 
# From -- ./inp_files/207686.got.cif
#   From: 2010.05.17/outbox.cif.g08.bks.cpg/sg12_104_cif.got.tgz:207686.got - 2010.06.03 13:09:07.
