data_PCOD9175275
_publ_section_title
;
Structure prediction by ZEFSAII (Michael W. Deem and Ramdas Pophale) SiO2 
 PCOD9175275
Probable space group: C 2/M
;
_chemical_formula_sum "Si O2"
_cell_formula_units_Z 52
_cell_length_a 5.311250
_cell_length_b 29.601380
_cell_length_c 18.553581
_cell_angle_alpha 90.000000
_cell_angle_beta 51.874585
_cell_angle_gamma 90.000000
_cell_volume 2294.690938
_symmetry_space_group_name_H-M "C 2/M"
_symmetry_group_IT_number 12
_symmetry_cell_setting 'monoclinic'
loop_
_space_group_symop_operation_xyz
x,y,z
-x,y,-z
-x,-y,-z
x,-y,z
1/2+x,1/2+y,z
1/2-x,1/2+y,-z
1/2-x,1/2-y,-z
1/2+x,1/2-y,z
loop_
_atom_site_type_symbol
_atom_site_label
_atom_site_fract_x
_atom_site_fract_y
_atom_site_fract_z
Si Si1 0.797557 0.266823 0.163951
Si Si2 0.669397 0.874851 0.636135
Si Si3 0.601064 0.771060 0.628118
Si Si4 0.687061 0.000000 0.744690
Si Si5 0.156043 0.364095 0.898594
Si Si6 0.267887 0.428095 0.400713
Si Si7 0.803298 0.408087 0.833545
O O1 0.667676 0.240296 0.117763
O O2 0.630301 0.243266 0.263295
O O3 0.726101 0.319835 0.165804
O O4 0.667333 0.823612 0.613377
O O5 0.432944 0.903664 0.626738
O O6 0.518164 0.877840 0.742153
O O7 0.024124 0.894937 0.584568
O O8 0.419252 0.755010 0.590717
O O9 0.417951 0.959518 0.802613
O O10 0.968600 0.961184 0.679546
O O11 0.444496 0.397200 0.871190
O O12 0.899555 0.391151 0.895848
O O13 0.000000 0.347005 0.000000
O O14 0.000000 0.449590 0.500000
#
# Coordination Sequence:
#
# PCOD9175275 Si02
#       7
#     8   8   8   4   8   8   8
#     4  10  20  34  57  88 123 163 211 264 309 361
#     4  11  22  39  67  96 130 176 213 256 315 382
#     4  10  18  32  57  89 120 163 218 262 293 347
#     4  10  25  44  73 100 122 162 212 268 317 390
#     4  12  25  42  63  92 134 175 213 272 335 373
#     4  11  24  43  68 101 135 161 199 261 334 393
#     4  11  23  43  65  93 126 166 222 264 315 394
#
# _framework density 22.661006
#
# number of rings (size 3 to 8) (size 9 to 14) (size 15 to 20)
#    0.000    1.231    0.000    8.538    0.000    6.154 
#    0.000    6.154    0.000    9.231    0.000    0.000 
#    0.000    0.000    0.000    0.000    0.000    0.000 
#
# Total GULP energy -144783.019378 kJ/mol
# GULP energy per Si atom -5568.577668 kJ/mol
# Density = 2.260943 g / cm^3
# Si number density = 22.661006 Si / 1000 Ang^3
#
#
#
# Elastic Constant Matrix: (Units=GPa)
#
#
# Indices 1 2 3 4 5 6 
#
# 1 148.1090 29.5155 26.9146 0.0000 17.8078 0.0000
# 2 29.5155 119.7820 29.0391 0.0000 15.3260 0.0000
# 3 26.9146 29.0391 47.2627 0.0000 -2.4323 0.0000
# 4 0.0000 0.0000 0.0000 6.4500 0.0000 -15.7024
# 5 17.8078 15.3260 -2.4323 0.0000 24.0857 0.0000
# 6 0.0000 0.0000 0.0000 -15.7024 0.0000 31.5420
#
#
#
# Elastic Compliance Matrix: (Units=1/GPa)
#
#
# Indices 1 2 3 4 5 6 
#
# 1 0.008518 0.000047 -0.005232 0.000000 -0.006856 0.000000
# 2 0.000047 0.011095 -0.007246 0.000000 -0.007826 0.000000
# 3 -0.005232 -0.007246 0.029178 0.000000 0.011426 0.000000
# 4 0.000000 0.000000 0.000000 -0.731514 0.000000 -0.364166
# 5 -0.006856 -0.007826 0.011426 0.000000 0.052721 0.000000
# 6 0.000000 0.000000 0.000000 -0.364166 0.000000 -0.149587
#
#
# Mechanical properties :
#
#
# Convention : Reuss Voigt Hill
#
# Bulk Modulus (GPa) = 41.79304 54.01022 47.90163
# Shear Modulus (GPa) = -6.69568 27.72784 10.51608
#
# Velocity S-wave (km/s) = -1.72079 3.50178 2.15654
# Velocity P-wave (km/s) = 3.81242 6.34316 5.23308
#
# Compressibility (1/GPa) = 0.02392743
#
# Stress axis : x y z
#
# Youngs Moduli (GPa) = 117.40534 90.12979 34.27226
#
# Poissons Ratio (x) = -0.00422 0.17931
# Poissons Ratio (y) = -0.00549 0.24835
# Poissons Ratio (z) = 0.61426 0.65312
#
# Static dielectric constant tensor:
#      x y z
#    x 2.002290 0.000000 -0.299080 
#    y 0.000000 1.787050 0.000000 
#    z -0.299080 0.000000 2.543980 
# 
# From -- ./inp_files/298344.got.cif
#   From: 2010.05.17/outbox.cif.g08.bks.cpg/sg12_150_cif.got.tgz:298344.got - 2010.06.03 13:09:07.
