data_PCOD9175023
_publ_section_title
;
Structure prediction by ZEFSAII (Michael W. Deem and Ramdas Pophale) SiO2 
 PCOD9175023
Probable space group: C 2/M
;
_chemical_formula_sum "Si O2"
_cell_formula_units_Z 48
_cell_length_a 10.347233
_cell_length_b 14.367455
_cell_length_c 13.486562
_cell_angle_alpha 90.000000
_cell_angle_beta 85.294925
_cell_angle_gamma 90.000000
_cell_volume 1998.201764
_symmetry_space_group_name_H-M "C 2/M"
_symmetry_group_IT_number 12
_symmetry_cell_setting 'monoclinic'
loop_
_space_group_symop_operation_xyz
x,y,z
-x,y,-z
-x,-y,-z
x,-y,z
1/2+x,1/2+y,z
1/2-x,1/2+y,-z
1/2-x,1/2-y,-z
1/2+x,1/2-y,z
loop_
_atom_site_type_symbol
_atom_site_label
_atom_site_fract_x
_atom_site_fract_y
_atom_site_fract_z
Si Si1 0.519712 0.895189 0.773641
Si Si2 0.419828 0.704159 0.731328
Si Si3 0.363396 0.219304 0.068631
Si Si4 0.109107 0.106554 0.580333
Si Si5 0.463592 0.399708 0.118086
Si Si6 0.727051 0.107454 0.601807
O O1 0.422516 0.808216 0.772690
O O2 0.622191 0.865859 0.854349
O O3 0.587516 0.894422 0.661071
O O4 0.471508 0.000000 0.796084
O O5 0.552783 0.676153 0.664939
O O6 0.415552 0.631082 0.822628
O O7 0.308709 0.679005 0.661945
O O8 0.371314 0.312093 0.134582
O O9 0.500000 0.210756 0.000000
O O10 0.250000 0.250000 0.000000
O O11 0.243597 0.128506 0.515078
O O12 0.000000 0.108740 0.500000
O O13 0.114811 0.000000 0.617136
O O14 0.412555 0.500000 0.149962
O O15 0.500000 0.403958 0.000000
O O16 0.776697 0.000000 0.611993
#
# Coordination Sequence:
#
# PCOD9175023 Si02
#       6
#     8   8   8   8   8   8
#     4  10  23  37  55  81 115 156 194 238 298 364
#     4  10  18  32  55  78 112 148 191 242 293 352
#     4  10  23  40  61  86 117 155 202 248 294 357
#     4   8  14  27  51  84 112 139 186 247 302 349
#     4   9  18  31  51  82 110 139 184 241 296 344
#     4   9  18  33  57  85 110 145 192 242 301 360
#
# _framework density 24.021598000000001
#
# number of rings (size 3 to 8) (size 9 to 14) (size 15 to 20)
#    0.000    2.667    0.000    2.500    7.000    1.667 
#    0.000    0.000    0.000    6.500    0.000    0.000 
#    0.000    0.000    0.000    0.000    0.000    0.000 
#
# Total GULP energy -133719.813709 kJ/mol
# GULP energy per Si atom -5571.658905 kJ/mol
# Density = 2.396692 g / cm^3
# Si number density = 24.021598 Si / 1000 Ang^3
#
#
#
# Elastic Constant Matrix: (Units=GPa)
#
#
# Indices 1 2 3 4 5 6 
#
# 1 43.3960 -0.1140 14.2774 0.0000 -11.1914 0.0000
# 2 -0.1140 165.9626 20.2551 0.0000 14.4349 0.0000
# 3 14.2774 20.2551 105.8156 0.0000 -13.4957 0.0000
# 4 0.0000 0.0000 0.0000 17.6613 0.0000 -10.5931
# 5 -11.1914 14.4349 -13.4957 0.0000 31.4620 0.0000
# 6 0.0000 0.0000 0.0000 -10.5931 0.0000 -8.1470
#
#
#
# Elastic Compliance Matrix: (Units=1/GPa)
#
#
# Indices 1 2 3 4 5 6 
#
# 1 0.025990 -0.000429 -0.002349 0.000000 0.008434 0.000000
# 2 -0.000429 0.006571 -0.001697 0.000000 -0.003895 0.000000
# 3 -0.002349 -0.001697 0.010669 0.000000 0.004519 0.000000
# 4 0.000000 0.000000 0.000000 0.031812 0.000000 -0.041363
# 5 0.008434 -0.003895 0.004519 0.000000 0.038510 0.000000
# 6 0.000000 0.000000 0.000000 -0.041363 0.000000 -0.068962
#
#
# Mechanical properties :
#
#
# Convention : Reuss Voigt Hill
#
# Bulk Modulus (GPa) = 29.17115 42.66791 35.91953
# Shear Modulus (GPa) = 76.96331 26.91230 51.93781
#
# Velocity S-wave (km/s) = 5.66646 3.35078 4.65492
# Velocity P-wave (km/s) = 7.41497 5.72461 6.62393
#
# Compressibility (1/GPa) = 0.03428045
#
# Stress axis : x y z
#
# Youngs Moduli (GPa) = 38.47570 152.18312 93.73387
#
# Poissons Ratio (x) = 0.06530 0.22018
# Poissons Ratio (y) = 0.01651 0.15904
# Poissons Ratio (z) = 0.09038 0.25821
#
# Static dielectric constant tensor:
#      x y z
#    x 2.086690 0.000000 -0.053090 
#    y 0.000000 1.936890 0.000000 
#    z -0.053090 0.000000 2.005270 
# 
# From -- ./inp_files/204362.got.cif
#   From: 2010.05.17/outbox.cif.g08.bks.cpg/sg12_103_cif.got.tgz:204362.got - 2010.06.03 13:09:07.
