data_PCOD9175154
_publ_section_title
;
Structure prediction by ZEFSAII (Michael W. Deem and Ramdas Pophale) SiO2 
 PCOD9175154
Probable space group: C 2/M
;
_chemical_formula_sum "Si O2"
_cell_formula_units_Z 48
_cell_length_a 28.797229
_cell_length_b 16.549500
_cell_length_c 13.794973
_cell_angle_alpha 90.000000
_cell_angle_beta 20.442288
_cell_angle_gamma 90.000000
_cell_volume 2296.201077
_symmetry_space_group_name_H-M "C 2/M"
_symmetry_group_IT_number 12
_symmetry_cell_setting 'monoclinic'
loop_
_space_group_symop_operation_xyz
x,y,z
-x,y,-z
-x,-y,-z
x,-y,z
1/2+x,1/2+y,z
1/2-x,1/2+y,-z
1/2-x,1/2-y,-z
1/2+x,1/2-y,z
loop_
_atom_site_type_symbol
_atom_site_label
_atom_site_fract_x
_atom_site_fract_y
_atom_site_fract_z
Si Si1 0.713401 0.816475 0.432656
Si Si2 0.417978 0.871910 0.565516
Si Si3 0.144230 0.907826 0.019619
Si Si4 0.352200 0.090739 0.035202
Si Si5 0.365937 0.837793 0.214359
Si Si6 0.394851 0.709078 0.516194
O O1 0.788485 0.870222 0.207748
O O2 0.696190 0.869895 0.563628
O O3 0.794296 0.740190 0.313263
O O4 0.601635 0.766228 0.588392
O O5 0.500000 0.893451 0.500000
O O6 0.268332 0.905463 0.851674
O O7 0.398553 0.775393 0.593183
O O8 0.513447 0.899886 0.290197
O O9 0.101089 0.000000 0.091516
O O10 0.019301 0.850137 0.283633
O O11 0.380635 0.103601 0.094372
O O12 0.241334 0.157097 0.221548
O O13 0.300295 0.000000 0.121972
O O14 0.500000 0.806347 0.000000
#
# Coordination Sequence:
#
# PCOD9175154 Si02
#       6
#     8   8   8   8   8   8
#     4   9  19  34  56  83 119 159 198 238 280 332
#     4  11  24  43  65  86 112 151 197 241 290 354
#     4  11  22  37  61  92 122 152 190 239 293 347
#     4  11  24  40  59  88 124 154 188 244 302 344
#     4  10  18  32  56  82 113 158 204 236 274 336
#     4  10  21  41  64  87 116 156 200 238 284 345
#
# _framework density 20.904093
#
# number of rings (size 3 to 8) (size 9 to 14) (size 15 to 20)
#    0.000    1.667    0.000    7.000    0.000    5.000 
#    0.000    0.000    0.000   13.500    0.000    0.000 
#    0.000    0.000    0.000    0.000    0.000    0.000 
#
# Total GULP energy -133700.366094 kJ/mol
# GULP energy per Si atom -5570.848587 kJ/mol
# Density = 2.085651 g / cm^3
# Si number density = 20.904093 Si / 1000 Ang^3
#
#
#
# Elastic Constant Matrix: (Units=GPa)
#
#
# Indices 1 2 3 4 5 6 
#
# 1 9.3678 29.3534 14.3366 0.0001 -11.2377 0.0000
# 2 29.3534 83.4265 1.2084 0.0000 -10.4363 0.0000
# 3 14.3366 1.2084 50.4765 0.0001 -25.4510 0.0000
# 4 0.0001 0.0000 0.0001 43.8991 -0.0001 0.5218
# 5 -11.2377 -10.4363 -25.4510 -0.0001 15.9228 0.0000
# 6 0.0000 0.0000 0.0000 0.5218 0.0000 11.3848
#
#
#
# Elastic Compliance Matrix: (Units=1/GPa)
#
#
# Indices 1 2 3 4 5 6 
#
# 1 -0.200962 0.062667 0.024603 0.000000 -0.061432 0.000001
# 2 0.062667 -0.000364 0.022620 0.000000 0.080145 0.000000
# 3 0.024603 0.022620 0.146923 0.000000 0.267032 0.000000
# 4 0.000000 0.000000 0.000000 0.022792 0.000000 -0.001045
# 5 -0.061432 0.080145 0.267032 0.000000 0.498800 0.000000
# 6 0.000001 0.000000 0.000000 -0.001045 0.000000 0.087884
#
#
# Mechanical properties :
#
#
# Convention : Reuss Voigt Hill
#
# Bulk Modulus (GPa) = 6.04682 25.89641 15.97162
# Shear Modulus (GPa) = 12.80673 20.79950 16.80312
#
# Velocity S-wave (km/s) = 2.47785 3.15778 2.83825
# Velocity P-wave (km/s) = 3.32945 5.07055 4.28927
#
# Compressibility (1/GPa) = 0.16537618
#
# Stress axis : x y z
#
# Youngs Moduli (GPa) = -4.97608 -2744.17011 6.80628
#
# Poissons Ratio (x) = 171.96784 -0.16745
# Poissons Ratio (y) = 0.31183 -0.15396
# Poissons Ratio (z) = 0.12243 62.07282
#
# Static dielectric constant tensor:
#      x y z
#    x 1.898160 0.000000 0.135430 
#    y 0.000000 1.732120 0.000000 
#    z 0.135430 0.000000 1.997120 
# 
# From -- ./inp_files/251418.got.cif
#   From: 2010.05.17/outbox.cif.g08.bks.cpg/sg12_126_cif.got.tgz:251418.got - 2010.06.03 13:09:07.
