data_PCOD9175949
_publ_section_title
;
Structure prediction by ZEFSAII (Michael W. Deem and Ramdas Pophale) SiO2 
 PCOD9175949
Probable space group: C 2/M
;
_chemical_formula_sum "Si O2"
_cell_formula_units_Z 64
_cell_length_a 29.153095
_cell_length_b 7.861432
_cell_length_c 18.079942
_cell_angle_alpha 90.000000
_cell_angle_beta 42.519322
_cell_angle_gamma 90.000000
_cell_volume 2800.441378
_symmetry_space_group_name_H-M "C 2/M"
_symmetry_group_IT_number 12
_symmetry_cell_setting 'monoclinic'
loop_
_space_group_symop_operation_xyz
x,y,z
-x,y,-z
-x,-y,-z
x,-y,z
1/2+x,1/2+y,z
1/2-x,1/2+y,-z
1/2-x,1/2-y,-z
1/2+x,1/2-y,z
loop_
_atom_site_type_symbol
_atom_site_label
_atom_site_fract_x
_atom_site_fract_y
_atom_site_fract_z
Si Si1 0.677001 0.789457 0.525124
Si Si2 0.843639 0.693555 0.690702
Si Si3 0.091226 0.702212 0.080270
Si Si4 0.404864 0.688371 0.760016
Si Si5 0.697083 0.195445 0.823496
Si Si6 0.175140 0.246304 0.694343
Si Si7 0.018231 0.693779 0.898893
Si Si8 0.556790 0.203338 0.552397
O O1 0.743912 0.709249 0.407840
O O2 0.669918 0.700520 0.613163
O O3 0.611291 0.766714 0.552659
O O4 0.686103 0.000000 0.523173
O O5 0.831977 0.500000 0.678786
O O6 0.864460 0.694632 0.751209
O O7 0.774378 0.789109 0.756455
O O8 0.906476 0.758952 0.566886
O O9 0.084620 0.500000 0.103795
O O10 0.107927 0.783873 0.138489
O O11 0.022020 0.767100 0.123380
O O12 0.148876 0.728635 0.950260
O O13 0.383988 0.500000 0.762894
O O14 0.485047 0.712585 0.652494
O O15 0.679971 0.314122 0.774036
O O16 0.683955 0.000000 0.813086
O O17 0.098213 0.316710 0.791647
O O18 0.990915 0.500000 0.935967
O O19 0.000000 0.774271 0.000000
O O20 0.544002 0.000000 0.563563
#
# Coordination Sequence:
#
# PCOD9175949 Si02
#       8
#     8   8   8   8   8   8   8   8
#     4  10  21  37  58  88 125 168 208 246 300 367
#     4  11  24  43  68  93 121 164 208 252 313 379
#     4  10  22  41  65  92 125 168 213 255 305 367
#     4  12  26  43  64  94 127 158 202 262 320 370
#     4  11  22  38  63  94 126 163 211 263 309 357
#     4  11  20  34  58  91 126 162 204 257 301 353
#     4  10  18  33  60  90 119 158 208 254 296 352
#     4  10  21  42  67  93 124 165 209 250 304 377
#
# _framework density 22.853541
#
# number of rings (size 3 to 8) (size 9 to 14) (size 15 to 20)
#    0.000    1.375    2.500    3.750    0.000    5.500 
#    0.000    3.750    0.000    0.750    0.000    0.000 
#    0.000    0.000    0.000    0.000    0.000    0.000 
#
# Total GULP energy -178247.426622 kJ/mol
# GULP energy per Si atom -5570.232082 kJ/mol
# Density = 2.280153 g / cm^3
# Si number density = 22.853541 Si / 1000 Ang^3
#
#
#
# Elastic Constant Matrix: (Units=GPa)
#
#
# Indices 1 2 3 4 5 6 
#
# 1 91.4233 8.8277 34.8567 -0.0048 32.6658 -0.0005
# 2 8.8277 57.2545 22.7233 -0.0586 2.0614 0.0010
# 3 34.8567 22.7233 112.7466 -0.0060 5.0864 0.0041
# 4 -0.0048 -0.0586 -0.0060 34.2529 0.0083 9.1522
# 5 32.6658 2.0614 5.0864 0.0083 30.1125 0.0005
# 6 -0.0005 0.0010 0.0041 9.1522 0.0005 -13.8467
#
#
#
# Elastic Compliance Matrix: (Units=1/GPa)
#
#
# Indices 1 2 3 4 5 6 
#
# 1 0.020711 -0.000285 -0.005374 0.000006 -0.021539 0.000001
# 2 -0.000285 0.019001 -0.003725 0.000027 -0.000362 0.000018
# 3 -0.005374 -0.003725 0.011092 -0.000006 0.004211 -0.000001
# 4 0.000006 0.000027 -0.000006 0.024813 -0.000015 0.016400
# 5 -0.021539 -0.000362 0.004211 -0.000015 0.055888 -0.000006
# 6 0.000001 0.000018 -0.000001 0.016400 -0.000006 -0.061379
#
#
# Mechanical properties :
#
#
# Convention : Reuss Voigt Hill
#
# Bulk Modulus (GPa) = 31.21502 43.80442 37.50972
# Shear Modulus (GPa) = 50.21528 23.10484 36.66006
#
# Velocity S-wave (km/s) = 4.69258 3.18307 4.00950
# Velocity P-wave (km/s) = 6.56116 5.71999 6.15496
#
# Compressibility (1/GPa) = 0.03203586
#
# Stress axis : x y z
#
# Youngs Moduli (GPa) = 48.28452 52.62792 90.15843
#
# Poissons Ratio (x) = 0.01500 0.48449
# Poissons Ratio (y) = 0.01376 0.33585
# Poissons Ratio (z) = 0.25947 0.19605
#
# Static dielectric constant tensor:
#      x y z
#    x 1.805330 0.000000 0.016160 
#    y 0.000000 1.955010 0.000000 
#    z 0.016160 0.000000 1.807630 
# 
# From -- ./inp_files/295494.got.cif
#   From: 2010.05.17/outbox.cif.g08.bks.cpg/sg12_148_cif.got.tgz:295494.got - 2010.06.03 13:09:07.
