data_PCOD9175089
_publ_section_title
;
Structure prediction by ZEFSAII (Michael W. Deem and Ramdas Pophale) SiO2 
 PCOD9175089
Probable space group: C 2/M
;
_chemical_formula_sum "Si O2"
_cell_formula_units_Z 48
_cell_length_a 17.991138
_cell_length_b 13.076258
_cell_length_c 11.700614
_cell_angle_alpha 90.000000
_cell_angle_beta 102.801140
_cell_angle_gamma 90.000000
_cell_volume 2684.231337
_symmetry_space_group_name_H-M "C 2/M"
_symmetry_group_IT_number 12
_symmetry_cell_setting 'monoclinic'
loop_
_space_group_symop_operation_xyz
x,y,z
-x,y,-z
-x,-y,-z
x,-y,z
1/2+x,1/2+y,z
1/2-x,1/2+y,-z
1/2-x,1/2-y,-z
1/2+x,1/2-y,z
loop_
_atom_site_type_symbol
_atom_site_label
_atom_site_fract_x
_atom_site_fract_y
_atom_site_fract_z
Si Si1 0.669212 0.884850 0.721334
Si Si2 0.769502 0.727934 0.874387
Si Si3 0.497797 0.119283 0.674384
Si Si4 0.228329 0.878301 0.638734
Si Si5 0.145802 0.706142 0.481096
Si Si6 0.073976 0.382750 0.099759
O O1 0.740255 0.829206 0.801179
O O2 0.584297 0.841439 0.717905
O O3 0.674235 0.873462 0.587019
O O4 0.667766 0.000000 0.761077
O O5 0.727388 0.645409 0.774890
O O6 0.856983 0.693746 0.898257
O O7 0.750000 0.750000 0.000000
O O8 0.441838 0.183724 0.575224
O O9 0.455923 0.118737 0.781515
O O10 0.502086 0.000000 0.636850
O O11 0.164138 0.816047 0.544740
O O12 0.303969 0.822544 0.612723
O O13 0.229421 0.000000 0.620617
O O14 0.098946 0.500000 0.081656
O O15 0.000000 0.359241 0.000000
#
# Coordination Sequence:
#
# PCOD9175089 Si02
#       6
#     8   8   8   8   8   8
#     4  10  21  34  53  84 116 146 184 231 281 336
#     4  11  22  35  53  79 110 147 188 234 280 332
#     4  10  18  32  55  83 115 147 182 230 284 332
#     4  10  20  35  55  81 115 152 186 230 284 337
#     4  10  19  32  55  85 114 146 186 227 275 341
#     4  10  20  35  57  82 109 144 187 233 284 340
#
# _framework density 17.882214999999999
#
# number of rings (size 3 to 8) (size 9 to 14) (size 15 to 20)
#    0.000    1.833    1.667    3.500    0.000    4.000 
#    0.000    0.000    0.000    9.500    0.000    0.000 
#    0.000    0.000    0.000    0.000    0.000    0.000 
#
# Total GULP energy -133635.573262 kJ/mol
# GULP energy per Si atom -5568.148886 kJ/mol
# Density = 1.784151 g / cm^3
# Si number density = 17.882215 Si / 1000 Ang^3
#
#
#
# Elastic Constant Matrix: (Units=GPa)
#
#
# Indices 1 2 3 4 5 6 
#
# 1 102.3337 46.7275 45.3633 0.0000 10.2955 0.0000
# 2 46.7275 92.3197 39.6176 0.0000 17.8574 0.0000
# 3 45.3633 39.6176 109.1979 0.0000 8.4578 0.0000
# 4 0.0000 0.0000 0.0000 6.0844 0.0000 0.1646
# 5 10.2955 17.8574 8.4578 0.0000 35.0501 0.0000
# 6 0.0000 0.0000 0.0000 0.1646 0.0000 26.1662
#
#
#
# Elastic Compliance Matrix: (Units=1/GPa)
#
#
# Indices 1 2 3 4 5 6 
#
# 1 0.013947 -0.005329 -0.003825 0.000000 -0.000459 0.000000
# 2 -0.005329 0.016005 -0.003141 0.000000 -0.005831 0.000000
# 3 -0.003825 -0.003141 0.011898 0.000000 -0.000147 0.000000
# 4 0.000000 0.000000 0.000000 0.164382 0.000000 -0.001034
# 5 -0.000459 -0.005831 -0.000147 0.000000 0.031672 0.000000
# 6 0.000000 0.000000 0.000000 -0.001034 0.000000 0.038224
#
#
# Mechanical properties :
#
#
# Convention : Reuss Voigt Hill
#
# Bulk Modulus (GPa) = 57.94015 63.02979 60.48497
# Shear Modulus (GPa) = 16.31473 24.93632 20.62553
#
# Velocity S-wave (km/s) = 3.02378 3.73832 3.39987
# Velocity P-wave (km/s) = 6.68299 7.34555 7.02209
#
# Compressibility (1/GPa) = 0.01725919
#
# Stress axis : x y z
#
# Youngs Moduli (GPa) = 71.69971 62.47974 84.04965
#
# Poissons Ratio (x) = 0.33296 0.32149
# Poissons Ratio (y) = 0.38210 0.26402
# Poissons Ratio (z) = 0.27425 0.19627
#
# Static dielectric constant tensor:
#      x y z
#    x 1.644830 0.000000 -0.025930 
#    y 0.000000 1.614020 0.000000 
#    z -0.025930 0.000000 1.681220 
# 
# From -- ./inp_files/154175.got.cif
#   From: 2010.05.17/outbox.cif.g08.bks.cpg/sg12_78_cif.got.tgz:154175.got - 2010.06.03 13:09:07.
