data_PCOD9175580
_publ_section_title
;
Structure prediction by ZEFSAII (Michael W. Deem and Ramdas Pophale) SiO2 
 PCOD9175580
Probable space group: C 2/M
;
_chemical_formula_sum "Si O2"
_cell_formula_units_Z 64
_cell_length_a 15.255391
_cell_length_b 7.820381
_cell_length_c 27.929649
_cell_angle_alpha 90.000000
_cell_angle_beta 105.768325
_cell_angle_gamma 90.000000
_cell_volume 3206.698100
_symmetry_space_group_name_H-M "C 2/M"
_symmetry_group_IT_number 12
_symmetry_cell_setting 'monoclinic'
loop_
_space_group_symop_operation_xyz
x,y,z
-x,y,-z
-x,-y,-z
x,-y,z
1/2+x,1/2+y,z
1/2-x,1/2+y,-z
1/2-x,1/2-y,-z
1/2+x,1/2-y,z
loop_
_atom_site_type_symbol
_atom_site_label
_atom_site_fract_x
_atom_site_fract_y
_atom_site_fract_z
Si Si1 0.647478 0.705866 0.500592
Si Si2 0.037153 0.796381 0.575327
Si Si3 0.760318 0.793768 0.878514
Si Si4 0.421889 0.798403 0.310496
Si Si5 0.739578 0.709300 0.232050
Si Si6 0.048539 0.209685 0.055680
Si Si7 0.442983 0.296234 0.134199
Si Si8 0.452920 0.293399 0.756183
O O1 0.646117 0.500000 0.500496
O O2 0.750000 0.750000 0.500000
O O3 0.564656 0.766745 0.453653
O O4 0.612489 0.766452 0.547965
O O5 0.062602 0.764064 0.633659
O O6 0.033741 0.000000 0.568193
O O7 0.767360 0.735162 0.824255
O O8 0.846958 0.736442 0.922011
O O9 0.663595 0.738208 0.884213
O O10 0.762251 0.000000 0.877745
O O11 0.331587 0.727754 0.270832
O O12 0.506195 0.763272 0.287966
O O13 0.408944 0.000000 0.311851
O O14 0.740978 0.500000 0.231339
O O15 0.649692 0.761361 0.247507
O O16 0.995242 0.268146 0.095234
O O17 0.046996 0.000000 0.055001
O O18 0.000000 0.267297 0.000000
O O19 0.458019 0.500000 0.137354
O O20 0.483869 0.229934 0.190421
O O21 0.454497 0.500000 0.756647
#
# Coordination Sequence:
#
# PCOD9175580 Si02
#       8
#     8   8   8   8   8   8   8   8
#     4   9  19  37  62  85 110 146 186 222 263 314
#     4   9  20  39  57  79 114 152 181 214 265 323
#     4  10  18  33  55  75 101 137 173 215 265 317
#     4  11  22  35  53  81 112 139 177 229 270 308
#     4   9  18  33  52  73 100 138 179 213 258 318
#     4   9  18  33  54  78 103 136 178 218 261 323
#     4  10  19  32  53  78 102 132 175 219 262 318
#     4  10  19  34  54  74 100 141 181 215 262 323
#
# _framework density 19.958224999999999
#
# number of rings (size 3 to 8) (size 9 to 14) (size 15 to 20)
#    0.000    2.375    2.500    1.125    0.000    2.500 
#    0.000    7.500    0.000    0.750    0.000    0.000 
#    0.000    0.000    0.000    0.000    0.000    0.000 
#
# Total GULP energy -178558.986625 kJ/mol
# GULP energy per Si atom -5579.968332 kJ/mol
# Density = 1.991280 g / cm^3
# Si number density = 19.958225 Si / 1000 Ang^3
#
#
#
# Elastic Constant Matrix: (Units=GPa)
#
#
# Indices 1 2 3 4 5 6 
#
# 1 84.2156 0.0113 -6.8670 0.0000 -0.3161 0.0000
# 2 0.0113 21.1371 7.5355 0.0000 0.8128 0.0000
# 3 -6.8670 7.5355 63.4112 0.0000 -2.7528 0.0000
# 4 0.0000 0.0000 0.0000 7.6406 0.0000 4.5404
# 5 -0.3161 0.8128 -2.7528 0.0000 22.5621 0.0000
# 6 0.0000 0.0000 0.0000 4.5404 0.0000 21.7562
#
#
#
# Elastic Compliance Matrix: (Units=1/GPa)
#
#
# Indices 1 2 3 4 5 6 
#
# 1 0.011988 -0.000510 0.001374 0.000000 0.000354 0.000000
# 2 -0.000510 0.049567 -0.006055 0.000000 -0.002532 0.000000
# 3 0.001374 -0.006055 0.016737 0.000000 0.002280 0.000000
# 4 0.000000 0.000000 0.000000 0.149410 0.000000 -0.031181
# 5 0.000354 -0.002532 0.002280 0.000000 0.044696 0.000000
# 6 0.000000 0.000000 0.000000 -0.031181 0.000000 0.052471
#
#
# Mechanical properties :
#
#
# Convention : Reuss Voigt Hill
#
# Bulk Modulus (GPa) = 14.72549 18.90262 16.81405
# Shear Modulus (GPa) = 13.97085 21.59738 17.78411
#
# Velocity S-wave (km/s) = 2.64863 3.29314 2.98831
# Velocity P-wave (km/s) = 4.09241 4.89401 4.51105
#
# Compressibility (1/GPa) = 0.06790945
#
# Stress axis : x y z
#
# Youngs Moduli (GPa) = 83.41866 20.17484 59.74617
#
# Poissons Ratio (x) = 0.01029 -0.08210
# Poissons Ratio (y) = 0.04254 0.36179
# Poissons Ratio (z) = -0.11463 0.12217
#
# Static dielectric constant tensor:
#      x y z
#    x 1.687050 0.000000 0.011430 
#    y 0.000000 1.738650 0.000000 
#    z 0.011430 0.000000 1.699110 
# 
# From -- ./inp_files/335242.got.cif
#   From: 2010.05.17/outbox.cif.g08.bks.cpg/sg12_168_cif.got.tgz:335242.got - 2010.06.03 13:09:07.
