data_PCOD9175626
_publ_section_title
;
Structure prediction by ZEFSAII (Michael W. Deem and Ramdas Pophale) SiO2 
 PCOD9175626
Probable space group: C 2/M
;
_chemical_formula_sum "Si O2"
_cell_formula_units_Z 40
_cell_length_a 19.114708
_cell_length_b 14.683905
_cell_length_c 16.375512
_cell_angle_alpha 90.000000
_cell_angle_beta 21.039487
_cell_angle_gamma 90.000000
_cell_volume 1650.107358
_symmetry_space_group_name_H-M "C 2/M"
_symmetry_group_IT_number 12
_symmetry_cell_setting 'monoclinic'
loop_
_space_group_symop_operation_xyz
x,y,z
-x,y,-z
-x,-y,-z
x,-y,z
1/2+x,1/2+y,z
1/2-x,1/2+y,-z
1/2-x,1/2-y,-z
1/2+x,1/2-y,z
loop_
_atom_site_type_symbol
_atom_site_label
_atom_site_fract_x
_atom_site_fract_y
_atom_site_fract_z
Si Si1 0.787312 0.702845 0.647629
Si Si2 0.602108 0.398385 0.510096
Si Si3 0.710866 0.103925 0.201586
Si Si4 0.766246 0.643117 0.999315
Si Si5 0.279864 0.897467 0.497042
O O1 0.814496 0.810730 0.626688
O O2 0.690994 0.661062 0.833291
O O3 0.713202 0.673977 0.638777
O O4 0.001601 0.653285 0.414773
O O5 0.644427 0.500000 0.432588
O O6 0.371425 0.385464 0.776548
O O7 0.684626 0.389984 0.512395
O O8 0.690282 0.000000 0.251145
O O9 0.803681 0.101776 0.011015
O O10 0.750000 0.750000 0.000000
O O11 0.988819 0.615506 0.769610
O O12 0.249309 0.000000 0.563294
#
# Coordination Sequence:
#
# PCOD9175626 Si02
#       5
#     8   8   8   8   8
#     4  10  18  33  55  82 115 146 187 228 282 335
#     4  11  22  36  58  86 114 149 194 234 275 339
#     4  10  19  34  58  84 114 149 185 232 289 339
#     4  11  20  36  61  84 116 147 188 234 284 334
#     4  10  20  35  58  84 114 150 188 234 286 331
#
# _framework density 24.240846999999999
#
# number of rings (size 3 to 8) (size 9 to 14) (size 15 to 20)
#    0.000    1.600    4.000    6.000    0.000    0.000 
#    0.000    3.000    0.000    3.600    0.000    2.800 
#    0.000    0.000    0.000    0.000    0.000    0.000 
#
# Total GULP energy -111846.439817 kJ/mol
# GULP energy per Si atom -5592.321991 kJ/mol
# Density = 2.418567 g / cm^3
# Si number density = 24.240847 Si / 1000 Ang^3
#
#
#
# Elastic Constant Matrix: (Units=GPa)
#
#
# Indices 1 2 3 4 5 6 
#
# 1 57.1576 13.1999 17.2815 -0.0085 -3.6620 -0.0024
# 2 13.1999 225.6686 12.6530 -0.0114 17.9707 -0.0022
# 3 17.2815 12.6530 50.9957 0.0127 -7.2566 -0.0051
# 4 -0.0085 -0.0114 0.0127 22.8332 0.0035 1.2953
# 5 -3.6620 17.9707 -7.2566 0.0035 24.7346 -0.0010
# 6 -0.0024 -0.0022 -0.0051 1.2953 -0.0010 39.5028
#
#
#
# Elastic Compliance Matrix: (Units=1/GPa)
#
#
# Indices 1 2 3 4 5 6 
#
# 1 0.019699 -0.000948 -0.006186 0.000010 0.001791 0.000000
# 2 -0.000948 0.004899 -0.001483 0.000004 -0.004135 0.000000
# 3 -0.006186 -0.001483 0.023059 -0.000017 0.006927 0.000003
# 4 0.000010 0.000004 -0.000017 0.043878 -0.000012 -0.001439
# 5 0.001791 -0.004135 0.006927 -0.000012 0.045730 0.000002
# 6 0.000000 0.000000 0.000003 -0.001439 0.000002 0.025362
#
#
# Mechanical properties :
#
#
# Convention : Reuss Voigt Hill
#
# Bulk Modulus (GPa) = 32.86786 46.67677 39.77231
# Shear Modulus (GPa) = 26.31550 36.79329 31.55439
#
# Velocity S-wave (km/s) = 3.29840 3.90015 3.61183
# Velocity P-wave (km/s) = 5.30040 6.29117 5.81691
#
# Compressibility (1/GPa) = 0.03042486
#
# Stress axis : x y z
#
# Youngs Moduli (GPa) = 50.76300 204.11810 43.36652
#
# Poissons Ratio (x) = 0.19351 0.26826
# Poissons Ratio (y) = 0.04812 0.06430
# Poissons Ratio (z) = 0.31401 0.30264
#
# Static dielectric constant tensor:
#      x y z
#    x 1.993140 -0.000010 -0.016360 
#    y -0.000010 1.922310 0.000010 
#    z -0.016360 0.000010 1.985020 
# 
# From -- ./inp_files/277683.got.cif
#   From: 2010.05.17/outbox.cif.g08.bks.cpg/sg12_139_cif.got.tgz:277683.got - 2010.06.03 13:09:07.
