data_PCOD9175160
_publ_section_title
;
Structure prediction by ZEFSAII (Michael W. Deem and Ramdas Pophale) SiO2 
 PCOD9175160
Probable space group: C 2/M
;
_chemical_formula_sum "Si O2"
_cell_formula_units_Z 56
_cell_length_a 19.231587
_cell_length_b 7.463656
_cell_length_c 16.681008
_cell_angle_alpha 90.000000
_cell_angle_beta 77.926406
_cell_angle_gamma 90.000000
_cell_volume 2341.393873
_symmetry_space_group_name_H-M "C 2/M"
_symmetry_group_IT_number 12
_symmetry_cell_setting 'monoclinic'
loop_
_space_group_symop_operation_xyz
x,y,z
-x,y,-z
-x,-y,-z
x,-y,z
1/2+x,1/2+y,z
1/2-x,1/2+y,-z
1/2-x,1/2-y,-z
1/2+x,1/2-y,z
loop_
_atom_site_type_symbol
_atom_site_label
_atom_site_fract_x
_atom_site_fract_y
_atom_site_fract_z
Si Si1 0.654320 0.780686 0.892843
Si Si2 0.849661 0.717791 0.929090
Si Si3 0.905300 0.792205 0.632413
Si Si4 0.490497 0.781673 0.147139
Si Si5 0.552112 0.793427 0.667475
Si Si6 0.665844 0.213604 0.518782
Si Si7 0.784191 0.203240 0.776240
O O1 0.574038 0.727966 0.893989
O O2 0.706211 0.717156 0.809177
O O3 0.657187 0.000000 0.891467
O O4 0.675828 0.723489 0.976973
O O5 0.844401 0.500000 0.925418
O O6 0.812374 0.797426 0.860396
O O7 0.932169 0.770894 0.900870
O O8 0.872597 0.781334 0.552147
O O9 0.845196 0.712938 0.706590
O O10 0.982962 0.709923 0.626418
O O11 0.915211 0.000000 0.652048
O O12 0.473105 0.717639 0.241320
O O13 0.492132 0.000000 0.147560
O O14 0.620419 0.715765 0.605422
O O15 0.570403 0.000000 0.680537
O O16 0.750000 0.250000 0.500000
O O17 0.657558 0.000000 0.519673
O O18 0.774667 0.000000 0.747603
#
# Coordination Sequence:
#
# PCOD9175160 Si02
#       7
#     8   8   8   8   8   8   8
#     4   9  18  31  52  81 112 148 190 237 284 334
#     4  10  18  32  56  83 109 143 192 241 283 331
#     4  11  23  39  61  86 118 158 197 237 286 343
#     4   9  17  31  55  83 110 141 185 236 280 330
#     4  10  21  39  63  87 114 152 195 238 286 343
#     4  11  25  42  64  92 120 149 187 236 291 349
#     4  10  21  35  54  80 114 153 189 229 283 344
#
# _framework density 23.917376999999998
#
# number of rings (size 3 to 8) (size 9 to 14) (size 15 to 20)
#    0.000    2.000    1.429    2.143    2.000    5.143 
#    0.000    0.000    0.000    3.429    0.000    0.000 
#    0.000    0.000    0.000    0.000    0.000    0.000 
#
# Total GULP energy -156486.245653 kJ/mol
# GULP energy per Si atom -5588.794488 kJ/mol
# Density = 2.386294 g / cm^3
# Si number density = 23.917377 Si / 1000 Ang^3
#
#
#
# Elastic Constant Matrix: (Units=GPa)
#
#
# Indices 1 2 3 4 5 6 
#
# 1 55.1046 -16.8951 9.1465 0.0000 -17.4671 0.0000
# 2 -16.8951 77.1301 -1.6577 0.0000 -6.2501 0.0000
# 3 9.1465 -1.6577 107.4617 0.0000 -24.8264 0.0000
# 4 0.0000 0.0000 0.0000 -14.6602 0.0000 13.7410
# 5 -17.4671 -6.2501 -24.8264 0.0000 50.4883 0.0000
# 6 0.0000 0.0000 0.0000 13.7410 0.0000 13.1764
#
#
#
# Elastic Compliance Matrix: (Units=1/GPa)
#
#
# Indices 1 2 3 4 5 6 
#
# 1 0.022573 0.005643 0.000148 0.000000 0.008581 0.000000
# 2 0.005643 0.014548 0.000690 0.000000 0.004092 0.000000
# 3 0.000148 0.000690 0.010532 0.000000 0.005315 0.000000
# 4 0.000000 0.000000 0.000000 -0.034495 0.000000 0.035973
# 5 0.008581 0.004092 0.005315 0.000000 0.025895 0.000000
# 6 0.000000 0.000000 0.000000 0.035973 0.000000 0.038379
#
#
# Mechanical properties :
#
#
# Convention : Reuss Voigt Hill
#
# Bulk Modulus (GPa) = 16.49798 24.54265 20.52032
# Shear Modulus (GPa) = 59.04920 26.40774 42.72847
#
# Velocity S-wave (km/s) = 4.97418 3.32644 4.23129
# Velocity P-wave (km/s) = 6.31686 5.00373 5.69825
#
# Compressibility (1/GPa) = 0.06061348
#
# Stress axis : x y z
#
# Youngs Moduli (GPa) = 44.30105 68.73982 94.95204
#
# Poissons Ratio (x) = -0.38790 -0.01407
# Poissons Ratio (y) = -0.24999 -0.06547
# Poissons Ratio (z) = -0.00656 -0.04740
#
# Static dielectric constant tensor:
#      x y z
#    x 1.898580 0.000000 -0.033900 
#    y 0.000000 1.942370 0.000000 
#    z -0.033900 0.000000 1.890950 
# 
# From -- ./inp_files/275177.got.cif
#   From: 2010.05.17/outbox.cif.g08.bks.cpg/sg12_138_cif.got.tgz:275177.got - 2010.06.03 13:09:07.
