data_PCOD9175011
_publ_section_title
;
Structure prediction by ZEFSAII (Michael W. Deem and Ramdas Pophale) SiO2 
 PCOD9175011
Probable space group: C 2/M
;
_chemical_formula_sum "Si O2"
_cell_formula_units_Z 64
_cell_length_a 15.032619
_cell_length_b 7.678110
_cell_length_c 26.993230
_cell_angle_alpha 90.000000
_cell_angle_beta 103.000561
_cell_angle_gamma 90.000000
_cell_volume 3035.755472
_symmetry_space_group_name_H-M "C 2/M"
_symmetry_group_IT_number 12
_symmetry_cell_setting 'monoclinic'
loop_
_space_group_symop_operation_xyz
x,y,z
-x,y,-z
-x,-y,-z
x,-y,z
1/2+x,1/2+y,z
1/2-x,1/2+y,-z
1/2-x,1/2-y,-z
1/2+x,1/2-y,z
loop_
_atom_site_type_symbol
_atom_site_label
_atom_site_fract_x
_atom_site_fract_y
_atom_site_fract_z
Si Si1 0.470806 0.288502 0.941596
Si Si2 0.293432 0.794267 0.861350
Si Si3 0.922046 0.702196 0.791027
Si Si4 0.059561 0.787512 0.402387
Si Si5 0.358398 0.289595 0.377160
Si Si6 0.152258 0.208716 0.511289
Si Si7 0.903942 0.202980 0.132836
Si Si8 0.165807 0.203474 0.321608
O O1 0.469579 0.500000 0.939935
O O2 0.369734 0.228365 0.913355
O O3 0.543192 0.225640 0.909004
O O4 0.500000 0.233685 0.000000
O O5 0.344937 0.722745 0.818814
O O6 0.194202 0.721151 0.863767
O O7 0.279235 0.000000 0.850057
O O8 0.934400 0.500000 0.805420
O O9 0.885637 0.715330 0.731044
O O10 0.019971 0.786301 0.814463
O O11 0.081037 0.727171 0.460872
O O12 0.131920 0.726981 0.370696
O O13 0.958873 0.738181 0.372491
O O14 0.063670 0.000000 0.405187
O O15 0.353768 0.500000 0.376899
O O16 0.351081 0.224864 0.433162
O O17 0.274242 0.225898 0.334442
O O18 0.250000 0.250000 0.500000
O O19 0.140117 0.000000 0.513487
O O20 0.887109 0.000000 0.119312
O O21 0.143485 0.000000 0.317463
#
# Coordination Sequence:
#
# PCOD9175011 Si02
#       8
#     8   8   8   8   8   8   8   8
#     4   9  18  32  51  79 114 145 174 214 260 305
#     4   9  19  35  55  77 103 140 181 219 256 304
#     4  10  21  37  55  76 102 132 174 221 261 305
#     4   9  19  35  54  76 103 135 169 203 249 310
#     4  10  20  35  56  78 101 134 172 208 247 302
#     4  10  18  32  55  78 102 133 168 205 248 300
#     4   9  18  35  56  77 104 140 179 214 258 309
#     4  11  22  37  55  76 105 135 166 211 265 313
#
# _framework density 21.082066000000001
#
# number of rings (size 3 to 8) (size 9 to 14) (size 15 to 20)
#    0.000    2.375    1.250    1.125    0.000    4.250 
#    0.000    6.875    0.000    1.500    0.000    0.000 
#    0.000    0.000    0.000    0.000    0.000    0.000 
#
# Total GULP energy -178551.127518 kJ/mol
# GULP energy per Si atom -5579.722735 kJ/mol
# Density = 2.103408 g / cm^3
# Si number density = 21.082066 Si / 1000 Ang^3
#
#
#
# Elastic Constant Matrix: (Units=GPa)
#
#
# Indices 1 2 3 4 5 6 
#
# 1 132.9086 -3.6268 23.4740 0.0000 12.8866 0.0000
# 2 -3.6268 35.7541 -5.7911 0.0000 -7.4225 0.0000
# 3 23.4740 -5.7911 85.0978 0.0000 16.8968 0.0000
# 4 0.0000 0.0000 0.0000 19.3545 0.0000 13.7594
# 5 12.8866 -7.4225 16.8968 0.0000 14.2594 0.0000
# 6 0.0000 0.0000 0.0000 13.7594 0.0000 50.4157
#
#
#
# Elastic Compliance Matrix: (Units=1/GPa)
#
#
# Indices 1 2 3 4 5 6 
#
# 1 0.008333 -0.000709 -0.001018 0.000000 -0.006694 0.000000
# 2 -0.000709 0.031555 -0.001367 0.000000 0.018686 0.000000
# 3 -0.001018 -0.001367 0.015558 0.000000 -0.018228 0.000000
# 4 0.000000 0.000000 0.000000 0.064105 0.000000 -0.017495
# 5 -0.006694 0.018686 -0.018228 0.000000 0.107504 0.000000
# 6 0.000000 0.000000 0.000000 -0.017495 0.000000 0.024610
#
#
# Mechanical properties :
#
#
# Convention : Reuss Voigt Hill
#
# Bulk Modulus (GPa) = 20.30153 31.31920 25.81037
# Shear Modulus (GPa) = 18.22996 32.78623 25.50809
#
# Velocity S-wave (km/s) = 2.94379 3.94784 3.48220
# Velocity P-wave (km/s) = 4.60491 5.97233 5.33263
#
# Compressibility (1/GPa) = 0.04925738
#
# Stress axis : x y z
#
# Youngs Moduli (GPa) = 119.99842 31.69103 64.27517
#
# Poissons Ratio (x) = 0.02248 0.06542
# Poissons Ratio (y) = 0.08511 0.08789
# Poissons Ratio (z) = 0.12214 0.04333
#
# Static dielectric constant tensor:
#      x y z
#    x 1.762670 0.000000 -0.024700 
#    y 0.000000 1.813470 0.000000 
#    z -0.024700 0.000000 1.739850 
# 
# From -- ./inp_files/359890.got.cif
#   From: 2010.05.17/outbox.cif.g08.bks.cpg/sg12_180_cif.got.tgz:359890.got - 2010.06.03 13:09:07.
