data_PCOD9175588
_publ_section_title
;
Structure prediction by ZEFSAII (Michael W. Deem and Ramdas Pophale) SiO2 
 PCOD9175588
Probable space group: C 2/M
;
_chemical_formula_sum "Si O2"
_cell_formula_units_Z 56
_cell_length_a 33.046080
_cell_length_b 8.662170
_cell_length_c 19.746476
_cell_angle_alpha 90.000000
_cell_angle_beta 147.450133
_cell_angle_gamma 90.000000
_cell_volume 3041.203819
_symmetry_space_group_name_H-M "C 2/M"
_symmetry_group_IT_number 12
_symmetry_cell_setting 'monoclinic'
loop_
_space_group_symop_operation_xyz
x,y,z
-x,y,-z
-x,-y,-z
x,-y,z
1/2+x,1/2+y,z
1/2-x,1/2+y,-z
1/2-x,1/2-y,-z
1/2+x,1/2-y,z
loop_
_atom_site_type_symbol
_atom_site_label
_atom_site_fract_x
_atom_site_fract_y
_atom_site_fract_z
Si Si1 0.968781 0.679109 0.557577
Si Si2 0.676115 0.684647 0.588468
Si Si3 0.183473 0.687186 0.119853
Si Si4 0.766066 0.676441 0.949913
Si Si5 0.273624 0.314576 0.605855
Si Si6 0.414504 0.686431 0.896257
Si Si7 0.904561 0.824360 0.335041
O O1 0.984420 0.500000 0.590212
O O2 0.906021 0.743242 0.519148
O O3 0.928610 0.709421 0.428315
O O4 0.045707 0.775691 0.659502
O O5 0.670129 0.500000 0.581453
O O6 0.736329 0.729827 0.732090
O O7 0.714313 0.745085 0.574748
O O8 0.180359 0.500000 0.114296
O O9 0.183178 0.741153 0.040686
O O10 0.119986 0.748107 0.082057
O O11 0.790747 0.500000 0.996543
O O12 0.682818 0.678455 0.801084
O O13 0.750000 0.750000 0.000000
O O14 0.270198 0.500000 0.600279
O O15 0.250000 0.250000 0.500000
O O16 0.355628 0.271224 0.752975
O O17 0.414226 0.500000 0.901170
O O18 0.500000 0.735718 0.000000
O O19 0.921971 0.000000 0.380719
#
# Coordination Sequence:
#
# PCOD9175588 Si02
#       7
#     8   8   8   8   8   8   8
#     4  11  20  30  49  79 105 129 169 219 263 308
#     4  10  18  33  55  77 105 140 176 220 269 323
#     4   9  18  34  54  78 105 136 181 225 266 320
#     4  10  21  36  53  75 104 142 184 226 270 321
#     4  10  20  35  55  82 112 144 181 223 275 331
#     4   9  19  36  58  84 111 141 181 227 274 329
#     4  10  19  34  51  70 101 139 174 211 262 315
#
# _framework density 18.413761000000001
#
# number of rings (size 3 to 8) (size 9 to 14) (size 15 to 20)
#    0.000    2.143    1.429    3.429    0.000    3.143 
#    0.000    1.429    0.000    5.143    0.000    0.000 
#    0.000    0.000    0.000    0.000    0.000    0.000 
#
# Total GULP energy -155963.044612 kJ/mol
# GULP energy per Si atom -5570.108736 kJ/mol
# Density = 1.837185 g / cm^3
# Si number density = 18.413761 Si / 1000 Ang^3
#
#
#
# Elastic Constant Matrix: (Units=GPa)
#
#
# Indices 1 2 3 4 5 6 
#
# 1 153.0089 23.5210 49.1879 0.0000 -6.9760 0.0000
# 2 23.5210 35.3587 4.4077 0.0000 -4.8989 0.0000
# 3 49.1879 4.4077 31.4565 0.0000 -3.7432 0.0000
# 4 0.0000 0.0000 0.0000 35.5052 0.0000 12.4747
# 5 -6.9760 -4.8989 -3.7432 0.0000 38.9598 0.0000
# 6 0.0000 0.0000 0.0000 12.4747 0.0000 43.9216
#
#
#
# Elastic Compliance Matrix: (Units=1/GPa)
#
#
# Indices 1 2 3 4 5 6 
#
# 1 0.014682 -0.007075 -0.022011 0.000000 -0.000376 0.000000
# 2 -0.007075 0.032611 0.006909 0.000000 0.003498 0.000000
# 3 -0.022011 0.006909 0.065625 0.000000 0.003233 0.000000
# 4 0.000000 0.000000 0.000000 0.031287 0.000000 -0.008886
# 5 -0.000376 0.003498 0.003233 0.000000 0.026351 0.000000
# 6 0.000000 0.000000 0.000000 -0.008886 0.000000 0.025292
#
#
# Mechanical properties :
#
#
# Convention : Reuss Voigt Hill
#
# Bulk Modulus (GPa) = 14.58472 41.56191 28.07331
# Shear Modulus (GPa) = 19.00737 33.19116 26.09926
#
# Velocity S-wave (km/s) = 3.21633 4.25021 3.76889
# Velocity P-wave (km/s) = 4.66163 6.83417 5.84964
#
# Compressibility (1/GPa) = 0.06856491
#
# Stress axis : x y z
#
# Youngs Moduli (GPa) = 68.11068 30.66438 15.23807
#
# Poissons Ratio (x) = 0.21694 0.33541
# Poissons Ratio (y) = 0.48187 -0.10529
# Poissons Ratio (z) = 1.49920 -0.21187
#
# Static dielectric constant tensor:
#      x y z
#    x 1.675530 0.000000 -0.007900 
#    y 0.000000 1.631400 0.000000 
#    z -0.007900 0.000000 1.642640 
# 
# From -- ./inp_files/295151.got.cif
#   From: 2010.05.17/outbox.cif.g08.bks.cpg/sg12_148_cif.got.tgz:295151.got - 2010.06.03 13:09:07.
