data_PCOD9175742
_publ_section_title
;
Structure prediction by ZEFSAII (Michael W. Deem and Ramdas Pophale) SiO2 
 PCOD9175742
Probable space group: C 2/M
;
_chemical_formula_sum "Si O2"
_cell_formula_units_Z 64
_cell_length_a 25.340138
_cell_length_b 7.950931
_cell_length_c 20.747403
_cell_angle_alpha 90.000000
_cell_angle_beta 54.190609
_cell_angle_gamma 90.000000
_cell_volume 3389.958519
_symmetry_space_group_name_H-M "C 2/M"
_symmetry_group_IT_number 12
_symmetry_cell_setting 'monoclinic'
loop_
_space_group_symop_operation_xyz
x,y,z
-x,y,-z
-x,-y,-z
x,-y,z
1/2+x,1/2+y,z
1/2-x,1/2+y,-z
1/2-x,1/2-y,-z
1/2+x,1/2-y,z
loop_
_atom_site_type_symbol
_atom_site_label
_atom_site_fract_x
_atom_site_fract_y
_atom_site_fract_z
Si Si1 0.096013 0.303594 0.729262
Si Si2 0.177979 0.798195 0.289581
Si Si3 0.453929 0.695587 0.866857
Si Si4 0.428177 0.701741 0.532922
Si Si5 0.444646 0.203526 0.378579
Si Si6 0.429259 0.797006 0.025544
Si Si7 0.175160 0.706969 0.793776
Si Si8 0.910553 0.298918 0.761969
O O1 0.112540 0.500000 0.710598
O O2 0.091673 0.233009 0.659891
O O3 0.144929 0.233122 0.747520
O O4 0.022521 0.292123 0.809601
O O5 0.127166 0.732360 0.379484
O O6 0.251210 0.736360 0.247465
O O7 0.147644 0.759016 0.241747
O O8 0.180444 0.000000 0.294465
O O9 0.470381 0.500000 0.854524
O O10 0.410858 0.736189 0.835081
O O11 0.421458 0.741370 0.957572
O O12 0.500000 0.768329 0.500000
O O13 0.430082 0.500000 0.539298
O O14 0.416269 0.740161 0.466684
O O15 0.520198 0.259615 0.318025
O O16 0.444817 0.000000 0.376772
O O17 0.373056 0.740278 0.114312
O O18 0.430009 0.000000 0.026091
O O19 0.500000 0.738364 0.000000
O O20 0.174247 0.500000 0.793743
O O21 0.911742 0.500000 0.762406
#
# Coordination Sequence:
#
# PCOD9175742 Si02
#       8
#     8   8   8   8   8   8   8   8
#     4   9  17  34  54  77 105 139 179 214 259 312
#     4  10  20  35  54  78 106 139 177 215 261 313
#     4  11  21  32  52  82 111 136 169 220 268 309
#     4  10  19  31  49  75 107 138 169 212 264 313
#     4   9  18  30  51  77 101 131 175 222 255 299
#     4  10  18  33  57  80 103 136 179 218 255 309
#     4   9  18  34  57  78 103 140 177 214 257 312
#     4  10  20  35  54  77 105 140 177 217 263 312
#
# _framework density 18.879287000000001
#
# number of rings (size 3 to 8) (size 9 to 14) (size 15 to 20)
#    0.000    2.250    2.500    2.250    0.000    3.000 
#    0.000    2.500    0.000    0.000    0.000    0.000 
#    0.000    0.000    0.000    0.000    0.000    0.000 
#
# Total GULP energy -178544.011299 kJ/mol
# GULP energy per Si atom -5579.500353 kJ/mol
# Density = 1.883632 g / cm^3
# Si number density = 18.879287 Si / 1000 Ang^3
#
#
#
# Elastic Constant Matrix: (Units=GPa)
#
#
# Indices 1 2 3 4 5 6 
#
# 1 172.5792 1.9098 93.4225 -0.0008 12.8420 -0.0011
# 2 1.9098 12.4808 6.1594 -0.0095 -5.4423 -0.0070
# 3 93.4225 6.1594 123.3809 -0.0038 10.7007 -0.0036
# 4 -0.0008 -0.0095 -0.0038 23.7145 0.0010 13.3268
# 5 12.8420 -5.4423 10.7007 0.0010 27.4163 0.0012
# 6 -0.0011 -0.0070 -0.0036 13.3268 0.0012 18.5595
#
#
#
# Elastic Compliance Matrix: (Units=1/GPa)
#
#
# Indices 1 2 3 4 5 6 
#
# 1 0.009927 0.001545 -0.007470 0.000000 -0.001428 0.000000
# 2 0.001545 0.092621 -0.007582 0.000029 0.020621 0.000012
# 3 -0.007470 -0.007582 0.014456 -0.000001 -0.003648 0.000001
# 4 0.000000 0.000029 -0.000001 0.070696 0.000006 -0.050764
# 5 -0.001428 0.020621 -0.003648 0.000006 0.042661 0.000000
# 6 0.000000 0.000012 0.000001 -0.050764 0.000000 0.090332
#
#
# Mechanical properties :
#
#
# Convention : Reuss Voigt Hill
#
# Bulk Modulus (GPa) = 11.11239 56.82490 33.96864
# Shear Modulus (GPa) = 13.23786 27.73468 20.48627
#
# Velocity S-wave (km/s) = 2.65086 3.83698 3.29769
# Velocity P-wave (km/s) = 3.90746 7.05651 5.70362
#
# Compressibility (1/GPa) = 0.08998964
#
# Stress axis : x y z
#
# Youngs Moduli (GPa) = 100.73064 10.79674 69.17399
#
# Poissons Ratio (x) = -0.01668 0.51675
# Poissons Ratio (y) = -0.15563 0.52448
# Poissons Ratio (z) = 0.75248 0.08186
#
# Static dielectric constant tensor:
#      x y z
#    x 1.655280 0.000000 0.010130 
#    y 0.000000 1.677150 0.000000 
#    z 0.010130 0.000000 1.641840 
# 
# From -- ./inp_files/324138.got.cif
#   From: 2010.05.17/outbox.cif.g08.bks.cpg/sg12_163_cif.got.tgz:324138.got - 2010.06.03 13:09:07.
