data_PCOD9175131
_publ_section_title
;
Structure prediction by ZEFSAII (Michael W. Deem and Ramdas Pophale) SiO2 
 PCOD9175131
Probable space group: C 2/M
;
_chemical_formula_sum "Si O2"
_cell_formula_units_Z 64
_cell_length_a 5.561845
_cell_length_b 18.335383
_cell_length_c 29.392268
_cell_angle_alpha 90.000000
_cell_angle_beta 74.192850
_cell_angle_gamma 90.000000
_cell_volume 2884.032174
_symmetry_space_group_name_H-M "C 2/M"
_symmetry_group_IT_number 12
_symmetry_cell_setting 'monoclinic'
loop_
_space_group_symop_operation_xyz
x,y,z
-x,y,-z
-x,-y,-z
x,-y,z
1/2+x,1/2+y,z
1/2-x,1/2+y,-z
1/2-x,1/2-y,-z
1/2+x,1/2-y,z
loop_
_atom_site_type_symbol
_atom_site_label
_atom_site_fract_x
_atom_site_fract_y
_atom_site_fract_z
Si Si1 0.156147 0.341331 0.909208
Si Si2 0.295287 0.083084 0.762916
Si Si3 0.223260 0.166759 0.518634
Si Si4 0.108381 0.880431 0.623367
Si Si5 0.268344 0.089358 0.193076
Si Si6 0.467091 0.257223 0.300321
Si Si7 0.104349 0.822426 0.945031
Si Si8 0.437961 0.895697 0.346553
O O1 0.206260 0.373114 0.857033
O O2 0.155871 0.252935 0.914951
O O3 0.384301 0.364657 0.930170
O O4 0.870704 0.361846 0.936412
O O5 0.498918 0.114872 0.787494
O O6 0.435690 0.081527 0.707346
O O7 0.009283 0.110193 0.774278
O O8 0.261524 0.000000 0.780100
O O9 0.500000 0.133109 0.500000
O O10 0.250000 0.250000 0.500000
O O11 0.000000 0.133185 0.500000
O O12 0.145671 0.163799 0.575138
O O13 0.067080 0.830435 0.669875
O O14 0.845296 0.921404 0.632772
O O15 0.373289 0.915877 0.622861
O O16 0.279846 0.000000 0.190157
O O17 0.255426 0.251058 0.273461
O O18 0.418297 0.192522 0.340022
O O19 0.000000 0.801825 0.000000
#
# Coordination Sequence:
#
# PCOD9175131 Si02
#       8
#     8   8   8   8   8   8   8   8
#     4  10  18  32  56  80 112 143 189 221 275 327
#     4  10  21  38  57  79 100 130 181 229 267 313
#     4  10  21  27  43  67  95 138 165 196 223 287
#     4  10  19  31  47  69 101 132 163 193 248 302
#     4  10  21  37  59  79 107 145 179 226 276 325
#     4   8  16  25  44  58  90 124 154 179 237 288
#     4  10  19  33  58  83 109 150 189 232 266 306
#     4  10  19  31  53  67  94 130 164 210 255 296
#
# _framework density 22.191153
#
# number of rings (size 3 to 8) (size 9 to 14) (size 15 to 20)
#    0.000    2.250    0.000    4.125   10.500    0.000 
#    0.000    0.000   49.500    4.125    0.000    0.000 
#    0.000   10.000    0.000    0.000    0.000    0.000 
#
# Total GULP energy -178315.081038 kJ/mol
# GULP energy per Si atom -5572.346282 kJ/mol
# Density = 2.214064 g / cm^3
# Si number density = 22.191153 Si / 1000 Ang^3
#
#
#
# Elastic Constant Matrix: (Units=GPa)
#
#
# Indices 1 2 3 4 5 6 
#
# 1 235.0657 1.5690 13.1615 0.0000 2.4726 0.0000
# 2 1.5690 44.8047 6.3664 0.0000 -2.8263 0.0000
# 3 13.1615 6.3664 72.7981 0.0000 -1.2329 0.0000
# 4 0.0000 0.0000 0.0000 -49.0399 0.0000 -3.8057
# 5 2.4726 -2.8263 -1.2329 0.0000 41.4097 0.0000
# 6 0.0000 0.0000 0.0000 -3.8057 0.0000 -16.1862
#
#
#
# Elastic Compliance Matrix: (Units=1/GPa)
#
#
# Indices 1 2 3 4 5 6 
#
# 1 0.004301 -0.000058 -0.000777 0.000000 -0.000284 0.000000
# 2 -0.000058 0.022692 -0.001949 0.000000 0.001494 0.000000
# 3 -0.000777 -0.001949 0.014053 0.000000 0.000332 0.000000
# 4 0.000000 0.000000 0.000000 -0.020771 0.000000 0.004884
# 5 -0.000284 0.001494 0.000332 0.000000 0.024278 0.000000
# 6 0.000000 0.000000 0.000000 0.004884 0.000000 -0.062929
#
#
# Mechanical properties :
#
#
# Convention : Reuss Voigt Hill
#
# Bulk Modulus (GPa) = 28.18622 43.87357 36.02990
# Shear Modulus (GPa) = -5095.20423 17.34151 -2538.93136
#
# Velocity S-wave (km/s) = -47.96912 2.79849 -33.86152
# Velocity P-wave (km/s) = 55.27495 5.50052 38.89128
#
# Compressibility (1/GPa) = 0.03547832
#
# Stress axis : x y z
#
# Youngs Moduli (GPa) = 232.50265 44.06783 71.15822
#
# Poissons Ratio (x) = 0.00256 0.05531
# Poissons Ratio (y) = 0.01350 0.13867
# Poissons Ratio (z) = 0.18073 0.08587
#
# Static dielectric constant tensor:
#      x y z
#    x 1.972020 0.000000 -0.004390 
#    y 0.000000 1.836630 0.000000 
#    z -0.004390 0.000000 1.745550 
# 
# From -- ./inp_files/331442.got.cif
#   From: 2010.05.17/outbox.cif.g08.bks.cpg/sg12_166_cif.got.tgz:331442.got - 2010.06.03 13:09:07.
