data_PCOD9175527
_publ_section_title
;
Structure prediction by ZEFSAII (Michael W. Deem and Ramdas Pophale) SiO2 
 PCOD9175527
Probable space group: C 2/M
;
_chemical_formula_sum "Si O2"
_cell_formula_units_Z 56
_cell_length_a 21.262027
_cell_length_b 22.142562
_cell_length_c 7.589149
_cell_angle_alpha 90.000000
_cell_angle_beta 64.789539
_cell_angle_gamma 90.000000
_cell_volume 3232.614150
_symmetry_space_group_name_H-M "C 2/M"
_symmetry_group_IT_number 12
_symmetry_cell_setting 'monoclinic'
loop_
_space_group_symop_operation_xyz
x,y,z
-x,y,-z
-x,-y,-z
x,-y,z
1/2+x,1/2+y,z
1/2-x,1/2+y,-z
1/2-x,1/2-y,-z
1/2+x,1/2-y,z
loop_
_atom_site_type_symbol
_atom_site_label
_atom_site_fract_x
_atom_site_fract_y
_atom_site_fract_z
Si Si1 0.295325 0.764486 0.717169
Si Si2 0.295048 0.373356 0.133754
Si Si3 0.328056 0.188019 0.283881
Si Si4 0.763222 0.569396 0.436084
Si Si5 0.922200 0.188671 0.557068
Si Si6 0.580089 0.704381 0.856312
Si Si7 0.146388 0.932091 0.273527
O O1 0.259379 0.820700 0.855937
O O2 0.314687 0.790816 0.501336
O O3 0.237053 0.714235 0.747911
O O4 0.363718 0.732507 0.709715
O O5 0.264915 0.407339 0.341404
O O6 0.365612 0.338484 0.106959
O O7 0.311647 0.417770 0.954883
O O8 0.321794 0.116102 0.297552
O O9 0.394909 0.226261 0.144938
O O10 0.785956 0.500000 0.419816
O O11 0.699399 0.572840 0.374266
O O12 0.910770 0.189488 0.361046
O O13 0.909463 0.121122 0.640346
O O14 0.000000 0.209469 0.500000
O O15 0.500000 0.695360 0.000000
O O16 0.117865 0.000000 0.303421
#
# Coordination Sequence:
#
# PCOD9175527 Si02
#       7
#     8   8   8   8   8   8   8
#     4   8  15  30  51  73  96 129 161 203 255 290
#     4  10  19  35  55  74 102 129 167 207 245 297
#     4   8  14  30  52  71  99 126 162 208 244 292
#     4  10  18  33  54  74 102 134 164 204 246 289
#     4  11  20  34  50  73 107 132 165 206 250 294
#     4  10  19  34  52  75 101 132 165 205 256 296
#     4  11  22  34  50  75 103 132 171 206 239 293
#
# _framework density 17.323442
#
# number of rings (size 3 to 8) (size 9 to 14) (size 15 to 20)
#    0.000    2.286    2.857    3.000    0.000    0.857 
#    2.571    0.000    0.000    2.571    0.000    0.000 
#    0.000    7.429    0.000    0.000    0.000    0.000 
#
# Total GULP energy -156146.037442 kJ/mol
# GULP energy per Si atom -5576.644194 kJ/mol
# Density = 1.728401 g / cm^3
# Si number density = 17.323442 Si / 1000 Ang^3
#
#
#
# Elastic Constant Matrix: (Units=GPa)
#
#
# Indices 1 2 3 4 5 6 
#
# 1 58.2668 23.5729 6.4101 0.0000 -4.4711 0.0000
# 2 23.5729 97.7320 -0.4151 0.0000 0.8439 0.0000
# 3 6.4101 -0.4151 36.2909 0.0000 14.0105 0.0000
# 4 0.0000 0.0000 0.0000 24.1765 0.0000 -1.7807
# 5 -4.4711 0.8439 14.0105 0.0000 18.3767 0.0000
# 6 0.0000 0.0000 0.0000 -1.7807 0.0000 14.1375
#
#
#
# Elastic Compliance Matrix: (Units=1/GPa)
#
#
# Indices 1 2 3 4 5 6 
#
# 1 0.021086 -0.005222 -0.008300 0.000000 0.011698 0.000000
# 2 -0.005222 0.011534 0.002479 0.000000 -0.003690 0.000000
# 3 -0.008300 0.002479 0.042333 0.000000 -0.034408 0.000000
# 4 0.000000 0.000000 0.000000 0.041750 0.000000 0.005259
# 5 0.011698 -0.003690 -0.034408 0.000000 0.083665 0.000000
# 6 0.000000 0.000000 0.000000 0.005259 0.000000 0.071396
#
#
# Mechanical properties :
#
#
# Convention : Reuss Voigt Hill
#
# Bulk Modulus (GPa) = 18.91575 27.93617 23.42596
# Shear Modulus (GPa) = 16.05268 22.18624 19.11946
#
# Velocity S-wave (km/s) = 3.04739 3.58258 3.32577
# Velocity P-wave (km/s) = 4.82959 5.76840 5.31974
#
# Compressibility (1/GPa) = 0.05286599
#
# Stress axis : x y z
#
# Youngs Moduli (GPa) = 47.42484 86.69986 23.62207
#
# Poissons Ratio (x) = 0.45276 0.19607
# Poissons Ratio (y) = 0.24766 -0.05856
# Poissons Ratio (z) = 0.39365 -0.21493
#
# Static dielectric constant tensor:
#      x y z
#    x 1.579950 0.000000 0.018730 
#    y 0.000000 1.600860 0.000000 
#    z 0.018730 0.000000 1.627640 
# 
# From -- ./inp_files/89092.got.cif
#   From: 2010.05.17/outbox.cif.g08.bks.cpg/sg12_45_cif.got.tgz:89092.got - 2010.06.03 13:09:07.
