data_PCOD9175752
_publ_section_title
;
Structure prediction by ZEFSAII (Michael W. Deem and Ramdas Pophale) SiO2 
 PCOD9175752
Probable space group: C 2/M
;
_chemical_formula_sum "Si O2"
_cell_formula_units_Z 56
_cell_length_a 23.389705
_cell_length_b 18.958716
_cell_length_c 20.945549
_cell_angle_alpha 90.000000
_cell_angle_beta 18.379900
_cell_angle_gamma 90.000000
_cell_volume 2928.677943
_symmetry_space_group_name_H-M "C 2/M"
_symmetry_group_IT_number 12
_symmetry_cell_setting 'monoclinic'
loop_
_space_group_symop_operation_xyz
x,y,z
-x,y,-z
-x,-y,-z
x,-y,z
1/2+x,1/2+y,z
1/2-x,1/2+y,-z
1/2-x,1/2-y,-z
1/2+x,1/2-y,z
loop_
_atom_site_type_symbol
_atom_site_label
_atom_site_fract_x
_atom_site_fract_y
_atom_site_fract_z
Si Si1 0.595992 0.368046 0.837360
Si Si2 0.688384 0.738326 0.337512
Si Si3 0.507886 0.703231 0.335308
Si Si4 0.372009 0.759323 0.018895
Si Si5 0.859012 0.077466 0.341674
Si Si6 0.048988 0.321660 0.709357
Si Si7 0.201784 0.917633 0.058273
O O1 0.741938 0.314090 0.712157
O O2 0.668940 0.416819 0.704493
O O3 0.500000 0.402651 0.000000
O O4 0.457732 0.315367 0.946869
O O5 0.500000 0.745634 0.500000
O O6 0.644867 0.697043 0.448576
O O7 0.825947 0.708792 0.137900
O O8 0.681891 0.742679 0.182675
O O9 0.453774 0.753215 0.333555
O O10 0.583052 0.627372 0.234628
O O11 0.502630 0.798836 0.830765
O O12 0.735908 0.136944 0.503863
O O13 0.070667 0.085128 0.135604
O O14 0.803377 0.000000 0.423954
O O15 0.888851 0.374641 0.855856
O O16 0.230714 0.000000 0.043467
#
# Coordination Sequence:
#
# PCOD9175752 Si02
#       7
#     8   8   8   8   8   8   8
#     4  10  19  34  53  77 110 143 178 227 277 318
#     4   9  18  32  51  80 112 135 174 228 276 323
#     4  10  18  33  57  81 105 141 185 224 271 323
#     4   9  19  31  52  84 106 134 174 228 279 316
#     4  11  23  36  54  80 110 150 188 222 273 325
#     4  11  20  35  59  81 108 140 187 232 266 320
#     4  10  22  37  53  80 116 144 177 227 276 323
#
# _framework density 19.121255999999999
#
# number of rings (size 3 to 8) (size 9 to 14) (size 15 to 20)
#    0.000    2.000    1.429    3.857    2.000    1.429 
#    0.000    0.000    0.000   12.000    0.000    2.000 
#    0.000    0.000    0.000    0.000    0.000    0.000 
#
# Total GULP energy -156068.428629 kJ/mol
# GULP energy per Si atom -5573.872451 kJ/mol
# Density = 1.907774 g / cm^3
# Si number density = 19.121256 Si / 1000 Ang^3
#
#
#
# Elastic Constant Matrix: (Units=GPa)
#
#
# Indices 1 2 3 4 5 6 
#
# 1 90.0540 42.7553 42.3195 0.0049 7.9744 -0.0064
# 2 42.7553 96.0448 37.8630 -0.0027 11.5527 0.0001
# 3 42.3195 37.8630 67.3129 -0.0004 18.3488 -0.0028
# 4 0.0049 -0.0027 -0.0004 18.6380 0.0079 -4.2642
# 5 7.9744 11.5527 18.3488 0.0079 30.5997 0.0018
# 6 -0.0064 0.0001 -0.0028 -4.2642 0.0018 16.5040
#
#
#
# Elastic Compliance Matrix: (Units=1/GPa)
#
#
# Indices 1 2 3 4 5 6 
#
# 1 0.017225 -0.004410 -0.009060 -0.000006 0.002609 0.000003
# 2 -0.004410 0.014518 -0.005036 0.000003 -0.001312 -0.000002
# 3 -0.009060 -0.005036 0.026565 0.000008 -0.011667 0.000004
# 4 -0.000006 0.000003 0.000008 0.057025 -0.000020 0.014734
# 5 0.002609 -0.001312 -0.011667 -0.000020 0.039492 -0.000011
# 6 0.000003 -0.000002 0.000004 0.014734 -0.000011 0.064398
#
#
# Mechanical properties :
#
#
# Convention : Reuss Voigt Hill
#
# Bulk Modulus (GPa) = 46.95682 55.47638 51.21660
# Shear Modulus (GPa) = 18.98742 21.84659 20.41701
#
# Velocity S-wave (km/s) = 3.15461 3.38380 3.27121
# Velocity P-wave (km/s) = 6.15463 6.65903 6.41179
#
# Compressibility (1/GPa) = 0.02129616
#
# Stress axis : x y z
#
# Youngs Moduli (GPa) = 58.05644 68.87939 37.64381
#
# Poissons Ratio (x) = 0.30376 0.34104
# Poissons Ratio (y) = 0.25603 0.18958
# Poissons Ratio (z) = 0.52597 0.34688
#
# Static dielectric constant tensor:
#      x y z
#    x 1.706610 0.000000 0.009770 
#    y 0.000000 1.645500 0.000010 
#    z 0.009770 0.000010 1.728000 
# 
# From -- ./inp_files/325973.got.cif
#   From: 2010.05.17/outbox.cif.g08.bks.cpg/sg12_163_cif.got.tgz:325973.got - 2010.06.03 13:09:07.
