data_PCOD9175828
_publ_section_title
;
Structure prediction by ZEFSAII (Michael W. Deem and Ramdas Pophale) SiO2 
 PCOD9175828
Probable space group: C 2/M
;
_chemical_formula_sum "Si O2"
_cell_formula_units_Z 56
_cell_length_a 9.152427
_cell_length_b 17.664933
_cell_length_c 21.154734
_cell_angle_alpha 90.000000
_cell_angle_beta 53.290688
_cell_angle_gamma 90.000000
_cell_volume 2741.928187
_symmetry_space_group_name_H-M "C 2/M"
_symmetry_group_IT_number 12
_symmetry_cell_setting 'monoclinic'
loop_
_space_group_symop_operation_xyz
x,y,z
-x,y,-z
-x,-y,-z
x,-y,z
1/2+x,1/2+y,z
1/2-x,1/2+y,-z
1/2-x,1/2-y,-z
1/2+x,1/2-y,z
loop_
_atom_site_type_symbol
_atom_site_label
_atom_site_fract_x
_atom_site_fract_y
_atom_site_fract_z
Si Si1 0.960668 0.586754 0.917765
Si Si2 0.469117 0.911654 0.651648
Si Si3 0.327610 0.708330 0.301295
Si Si4 0.298844 0.872853 0.827213
Si Si5 0.579347 0.590264 0.046832
Si Si6 0.763622 0.207415 0.806892
Si Si7 0.786019 0.193989 0.549165
O O1 0.013797 0.500000 0.920416
O O2 0.869494 0.585874 0.871320
O O3 0.123839 0.646172 0.869735
O O4 0.787276 0.615206 0.004549
O O5 0.316850 0.859111 0.659182
O O6 0.431986 0.894108 0.735641
O O7 0.663371 0.880998 0.578178
O O8 0.446311 0.000000 0.646428
O O9 0.298518 0.757389 0.244651
O O10 0.531996 0.677078 0.252578
O O11 0.287365 0.762682 0.370130
O O12 0.288583 0.783165 0.842143
O O13 0.089817 0.894002 0.863509
O O14 0.595803 0.500000 0.037223
O O15 0.500000 0.619933 0.000000
O O16 0.750000 0.250000 0.500000
O O17 0.000000 0.179000 0.500000
#
# Coordination Sequence:
#
# PCOD9175828 Si02
#       7
#     8   8   8   8   8   8   8
#     4  10  19  32  53  83 117 153 198 246 286 331
#     4  11  23  38  62  91 119 148 194 243 285 341
#     4  11  21  40  60  88 116 153 193 228 290 348
#     4  10  18  33  58  82 114 155 197 236 286 342
#     4   8  15  28  48  78 115 153 193 238 290 337
#     4  11  20  35  59  84 116 153 193 244 277 345
#     4  12  22  40  66  88 115 158 187 227 292 356
#
# _framework density 20.423583000000001
#
# number of rings (size 3 to 8) (size 9 to 14) (size 15 to 20)
#    0.000    1.571    5.714    2.143    0.000    1.429 
#    0.000    1.429    0.000    3.429    0.000    9.000 
#    0.000    0.000    0.000    0.000    0.000    0.000 
#
# Total GULP energy -156260.895792 kJ/mol
# GULP energy per Si atom -5580.746278 kJ/mol
# Density = 2.037710 g / cm^3
# Si number density = 20.423583 Si / 1000 Ang^3
#
#
#
# Elastic Constant Matrix: (Units=GPa)
#
#
# Indices 1 2 3 4 5 6 
#
# 1 81.3153 33.3508 39.7088 0.0001 -31.0881 0.0000
# 2 33.3508 109.2935 20.9718 0.0001 -15.7701 0.0000
# 3 39.7088 20.9718 80.7901 0.0002 -29.4884 -0.0002
# 4 0.0001 0.0001 0.0002 27.2698 -0.0001 -14.9704
# 5 -31.0881 -15.7701 -29.4884 -0.0001 54.7451 0.0000
# 6 0.0000 0.0000 -0.0002 -14.9704 0.0000 24.1880
#
#
#
# Elastic Compliance Matrix: (Units=1/GPa)
#
#
# Indices 1 2 3 4 5 6 
#
# 1 0.019366 -0.003781 -0.006125 0.000000 0.006609 0.000000
# 2 -0.003781 0.010508 -0.000682 0.000000 0.000513 0.000000
# 3 -0.006125 -0.000682 0.017705 0.000000 0.005862 0.000000
# 4 0.000000 0.000000 0.000000 0.055542 0.000000 0.034376
# 5 0.006609 0.000513 0.005862 0.000000 0.025325 0.000000
# 6 0.000000 0.000000 0.000000 0.034376 0.000000 0.062619
#
#
# Mechanical properties :
#
#
# Convention : Reuss Voigt Hill
#
# Bulk Modulus (GPa) = 37.87379 51.05130 44.46254
# Shear Modulus (GPa) = 22.62012 33.06508 27.84260
#
# Velocity S-wave (km/s) = 3.33160 4.02800 3.69624
# Velocity P-wave (km/s) = 5.77787 6.83254 6.32722
#
# Compressibility (1/GPa) = 0.02640348
#
# Stress axis : x y z
#
# Youngs Moduli (GPa) = 51.63639 95.16342 56.48139
#
# Poissons Ratio (x) = 0.35978 0.34594
# Poissons Ratio (y) = 0.19522 0.03855
# Poissons Ratio (z) = 0.31626 0.06495
#
# Static dielectric constant tensor:
#      x y z
#    x 1.772160 0.000000 -0.009910 
#    y 0.000000 1.705740 0.000000 
#    z -0.009910 0.000000 1.777380 
# 
# From -- ./inp_files/333310.got.cif
#   From: 2010.05.17/outbox.cif.g08.bks.cpg/sg12_167_cif.got.tgz:333310.got - 2010.06.03 13:09:07.
