data_PCOD9175054
_publ_section_title
;
Structure prediction by ZEFSAII (Michael W. Deem and Ramdas Pophale) SiO2 
 PCOD9175054
Probable space group: C 2/M
;
_chemical_formula_sum "Si O2"
_cell_formula_units_Z 56
_cell_length_a 20.018383
_cell_length_b 18.680109
_cell_length_c 9.805163
_cell_angle_alpha 90.000000
_cell_angle_beta 56.383875
_cell_angle_gamma 90.000000
_cell_volume 3053.415628
_symmetry_space_group_name_H-M "C 2/M"
_symmetry_group_IT_number 12
_symmetry_cell_setting 'monoclinic'
loop_
_space_group_symop_operation_xyz
x,y,z
-x,y,-z
-x,-y,-z
x,-y,z
1/2+x,1/2+y,z
1/2-x,1/2+y,-z
1/2-x,1/2-y,-z
1/2+x,1/2-y,z
loop_
_atom_site_type_symbol
_atom_site_label
_atom_site_fract_x
_atom_site_fract_y
_atom_site_fract_z
Si Si1 0.698903 0.288026 0.738300
Si Si2 0.087833 0.297677 0.660006
Si Si3 0.288958 0.083474 0.495944
Si Si4 0.362932 0.725881 0.657420
Si Si5 0.504167 0.420924 0.831171
Si Si6 0.645973 0.578625 0.465181
Si Si7 0.073660 0.225560 0.122404
O O1 0.655519 0.252166 0.656779
O O2 0.738535 0.364543 0.655049
O O3 0.772246 0.242546 0.715187
O O4 0.631116 0.285414 0.929483
O O5 0.125852 0.376733 0.621345
O O6 0.083994 0.271582 0.508089
O O7 0.001026 0.279081 0.819269
O O8 0.236926 0.085322 0.415787
O O9 0.294514 0.000000 0.531346
O O10 0.377488 0.642827 0.606412
O O11 0.379706 0.746126 0.793402
O O12 0.470400 0.500000 0.839404
O O13 0.592272 0.419201 0.664151
O O14 0.462078 0.353315 0.813144
O O15 0.500000 0.412269 0.000000
O O16 0.633421 0.500000 0.418039
#
# Coordination Sequence:
#
# PCOD9175054 Si02
#       7
#     8   8   8   8   8   8   8
#     4  11  21  38  58  83 111 147 195 234 281 340
#     4  11  20  37  59  84 112 149 194 236 278 340
#     4  10  19  35  62  86 108 146 198 241 274 328
#     4  11  21  37  53  82 114 150 187 234 282 341
#     4  10  20  33  51  81 118 150 182 222 278 347
#     4  10  18  32  55  80 110 146 184 225 274 340
#     4  12  23  33  56  85 120 148 180 236 298 331
#
# _framework density 18.340115999999998
#
# number of rings (size 3 to 8) (size 9 to 14) (size 15 to 20)
#    0.000    1.286    4.286    3.857    0.000    2.286 
#    0.000    1.429    0.000    9.429    0.000    0.000 
#    0.000    0.000    0.000    0.000    0.000    0.000 
#
# Total GULP energy -156138.055370 kJ/mol
# GULP energy per Si atom -5576.359120 kJ/mol
# Density = 1.829837 g / cm^3
# Si number density = 18.340116 Si / 1000 Ang^3
#
#
#
# Elastic Constant Matrix: (Units=GPa)
#
#
# Indices 1 2 3 4 5 6 
#
# 1 65.4724 25.6924 33.5073 0.0000 -0.4721 0.0000
# 2 25.6924 109.6073 36.7325 0.0000 -7.2512 0.0000
# 3 33.5073 36.7325 58.5695 0.0000 -9.5068 0.0000
# 4 0.0000 0.0000 0.0000 16.8173 0.0000 3.5387
# 5 -0.4721 -7.2512 -9.5068 0.0000 30.6357 0.0000
# 6 0.0000 0.0000 0.0000 3.5387 0.0000 0.8607
#
#
#
# Elastic Compliance Matrix: (Units=1/GPa)
#
#
# Indices 1 2 3 4 5 6 
#
# 1 0.022135 -0.001253 -0.012500 0.000000 -0.003834 0.000000
# 2 -0.001253 0.011630 -0.006459 0.000000 0.000729 0.000000
# 3 -0.012500 -0.006459 0.029481 0.000000 0.007427 0.000000
# 4 0.000000 0.000000 0.000000 0.440791 0.000000 -1.812217
# 5 -0.003834 0.000729 0.007427 0.000000 0.035060 0.000000
# 6 0.000000 0.000000 0.000000 -1.812217 0.000000 8.612337
#
#
# Mechanical properties :
#
#
# Convention : Reuss Voigt Hill
#
# Bulk Modulus (GPa) = 43.81584 47.27929 45.54756
# Shear Modulus (GPa) = 0.54351 18.84386 9.69369
#
# Velocity S-wave (km/s) = 0.54497 3.20889 2.30152
# Velocity P-wave (km/s) = 4.93341 6.29003 5.65257
#
# Compressibility (1/GPa) = 0.02282280
#
# Stress axis : x y z
#
# Youngs Moduli (GPa) = 45.17779 85.98520 33.92039
#
# Poissons Ratio (x) = 0.10775 0.42399
# Poissons Ratio (y) = 0.05662 0.21908
# Poissons Ratio (z) = 0.56471 0.55534
#
# Static dielectric constant tensor:
#      x y z
#    x 1.652980 0.000000 -0.024800 
#    y 0.000000 1.656470 0.000000 
#    z -0.024800 0.000000 1.673110 
# 
# From -- ./inp_files/75992.got.cif
#   From: 2010.05.17/outbox.cif.g08.bks.cpg/sg12_38_cif.got.tgz:75992.got - 2010.06.03 13:09:07.
