data_PCOD9175547
_publ_section_title
;
Structure prediction by ZEFSAII (Michael W. Deem and Ramdas Pophale) SiO2 
 PCOD9175547
Probable space group: C 2/M
;
_chemical_formula_sum "Si O2"
_cell_formula_units_Z 64
_cell_length_a 15.968672
_cell_length_b 16.552882
_cell_length_c 13.425729
_cell_angle_alpha 90.000000
_cell_angle_beta 104.921231
_cell_angle_gamma 90.000000
_cell_volume 3429.127365
_symmetry_space_group_name_H-M "C 2/M"
_symmetry_group_IT_number 12
_symmetry_cell_setting 'monoclinic'
loop_
_space_group_symop_operation_xyz
x,y,z
-x,y,-z
-x,-y,-z
x,-y,z
1/2+x,1/2+y,z
1/2-x,1/2+y,-z
1/2-x,1/2-y,-z
1/2+x,1/2-y,z
loop_
_atom_site_type_symbol
_atom_site_label
_atom_site_fract_x
_atom_site_fract_y
_atom_site_fract_z
Si Si1 0.582038 0.904617 0.598270
Si Si2 0.781248 0.739025 0.844011
Si Si3 0.891626 0.165523 0.717982
Si Si4 0.119435 0.739303 0.926092
Si Si5 0.534758 0.589172 0.897147
Si Si6 0.799515 0.594876 0.707782
Si Si7 0.514540 0.170160 0.251398
Si Si8 0.748035 0.597336 0.468439
O O1 0.500000 0.896120 0.500000
O O2 0.554374 0.861646 0.690652
O O3 0.668164 0.874309 0.569235
O O4 0.593711 0.000000 0.621507
O O5 0.823959 0.800411 0.779052
O O6 0.698317 0.775188 0.874248
O O7 0.763625 0.656122 0.779481
O O8 0.849920 0.722325 0.953133
O O9 0.956488 0.105783 0.795841
O O10 0.838003 0.128994 0.610814
O O11 0.946273 0.243950 0.702140
O O12 0.035794 0.689694 0.865894
O O13 0.097749 0.834443 0.909366
O O14 0.572290 0.500000 0.890491
O O15 0.500000 0.590861 0.000000
O O16 0.783168 0.500000 0.720446
O O17 0.761246 0.619025 0.587984
O O18 0.903366 0.611154 0.733979
O O19 0.748445 0.500000 0.465234
#
# Coordination Sequence:
#
# PCOD9175547 Si02
#       8
#     8   8   8   8   8   8   8   8
#     4  10  18  33  54  77 107 144 179 219 267 313
#     4  10  21  37  57  76 109 140 178 222 265 319
#     4  10  20  34  55  84 106 139 178 222 266 314
#     4  10  21  38  55  80 107 141 174 223 272 310
#     4  10  19  34  58  80 104 136 173 216 267 322
#     4  10  21  37  55  76 106 148 181 212 263 321
#     4  10  20  33  55  80 109 140 178 223 263 323
#     4  10  20  35  55  78 111 142 177 223 264 314
#
# _framework density 18.663640999999998
#
# number of rings (size 3 to 8) (size 9 to 14) (size 15 to 20)
#    0.000    2.000    2.500    1.500    0.000    2.500 
#    2.250    1.875    0.000    0.750    0.000    4.375 
#    0.000    0.000    0.000    0.000    0.000    0.000 
#
# Total GULP energy -178568.208325 kJ/mol
# GULP energy per Si atom -5580.256510 kJ/mol
# Density = 1.862116 g / cm^3
# Si number density = 18.663641 Si / 1000 Ang^3
#
#
#
# Elastic Constant Matrix: (Units=GPa)
#
#
# Indices 1 2 3 4 5 6 
#
# 1 31.5938 -6.3504 30.1663 0.0000 16.0298 0.0000
# 2 -6.3504 22.5524 25.4235 0.0000 1.5377 0.0000
# 3 30.1663 25.4235 107.6870 0.0000 20.4391 0.0000
# 4 0.0000 0.0000 0.0000 65.5920 0.0000 9.0142
# 5 16.0298 1.5377 20.4391 0.0000 25.0066 0.0000
# 6 0.0000 0.0000 0.0000 9.0142 0.0000 12.9124
#
#
#
# Elastic Compliance Matrix: (Units=1/GPa)
#
#
# Indices 1 2 3 4 5 6 
#
# 1 0.107128 0.079276 -0.041150 0.000000 -0.039912 0.000000
# 2 0.079276 0.121015 -0.047014 0.000000 -0.019833 0.000000
# 3 -0.041150 -0.047014 0.031197 0.000000 0.003770 0.000000
# 4 0.000000 0.000000 0.000000 0.016864 0.000000 -0.011773
# 5 -0.039912 -0.019833 0.003770 0.000000 0.063712 0.000000
# 6 0.000000 0.000000 0.000000 -0.011773 0.000000 0.085663
#
#
# Mechanical properties :
#
#
# Convention : Reuss Voigt Hill
#
# Bulk Modulus (GPa) = 4.13966 28.92355 16.53160
# Shear Modulus (GPa) = 9.54423 28.20845 18.87634
#
# Velocity S-wave (km/s) = 2.26383 3.89191 3.18370
# Velocity P-wave (km/s) = 3.00933 5.97719 4.73196
#
# Compressibility (1/GPa) = 0.24156559
#
# Stress axis : x y z
#
# Youngs Moduli (GPa) = 9.33463 8.26341 32.05404
#
# Poissons Ratio (x) = -0.65509 1.31904
# Poissons Ratio (y) = -0.74002 1.50697
# Poissons Ratio (z) = 0.38412 0.38849
#
# Static dielectric constant tensor:
#      x y z
#    x 1.650580 0.000000 0.006370 
#    y 0.000000 1.638400 0.000000 
#    z 0.006370 0.000000 1.639040 
# 
# From -- ./inp_files/157891.got.cif
#   From: 2010.05.17/outbox.cif.g08.bks.cpg/sg12_79_cif.got.tgz:157891.got - 2010.06.03 13:09:07.
