data_PCOD9175402
_publ_section_title
;
Structure prediction by ZEFSAII (Michael W. Deem and Ramdas Pophale) SiO2 
 PCOD9175402
Probable space group: C 2/M
;
_chemical_formula_sum "Si O2"
_cell_formula_units_Z 64
_cell_length_a 8.756566
_cell_length_b 33.993439
_cell_length_c 13.953445
_cell_angle_alpha 90.000000
_cell_angle_beta 52.637209
_cell_angle_gamma 90.000000
_cell_volume 3301.209543
_symmetry_space_group_name_H-M "C 2/M"
_symmetry_group_IT_number 12
_symmetry_cell_setting 'monoclinic'
loop_
_space_group_symop_operation_xyz
x,y,z
-x,y,-z
-x,-y,-z
x,-y,z
1/2+x,1/2+y,z
1/2-x,1/2+y,-z
1/2-x,1/2-y,-z
1/2+x,1/2-y,z
loop_
_atom_site_type_symbol
_atom_site_label
_atom_site_fract_x
_atom_site_fract_y
_atom_site_fract_z
Si Si1 0.692592 0.794114 0.990901
Si Si2 0.642829 0.578414 0.351890
Si Si3 0.691931 0.664880 0.365357
Si Si4 0.056498 0.780696 0.271773
Si Si5 0.905645 0.687169 0.763777
Si Si6 0.291043 0.575048 0.369808
Si Si7 0.024325 0.453678 0.645343
Si Si8 0.217442 0.666504 0.384925
O O1 0.864385 0.802986 0.852582
O O2 0.500000 0.793708 0.000000
O O3 0.750000 0.750000 0.000000
O O4 0.659757 0.818041 0.101236
O O5 0.500000 0.576875 0.500000
O O6 0.681958 0.624027 0.313091
O O7 0.510148 0.562674 0.314542
O O8 0.845708 0.560873 0.313206
O O9 0.500000 0.666178 0.500000
O O10 0.697635 0.704137 0.300353
O O11 0.896663 0.665021 0.336902
O O12 0.066956 0.734129 0.260064
O O13 0.852237 0.799283 0.374949
O O14 0.765762 0.671633 0.735910
O O15 0.162395 0.555337 0.501996
O O16 0.275891 0.622265 0.389719
O O17 0.180402 0.565044 0.312002
O O18 0.994832 0.500000 0.666738
O O19 0.000000 0.673401 0.500000
#
# Coordination Sequence:
#
# PCOD9175402 Si02
#       8
#     8   8   8   8   8   8   8   8
#     4  10  22  40  58  75  99 133 189 250 305 336
#     4   9  19  31  49  71 105 147 181 213 272 334
#     4  11  20  34  52  74 107 147 182 220 286 342
#     4  11  23  37  54  76 101 142 196 242 287 331
#     4  11  24  35  55  75 104 141 192 254 285 325
#     4  10  18  33  49  72 108 147 181 218 273 333
#     4  10  19  31  52  77 103 146 195 220 256 325
#     4  12  23  36  54  78 112 151 188 224 291 348
#
# _framework density 19.386834
#
# number of rings (size 3 to 8) (size 9 to 14) (size 15 to 20)
#    0.000    1.500    3.750    3.000    7.000    5.750 
#    0.000    0.000    0.000    0.000    0.000    0.000 
#    0.000    0.000    0.000   31.500    0.750    2.500 
#
# Total GULP energy -178160.366534 kJ/mol
# GULP energy per Si atom -5567.511454 kJ/mol
# Density = 1.934271 g / cm^3
# Si number density = 19.386834 Si / 1000 Ang^3
#
#
#
# Elastic Constant Matrix: (Units=GPa)
#
#
# Indices 1 2 3 4 5 6 
#
# 1 145.6138 15.1106 9.1383 0.0000 -0.9442 0.0000
# 2 15.1106 60.0286 0.2533 0.0000 -6.0338 0.0000
# 3 9.1383 0.2533 35.4957 0.0000 -0.0918 0.0000
# 4 0.0000 0.0000 0.0000 0.2120 0.0000 11.0953
# 5 -0.9442 -6.0338 -0.0918 0.0000 22.2414 0.0000
# 6 0.0000 0.0000 0.0000 11.0953 0.0000 31.0388
#
#
#
# Elastic Compliance Matrix: (Units=1/GPa)
#
#
# Indices 1 2 3 4 5 6 
#
# 1 0.007170 -0.001817 -0.001833 0.000000 -0.000196 0.000000
# 2 -0.001817 0.017587 0.000354 0.000000 0.004695 0.000000
# 3 -0.001833 0.000354 0.028642 0.000000 0.000136 0.000000
# 4 0.000000 0.000000 0.000000 -0.266374 0.000000 0.095219
# 5 -0.000196 0.004695 0.000136 0.000000 0.046227 0.000000
# 6 0.000000 0.000000 0.000000 0.095219 0.000000 -0.001820
#
#
# Mechanical properties :
#
#
# Convention : Reuss Voigt Hill
#
# Bulk Modulus (GPa) = 21.36435 32.23805 26.80120
# Shear Modulus (GPa) = -34.15908 25.14084 -4.50912
#
# Velocity S-wave (km/s) = -4.20214 3.60502 -1.52673
# Velocity P-wave (km/s) = 3.53554 5.83036 3.27819
#
# Compressibility (1/GPa) = 0.04680695
#
# Stress axis : x y z
#
# Youngs Moduli (GPa) = 139.47395 56.86179 34.91343
#
# Poissons Ratio (x) = 0.10331 0.06401
# Poissons Ratio (y) = 0.25339 -0.01237
# Poissons Ratio (z) = 0.25571 -0.02015
#
# Static dielectric constant tensor:
#      x y z
#    x 1.879480 0.000000 0.067360 
#    y 0.000000 1.648570 0.000000 
#    z 0.067360 0.000000 1.712760 
# 
# From -- ./inp_files/200898.got.cif
#   From: 2010.05.17/outbox.cif.g08.bks.cpg/sg12_101_cif.got.tgz:200898.got - 2010.06.03 13:09:07.
