data_PCOD9175597
_publ_section_title
;
Structure prediction by ZEFSAII (Michael W. Deem and Ramdas Pophale) SiO2 
 PCOD9175597
Probable space group: C 2/M
;
_chemical_formula_sum "Si O2"
_cell_formula_units_Z 56
_cell_length_a 14.365866
_cell_length_b 18.749322
_cell_length_c 14.042510
_cell_angle_alpha 90.000000
_cell_angle_beta 123.505008
_cell_angle_gamma 90.000000
_cell_volume 3153.868511
_symmetry_space_group_name_H-M "C 2/M"
_symmetry_group_IT_number 12
_symmetry_cell_setting 'monoclinic'
loop_
_space_group_symop_operation_xyz
x,y,z
-x,y,-z
-x,-y,-z
x,-y,z
1/2+x,1/2+y,z
1/2-x,1/2+y,-z
1/2-x,1/2-y,-z
1/2+x,1/2-y,z
loop_
_atom_site_type_symbol
_atom_site_label
_atom_site_fract_x
_atom_site_fract_y
_atom_site_fract_z
Si Si1 0.164849 0.150491 0.329435
Si Si2 0.890995 0.418400 0.501278
Si Si3 0.159774 0.223912 0.023746
Si Si4 0.915859 0.722746 0.824068
Si Si5 0.371235 0.579683 0.896075
Si Si6 0.858175 0.418058 0.700822
Si Si7 0.604836 0.585564 0.494036
O O1 0.295190 0.136154 0.418957
O O2 0.136575 0.232110 0.291644
O O3 0.134010 0.107052 0.215821
O O4 0.105359 0.122130 0.390900
O O5 0.848383 0.500000 0.461591
O O6 0.911057 0.412878 0.625136
O O7 0.000000 0.408888 0.500000
O O8 0.158724 0.264474 0.124311
O O9 0.177449 0.141326 0.063275
O O10 0.250000 0.250000 0.000000
O O11 0.036357 0.241701 0.913027
O O12 0.916261 0.640032 0.799465
O O13 0.322490 0.500000 0.876564
O O14 0.500000 0.576197 0.000000
O O15 0.867373 0.500000 0.738475
O O16 0.725797 0.401247 0.611228
O O17 0.500000 0.607056 0.500000
O O18 0.598823 0.500000 0.476169
#
# Coordination Sequence:
#
# PCOD9175597 Si02
#       7
#     8   8   8   8   8   8   8
#     4  10  18  33  55  78 110 144 174 222 274 321
#     4   9  18  32  51  79 110 141 177 216 263 318
#     4  10  21  40  56  77 112 143 174 230 284 327
#     4  10  21  38  54  77 103 141 185 221 280 332
#     4  10  18  34  59  87 111 138 182 230 278 329
#     4   9  19  36  53  72 103 141 178 220 261 316
#     4   9  18  32  50  78 112 144 177 213 260 318
#
# _framework density 17.755970999999999
#
# number of rings (size 3 to 8) (size 9 to 14) (size 15 to 20)
#    0.000    2.429    2.857    2.143    0.000    5.714 
#    0.000    5.714    0.000    0.000    0.000    0.000 
#    0.000    0.000    0.000    0.000    0.000    0.000 
#
# Total GULP energy -156042.256592 kJ/mol
# GULP energy per Si atom -5572.937735 kJ/mol
# Density = 1.771556 g / cm^3
# Si number density = 17.755971 Si / 1000 Ang^3
#
#
#
# Elastic Constant Matrix: (Units=GPa)
#
#
# Indices 1 2 3 4 5 6 
#
# 1 124.6655 34.3671 13.2362 0.0000 -17.6875 0.0000
# 2 34.3671 110.6847 35.6930 0.0000 -11.1251 0.0000
# 3 13.2362 35.6930 38.2774 0.0000 -12.0838 0.0000
# 4 0.0000 0.0000 0.0000 25.6369 0.0000 -3.3582
# 5 -17.6875 -11.1251 -12.0838 0.0000 9.2975 0.0000
# 6 0.0000 0.0000 0.0000 -3.3582 0.0000 17.3496
#
#
#
# Elastic Compliance Matrix: (Units=1/GPa)
#
#
# Indices 1 2 3 4 5 6 
#
# 1 0.012448 -0.003599 0.008763 0.000000 0.030764 0.000000
# 2 -0.003599 0.013961 -0.014688 0.000000 -0.009231 0.000000
# 3 0.008763 -0.014688 0.061905 0.000000 0.079552 0.000000
# 4 0.000000 0.000000 0.000000 0.040021 0.000000 0.007747
# 5 0.030764 -0.009231 0.079552 0.000000 0.258427 0.000000
# 6 0.000000 0.000000 0.000000 0.007747 0.000000 0.059138
#
#
# Mechanical properties :
#
#
# Convention : Reuss Voigt Hill
#
# Bulk Modulus (GPa) = 14.43693 48.91335 31.67514
# Shear Modulus (GPa) = 10.24517 23.14557 16.69537
#
# Velocity S-wave (km/s) = 2.40469 3.61437 3.06971
# Velocity P-wave (km/s) = 3.98226 6.71011 5.51743
#
# Compressibility (1/GPa) = 0.06926680
#
# Stress axis : x y z
#
# Youngs Moduli (GPa) = 80.33465 71.62952 16.15385
#
# Poissons Ratio (x) = 0.25778 -0.14156
# Poissons Ratio (y) = 0.28911 0.23726
# Poissons Ratio (z) = -0.70399 1.05208
#
# Static dielectric constant tensor:
#      x y z
#    x 1.587120 0.000000 0.004620 
#    y 0.000000 1.636980 0.000000 
#    z 0.004620 0.000000 1.613940 
# 
# From -- ./inp_files/216445.got.cif
#   From: 2010.05.17/outbox.cif.g08.bks.cpg/sg12_109_cif.got.tgz:216445.got - 2010.06.03 13:09:07.
