data_PCOD9175789
_publ_section_title
;
Structure prediction by ZEFSAII (Michael W. Deem and Ramdas Pophale) SiO2 
 PCOD9175789
Probable space group: C 2/M
;
_chemical_formula_sum "Si O2"
_cell_formula_units_Z 64
_cell_length_a 17.304205
_cell_length_b 21.834782
_cell_length_c 9.523323
_cell_angle_alpha 90.000000
_cell_angle_beta 83.859786
_cell_angle_gamma 90.000000
_cell_volume 3577.588245
_symmetry_space_group_name_H-M "C 2/M"
_symmetry_group_IT_number 12
_symmetry_cell_setting 'monoclinic'
loop_
_space_group_symop_operation_xyz
x,y,z
-x,y,-z
-x,-y,-z
x,-y,z
1/2+x,1/2+y,z
1/2-x,1/2+y,-z
1/2-x,1/2-y,-z
1/2+x,1/2-y,z
loop_
_atom_site_type_symbol
_atom_site_label
_atom_site_fract_x
_atom_site_fract_y
_atom_site_fract_z
Si Si1 0.591233 0.927776 0.487557
Si Si2 0.558905 0.572764 0.118289
Si Si3 0.760541 0.930736 0.991287
Si Si4 0.327891 0.431003 0.447063
Si Si5 0.716788 0.139194 0.267833
Si Si6 0.200625 0.600744 0.703964
Si Si7 0.566732 0.647961 0.398345
Si Si8 0.276237 0.726360 0.648144
O O1 0.500000 0.914816 0.500000
O O2 0.644004 0.887188 0.371959
O O3 0.622000 0.914763 0.638733
O O4 0.604201 0.000000 0.452922
O O5 0.552781 0.500000 0.157505
O O6 0.648540 0.583676 0.054666
O O7 0.544813 0.616776 0.254665
O O8 0.500000 0.583626 0.000000
O O9 0.715493 0.925743 0.853392
O O10 0.757431 0.000000 0.045869
O O11 0.721723 0.887664 0.112663
O O12 0.334484 0.500000 0.393320
O O13 0.292438 0.386698 0.336409
O O14 0.266129 0.427323 0.587021
O O15 0.405705 0.405961 0.501178
O O16 0.718613 0.212164 0.263942
O O17 0.216430 0.673551 0.705440
O O18 0.500000 0.681049 0.500000
O O19 0.640871 0.692166 0.368333
O O20 0.250000 0.750000 0.500000
#
# Coordination Sequence:
#
# PCOD9175789 Si02
#       8
#     8   8   8   8   8   8   8   8
#     4  10  20  36  60  88 114 145 191 253 312 350
#     4  10  22  38  56  85 127 162 191 236 299 356
#     4  11  21  37  61  89 120 155 193 241 297 357
#     4  10  18  33  57  85 116 151 198 245 288 346
#     4  11  22  36  59  86 118 152 200 245 289 349
#     4  10  19  36  60  82 114 153 197 238 288 349
#     4  11  23  37  58  86 117 157 201 247 293 345
#     4  11  20  40  59  84 113 154 206 247 281 335
#
# _framework density 17.889147000000001
#
# number of rings (size 3 to 8) (size 9 to 14) (size 15 to 20)
#    0.000    1.500    6.250    3.375    1.750    2.000 
#    0.000    0.625    0.000    2.250    0.000    0.000 
#    0.000    0.000    0.000    0.000    0.000    0.000 
#
# Total GULP energy -178536.564602 kJ/mol
# GULP energy per Si atom -5579.267644 kJ/mol
# Density = 1.784843 g / cm^3
# Si number density = 17.889147 Si / 1000 Ang^3
#
#
#
# Elastic Constant Matrix: (Units=GPa)
#
#
# Indices 1 2 3 4 5 6 
#
# 1 78.1250 16.9079 31.3190 0.0000 21.0755 0.0000
# 2 16.9079 96.2651 10.5459 0.0000 -1.9463 0.0000
# 3 31.3190 10.5459 78.3305 0.0000 13.9150 0.0000
# 4 0.0000 0.0000 0.0000 26.1740 0.0000 6.0529
# 5 21.0755 -1.9463 13.9150 0.0000 18.5958 0.0000
# 6 0.0000 0.0000 0.0000 6.0529 0.0000 4.5962
#
#
#
# Elastic Compliance Matrix: (Units=1/GPa)
#
#
# Indices 1 2 3 4 5 6 
#
# 1 0.020908 -0.003643 -0.004143 0.000000 -0.020977 0.000000
# 2 -0.003643 0.011280 -0.001159 0.000000 0.006176 0.000000
# 3 -0.004143 -0.001159 0.015877 0.000000 -0.007307 0.000000
# 4 0.000000 0.000000 0.000000 0.054937 0.000000 -0.072350
# 5 -0.020977 0.006176 -0.007307 0.000000 0.083664 0.000000
# 6 0.000000 0.000000 0.000000 -0.072350 0.000000 0.312855
#
#
# Mechanical properties :
#
#
# Convention : Reuss Voigt Hill
#
# Bulk Modulus (GPa) = 33.13986 41.14070 37.14028
# Shear Modulus (GPa) = 9.47924 22.80306 16.14115
#
# Velocity S-wave (km/s) = 2.30443 3.57415 3.00707
# Velocity P-wave (km/s) = 5.06417 6.33089 5.73263
#
# Compressibility (1/GPa) = 0.03017514
#
# Stress axis : x y z
#
# Youngs Moduli (GPa) = 47.82846 88.65530 62.98451
#
# Poissons Ratio (x) = 0.32293 0.26093
# Poissons Ratio (y) = 0.17422 0.07303
# Poissons Ratio (z) = 0.19814 0.10279
#
# Static dielectric constant tensor:
#      x y z
#    x 1.658830 0.000000 0.006230 
#    y 0.000000 1.637980 0.000000 
#    z 0.006230 0.000000 1.609180 
# 
# From -- ./inp_files/77511.got.cif
#   From: 2010.05.17/outbox.cif.g08.bks.cpg/sg12_39_cif.got.tgz:77511.got - 2010.06.03 13:09:07.
