data_PCOD9175236
_publ_section_title
;
Structure prediction by ZEFSAII (Michael W. Deem and Ramdas Pophale) SiO2 
 PCOD9175236
Probable space group: C 2/M
;
_chemical_formula_sum "Si O2"
_cell_formula_units_Z 64
_cell_length_a 24.649654
_cell_length_b 7.438602
_cell_length_c 17.129507
_cell_angle_alpha 90.000000
_cell_angle_beta 68.088911
_cell_angle_gamma 90.000000
_cell_volume 2913.966491
_symmetry_space_group_name_H-M "C 2/M"
_symmetry_group_IT_number 12
_symmetry_cell_setting 'monoclinic'
loop_
_space_group_symop_operation_xyz
x,y,z
-x,y,-z
-x,-y,-z
x,-y,z
1/2+x,1/2+y,z
1/2-x,1/2+y,-z
1/2-x,1/2-y,-z
1/2+x,1/2-y,z
loop_
_atom_site_type_symbol
_atom_site_label
_atom_site_fract_x
_atom_site_fract_y
_atom_site_fract_z
Si Si1 0.864888 0.219810 0.246573
Si Si2 0.242354 0.287737 0.243567
Si Si3 0.900704 0.219206 0.400770
Si Si4 0.205229 0.713146 0.093475
Si Si5 0.365015 0.716734 0.583758
Si Si6 0.481265 0.720032 0.095878
Si Si7 0.925911 0.208445 0.828917
Si Si8 0.465707 0.280671 0.641162
O O1 0.802282 0.283098 0.248843
O O2 0.879865 0.279133 0.326744
O O3 0.917314 0.272666 0.160428
O O4 0.864293 0.000000 0.248894
O O5 0.252155 0.500000 0.227133
O O6 0.226254 0.214135 0.166454
O O7 0.188625 0.266703 0.331944
O O8 0.861873 0.276312 0.495648
O O9 0.967216 0.274529 0.384800
O O10 0.900885 0.000000 0.398107
O O11 0.199105 0.500000 0.104556
O O12 0.140688 0.782422 0.109012
O O13 0.250000 0.750000 0.000000
O O14 0.366575 0.500000 0.582027
O O15 0.426067 0.778726 0.590070
O O16 0.481971 0.500000 0.094160
O O17 0.528842 0.784400 0.133286
O O18 0.500000 0.779679 0.000000
O O19 0.932847 0.280027 0.737730
O O20 0.942878 0.000000 0.812365
O O21 0.466517 0.500000 0.635847
#
# Coordination Sequence:
#
# PCOD9175236 Si02
#       8
#     8   8   8   8   8   8   8   8
#     4   9  17  31  48  73 106 137 173 219 261 301
#     4  10  22  37  53  74 105 140 175 216 260 308
#     4   9  16  28  49  78 106 134 172 218 263 305
#     4  11  24  39  56  79 106 140 178 218 263 314
#     4  10  19  31  52  79 106 136 172 214 261 312
#     4   9  17  28  50  81 107 132 171 220 263 309
#     4  10  18  32  57  84 108 135 168 216 270 313
#     4   9  15  27  48  78 108 131 164 213 261 303
#
# _framework density 21.963190000000001
#
# number of rings (size 3 to 8) (size 9 to 14) (size 15 to 20)
#    0.000    2.375    2.500    0.750    1.750    2.500 
#    0.000    0.000    0.000    3.375    0.000    0.000 
#    0.000    0.000    0.000    0.000    0.000    0.000 
#
# Total GULP energy -178726.399298 kJ/mol
# GULP energy per Si atom -5585.199978 kJ/mol
# Density = 2.191320 g / cm^3
# Si number density = 21.963190 Si / 1000 Ang^3
#
#
#
# Elastic Constant Matrix: (Units=GPa)
#
#
# Indices 1 2 3 4 5 6 
#
# 1 130.8516 -0.3829 38.9164 0.0000 -10.1835 0.0000
# 2 -0.3829 64.3113 -7.7856 -0.0001 9.7075 -0.0001
# 3 38.9164 -7.7856 121.1642 0.0000 -5.0412 0.0000
# 4 0.0000 -0.0001 0.0000 8.0983 0.0000 -9.5140
# 5 -10.1835 9.7075 -5.0412 0.0000 25.5363 0.0000
# 6 0.0000 -0.0001 0.0000 -9.5140 0.0000 -4.7920
#
#
#
# Elastic Compliance Matrix: (Units=1/GPa)
#
#
# Indices 1 2 3 4 5 6 
#
# 1 0.008696 -0.000763 -0.002708 0.000000 0.003223 0.000000
# 2 -0.000763 0.016641 0.001047 0.000000 -0.006424 0.000000
# 3 -0.002708 0.001047 0.009204 0.000000 0.000339 0.000000
# 4 0.000000 0.000000 0.000000 0.037055 0.000000 -0.073567
# 5 0.003223 -0.006424 0.000339 0.000000 0.042954 0.000000
# 6 0.000000 0.000000 0.000000 -0.073567 0.000000 -0.062620
#
#
# Mechanical properties :
#
#
# Convention : Reuss Voigt Hill
#
# Bulk Modulus (GPa) = 33.67619 41.98035 37.82827
# Shear Modulus (GPa) = 74.98967 24.80711 49.89839
#
# Velocity S-wave (km/s) = 5.84957 3.36443 4.77163
# Velocity P-wave (km/s) = 7.80958 5.85218 6.90064
#
# Compressibility (1/GPa) = 0.02969457
#
# Stress axis : x y z
#
# Youngs Moduli (GPa) = 114.99208 60.09194 108.64328
#
# Poissons Ratio (x) = 0.04583 0.29421
# Poissons Ratio (y) = 0.08769 -0.11375
# Poissons Ratio (z) = 0.31140 -0.06291
#
# Static dielectric constant tensor:
#      x y z
#    x 1.762260 0.000000 0.024560 
#    y 0.000000 1.862450 0.000000 
#    z 0.024560 0.000000 1.777930 
# 
# From -- ./inp_files/288825.got.cif
#   From: 2010.05.17/outbox.cif.g08.bks.cpg/sg12_145_cif.got.tgz:288825.got - 2010.06.03 13:09:07.
