data_PCOD9175638
_publ_section_title
;
Structure prediction by ZEFSAII (Michael W. Deem and Ramdas Pophale) SiO2 
 PCOD9175638
Probable space group: C 2/M
;
_chemical_formula_sum "Si O2"
_cell_formula_units_Z 58
_cell_length_a 10.445297
_cell_length_b 14.330668
_cell_length_c 17.779827
_cell_angle_alpha 90.000000
_cell_angle_beta 107.797952
_cell_angle_gamma 90.000000
_cell_volume 2534.053122
_symmetry_space_group_name_H-M "C 2/M"
_symmetry_group_IT_number 12
_symmetry_cell_setting 'monoclinic'
loop_
_space_group_symop_operation_xyz
x,y,z
-x,y,-z
-x,-y,-z
x,-y,z
1/2+x,1/2+y,z
1/2-x,1/2+y,-z
1/2-x,1/2-y,-z
1/2+x,1/2-y,z
loop_
_atom_site_type_symbol
_atom_site_label
_atom_site_fract_x
_atom_site_fract_y
_atom_site_fract_z
Si Si1 0.130971 0.886676 0.920659
Si Si2 0.807023 0.849661 0.231659
Si Si3 0.746968 0.136157 0.498139
Si Si4 0.334760 0.391350 0.907099
Si Si5 0.093080 0.134546 0.334602
Si Si6 0.000000 0.500000 0.500000
Si Si7 0.673102 0.133787 0.733680
Si Si8 0.624354 0.140445 0.325460
O O1 0.203008 0.847696 0.859847
O O2 0.973790 0.854328 0.895182
O O3 0.137758 0.000000 0.914075
O O4 0.188115 0.856791 0.012280
O O5 0.821891 0.745562 0.266469
O O6 0.679724 0.887191 0.253999
O O7 0.948561 0.895848 0.278891
O O8 0.750000 0.250000 0.500000
O O9 0.871995 0.109992 0.573462
O O10 0.617502 0.083049 0.509734
O O11 0.732966 0.112612 0.407659
O O12 0.366114 0.500000 0.924267
O O13 0.215012 0.386955 0.826699
O O14 0.212177 0.099736 0.301836
O O15 0.103164 0.247604 0.328368
O O16 0.524335 0.101629 0.686002
#
# Coordination Sequence:
#
# PCOD9175638 Si02
#       8
#     8   8   8   8   8   2   8   8
#     4   9  18  35  55  79 108 148 196 247 311 385
#     4  10  19  34  56  83 116 155 202 249 314 396
#     4  10  22  42  65  94 140 183 225 298 355 400
#     4   9  18  34  57  81 107 144 200 253 306 378
#     4   9  18  35  61  84 115 170 216 254 326 402
#     4  12  24  44  72 108 132 184 264 292 346 462
#     4  10  18  33  55  86 114 149 207 254 308 393
#     4   9  20  35  56  86 126 166 200 259 344 399
#
# _framework density 22.888235000000002
#
# number of rings (size 3 to 8) (size 9 to 14) (size 15 to 20)
#    0.000    2.483    1.379    1.655    0.000    4.414 
#    7.448    0.690    0.000    4.552    0.000    0.000 
#    0.000    0.000    0.000    0.000    0.000    0.000 
#
# Total GULP energy -161475.549656 kJ/mol
# GULP energy per Si atom -5568.122402 kJ/mol
# Density = 2.283614 g / cm^3
# Si number density = 22.888235 Si / 1000 Ang^3
#
#
#
# Elastic Constant Matrix: (Units=GPa)
#
#
# Indices 1 2 3 4 5 6 
#
# 1 59.0249 12.3742 8.2115 0.0000 -2.1115 0.0000
# 2 12.3742 114.2632 -19.6274 0.0000 -2.5279 0.0000
# 3 8.2115 -19.6274 101.2262 0.0000 10.1127 0.0000
# 4 0.0000 0.0000 0.0000 52.3642 0.0000 -7.2247
# 5 -2.1115 -2.5279 10.1127 0.0000 25.1394 0.0000
# 6 0.0000 0.0000 0.0000 -7.2247 0.0000 -3.1006
#
#
#
# Elastic Compliance Matrix: (Units=1/GPa)
#
#
# Indices 1 2 3 4 5 6 
#
# 1 0.017777 -0.002237 -0.002086 0.000000 0.002107 0.000000
# 2 -0.002237 0.009336 0.001997 0.000000 -0.000052 0.000000
# 3 -0.002086 0.001997 0.010870 0.000000 -0.004347 0.000000
# 4 0.000000 0.000000 0.000000 0.014451 0.000000 -0.033673
# 5 0.002107 -0.000052 -0.004347 0.000000 0.041699 0.000000
# 6 0.000000 0.000000 0.000000 -0.033673 0.000000 -0.244059
#
#
# Mechanical properties :
#
#
# Convention : Reuss Voigt Hill
#
# Bulk Modulus (GPa) = 30.00356 30.71453 30.35905
# Shear Modulus (GPa) = -37.26769 33.11766 -2.07501
#
# Velocity S-wave (km/s) = -4.03953 3.80798 -0.95318
# Velocity P-wave (km/s) = 2.93597 5.72562 3.47584
#
# Compressibility (1/GPa) = 0.03332937
#
# Stress axis : x y z
#
# Youngs Moduli (GPa) = 56.25377 107.11434 92.00003
#
# Poissons Ratio (x) = 0.23960 0.19194
# Poissons Ratio (y) = 0.12583 -0.18371
# Poissons Ratio (z) = 0.11736 -0.21389
#
# Static dielectric constant tensor:
#      x y z
#    x 1.838040 0.000000 -0.017830 
#    y 0.000000 1.942890 0.000000 
#    z -0.017830 0.000000 1.861100 
# 
# From -- ./inp_files/263952.got.cif
#   From: 2010.05.17/outbox.cif.g08.bks.cpg/sg12_132_cif.got.tgz:263952.got - 2010.06.03 13:09:07.
