data_PCOD9175408
_publ_section_title
;
Structure prediction by ZEFSAII (Michael W. Deem and Ramdas Pophale) SiO2 
 PCOD9175408
Probable space group: C 2/M
;
_chemical_formula_sum "Si O2"
_cell_formula_units_Z 60
_cell_length_a 9.097048
_cell_length_b 23.683104
_cell_length_c 17.952255
_cell_angle_alpha 90.000000
_cell_angle_beta 127.647009
_cell_angle_gamma 90.000000
_cell_volume 3062.439078
_symmetry_space_group_name_H-M "C 2/M"
_symmetry_group_IT_number 12
_symmetry_cell_setting 'monoclinic'
loop_
_space_group_symop_operation_xyz
x,y,z
-x,y,-z
-x,-y,-z
x,-y,z
1/2+x,1/2+y,z
1/2-x,1/2+y,-z
1/2-x,1/2-y,-z
1/2+x,1/2-y,z
loop_
_atom_site_type_symbol
_atom_site_label
_atom_site_fract_x
_atom_site_fract_y
_atom_site_fract_z
Si Si1 0.108837 0.728589 0.374638
Si Si2 0.696212 0.436840 0.936479
Si Si3 0.106765 0.162905 0.286723
Si Si4 0.220347 0.783270 0.170899
Si Si5 0.807579 0.348056 0.852119
Si Si6 0.763489 0.936640 0.753618
Si Si7 0.834758 0.613500 0.125518
Si Si8 0.500000 0.270038 0.500000
O O1 0.164379 0.791428 0.364389
O O2 0.304822 0.696586 0.427412
O O3 0.932599 0.713844 0.268937
O O4 0.039908 0.734817 0.437292
O O5 0.762714 0.500000 0.936947
O O6 0.796380 0.386610 0.922374
O O7 0.478487 0.434790 0.848561
O O8 0.730386 0.425297 0.033621
O O9 0.099207 0.195510 0.203889
O O10 0.238964 0.110123 0.311745
O O11 0.899750 0.144500 0.244588
O O12 0.171974 0.719716 0.132468
O O13 0.218860 0.829250 0.105579
O O14 0.968638 0.369889 0.848769
O O15 0.648550 0.916947 0.789778
O O16 0.719175 0.000000 0.717019
#
# Coordination Sequence:
#
# PCOD9175408 Si02
#       8
#     8   8   8   8   8   8   8   4
#     4  10  18  33  49  81 112 139 167 202 241 307
#     4  10  21  37  52  70 101 133 176 230 268 303
#     4   9  18  33  52  71 106 142 167 208 254 304
#     4  10  20  35  51  70 109 144 172 206 244 318
#     4  10  20  32  49  73  98 139 173 212 271 298
#     4   9  19  36  55  74  95 133 181 220 261 304
#     4  11  21  31  52  75  95 138 174 218 265 298
#     4  10  20  28  54  82 110 140 166 194 252 302
#
# _framework density 19.592227000000001
#
# number of rings (size 3 to 8) (size 9 to 14) (size 15 to 20)
#    0.000    2.133    1.333    2.800    1.867    3.200 
#    0.000    4.000    0.000    0.000    0.000    0.933 
#    0.000    0.000    0.000    3.733    0.000    0.000 
#
# Total GULP energy -167271.415698 kJ/mol
# GULP energy per Si atom -5575.713857 kJ/mol
# Density = 1.954763 g / cm^3
# Si number density = 19.592227 Si / 1000 Ang^3
#
#
#
# Elastic Constant Matrix: (Units=GPa)
#
#
# Indices 1 2 3 4 5 6 
#
# 1 109.4019 15.1422 15.5922 0.0000 -3.3594 0.0000
# 2 15.1422 119.3143 11.7376 0.0000 -18.8985 0.0000
# 3 15.5922 11.7376 36.8158 0.0000 -0.5211 0.0000
# 4 0.0000 0.0000 0.0000 8.6422 0.0000 -3.5538
# 5 -3.3594 -18.8985 -0.5211 0.0000 30.4160 0.0000
# 6 0.0000 0.0000 0.0000 -3.5538 0.0000 14.3622
#
#
#
# Elastic Compliance Matrix: (Units=1/GPa)
#
#
# Indices 1 2 3 4 5 6 
#
# 1 0.009821 -0.000778 -0.003904 0.000000 0.000535 0.000000
# 2 -0.000778 0.009674 -0.002672 0.000000 0.005879 0.000000
# 3 -0.003904 -0.002672 0.029645 0.000000 -0.001583 0.000000
# 4 0.000000 0.000000 0.000000 0.128818 0.000000 0.031875
# 5 0.000535 0.005879 -0.001583 0.000000 0.036562 0.000000
# 6 0.000000 0.000000 0.000000 0.031875 0.000000 0.077514
#
#
# Mechanical properties :
#
#
# Convention : Reuss Voigt Hill
#
# Bulk Modulus (GPa) = 29.04145 38.94178 33.99162
# Shear Modulus (GPa) = 15.71243 25.55476 20.63360
#
# Velocity S-wave (km/s) = 2.83498 3.61547 3.24875
# Velocity P-wave (km/s) = 5.05681 6.11131 5.60890
#
# Compressibility (1/GPa) = 0.03443354
#
# Stress axis : x y z
#
# Youngs Moduli (GPa) = 101.82204 103.37042 33.73246
#
# Poissons Ratio (x) = 0.08039 0.13169
# Poissons Ratio (y) = 0.07918 0.09012
# Poissons Ratio (z) = 0.39751 0.27617
#
# Static dielectric constant tensor:
#      x y z
#    x 1.729850 0.000000 0.044990 
#    y 0.000000 1.717610 0.000000 
#    z 0.044990 0.000000 1.734040 
# 
# From -- ./inp_files/259219.got.cif
#   From: 2010.05.17/outbox.cif.g08.bks.cpg/sg12_130_cif.got.tgz:259219.got - 2010.06.03 13:09:07.
