data_PCOD9175401
_publ_section_title
;
Structure prediction by ZEFSAII (Michael W. Deem and Ramdas Pophale) SiO2 
 PCOD9175401
Probable space group: C 2/M
;
_chemical_formula_sum "Si O2"
_cell_formula_units_Z 50
_cell_length_a 14.102948
_cell_length_b 26.820594
_cell_length_c 7.293517
_cell_angle_alpha 90.000000
_cell_angle_beta 68.737515
_cell_angle_gamma 90.000000
_cell_volume 2570.976235
_symmetry_space_group_name_H-M "C 2/M"
_symmetry_group_IT_number 12
_symmetry_cell_setting 'monoclinic'
loop_
_space_group_symop_operation_xyz
x,y,z
-x,y,-z
-x,-y,-z
x,-y,z
1/2+x,1/2+y,z
1/2-x,1/2+y,-z
1/2-x,1/2-y,-z
1/2+x,1/2-y,z
loop_
_atom_site_type_symbol
_atom_site_label
_atom_site_fract_x
_atom_site_fract_y
_atom_site_fract_z
Si Si1 0.000000 0.000000 0.000000
Si Si2 0.581747 0.743853 0.071442
Si Si3 0.996541 0.140644 0.720919
Si Si4 0.777016 0.893038 0.865091
Si Si5 0.804699 0.000000 0.862326
Si Si6 0.778107 0.110167 0.430457
Si Si7 0.816957 0.000000 0.414499
Si Si8 0.217579 0.688997 0.190596
O O1 0.923168 0.000000 0.233934
O O2 0.101202 0.000000 0.065559
O O3 0.524571 0.694750 0.183373
O O4 0.623000 0.775756 0.212448
O O5 0.500000 0.770896 0.000000
O O6 0.681629 0.724089 0.891473
O O7 0.103430 0.118799 0.709890
O O8 0.000000 0.143909 0.500000
O O9 0.897160 0.108380 0.834692
O O10 0.769450 0.882475 0.654528
O O11 0.742651 0.948861 0.931445
O O12 0.726457 0.849326 0.014560
O O13 0.835880 0.000000 0.622938
O O14 0.717773 0.152983 0.365423
O O15 0.758946 0.051657 0.408529
#
# Coordination Sequence:
#
# PCOD9175401 Si02
#       8
#     2   8   8   8   4   8   4   8
#     4  12  18  24  40  66  96 140 172 192 230 298
#     4  10  19  35  50  70  99 130 164 214 252 291
#     4   9  17  30  46  68  98 133 163 197 242 295
#     4   9  19  31  47  71  99 131 167 205 244 295
#     4  10  19  31  43  68 103 133 170 204 247 295
#     4  10  18  33  49  70 103 132 167 204 243 296
#     4  10  21  29  45  72 101 137 167 205 243 293
#     4  10  20  33  52  72  96 132 172 203 252 300
#
# _framework density 19.447865
#
# number of rings (size 3 to 8) (size 9 to 14) (size 15 to 20)
#    0.000    2.240    1.600    2.160    0.000    3.840 
#    2.880    3.200    0.000    0.000    0.000    2.240 
#    0.000    3.840    0.000    0.000    0.000    0.000 
#
# Total GULP energy -139192.506231 kJ/mol
# GULP energy per Si atom -5567.700249 kJ/mol
# Density = 1.940360 g / cm^3
# Si number density = 19.447865 Si / 1000 Ang^3
#
#
#
# Elastic Constant Matrix: (Units=GPa)
#
#
# Indices 1 2 3 4 5 6 
#
# 1 51.4005 42.1447 10.6920 0.0000 25.1675 0.0000
# 2 42.1447 91.9534 18.0926 0.0000 23.3697 0.0000
# 3 10.6920 18.0926 49.4039 0.0000 18.8886 0.0000
# 4 0.0000 0.0000 0.0000 21.0754 0.0000 4.3369
# 5 25.1675 23.3697 18.8886 0.0000 22.4782 0.0000
# 6 0.0000 0.0000 0.0000 4.3369 0.0000 24.0724
#
#
#
# Elastic Compliance Matrix: (Units=1/GPa)
#
#
# Indices 1 2 3 4 5 6 
#
# 1 0.060947 -0.013975 0.018361 0.000000 -0.069138 0.000000
# 2 -0.013975 0.018000 -0.003528 0.000000 -0.000103 0.000000
# 3 0.018361 -0.003528 0.035386 0.000000 -0.046625 0.000000
# 4 0.000000 0.000000 0.000000 0.049275 0.000000 -0.008877
# 5 -0.069138 -0.000103 -0.046625 0.000000 0.161183 0.000000
# 6 0.000000 0.000000 0.000000 -0.008877 0.000000 0.043141
#
#
# Mechanical properties :
#
#
# Convention : Reuss Voigt Hill
#
# Bulk Modulus (GPa) = 8.61706 37.17960 22.89833
# Shear Modulus (GPa) = 12.34877 21.64711 16.99794
#
# Velocity S-wave (km/s) = 2.52259 3.33991 2.95960
# Velocity P-wave (km/s) = 3.59515 5.83373 4.84549
#
# Compressibility (1/GPa) = 0.11604891
#
# Stress axis : x y z
#
# Youngs Moduli (GPa) = 16.40780 55.55412 28.26000
#
# Poissons Ratio (x) = 0.77636 -0.51889
# Poissons Ratio (y) = 0.22930 0.09971
# Poissons Ratio (z) = -0.30127 0.19602
#
# Static dielectric constant tensor:
#      x y z
#    x 1.669920 0.000000 0.023070 
#    y 0.000000 1.729320 0.000000 
#    z 0.023070 0.000000 1.707430 
# 
# From -- ./inp_files/66263.got.cif
#   From: 2010.05.17/outbox.cif.g08.bks.cpg/sg12_34_cif.got.tgz:66263.got - 2010.06.03 13:09:07.
