data_PCOD9175159
_publ_section_title
;
Structure prediction by ZEFSAII (Michael W. Deem and Ramdas Pophale) SiO2 
 PCOD9175159
Probable space group: C 2/M
;
_chemical_formula_sum "Si O2"
_cell_formula_units_Z 48
_cell_length_a 22.737068
_cell_length_b 14.639998
_cell_length_c 13.306690
_cell_angle_alpha 90.000000
_cell_angle_beta 153.519667
_cell_angle_gamma 90.000000
_cell_volume 1975.030613
_symmetry_space_group_name_H-M "C 2/M"
_symmetry_group_IT_number 12
_symmetry_cell_setting 'monoclinic'
loop_
_space_group_symop_operation_xyz
x,y,z
-x,y,-z
-x,-y,-z
x,-y,z
1/2+x,1/2+y,z
1/2-x,1/2+y,-z
1/2-x,1/2-y,-z
1/2+x,1/2-y,z
loop_
_atom_site_type_symbol
_atom_site_label
_atom_site_fract_x
_atom_site_fract_y
_atom_site_fract_z
Si Si1 0.711707 0.145394 0.443158
Si Si2 0.663926 0.395831 0.575554
Si Si3 0.431653 0.110568 0.076993
Si Si4 0.123833 0.887847 0.896888
Si Si5 0.088770 0.388316 0.729649
Si Si6 0.382495 0.605983 0.885240
O O1 0.750000 0.250000 0.500000
O O2 0.793412 0.101944 0.476631
O O3 0.555682 0.134444 0.197934
O O4 0.757321 0.108122 0.621095
O O5 0.653317 0.500000 0.596583
O O6 0.517498 0.355881 0.361243
O O7 0.790305 0.353275 0.823274
O O8 0.457427 0.140248 0.230700
O O9 0.424007 0.000000 0.063520
O O10 0.121233 0.000000 0.890649
O O11 0.258425 0.861046 0.048959
O O12 0.133326 0.857141 0.027588
O O13 0.084624 0.500000 0.721265
O O14 0.000000 0.357284 0.500000
O O15 0.418623 0.500000 0.956890
O O16 0.500000 0.649698 0.000000
#
# Coordination Sequence:
#
# PCOD9175159 Si02
#       6
#     8   8   8   8   8   8
#     4  12  24  36  54  81 115 153 192 241 285 341
#     4  10  20  37  58  83 116 152 191 234 287 346
#     4  10  21  37  59  85 117 155 190 232 289 346
#     4   9  17  31  56  89 117 142 184 238 286 339
#     4   9  17  31  55  89 121 146 182 234 286 340
#     4  10  18  32  56  83 109 141 185 236 287 332
#
# _framework density 24.303419999999999
#
# number of rings (size 3 to 8) (size 9 to 14) (size 15 to 20)
#    0.000    2.000    1.667    3.000    0.000    6.000 
#    0.000    3.333    0.000    1.000    4.333    0.000 
#    0.000    0.000    0.000    0.000    0.000    0.000 
#
# Total GULP energy -134197.975926 kJ/mol
# GULP energy per Si atom -5591.582330 kJ/mol
# Density = 2.424810 g / cm^3
# Si number density = 24.303420 Si / 1000 Ang^3
#
#
#
# Elastic Constant Matrix: (Units=GPa)
#
#
# Indices 1 2 3 4 5 6 
#
# 1 58.1917 -3.6324 30.4710 0.0000 28.8473 0.0000
# 2 -3.6324 66.7468 4.3086 0.0000 1.0495 0.0000
# 3 30.4710 4.3086 157.6251 0.0000 23.9379 0.0000
# 4 0.0000 0.0000 0.0000 -18.8010 0.0000 -13.3887
# 5 28.8473 1.0495 23.9379 0.0000 42.2726 0.0000
# 6 0.0000 0.0000 0.0000 -13.3887 0.0000 -26.2635
#
#
#
# Elastic Compliance Matrix: (Units=1/GPa)
#
#
# Indices 1 2 3 4 5 6 
#
# 1 0.027185 0.001923 -0.002717 0.000000 -0.017060 0.000000
# 2 0.001923 0.015145 -0.000579 0.000000 -0.001360 0.000000
# 3 -0.002717 -0.000579 0.007223 0.000000 -0.002222 0.000000
# 4 0.000000 0.000000 0.000000 -0.083503 0.000000 0.042569
# 5 -0.017060 -0.001360 -0.002222 0.000000 0.036590 0.000000
# 6 0.000000 0.000000 0.000000 0.042569 0.000000 -0.059776
#
#
# Mechanical properties :
#
#
# Convention : Reuss Voigt Hill
#
# Bulk Modulus (GPa) = 21.36449 38.31758 29.84103
# Shear Modulus (GPa) = -128.90332 16.20271 -56.35031
#
# Velocity S-wave (km/s) = -7.29070 2.58482 -4.82043
# Velocity P-wave (km/s) = 7.87798 4.97081 4.32167
#
# Compressibility (1/GPa) = 0.04680664
#
# Stress axis : x y z
#
# Youngs Moduli (GPa) = 36.78559 66.02661 138.45471
#
# Poissons Ratio (x) = -0.12697 0.37616
# Poissons Ratio (y) = -0.07074 0.08019
# Poissons Ratio (z) = 0.09994 0.03824
#
# Static dielectric constant tensor:
#      x y z
#    x 1.901850 0.000000 -0.010640 
#    y 0.000000 1.962150 0.000000 
#    z -0.010640 0.000000 1.953280 
# 
# From -- ./inp_files/131648.got.cif
#   From: 2010.05.17/outbox.cif.g08.bks.cpg/sg12_66_cif.got.tgz:131648.got - 2010.06.03 13:09:07.
