data_PCOD9175176
_publ_section_title
;
Structure prediction by ZEFSAII (Michael W. Deem and Ramdas Pophale) SiO2 
 PCOD9175176
Probable space group: C 2/M
;
_chemical_formula_sum "Si O2"
_cell_formula_units_Z 56
_cell_length_a 12.655503
_cell_length_b 27.807564
_cell_length_c 8.866139
_cell_angle_alpha 90.000000
_cell_angle_beta 65.667929
_cell_angle_gamma 90.000000
_cell_volume 2843.005074
_symmetry_space_group_name_H-M "C 2/M"
_symmetry_group_IT_number 12
_symmetry_cell_setting 'monoclinic'
loop_
_space_group_symop_operation_xyz
x,y,z
-x,y,-z
-x,-y,-z
x,-y,z
1/2+x,1/2+y,z
1/2-x,1/2+y,-z
1/2-x,1/2-y,-z
1/2+x,1/2-y,z
loop_
_atom_site_type_symbol
_atom_site_label
_atom_site_fract_x
_atom_site_fract_y
_atom_site_fract_z
Si Si1 0.253199 0.446698 0.407037
Si Si2 0.889256 0.698556 0.178837
Si Si3 0.367110 0.305790 0.137292
Si Si4 0.139200 0.555479 0.138932
Si Si5 0.534545 0.605190 0.802153
Si Si6 0.939275 0.379542 0.373097
Si Si7 0.715119 0.636461 0.096448
O O1 0.229087 0.500000 0.481303
O O2 0.201340 0.444989 0.266965
O O3 0.389899 0.436839 0.312480
O O4 0.182736 0.406630 0.538660
O O5 0.841770 0.753034 0.212824
O O6 0.930002 0.673114 0.307466
O O7 0.787952 0.664709 0.175742
O O8 0.000000 0.697257 0.000000
O O9 0.377089 0.349451 0.247802
O O10 0.500000 0.302221 0.000000
O O11 0.291530 0.326886 0.044236
O O12 0.122594 0.500000 0.103694
O O13 0.020982 0.585520 0.225884
O O14 0.220400 0.587482 0.985666
O O15 0.416931 0.621701 0.792128
O O16 0.500000 0.595153 0.000000
O O17 0.000000 0.376773 0.500000
#
# Coordination Sequence:
#
# PCOD9175176 Si02
#       7
#     8   8   8   8   8   8   8
#     4  10  19  34  58  79 109 157 193 227 288 344
#     4  11  20  35  60  84 109 157 195 227 292 340
#     4   8  17  32  55  86 112 145 185 237 284 331
#     4  10  18  32  56  84 114 147 185 236 288 329
#     4   9  17  33  54  83 115 138 184 248 276 324
#     4  10  22  38  54  83 119 148 191 239 279 342
#     4  10  18  33  54  89 117 139 185 247 277 332
#
# _framework density 19.697468000000001
#
# number of rings (size 3 to 8) (size 9 to 14) (size 15 to 20)
#    0.000    2.571    4.286    0.857    0.000    2.571 
#    0.000    3.571    0.000    0.857    0.000    0.000 
#    0.000    0.000    0.000    0.000    0.000    0.000 
#
# Total GULP energy -156055.236865 kJ/mol
# GULP energy per Si atom -5573.401317 kJ/mol
# Density = 1.965264 g / cm^3
# Si number density = 19.697468 Si / 1000 Ang^3
#
#
#
# Elastic Constant Matrix: (Units=GPa)
#
#
# Indices 1 2 3 4 5 6 
#
# 1 61.5879 -0.6329 8.9463 0.0000 -10.6130 0.0000
# 2 -0.6329 98.6343 21.6954 0.0000 3.5931 0.0000
# 3 8.9463 21.6954 19.1988 0.0000 -8.9479 0.0000
# 4 0.0000 0.0000 0.0000 6.2506 0.0000 -3.6852
# 5 -10.6130 3.5931 -8.9479 0.0000 14.4787 0.0000
# 6 0.0000 0.0000 0.0000 -3.6852 0.0000 22.3283
#
#
#
# Elastic Compliance Matrix: (Units=1/GPa)
#
#
# Indices 1 2 3 4 5 6 
#
# 1 0.018759 0.000730 -0.004555 0.000000 0.010755 0.000000
# 2 0.000730 0.017918 -0.031478 0.000000 -0.023365 0.000000
# 3 -0.004555 -0.031478 0.129029 0.000000 0.084213 0.000000
# 4 0.000000 0.000000 0.000000 0.177231 0.000000 0.029251
# 5 0.010755 -0.023365 0.084213 0.000000 0.134792 0.000000
# 6 0.000000 0.000000 0.000000 0.029251 0.000000 0.049614
#
#
# Mechanical properties :
#
#
# Convention : Reuss Voigt Hill
#
# Bulk Modulus (GPa) = 10.51500 26.60430 18.55965
# Shear Modulus (GPa) = 7.94093 18.57233 13.25663
#
# Velocity S-wave (km/s) = 2.01002 3.07396 2.59706
# Velocity P-wave (km/s) = 3.27670 5.11222 4.29369
#
# Compressibility (1/GPa) = 0.09510225
#
# Stress axis : x y z
#
# Youngs Moduli (GPa) = 53.30677 55.80940 7.75020
#
# Poissons Ratio (x) = -0.04076 0.03530
# Poissons Ratio (y) = -0.03893 0.24396
# Poissons Ratio (z) = 0.24279 1.75677
#
# Static dielectric constant tensor:
#      x y z
#    x 1.704550 0.000000 -0.002290 
#    y 0.000000 1.712390 0.000000 
#    z -0.002290 0.000000 1.703050 
# 
# From -- ./inp_files/54137.got.cif
#   From: 2010.05.17/outbox.cif.g08.bks.cpg/sg12_28_cif.got.tgz:54137.got - 2010.06.03 13:09:07.
