data_PCOD9175148
_publ_section_title
;
Structure prediction by ZEFSAII (Michael W. Deem and Ramdas Pophale) SiO2 
 PCOD9175148
Probable space group: C 2/M
;
_chemical_formula_sum "Si O2"
_cell_formula_units_Z 56
_cell_length_a 8.450564
_cell_length_b 30.219953
_cell_length_c 11.673150
_cell_angle_alpha 90.000000
_cell_angle_beta 72.754013
_cell_angle_gamma 90.000000
_cell_volume 2847.012876
_symmetry_space_group_name_H-M "C 2/M"
_symmetry_group_IT_number 12
_symmetry_cell_setting 'monoclinic'
loop_
_space_group_symop_operation_xyz
x,y,z
-x,y,-z
-x,-y,-z
x,-y,z
1/2+x,1/2+y,z
1/2-x,1/2+y,-z
1/2-x,1/2-y,-z
1/2+x,1/2-y,z
loop_
_atom_site_type_symbol
_atom_site_label
_atom_site_fract_x
_atom_site_fract_y
_atom_site_fract_z
Si Si1 0.599178 0.049069 0.599013
Si Si2 0.977660 0.885054 0.866600
Si Si3 0.807072 0.450332 0.051250
Si Si4 0.747152 0.227251 0.627093
Si Si5 0.437009 0.308049 0.310975
Si Si6 0.760440 0.548601 0.793855
Si Si7 0.674374 0.857355 0.529097
O O1 0.500000 0.046542 0.500000
O O2 0.451196 0.057074 0.721431
O O3 0.708593 0.093239 0.568020
O O4 0.672988 0.000000 0.603015
O O5 0.813263 0.913389 0.872434
O O6 0.982395 0.838458 0.802661
O O7 0.133336 0.913753 0.786400
O O8 0.000000 0.880332 0.000000
O O9 0.795370 0.500000 0.105746
O O10 0.746382 0.454240 0.933305
O O11 0.000000 0.438311 0.000000
O O12 0.750000 0.250000 0.500000
O O13 0.665155 0.266496 0.716888
O O14 0.923120 0.214040 0.639857
O O15 0.655628 0.180488 0.629764
O O16 0.317811 0.338929 0.414922
O O17 0.718033 0.500000 0.754047
O O18 0.500000 0.858903 0.500000
#
# Coordination Sequence:
#
# PCOD9175148 Si02
#       7
#     8   8   8   8   8   8   8
#     4   9  17  28  46  77 112 142 173 211 260 319
#     4  10  20  35  55  79 109 145 185 227 275 328
#     4   9  18  33  53  79 110 145 189 234 269 311
#     4  10  20  37  58  78 102 131 174 226 271 323
#     4  11  22  37  57  82 106 136 180 229 277 326
#     4   9  17  31  52  76 106 149 194 227 259 312
#     4  10  18  32  56  82 108 139 176 218 266 319
#
# _framework density 19.669739
#
# number of rings (size 3 to 8) (size 9 to 14) (size 15 to 20)
#    0.000    2.286    0.000    5.571    0.000    2.857 
#    0.000    2.857    0.000    2.571    0.000    0.000 
#    0.000    0.000    0.000    0.000    0.000    0.000 
#
# Total GULP energy -156013.306010 kJ/mol
# GULP energy per Si atom -5571.903786 kJ/mol
# Density = 1.962497 g / cm^3
# Si number density = 19.669739 Si / 1000 Ang^3
#
#
#
# Elastic Constant Matrix: (Units=GPa)
#
#
# Indices 1 2 3 4 5 6 
#
# 1 82.9580 56.5816 10.9533 0.0000 -13.7825 0.0000
# 2 56.5816 186.3482 47.6162 0.0000 -21.8084 0.0000
# 3 10.9533 47.6162 48.5489 0.0000 -7.0535 0.0000
# 4 0.0000 0.0000 0.0000 39.2629 0.0000 -21.3575
# 5 -13.7825 -21.8084 -7.0535 0.0000 14.8246 0.0000
# 6 0.0000 0.0000 0.0000 -21.3575 0.0000 57.5139
#
#
#
# Elastic Compliance Matrix: (Units=1/GPa)
#
#
# Indices 1 2 3 4 5 6 
#
# 1 0.016374 -0.004331 0.001976 0.000000 0.009792 0.000000
# 2 -0.004331 0.009237 -0.007190 0.000000 0.006142 0.000000
# 3 0.001976 -0.007190 0.027860 0.000000 0.004515 0.000000
# 4 0.000000 0.000000 0.000000 0.031916 0.000000 0.011852
# 5 0.009792 0.006142 0.004515 0.000000 0.087742 0.000000
# 6 0.000000 0.000000 0.000000 0.011852 0.000000 0.021788
#
#
# Mechanical properties :
#
#
# Convention : Reuss Voigt Hill
#
# Bulk Modulus (GPa) = 29.08566 60.90637 44.99601
# Shear Modulus (GPa) = 22.17598 35.83390 29.00494
#
# Velocity S-wave (km/s) = 3.36134 4.27286 3.84421
# Velocity P-wave (km/s) = 5.46662 7.44143 6.52912
#
# Compressibility (1/GPa) = 0.03438120
#
# Stress axis : x y z
#
# Youngs Moduli (GPa) = 61.07258 108.25699 35.89334
#
# Poissons Ratio (x) = 0.46881 -0.07092
# Poissons Ratio (y) = 0.26448 0.25809
# Poissons Ratio (z) = -0.12067 0.77842
#
# Static dielectric constant tensor:
#      x y z
#    x 1.715960 0.000000 -0.004660 
#    y 0.000000 1.755190 0.000000 
#    z -0.004660 0.000000 1.754110 
# 
# From -- ./inp_files/199680.got.cif
#   From: 2010.05.17/outbox.cif.g08.bks.cpg/sg12_100_cif.got.tgz:199680.got - 2010.06.03 13:09:07.
