data_PCOD9175754
_publ_section_title
;
Structure prediction by ZEFSAII (Michael W. Deem and Ramdas Pophale) SiO2 
 PCOD9175754
Probable space group: C 2/M
;
_chemical_formula_sum "Si O2"
_cell_formula_units_Z 48
_cell_length_a 16.693806
_cell_length_b 14.302156
_cell_length_c 21.900020
_cell_angle_alpha 90.000000
_cell_angle_beta 153.563778
_cell_angle_gamma 90.000000
_cell_volume 2327.865372
_symmetry_space_group_name_H-M "C 2/M"
_symmetry_group_IT_number 12
_symmetry_cell_setting 'monoclinic'
loop_
_space_group_symop_operation_xyz
x,y,z
-x,y,-z
-x,-y,-z
x,-y,z
1/2+x,1/2+y,z
1/2-x,1/2+y,-z
1/2-x,1/2-y,-z
1/2+x,1/2-y,z
loop_
_atom_site_type_symbol
_atom_site_label
_atom_site_fract_x
_atom_site_fract_y
_atom_site_fract_z
Si Si1 0.767158 0.106921 0.392714
Si Si2 0.447742 0.278998 0.613181
Si Si3 0.910128 0.691020 0.846765
Si Si4 0.416878 0.896553 0.240865
Si Si5 0.249752 0.388202 0.134933
Si Si6 0.979703 0.104635 0.059824
O O1 0.917042 0.169444 0.528327
O O2 0.699052 0.146873 0.282763
O O3 0.590433 0.107080 0.315857
O O4 0.828617 0.000000 0.429601
O O5 0.250000 0.250000 0.500000
O O6 0.562346 0.184118 0.694984
O O7 0.547470 0.349233 0.728163
O O8 0.821960 0.655409 0.849986
O O9 0.922183 0.803084 0.849495
O O10 0.114596 0.651307 0.991652
O O11 0.406097 0.000000 0.261279
O O12 0.235127 0.883300 0.078232
O O13 0.242023 0.500000 0.131185
O O14 0.032078 0.000000 0.116919
O O15 0.000000 0.106195 0.000000
#
# Coordination Sequence:
#
# PCOD9175754 Si02
#       6
#     8   8   8   8   8   8
#     4  10  21  35  54  82 118 151 187 234 294 349
#     4  10  20  37  55  78 107 153 192 231 278 339
#     4  11  20  36  57  87 118 151 186 238 296 341
#     4   9  18  35  56  78 106 147 193 237 285 339
#     4  11  21  36  58  84 117 150 194 235 283 347
#     4  10  18  33  57  81 106 145 194 239 281 334
#
# _framework density 20.61975
#
# number of rings (size 3 to 8) (size 9 to 14) (size 15 to 20)
#    0.000    1.833    3.333    2.500    0.000    2.000 
#    0.000    2.500    0.000    1.000    0.000    5.833 
#    0.000    0.000    0.000    0.000    0.000    0.000 
#
# Total GULP energy -133944.447110 kJ/mol
# GULP energy per Si atom -5581.018630 kJ/mol
# Density = 2.057282 g / cm^3
# Si number density = 20.619750 Si / 1000 Ang^3
#
#
#
# Elastic Constant Matrix: (Units=GPa)
#
#
# Indices 1 2 3 4 5 6 
#
# 1 24.6627 26.2008 29.8462 0.0018 5.9258 -0.0001
# 2 26.2008 199.9927 35.7506 0.0052 -18.0726 0.0021
# 3 29.8462 35.7506 57.4310 0.0074 -8.8570 0.0026
# 4 0.0018 0.0052 0.0074 32.7490 0.0026 -4.7046
# 5 5.9258 -18.0726 -8.8570 0.0026 34.5645 0.0009
# 6 -0.0001 0.0021 0.0026 -4.7046 0.0009 16.3622
#
#
#
# Elastic Compliance Matrix: (Units=1/GPa)
#
#
# Indices 1 2 3 4 5 6 
#
# 1 0.198635 -0.013325 -0.105426 0.000025 -0.068037 0.000030
# 2 -0.013325 0.006675 0.003811 -0.000002 0.006751 -0.000002
# 3 -0.105426 0.003811 0.075923 -0.000018 0.039522 -0.000020
# 4 0.000025 -0.000002 -0.000018 0.031851 -0.000013 0.009158
# 5 -0.068037 0.006751 0.039522 -0.000013 0.054253 -0.000014
# 6 0.000030 -0.000002 -0.000020 0.009158 -0.000014 0.063750
#
#
# Mechanical properties :
#
#
# Convention : Reuss Voigt Hill
#
# Bulk Modulus (GPa) = 19.47304 51.74241 35.60772
# Shear Modulus (GPa) = 7.37372 29.42105 18.39739
#
# Velocity S-wave (km/s) = 1.89310 3.78145 2.99025
# Velocity P-wave (km/s) = 3.77396 6.64935 5.40633
#
# Compressibility (1/GPa) = 0.05135304
#
# Stress axis : x y z
#
# Youngs Moduli (GPa) = 5.03437 149.81936 13.17119
#
# Poissons Ratio (x) = 1.99639 1.38858
# Poissons Ratio (y) = 0.06708 -0.05020
# Poissons Ratio (z) = 0.53075 -0.57099
#
# Static dielectric constant tensor:
#      x y z
#    x 1.798360 0.000000 0.077910 
#    y 0.000000 1.755030 0.000000 
#    z 0.077910 0.000000 1.753780 
# 
# From -- ./inp_files/347556.got.cif
#   From: 2010.05.17/outbox.cif.g08.bks.cpg/sg12_174_cif.got.tgz:347556.got - 2010.06.03 13:09:07.
