data_PCOD9175656
_publ_section_title
;
Structure prediction by ZEFSAII (Michael W. Deem and Ramdas Pophale) SiO2 
 PCOD9175656
Probable space group: C 2/M
;
_chemical_formula_sum "Si O2"
_cell_formula_units_Z 56
_cell_length_a 21.134394
_cell_length_b 7.571454
_cell_length_c 22.972344
_cell_angle_alpha 90.000000
_cell_angle_beta 131.137243
_cell_angle_gamma 90.000000
_cell_volume 2768.520643
_symmetry_space_group_name_H-M "C 2/M"
_symmetry_group_IT_number 12
_symmetry_cell_setting 'monoclinic'
loop_
_space_group_symop_operation_xyz
x,y,z
-x,y,-z
-x,-y,-z
x,-y,z
1/2+x,1/2+y,z
1/2-x,1/2+y,-z
1/2-x,1/2-y,-z
1/2+x,1/2-y,z
loop_
_atom_site_type_symbol
_atom_site_label
_atom_site_fract_x
_atom_site_fract_y
_atom_site_fract_z
Si Si1 0.247901 0.211527 0.828042
Si Si2 0.445419 0.212826 0.268035
Si Si3 0.890863 0.703444 0.574702
Si Si4 0.983621 0.716218 0.159419
Si Si5 0.828653 0.713081 0.757404
Si Si6 0.319971 0.211979 0.993678
Si Si7 0.759711 0.790420 0.591807
O O1 0.148580 0.244957 0.769960
O O2 0.290227 0.279301 0.794605
O O3 0.259388 0.000000 0.835276
O O4 0.289862 0.281114 0.912916
O O5 0.518828 0.282109 0.354864
O O6 0.462183 0.274337 0.212106
O O7 0.453563 0.000000 0.271585
O O8 0.905361 0.500000 0.566444
O O9 0.836149 0.708391 0.601122
O O10 0.827761 0.779528 0.488055
O O11 0.983409 0.500000 0.159462
O O12 0.909714 0.775637 0.071575
O O13 0.076158 0.774470 0.196576
O O14 0.831411 0.500000 0.761581
O O15 0.773187 0.760496 0.667776
O O16 0.326044 0.000000 0.992656
O O17 0.250000 0.250000 0.000000
O O18 0.763145 0.000000 0.581980
#
# Coordination Sequence:
#
# PCOD9175656 Si02
#       7
#     8   8   8   8   8   8   8
#     4  10  22  35  52  78 108 138 170 217 266 305
#     4  10  18  33  56  78 101 137 177 211 252 312
#     4   9  18  33  53  78 106 137 173 212 258 308
#     4   9  17  31  55  77  97 135 178 209 248 307
#     4  10  20  37  54  73 107 144 174 209 260 315
#     4  10  19  33  52  78 104 131 172 216 258 303
#     4  10  19  31  52  81 107 133 171 219 261 301
#
# _framework density 20.227409999999999
#
# number of rings (size 3 to 8) (size 9 to 14) (size 15 to 20)
#    0.000    2.286    2.857    0.429    0.000    2.286 
#    0.000    4.286    0.000    4.286    0.000    3.000 
#    0.000    0.000    0.000    0.000    0.000    0.000 
#
# Total GULP energy -156296.448915 kJ/mol
# GULP energy per Si atom -5582.016033 kJ/mol
# Density = 2.018137 g / cm^3
# Si number density = 20.227410 Si / 1000 Ang^3
#
#
#
# Elastic Constant Matrix: (Units=GPa)
#
#
# Indices 1 2 3 4 5 6 
#
# 1 143.8582 -2.0580 92.6756 0.0000 -3.7256 0.0000
# 2 -2.0580 48.8170 2.0229 0.0000 3.2364 0.0000
# 3 92.6756 2.0229 183.3041 0.0000 3.5535 0.0000
# 4 0.0000 0.0000 0.0000 9.7633 0.0000 -0.6610
# 5 -3.7256 3.2364 3.5535 0.0000 30.2331 0.0000
# 6 0.0000 0.0000 0.0000 -0.6610 0.0000 19.2540
#
#
#
# Elastic Compliance Matrix: (Units=1/GPa)
#
#
# Indices 1 2 3 4 5 6 
#
# 1 0.010432 0.000537 -0.005316 0.000000 0.001853 0.000000
# 2 0.000537 0.020665 -0.000459 0.000000 -0.002092 0.000000
# 3 -0.005316 -0.000459 0.008178 0.000000 -0.001567 0.000000
# 4 0.000000 0.000000 0.000000 0.102663 0.000000 0.003525
# 5 0.001853 -0.002092 -0.001567 0.000000 0.033713 0.000000
# 6 0.000000 0.000000 0.000000 0.003525 0.000000 0.052058
#
#
# Mechanical properties :
#
#
# Convention : Reuss Voigt Hill
#
# Bulk Modulus (GPa) = 34.72280 62.36227 48.54253
# Shear Modulus (GPa) = 20.17883 30.73932 25.45907
#
# Velocity S-wave (km/s) = 3.16190 3.90254 3.55158
# Velocity P-wave (km/s) = 5.52573 7.15570 6.39287
#
# Compressibility (1/GPa) = 0.02879952
#
# Stress axis : x y z
#
# Youngs Moduli (GPa) = 95.86343 48.39093 122.27223
#
# Poissons Ratio (x) = -0.02600 0.64998
# Poissons Ratio (y) = -0.05150 0.05614
# Poissons Ratio (z) = 0.50960 0.02222
#
# Static dielectric constant tensor:
#      x y z
#    x 1.666460 0.000000 0.012520 
#    y 0.000000 1.990160 0.000000 
#    z 0.012520 0.000000 1.733520 
# 
# From -- ./inp_files/275578.got.cif
#   From: 2010.05.17/outbox.cif.g08.bks.cpg/sg12_138_cif.got.tgz:275578.got - 2010.06.03 13:09:07.
