data_PCOD9175875
_publ_section_title
;
Structure prediction by ZEFSAII (Michael W. Deem and Ramdas Pophale) SiO2 
 PCOD9175875
Probable space group: C 2/M
;
_chemical_formula_sum "Si O2"
_cell_formula_units_Z 52
_cell_length_a 13.419999
_cell_length_b 21.907328
_cell_length_c 13.384162
_cell_angle_alpha 90.000000
_cell_angle_beta 43.515249
_cell_angle_gamma 90.000000
_cell_volume 2709.362101
_symmetry_space_group_name_H-M "C 2/M"
_symmetry_group_IT_number 12
_symmetry_cell_setting 'monoclinic'
loop_
_space_group_symop_operation_xyz
x,y,z
-x,y,-z
-x,-y,-z
x,-y,z
1/2+x,1/2+y,z
1/2-x,1/2+y,-z
1/2-x,1/2-y,-z
1/2+x,1/2-y,z
loop_
_atom_site_type_symbol
_atom_site_label
_atom_site_fract_x
_atom_site_fract_y
_atom_site_fract_z
Si Si1 0.524467 0.271952 0.100137
Si Si2 0.673673 0.070164 0.853099
Si Si3 0.794963 0.655472 0.994183
Si Si4 0.500000 0.858192 0.500000
Si Si5 0.404584 0.932423 0.744531
Si Si6 0.263971 0.311723 0.428230
Si Si7 0.736811 0.068819 0.572534
O O1 0.569604 0.201498 0.088325
O O2 0.384708 0.297246 0.258177
O O3 0.500000 0.279216 0.000000
O O4 0.660767 0.308296 0.045816
O O5 0.715931 0.079726 0.706602
O O6 0.714704 0.000000 0.848945
O O7 0.500000 0.073846 0.000000
O O8 0.740033 0.121076 0.877121
O O9 0.836211 0.605251 0.883122
O O10 0.397057 0.899246 0.644205
O O11 0.607045 0.821206 0.492350
O O12 0.574941 0.935686 0.645887
O O13 0.343753 0.000000 0.783685
O O14 0.250000 0.250000 0.500000
O O15 0.300466 0.372169 0.468409
O O16 0.802748 0.000000 0.511561
#
# Coordination Sequence:
#
# PCOD9175875 Si02
#       7
#     8   8   8   4   8   8   8
#     4  11  25  41  59  84 123 162 203 249 299 356
#     4  10  18  33  62  95 121 153 199 252 306 360
#     4  11  22  37  61  87 120 158 200 250 301 358
#     4  10  21  38  62  86 119 154 198 246 310 354
#     4  10  18  33  58  90 117 149 195 246 301 361
#     4  11  24  42  62  90 120 159 204 251 302 368
#     4   9  19  36  60  91 124 155 196 253 306 355
#
# _framework density 19.192710000000002
#
# number of rings (size 3 to 8) (size 9 to 14) (size 15 to 20)
#    0.000    1.692    1.538    3.923    2.154    1.846 
#    0.000    1.538    0.000    5.077    0.000    0.000 
#    0.000    0.000    0.000    0.000    0.000    0.000 
#
# Total GULP energy -145051.946932 kJ/mol
# GULP energy per Si atom -5578.921036 kJ/mol
# Density = 1.914903 g / cm^3
# Si number density = 19.192710 Si / 1000 Ang^3
#
#
#
# Elastic Constant Matrix: (Units=GPa)
#
#
# Indices 1 2 3 4 5 6 
#
# 1 69.1278 57.2255 23.2199 0.0001 23.0898 -0.0005
# 2 57.2255 157.4180 60.9727 0.0000 22.0734 -0.0001
# 3 23.2199 60.9727 95.5544 0.0002 20.2838 -0.0002
# 4 0.0001 0.0000 0.0002 32.7026 -0.0001 30.1426
# 5 23.0898 22.0734 20.2838 -0.0001 30.4692 0.0005
# 6 -0.0005 -0.0001 -0.0002 30.1426 0.0005 53.8262
#
#
#
# Elastic Compliance Matrix: (Units=1/GPa)
#
#
# Indices 1 2 3 4 5 6 
#
# 1 0.025254 -0.007899 0.002039 -0.000001 -0.014773 0.000001
# 2 -0.007899 0.011142 -0.005529 0.000000 0.001595 0.000000
# 3 0.002039 -0.005529 0.015111 0.000000 -0.007600 0.000000
# 4 -0.000001 0.000000 0.000000 0.063200 0.000002 -0.035392
# 5 -0.014773 0.001595 -0.007600 0.000002 0.047919 -0.000002
# 6 0.000001 0.000000 0.000000 -0.035392 -0.000002 0.038398
#
#
# Mechanical properties :
#
#
# Convention : Reuss Voigt Hill
#
# Bulk Modulus (GPa) = 34.80619 67.21513 51.01066
# Shear Modulus (GPa) = 21.42462 35.44508 28.43485
#
# Velocity S-wave (km/s) = 3.34472 4.30210 3.85326
# Velocity P-wave (km/s) = 5.75245 7.73141 6.81415
#
# Compressibility (1/GPa) = 0.02873053
#
# Stress axis : x y z
#
# Youngs Moduli (GPa) = 39.59708 89.75240 66.17867
#
# Poissons Ratio (x) = 0.70896 -0.13497
# Poissons Ratio (y) = 0.31278 0.36587
# Poissons Ratio (z) = -0.08076 0.49620
#
# Static dielectric constant tensor:
#      x y z
#    x 1.662640 0.000000 0.013340 
#    y 0.000000 1.704560 0.000000 
#    z 0.013340 0.000000 1.658620 
# 
# From -- ./inp_files/135831.got.cif
#   From: 2010.05.17/outbox.cif.g08.bks.cpg/sg12_68_cif.got.tgz:135831.got - 2010.06.03 13:09:07.
