data_PCOD9175805
_publ_section_title
;
Structure prediction by ZEFSAII (Michael W. Deem and Ramdas Pophale) SiO2 
 PCOD9175805
Probable space group: C 2/M
;
_chemical_formula_sum "Si O2"
_cell_formula_units_Z 64
_cell_length_a 28.592872
_cell_length_b 18.243846
_cell_length_c 12.483320
_cell_angle_alpha 90.000000
_cell_angle_beta 149.932590
_cell_angle_gamma 90.000000
_cell_volume 3262.556878
_symmetry_space_group_name_H-M "C 2/M"
_symmetry_group_IT_number 12
_symmetry_cell_setting 'monoclinic'
loop_
_space_group_symop_operation_xyz
x,y,z
-x,y,-z
-x,-y,-z
x,-y,z
1/2+x,1/2+y,z
1/2-x,1/2+y,-z
1/2-x,1/2-y,-z
1/2+x,1/2-y,z
loop_
_atom_site_type_symbol
_atom_site_label
_atom_site_fract_x
_atom_site_fract_y
_atom_site_fract_z
Si Si1 0.344260 0.669452 0.484290
Si Si2 0.245194 0.173664 0.315445
Si Si3 0.516411 0.083191 0.688787
Si Si4 0.738293 0.917013 0.444336
Si Si5 0.043700 0.613093 0.974284
Si Si6 0.966357 0.210996 0.053678
Si Si7 0.685502 0.912262 0.753635
Si Si8 0.273271 0.912047 0.925037
O O1 0.290908 0.746172 0.398305
O O2 0.320734 0.617876 0.538884
O O3 0.453913 0.685980 0.705606
O O4 0.300872 0.630907 0.294017
O O5 0.284725 0.132294 0.498410
O O6 0.269078 0.129551 0.255437
O O7 0.134775 0.180309 0.117424
O O8 0.423093 0.113466 0.449322
O O9 0.528277 0.000000 0.673294
O O10 0.493918 0.083233 0.770691
O O11 0.620304 0.115733 0.886801
O O12 0.649802 0.913779 0.189850
O O13 0.757224 0.000000 0.514504
O O14 0.040938 0.700820 0.960600
O O15 0.000000 0.589917 0.000000
O O16 0.000000 0.191165 0.000000
O O17 0.681909 0.000000 0.726089
O O18 0.737938 0.901328 0.969854
O O19 0.268353 0.000000 0.892490
#
# Coordination Sequence:
#
# PCOD9175805 Si02
#       8
#     8   8   8   8   8   8   8   8
#     4  12  23  40  65  91 123 163 211 255 306 371
#     4  12  23  41  63  90 126 164 209 259 312 366
#     4  10  18  33  57  89 124 159 201 249 306 373
#     4  12  23  38  61  91 127 166 203 249 312 372
#     4  11  21  34  56  89 125 161 198 253 310 367
#     4  11  22  39  60  87 121 164 209 249 308 372
#     4  10  22  39  61  90 124 164 209 262 317 367
#     4  10  21  40  63  89 124 165 209 258 314 372
#
# _framework density 19.616517000000002
#
# number of rings (size 3 to 8) (size 9 to 14) (size 15 to 20)
#    0.000    1.000    3.750    4.875    0.000    4.000 
#    0.000    3.750    0.000    1.500    0.000    0.000 
#    0.000    0.000    0.000    0.000    0.000    0.000 
#
# Total GULP energy -178809.379429 kJ/mol
# GULP energy per Si atom -5587.793107 kJ/mol
# Density = 1.957187 g / cm^3
# Si number density = 19.616517 Si / 1000 Ang^3
#
#
#
# Elastic Constant Matrix: (Units=GPa)
#
#
# Indices 1 2 3 4 5 6 
#
# 1 45.6397 15.1619 34.3804 0.0000 -6.8509 0.0000
# 2 15.1619 77.2653 43.5184 0.0000 -10.1403 0.0000
# 3 34.3804 43.5184 127.8293 0.0000 -7.1504 0.0000
# 4 0.0000 0.0000 0.0000 36.7301 0.0000 -8.0342
# 5 -6.8509 -10.1403 -7.1504 0.0000 41.5175 0.0000
# 6 0.0000 0.0000 0.0000 -8.0342 0.0000 28.3619
#
#
#
# Elastic Compliance Matrix: (Units=1/GPa)
#
#
# Indices 1 2 3 4 5 6 
#
# 1 0.028013 -0.001164 -0.006963 0.000000 0.003139 0.000000
# 2 -0.001164 0.016440 -0.005119 0.000000 0.002942 0.000000
# 3 -0.006963 -0.005119 0.011414 0.000000 -0.000433 0.000000
# 4 0.000000 0.000000 0.000000 0.029024 0.000000 0.008222
# 5 0.003139 0.002942 -0.000433 0.000000 0.025248 0.000000
# 6 0.000000 0.000000 0.000000 0.008222 0.000000 0.037588
#
#
# Mechanical properties :
#
#
# Convention : Reuss Voigt Hill
#
# Bulk Modulus (GPa) = 34.04063 48.53951 41.29007
# Shear Modulus (GPa) = 27.17225 31.83347 29.50286
#
# Velocity S-wave (km/s) = 3.72583 4.03276 3.88233
# Velocity P-wave (km/s) = 5.99164 6.81778 6.41802
#
# Compressibility (1/GPa) = 0.02937666
#
# Stress axis : x y z
#
# Youngs Moduli (GPa) = 35.69708 60.82630 87.61015
#
# Poissons Ratio (x) = 0.07077 0.61000
# Poissons Ratio (y) = 0.04153 0.44852
# Poissons Ratio (z) = 0.24855 0.31140
#
# Static dielectric constant tensor:
#      x y z
#    x 1.718250 0.000000 0.001940 
#    y 0.000000 1.680870 0.000000 
#    z 0.001940 0.000000 1.697290 
# 
# From -- ./inp_files/190063.got.cif
#   From: 2010.05.17/outbox.cif.g08.bks.cpg/sg12_96_cif.got.tgz:190063.got - 2010.06.03 13:09:07.
