data_PCOD9175134
_publ_section_title
;
Structure prediction by ZEFSAII (Michael W. Deem and Ramdas Pophale) SiO2 
 PCOD9175134
Probable space group: C 2/M
;
_chemical_formula_sum "Si O2"
_cell_formula_units_Z 56
_cell_length_a 15.498600
_cell_length_b 14.074331
_cell_length_c 17.625363
_cell_angle_alpha 90.000000
_cell_angle_beta 43.113009
_cell_angle_gamma 90.000000
_cell_volume 2627.594845
_symmetry_space_group_name_H-M "C 2/M"
_symmetry_group_IT_number 12
_symmetry_cell_setting 'monoclinic'
loop_
_space_group_symop_operation_xyz
x,y,z
-x,y,-z
-x,-y,-z
x,-y,z
1/2+x,1/2+y,z
1/2-x,1/2+y,-z
1/2-x,1/2-y,-z
1/2+x,1/2-y,z
loop_
_atom_site_type_symbol
_atom_site_label
_atom_site_fract_x
_atom_site_fract_y
_atom_site_fract_z
Si Si1 0.162158 0.340773 0.051494
Si Si2 0.361712 0.809656 0.608302
Si Si3 0.091116 0.606937 0.838891
Si Si4 0.689307 0.607292 0.414753
Si Si5 0.577558 0.190819 0.267946
Si Si6 0.306441 0.112995 0.492896
Si Si7 0.187238 0.104128 0.181862
O O1 0.123165 0.363395 0.163027
O O2 0.029080 0.326642 0.093197
O O3 0.250000 0.250000 0.000000
O O4 0.248443 0.403553 0.941667
O O5 0.500000 0.850544 0.500000
O O6 0.369311 0.695832 0.591627
O O7 0.339005 0.831781 0.710492
O O8 0.273847 0.848445 0.597587
O O9 0.040649 0.500000 0.883491
O O10 0.169422 0.606160 0.710629
O O11 0.195579 0.624510 0.835940
O O12 0.639854 0.500000 0.434545
O O13 0.701155 0.628440 0.496139
O O14 0.434832 0.163934 0.381945
O O15 0.596323 0.304447 0.242951
O O16 0.328716 0.000000 0.482063
O O17 0.133691 0.000000 0.237825
#
# Coordination Sequence:
#
# PCOD9175134 Si02
#       7
#     8   8   8   8   8   8   8
#     4  10  20  32  49  79 111 143 176 213 264 321
#     4  10  21  35  54  81 112 146 177 225 276 324
#     4  10  18  32  56  81 105 138 180 227 277 323
#     4  10  19  34  58  82 107 141 181 228 277 325
#     4  10  20  34  51  79 113 142 178 223 274 321
#     4  10  21  37  57  79 106 143 188 229 264 313
#     4  10  20  34  55  82 113 141 176 227 280 329
#
# _framework density 21.312266000000001
#
# number of rings (size 3 to 8) (size 9 to 14) (size 15 to 20)
#    0.000    2.000    2.857    1.286    0.000    4.571 
#    0.000    2.143    0.000    0.857    0.000    5.000 
#    0.000   43.143    0.000    0.000    0.000    0.000 
#
# Total GULP energy -156020.635822 kJ/mol
# GULP energy per Si atom -5572.165565 kJ/mol
# Density = 2.126376 g / cm^3
# Si number density = 21.312266 Si / 1000 Ang^3
#
#
#
# Elastic Constant Matrix: (Units=GPa)
#
#
# Indices 1 2 3 4 5 6 
#
# 1 46.4335 25.7462 19.1357 0.0000 15.8413 0.0000
# 2 25.7462 68.0700 15.3213 0.0000 -3.2020 0.0000
# 3 19.1357 15.3213 79.2689 0.0000 28.3495 0.0000
# 4 0.0000 0.0000 0.0000 18.4149 0.0000 -8.7463
# 5 15.8413 -3.2020 28.3495 0.0000 45.8398 0.0000
# 6 0.0000 0.0000 0.0000 -8.7463 0.0000 -13.3836
#
#
#
# Elastic Compliance Matrix: (Units=1/GPa)
#
#
# Indices 1 2 3 4 5 6 
#
# 1 0.033088 -0.012729 -0.001438 0.000000 -0.011434 0.000000
# 2 -0.012729 0.020771 -0.003895 0.000000 0.008259 0.000000
# 3 -0.001438 -0.003895 0.017507 0.000000 -0.010602 0.000000
# 4 0.000000 0.000000 0.000000 0.041441 0.000000 -0.027082
# 5 -0.011434 0.008259 -0.010602 0.000000 0.032901 0.000000
# 6 0.000000 0.000000 0.000000 -0.027082 0.000000 -0.057020
#
#
# Mechanical properties :
#
#
# Convention : Reuss Voigt Hill
#
# Bulk Modulus (GPa) = 28.37621 34.90874 31.64248
# Shear Modulus (GPa) = 36.61439 19.07884 27.84661
#
# Velocity S-wave (km/s) = 4.14937 2.99524 3.61861
# Velocity P-wave (km/s) = 6.02493 5.32702 5.68669
#
# Compressibility (1/GPa) = 0.03524079
#
# Stress axis : x y z
#
# Youngs Moduli (GPa) = 30.22279 48.14503 57.11955
#
# Poissons Ratio (x) = 0.61284 0.08213
# Poissons Ratio (y) = 0.38471 0.22251
# Poissons Ratio (z) = 0.04345 0.18755
#
# Static dielectric constant tensor:
#      x y z
#    x 1.818750 0.000000 0.041580 
#    y 0.000000 1.797890 0.000000 
#    z 0.041580 0.000000 1.818710 
# 
# From -- ./inp_files/224679.got.cif
#   From: 2010.05.17/outbox.cif.g08.bks.cpg/sg12_113_cif.got.tgz:224679.got - 2010.06.03 13:09:07.
