data_PCOD9175723
_publ_section_title
;
Structure prediction by ZEFSAII (Michael W. Deem and Ramdas Pophale) SiO2 
 PCOD9175723
Probable space group: C 2/M
;
_chemical_formula_sum "Si O2"
_cell_formula_units_Z 40
_cell_length_a 15.445679
_cell_length_b 22.969336
_cell_length_c 9.520593
_cell_angle_alpha 90.000000
_cell_angle_beta 33.506063
_cell_angle_gamma 90.000000
_cell_volume 1864.568605
_symmetry_space_group_name_H-M "C 2/M"
_symmetry_group_IT_number 12
_symmetry_cell_setting 'monoclinic'
loop_
_space_group_symop_operation_xyz
x,y,z
-x,y,-z
-x,-y,-z
x,-y,z
1/2+x,1/2+y,z
1/2-x,1/2+y,-z
1/2-x,1/2-y,-z
1/2+x,1/2-y,z
loop_
_atom_site_type_symbol
_atom_site_label
_atom_site_fract_x
_atom_site_fract_y
_atom_site_fract_z
Si Si1 0.944010 0.870676 0.867711
Si Si2 0.711711 0.816909 0.639708
Si Si3 0.500000 0.090511 0.000000
Si Si4 0.000000 0.217122 0.000000
Si Si5 0.168313 0.205814 0.216951
Si Si6 0.932846 0.000000 0.819941
Si Si7 0.757476 0.500000 0.205536
O O1 0.868971 0.852406 0.821115
O O2 0.924872 0.939168 0.915092
O O3 0.124021 0.848590 0.618148
O O4 0.886193 0.826051 0.066006
O O5 0.588027 0.867261 0.773398
O O6 0.732114 0.807010 0.780257
O O7 0.610382 0.757176 0.749365
O O8 0.367984 0.053532 0.100106
O O9 0.000000 0.228716 0.500000
O O10 0.250000 0.250000 0.000000
O O11 0.801371 0.000000 0.875092
O O12 0.100509 0.000000 0.512700
#
# Coordination Sequence:
#
# PCOD9175723 Si02
#       7
#     8   8   4   4   8   4   4
#     4  11  22  37  58  85 118 159 200 245 305 364
#     4  10  20  35  57  88 118 148 194 257 305 357
#     4  10  18  33  56  87 116 142 192 248 318 346
#     4  11  22  36  56  82 122 151 202 238 304 357
#     4  10  20  37  59  89 124 161 204 252 310 373
#     4  11  22  37  58  83 120 159 197 246 305 370
#     4  10  20  34  56  85 114 147 198 252 299 364
#
# _framework density 21.452684000000001
#
# number of rings (size 3 to 8) (size 9 to 14) (size 15 to 20)
#    0.000    1.600    4.000    1.800    5.600    0.400 
#    0.000    0.000    0.000    0.000    0.000    2.100 
#    0.000    0.000    0.000    0.000    0.000    0.000 
#
# Total GULP energy -111370.641372 kJ/mol
# GULP energy per Si atom -5568.532069 kJ/mol
# Density = 2.140386 g / cm^3
# Si number density = 21.452684 Si / 1000 Ang^3
#
#
#
# Elastic Constant Matrix: (Units=GPa)
#
#
# Indices 1 2 3 4 5 6 
#
# 1 70.6117 19.1990 0.0291 -0.0001 -16.5706 0.0000
# 2 19.1990 171.7751 11.4220 0.0000 -11.3731 0.0000
# 3 0.0291 11.4220 48.6448 -0.0003 -12.4543 -0.0001
# 4 -0.0001 0.0000 -0.0003 -88.3822 0.0001 -67.5656
# 5 -16.5706 -11.3731 -12.4543 0.0001 32.4338 0.0000
# 6 0.0000 0.0000 -0.0001 -67.5656 0.0000 -20.6188
#
#
#
# Elastic Compliance Matrix: (Units=1/GPa)
#
#
# Indices 1 2 3 4 5 6 
#
# 1 0.016671 -0.001441 0.002639 0.000000 0.009025 0.000000
# 2 -0.001441 0.006125 -0.001193 0.000000 0.000953 0.000000
# 3 0.002639 -0.001193 0.023372 0.000000 0.009904 0.000000
# 4 0.000000 0.000000 0.000000 0.007517 0.000000 -0.024634
# 5 0.009025 0.000953 0.009904 0.000000 0.039581 0.000000
# 6 0.000000 0.000000 0.000000 -0.024634 0.000000 0.032224
#
#
# Mechanical properties :
#
#
# Convention : Reuss Voigt Hill
#
# Bulk Modulus (GPa) = 21.65593 39.14795 30.40194
# Shear Modulus (GPa) = 35.49324 2.04533 18.76928
#
# Velocity S-wave (km/s) = 4.07195 0.97749 2.96111
# Velocity P-wave (km/s) = 5.67665 4.42291 5.08854
#
# Compressibility (1/GPa) = 0.04617673
#
# Stress axis : x y z
#
# Youngs Moduli (GPa) = 59.98552 163.26247 42.78697
#
# Poissons Ratio (x) = 0.23529 -0.11292
# Poissons Ratio (y) = 0.08645 0.05106
# Poissons Ratio (z) = -0.15831 0.19482
#
# Static dielectric constant tensor:
#      x y z
#    x 1.802900 0.000000 0.074160 
#    y 0.000000 1.879640 0.000000 
#    z 0.074160 0.000000 1.950520 
# 
# From -- ./inp_files/159441.got.cif
#   From: 2010.05.17/outbox.cif.g08.bks.cpg/sg12_80_cif.got.tgz:159441.got - 2010.06.03 13:09:07.
