data_PCOD9175495
_publ_section_title
;
Structure prediction by ZEFSAII (Michael W. Deem and Ramdas Pophale) SiO2 
 PCOD9175495
Probable space group: C 2/M
;
_chemical_formula_sum "Si O2"
_cell_formula_units_Z 56
_cell_length_a 21.451868
_cell_length_b 16.331175
_cell_length_c 9.576693
_cell_angle_alpha 90.000000
_cell_angle_beta 59.636676
_cell_angle_gamma 90.000000
_cell_volume 2894.856779
_symmetry_space_group_name_H-M "C 2/M"
_symmetry_group_IT_number 12
_symmetry_cell_setting 'monoclinic'
loop_
_space_group_symop_operation_xyz
x,y,z
-x,y,-z
-x,-y,-z
x,-y,z
1/2+x,1/2+y,z
1/2-x,1/2+y,-z
1/2-x,1/2-y,-z
1/2+x,1/2-y,z
loop_
_atom_site_type_symbol
_atom_site_label
_atom_site_fract_x
_atom_site_fract_y
_atom_site_fract_z
Si Si1 0.850670 0.800816 0.174362
Si Si2 0.337274 0.902754 0.551758
Si Si3 0.929338 0.647182 0.000985
Si Si4 0.992094 0.596637 0.343324
Si Si5 0.691305 0.406580 0.543628
Si Si6 0.729975 0.855939 0.801958
Si Si7 0.243151 0.901361 0.915232
O O1 0.915697 0.741580 0.058524
O O2 0.857308 0.842322 0.317678
O O3 0.784304 0.735483 0.239238
O O4 0.827234 0.869570 0.089052
O O5 0.411534 0.868559 0.406835
O O6 0.269937 0.892264 0.525935
O O7 0.310336 0.879420 0.736627
O O8 0.350988 0.000000 0.546773
O O9 0.851396 0.605848 0.119821
O O10 0.000000 0.613987 0.000000
O O11 0.948432 0.640249 0.817043
O O12 0.997844 0.500000 0.301520
O O13 0.000000 0.604020 0.500000
O O14 0.669594 0.500000 0.597000
O O15 0.707974 0.394683 0.362557
O O16 0.749029 0.860606 0.942934
O O17 0.241789 0.000000 0.931209
#
# Coordination Sequence:
#
# PCOD9175495 Si02
#       7
#     8   8   8   8   8   8   8
#     4   9  21  35  51  73 111 141 173 212 264 315
#     4   8  16  28  47  68  98 132 168 205 250 302
#     4  10  22  35  50  73 110 147 179 207 251 308
#     4  10  19  32  48  70 101 140 178 211 246 302
#     4  10  18  33  53  76  99 134 174 216 265 313
#     4  10  20  31  53  78 110 129 171 221 266 303
#     4  10  18  34  56  81 104 134 175 219 265 312
#
# _framework density 19.344653000000001
#
# number of rings (size 3 to 8) (size 9 to 14) (size 15 to 20)
#    0.857    1.571    0.000    4.286    0.000    2.571 
#    0.000    0.000    0.000    1.714    0.000    0.000 
#    0.000    4.571    0.000    0.000    0.000    0.000 
#
# Total GULP energy -155903.500314 kJ/mol
# GULP energy per Si atom -5567.982154 kJ/mol
# Density = 1.930062 g / cm^3
# Si number density = 19.344653 Si / 1000 Ang^3
#
#
#
# Elastic Constant Matrix: (Units=GPa)
#
#
# Indices 1 2 3 4 5 6 
#
# 1 22.9203 -9.0079 6.5187 0.0000 -1.0176 0.0000
# 2 -9.0079 55.0006 27.8441 0.0000 -11.8748 0.0000
# 3 6.5187 27.8441 125.8354 0.0000 0.8088 0.0000
# 4 0.0000 0.0000 0.0000 16.3456 0.0000 -1.8210
# 5 -1.0176 -11.8748 0.8088 0.0000 19.0479 0.0000
# 6 0.0000 0.0000 0.0000 -1.8210 0.0000 13.3410
#
#
#
# Elastic Compliance Matrix: (Units=1/GPa)
#
#
# Indices 1 2 3 4 5 6 
#
# 1 0.051223 0.013823 -0.005787 0.000000 0.011600 0.000000
# 2 0.013823 0.027997 -0.007030 0.000000 0.018491 0.000000
# 3 -0.005787 -0.007030 0.009835 0.000000 -0.005109 0.000000
# 4 0.000000 0.000000 0.000000 0.062123 0.000000 0.008479
# 5 0.011600 0.018491 -0.005109 0.000000 0.064863 0.000000
# 6 0.000000 0.000000 0.000000 0.008479 0.000000 0.076114
#
#
# Mechanical properties :
#
#
# Convention : Reuss Voigt Hill
#
# Bulk Modulus (GPa) = 10.98085 28.27401 19.62743
# Shear Modulus (GPa) = 15.60071 21.64032 18.62052
#
# Velocity S-wave (km/s) = 2.84291 3.34828 3.10589
# Velocity P-wave (km/s) = 4.05770 5.44019 4.79899
#
# Compressibility (1/GPa) = 0.09106766
#
# Stress axis : x y z
#
# Youngs Moduli (GPa) = 19.52252 35.71858 101.67733
#
# Poissons Ratio (x) = -0.49375 0.58838
# Poissons Ratio (y) = -0.26986 0.71478
# Poissons Ratio (z) = 0.11297 0.25110
#
# Static dielectric constant tensor:
#      x y z
#    x 1.719600 0.000000 0.011760 
#    y 0.000000 1.698380 0.000000 
#    z 0.011760 0.000000 1.715560 
# 
# From -- ./inp_files/104430.got.cif
#   From: 2010.05.17/outbox.cif.g08.bks.cpg/sg12_53_cif.got.tgz:104430.got - 2010.06.03 13:09:07.
