data_PCOD9175032
_publ_section_title
;
Structure prediction by ZEFSAII (Michael W. Deem and Ramdas Pophale) SiO2 
 PCOD9175032
Probable space group: C 2/M
;
_chemical_formula_sum "Si O2"
_cell_formula_units_Z 64
_cell_length_a 19.529925
_cell_length_b 7.712493
_cell_length_c 33.343770
_cell_angle_alpha 90.000000
_cell_angle_beta 141.842846
_cell_angle_gamma 90.000000
_cell_volume 3102.933111
_symmetry_space_group_name_H-M "C 2/M"
_symmetry_group_IT_number 12
_symmetry_cell_setting 'monoclinic'
loop_
_space_group_symop_operation_xyz
x,y,z
-x,y,-z
-x,-y,-z
x,-y,z
1/2+x,1/2+y,z
1/2-x,1/2+y,-z
1/2-x,1/2-y,-z
1/2+x,1/2-y,z
loop_
_atom_site_type_symbol
_atom_site_label
_atom_site_fract_x
_atom_site_fract_y
_atom_site_fract_z
Si Si1 0.564193 0.204948 0.270706
Si Si2 0.449582 0.708632 0.518867
Si Si3 0.723488 0.796368 0.775324
Si Si4 0.301062 0.211439 0.588559
Si Si5 0.995654 0.708174 0.369328
Si Si6 0.418778 0.290284 0.810171
Si Si7 0.828800 0.208724 0.073153
Si Si8 0.811243 0.197744 0.152368
O O1 0.642217 0.258391 0.343035
O O2 0.614548 0.238804 0.250250
O O3 0.445139 0.296249 0.216807
O O4 0.542027 0.000000 0.265340
O O5 0.500000 0.772810 0.500000
O O6 0.443658 0.500000 0.512963
O O7 0.324819 0.774996 0.469663
O O8 0.518516 0.750500 0.590505
O O9 0.606883 0.724953 0.704660
O O10 0.829483 0.723876 0.800795
O O11 0.731886 0.781094 0.826869
O O12 0.720378 0.000000 0.764219
O O13 0.386053 0.273073 0.593332
O O14 0.296642 0.000000 0.584531
O O15 0.999182 0.500000 0.366560
O O16 0.422267 0.500000 0.813640
O O17 0.544992 0.228174 0.875019
O O18 0.786493 0.275049 0.097043
O O19 0.834416 0.000000 0.079586
O O20 0.750000 0.250000 0.000000
O O21 0.772671 0.000000 0.135225
#
# Coordination Sequence:
#
# PCOD9175032 Si02
#       8
#     8   8   8   8   8   8   8   8
#     4  10  18  32  55  79 105 141 181 221 270 326
#     4  10  22  37  52  73 105 140 175 223 277 325
#     4  10  20  36  57  80 111 146 178 223 279 325
#     4   9  18  34  53  74 103 135 176 223 266 321
#     4  10  20  36  55  75 102 137 180 223 265 323
#     4   9  20  36  53  80 115 142 176 226 269 311
#     4   9  19  36  57  81 110 144 180 219 259 311
#     4  10  20  35  55  83 115 140 177 226 264 313
#
# _framework density 20.625646
#
# number of rings (size 3 to 8) (size 9 to 14) (size 15 to 20)
#    0.000    2.375    1.250    1.875    1.750    3.750 
#    0.000    1.875    0.000    3.750    0.000    0.000 
#    0.000    0.000    0.000    0.000    0.000    0.000 
#
# Total GULP energy -178577.609680 kJ/mol
# GULP energy per Si atom -5580.550303 kJ/mol
# Density = 2.057870 g / cm^3
# Si number density = 20.625646 Si / 1000 Ang^3
#
#
#
# Elastic Constant Matrix: (Units=GPa)
#
#
# Indices 1 2 3 4 5 6 
#
# 1 159.0432 1.6520 50.5884 -0.0002 -20.4423 0.0002
# 2 1.6520 29.8229 -2.1558 -0.0004 6.4153 0.0004
# 3 50.5884 -2.1558 92.4815 -0.0002 -27.8963 0.0000
# 4 -0.0002 -0.0004 -0.0002 17.5787 0.0001 -8.7100
# 5 -20.4423 6.4153 -27.8963 0.0001 25.5245 -0.0001
# 6 0.0002 0.0004 0.0000 -8.7100 -0.0001 13.6264
#
#
#
# Elastic Compliance Matrix: (Units=1/GPa)
#
#
# Indices 1 2 3 4 5 6 
#
# 1 0.007749 -0.001275 -0.003431 0.000000 0.002777 0.000000
# 2 -0.001275 0.036142 -0.002250 0.000000 -0.012564 -0.000001
# 3 -0.003431 -0.002250 0.017870 0.000000 0.017349 0.000000
# 4 0.000000 0.000000 0.000000 0.083256 0.000000 0.053217
# 5 0.002777 -0.012564 0.017349 0.000000 0.063520 0.000001
# 6 0.000000 -0.000001 0.000000 0.053217 0.000001 0.107404
#
#
# Mechanical properties :
#
#
# Convention : Reuss Voigt Hill
#
# Bulk Modulus (GPa) = 20.89858 42.39075 31.64466
# Shear Modulus (GPa) = 14.45915 26.76345 20.61130
#
# Velocity S-wave (km/s) = 2.65057 3.60610 3.16461
# Velocity P-wave (km/s) = 4.41833 6.15920 5.35991
#
# Compressibility (1/GPa) = 0.04785015
#
# Stress axis : x y z
#
# Youngs Moduli (GPa) = 129.04801 27.66873 55.95868
#
# Poissons Ratio (x) = 0.03527 0.19199
# Poissons Ratio (y) = 0.16448 0.12591
# Poissons Ratio (z) = 0.44276 0.06226
#
# Static dielectric constant tensor:
#      x y z
#    x 1.745800 0.000000 -0.000820 
#    y 0.000000 1.784010 0.000000 
#    z -0.000820 0.000000 1.715050 
# 
# From -- ./inp_files/314000.got.cif
#   From: 2010.05.17/outbox.cif.g08.bks.cpg/sg12_157_cif.got.tgz:314000.got - 2010.06.03 13:09:07.
