data_PCOD9175079
_publ_section_title
;
Structure prediction by ZEFSAII (Michael W. Deem and Ramdas Pophale) SiO2 
 PCOD9175079
Probable space group: C 2/M
;
_chemical_formula_sum "Si O2"
_cell_formula_units_Z 44
_cell_length_a 9.251161
_cell_length_b 25.683417
_cell_length_c 8.252315
_cell_angle_alpha 90.000000
_cell_angle_beta 113.157844
_cell_angle_gamma 90.000000
_cell_volume 1802.773304
_symmetry_space_group_name_H-M "C 2/M"
_symmetry_group_IT_number 12
_symmetry_cell_setting 'monoclinic'
loop_
_space_group_symop_operation_xyz
x,y,z
-x,y,-z
-x,-y,-z
x,-y,z
1/2+x,1/2+y,z
1/2-x,1/2+y,-z
1/2-x,1/2-y,-z
1/2+x,1/2-y,z
loop_
_atom_site_type_symbol
_atom_site_label
_atom_site_fract_x
_atom_site_fract_y
_atom_site_fract_z
Si Si1 0.680796 0.442497 0.279320
Si Si2 0.679551 0.441292 0.887360
Si Si3 0.650483 0.734948 0.294695
Si Si4 0.500000 0.321405 0.500000
Si Si5 0.829051 0.350212 0.766179
Si Si6 0.882703 0.348958 0.321767
O O1 0.723412 0.500000 0.356982
O O2 0.500803 0.431779 0.249007
O O3 0.807467 0.399117 0.372215
O O4 0.677526 0.442606 0.081330
O O5 0.725364 0.500000 0.852783
O O6 0.784150 0.393503 0.876280
O O7 0.750000 0.750000 0.500000
O O8 0.504497 0.709414 0.327714
O O9 0.638176 0.788425 0.190623
O O10 0.740589 0.691043 0.230429
O O11 0.668151 0.349921 0.586152
O O12 0.995301 0.365384 0.760694
O O13 0.000000 0.321183 0.500000
#
# Coordination Sequence:
#
# PCOD9175079 Si02
#       6
#     8   8   8   4   8   8
#     4   9  21  42  64  82 112 152 195 242 290 340
#     4   9  20  42  65  83 107 154 202 237 283 345
#     4  10  19  34  54  82 118 157 189 225 281 345
#     4  10  18  32  55  82 115 158 190 224 278 348
#     4  11  21  32  58  88 116 152 193 234 282 343
#     4  12  22  35  57  92 123 150 187 237 294 342
#
# _framework density 24.406842999999999
#
# number of rings (size 3 to 8) (size 9 to 14) (size 15 to 20)
#    0.000    1.818    3.636    4.364    1.273    1.818 
#    0.000    3.182    0.000    2.182    0.000    0.000 
#    0.000    0.000    0.000    0.000    0.000    0.000 
#
# Total GULP energy -122663.545679 kJ/mol
# GULP energy per Si atom -5575.615713 kJ/mol
# Density = 2.435129 g / cm^3
# Si number density = 24.406843 Si / 1000 Ang^3
#
#
#
# Elastic Constant Matrix: (Units=GPa)
#
#
# Indices 1 2 3 4 5 6 
#
# 1 178.6584 105.7191 24.1549 0.0000 -12.4181 0.0000
# 2 105.7191 150.6267 28.5399 0.0000 -10.2855 0.0000
# 3 24.1549 28.5399 33.8248 0.0000 12.4029 0.0000
# 4 0.0000 0.0000 0.0000 34.5587 0.0000 8.1593
# 5 -12.4181 -10.2855 12.4029 0.0000 23.4603 0.0000
# 6 0.0000 0.0000 0.0000 8.1593 0.0000 67.9685
#
#
#
# Elastic Compliance Matrix: (Units=1/GPa)
#
#
# Indices 1 2 3 4 5 6 
#
# 1 0.009956 -0.005948 -0.003806 0.000000 0.004674 0.000000
# 2 -0.005948 0.013189 -0.009734 0.000000 0.007780 0.000000
# 3 -0.003806 -0.009734 0.053090 0.000000 -0.034349 0.000000
# 4 0.000000 0.000000 0.000000 0.029780 0.000000 -0.003575
# 5 0.004674 0.007780 -0.034349 0.000000 0.066670 0.000000
# 6 0.000000 0.000000 0.000000 -0.003575 0.000000 0.015142
#
#
# Mechanical properties :
#
#
# Convention : Reuss Voigt Hill
#
# Bulk Modulus (GPa) = 26.83761 75.54864 51.19312
# Shear Modulus (GPa) = 20.90115 38.84390 29.87252
#
# Velocity S-wave (km/s) = 2.92955 3.99371 3.50228
# Velocity P-wave (km/s) = 4.73949 7.23100 6.11352
#
# Compressibility (1/GPa) = 0.03726115
#
# Stress axis : x y z
#
# Youngs Moduli (GPa) = 100.44102 75.82152 18.83598
#
# Poissons Ratio (x) = 0.45095 0.07168
# Poissons Ratio (y) = 0.59738 0.18335
# Poissons Ratio (z) = 0.38223 0.73803
#
# Static dielectric constant tensor:
#      x y z
#    x 1.989410 0.000000 -0.051850 
#    y 0.000000 1.997230 0.000000 
#    z -0.051850 0.000000 2.056480 
# 
# From -- ./inp_files/122114.got.cif
#   From: 2010.05.17/outbox.cif.g08.bks.cpg/sg12_62_cif.got.tgz:122114.got - 2010.06.03 13:09:07.
