data_PCOD9175167
_publ_section_title
;
Structure prediction by ZEFSAII (Michael W. Deem and Ramdas Pophale) SiO2 
 PCOD9175167
Probable space group: C 2/M
;
_chemical_formula_sum "Si O2"
_cell_formula_units_Z 56
_cell_length_a 24.448616
_cell_length_b 11.438861
_cell_length_c 29.564938
_cell_angle_alpha 90.000000
_cell_angle_beta 159.891415
_cell_angle_gamma 90.000000
_cell_volume 2842.630516
_symmetry_space_group_name_H-M "C 2/M"
_symmetry_group_IT_number 12
_symmetry_cell_setting 'monoclinic'
loop_
_space_group_symop_operation_xyz
x,y,z
-x,y,-z
-x,-y,-z
x,-y,z
1/2+x,1/2+y,z
1/2-x,1/2+y,-z
1/2-x,1/2-y,-z
1/2+x,1/2-y,z
loop_
_atom_site_type_symbol
_atom_site_label
_atom_site_fract_x
_atom_site_fract_y
_atom_site_fract_z
Si Si1 0.783041 0.701821 0.454111
Si Si2 0.563993 0.367704 0.655356
Si Si3 0.046669 0.371547 0.324876
Si Si4 0.472151 0.626758 0.177584
Si Si5 0.006988 0.360389 0.861936
Si Si6 0.676378 0.639568 0.649695
Si Si7 0.811850 0.179877 0.148185
O O1 0.870469 0.631240 0.561669
O O2 0.663287 0.793417 0.385268
O O3 0.663595 0.628503 0.331154
O O4 0.919587 0.778342 0.537665
O O5 0.506062 0.500000 0.602247
O O6 0.691934 0.340342 0.715779
O O7 0.625468 0.362214 0.754555
O O8 0.038796 0.500000 0.299993
O O9 0.873816 0.313189 0.194202
O O10 0.423321 0.500000 0.118972
O O11 0.435020 0.753922 0.126075
O O12 0.398831 0.626876 0.171401
O O13 0.010666 0.500000 0.850623
O O14 0.829758 0.325573 0.740037
O O15 0.128705 0.348212 0.998314
O O16 0.500000 0.684585 0.500000
O O17 0.671817 0.500000 0.639713
#
# Coordination Sequence:
#
# PCOD9175167 Si02
#       7
#     8   8   8   8   8   8   8
#     4   9  18  29  49  79 108 142 181 225 274 326
#     4  10  18  32  56  83 114 146 180 230 284 330
#     4   9  17  30  49  76 112 149 182 221 274 335
#     4  11  22  36  55  80 114 151 188 230 277 333
#     4  11  23  39  58  80 111 149 191 237 281 331
#     4   9  19  35  57  84 109 138 182 234 284 335
#     4  10  22  35  52  82 114 147 187 229 278 335
#
# _framework density 19.700064000000001
#
# number of rings (size 3 to 8) (size 9 to 14) (size 15 to 20)
#    0.000    2.143    0.000    4.286    0.000    5.143 
#    0.000    2.143    0.000    7.286    0.000    5.000 
#    0.000    0.000    0.000    0.000    0.000    0.000 
#
# Total GULP energy -155880.977703 kJ/mol
# GULP energy per Si atom -5567.177775 kJ/mol
# Density = 1.965523 g / cm^3
# Si number density = 19.700064 Si / 1000 Ang^3
#
#
#
# Elastic Constant Matrix: (Units=GPa)
#
#
# Indices 1 2 3 4 5 6 
#
# 1 87.1896 26.0272 22.0106 0.0043 6.6383 -0.0013
# 2 26.0272 119.8562 17.5057 0.0064 1.0961 -0.0009
# 3 22.0106 17.5057 85.2077 0.0178 4.2893 -0.0038
# 4 0.0043 0.0064 0.0178 10.6039 -0.0019 5.2622
# 5 6.6383 1.0961 4.2893 -0.0019 21.1347 0.0004
# 6 -0.0013 -0.0009 -0.0038 5.2622 0.0004 16.8876
#
#
#
# Elastic Compliance Matrix: (Units=1/GPa)
#
#
# Indices 1 2 3 4 5 6 
#
# 1 0.013143 -0.002425 -0.002723 0.000000 -0.003450 0.000000
# 2 -0.002425 0.009049 -0.001260 -0.000003 0.000548 0.000001
# 3 -0.002723 -0.001260 0.012783 -0.000025 -0.001673 0.000010
# 4 0.000000 -0.000003 -0.000025 0.111556 0.000016 -0.034761
# 5 -0.003450 0.000548 -0.001673 0.000016 0.048710 -0.000007
# 6 0.000000 0.000001 0.000010 -0.034761 -0.000007 0.070047
#
#
# Mechanical properties :
#
#
# Convention : Reuss Voigt Hill
#
# Bulk Modulus (GPa) = 45.13033 47.03785 46.08409
# Shear Modulus (GPa) = 17.51371 24.83924 21.17647
#
# Velocity S-wave (km/s) = 2.98488 3.55473 3.28219
# Velocity P-wave (km/s) = 5.90235 6.38568 6.14877
#
# Compressibility (1/GPa) = 0.02215805
#
# Stress axis : x y z
#
# Youngs Moduli (GPa) = 76.08479 110.51008 78.23088
#
# Poissons Ratio (x) = 0.26797 0.21305
# Poissons Ratio (y) = 0.18449 0.09859
# Poissons Ratio (z) = 0.20720 0.13928
#
# Static dielectric constant tensor:
#      x y z
#    x 1.734370 0.000000 -0.028540 
#    y 0.000000 1.736240 0.000000 
#    z -0.028540 0.000000 1.733240 
# 
# From -- ./inp_files/174483.got.cif
#   From: 2010.05.17/outbox.cif.g08.bks.cpg/sg12_88_cif.got.tgz:174483.got - 2010.06.03 13:09:07.
