data_PCOD9175795
_publ_section_title
;
Structure prediction by ZEFSAII (Michael W. Deem and Ramdas Pophale) SiO2 
 PCOD9175795
Probable space group: C 2/M
;
_chemical_formula_sum "Si O2"
_cell_formula_units_Z 60
_cell_length_a 11.862959
_cell_length_b 32.946153
_cell_length_c 9.240996
_cell_angle_alpha 90.000000
_cell_angle_beta 110.240964
_cell_angle_gamma 90.000000
_cell_volume 3388.700622
_symmetry_space_group_name_H-M "C 2/M"
_symmetry_group_IT_number 12
_symmetry_cell_setting 'monoclinic'
loop_
_space_group_symop_operation_xyz
x,y,z
-x,y,-z
-x,-y,-z
x,-y,z
1/2+x,1/2+y,z
1/2-x,1/2+y,-z
1/2-x,1/2-y,-z
1/2+x,1/2-y,z
loop_
_atom_site_type_symbol
_atom_site_label
_atom_site_fract_x
_atom_site_fract_y
_atom_site_fract_z
Si Si1 0.638326 0.665736 0.301536
Si Si2 0.553873 0.401287 0.870201
Si Si3 0.941816 0.223219 0.313485
Si Si4 0.500000 0.870262 0.500000
Si Si5 0.713266 0.118072 0.403818
Si Si6 0.875550 0.045419 0.358770
Si Si7 0.364903 0.185519 0.211171
Si Si8 0.761049 0.340251 0.875194
O O1 0.552370 0.627113 0.239452
O O2 0.550646 0.704031 0.271134
O O3 0.710719 0.652950 0.478125
O O4 0.734352 0.675965 0.221789
O O5 0.589305 0.438445 0.784183
O O6 0.671336 0.372270 0.915488
O O7 0.500000 0.413759 0.000000
O O8 0.904880 0.268475 0.256099
O O9 0.826985 0.194394 0.230456
O O10 0.000000 0.222072 0.500000
O O11 0.391546 0.893470 0.530234
O O12 0.549562 0.842508 0.652701
O O13 0.792494 0.079154 0.397432
O O14 0.677460 0.137534 0.233780
O O15 0.000000 0.044519 0.500000
O O16 0.823788 0.000000 0.333454
O O17 0.352058 0.176128 0.035940
#
# Coordination Sequence:
#
# PCOD9175795 Si02
#       8
#     8   8   8   4   8   8   8   8
#     4  10  20  35  56  75 111 151 197 230 289 350
#     4  10  18  33  57  86 114 155 182 230 286 350
#     4  11  21  34  53  80 111 153 193 245 309 336
#     4  10  24  38  59  78 108 158 202 234 283 346
#     4  10  20  39  60  82 114 151 190 236 279 349
#     4  10  20  34  60  95 122 145 180 231 289 350
#     4  11  22  38  52  79 109 149 203 250 285 325
#     4  10  21  34  57  82 109 151 198 244 291 343
#
# _framework density 17.705902999999999
#
# number of rings (size 3 to 8) (size 9 to 14) (size 15 to 20)
#    0.000    1.733    4.667    0.400    0.000    2.400 
#    0.000    1.667    0.000    0.000    0.000    7.467 
#    0.000    0.000    0.000    0.000    0.000    0.000 
#
# Total GULP energy -167167.282022 kJ/mol
# GULP energy per Si atom -5572.242734 kJ/mol
# Density = 1.766560 g / cm^3
# Si number density = 17.705903 Si / 1000 Ang^3
#
#
#
# Elastic Constant Matrix: (Units=GPa)
#
#
# Indices 1 2 3 4 5 6 
#
# 1 78.5663 26.2927 28.8911 0.0000 -20.4059 0.0000
# 2 26.2927 78.1753 35.9520 0.0000 -15.4062 0.0000
# 3 28.8911 35.9520 108.0130 0.0000 -8.2955 0.0000
# 4 0.0000 0.0000 0.0000 40.6417 0.0000 -5.3396
# 5 -20.4059 -15.4062 -8.2955 0.0000 27.2811 0.0000
# 6 0.0000 0.0000 0.0000 -5.3396 0.0000 6.6102
#
#
#
# Elastic Compliance Matrix: (Units=1/GPa)
#
#
# Indices 1 2 3 4 5 6 
#
# 1 0.017437 -0.002330 -0.003059 0.000000 0.010797 0.000000
# 2 -0.002330 0.016921 -0.004514 0.000000 0.006440 0.000000
# 3 -0.003059 -0.004514 0.011475 0.000000 -0.001348 0.000000
# 4 0.000000 0.000000 0.000000 0.027527 0.000000 0.022235
# 5 0.010797 0.006440 -0.001348 0.000000 0.047958 0.000000
# 6 0.000000 0.000000 0.000000 0.022235 0.000000 0.169241
#
#
# Mechanical properties :
#
#
# Convention : Reuss Voigt Hill
#
# Bulk Modulus (GPa) = 38.42288 49.66959 44.04623
# Shear Modulus (GPa) = 15.67195 26.48120 21.07657
#
# Velocity S-wave (km/s) = 2.97833 3.87151 3.45392
# Velocity P-wave (km/s) = 5.79439 6.93529 6.39036
#
# Compressibility (1/GPa) = 0.02602616
#
# Stress axis : x y z
#
# Youngs Moduli (GPa) = 57.34922 59.09972 87.14266
#
# Poissons Ratio (x) = 0.13770 0.26660
# Poissons Ratio (y) = 0.13362 0.39338
# Poissons Ratio (z) = 0.17545 0.26679
#
# Static dielectric constant tensor:
#      x y z
#    x 1.620140 0.000000 0.002670 
#    y 0.000000 1.573920 0.000000 
#    z 0.002670 0.000000 1.642770 
# 
# From -- ./inp_files/54774.got.cif
#   From: 2010.05.17/outbox.cif.g08.bks.cpg/sg12_28_cif.got.tgz:54774.got - 2010.06.03 13:09:07.
