data_PCOD9175318
_publ_section_title
;
Structure prediction by ZEFSAII (Michael W. Deem and Ramdas Pophale) SiO2 
 PCOD9175318
Probable space group: C 2/M
;
_chemical_formula_sum "Si O2"
_cell_formula_units_Z 48
_cell_length_a 12.106039
_cell_length_b 23.651932
_cell_length_c 7.031636
_cell_angle_alpha 90.000000
_cell_angle_beta 98.977053
_cell_angle_gamma 90.000000
_cell_volume 1988.714825
_symmetry_space_group_name_H-M "C 2/M"
_symmetry_group_IT_number 12
_symmetry_cell_setting 'monoclinic'
loop_
_space_group_symop_operation_xyz
x,y,z
-x,y,-z
-x,-y,-z
x,-y,z
1/2+x,1/2+y,z
1/2-x,1/2+y,-z
1/2-x,1/2-y,-z
1/2+x,1/2-y,z
loop_
_atom_site_type_symbol
_atom_site_label
_atom_site_fract_x
_atom_site_fract_y
_atom_site_fract_z
Si Si1 0.596031 0.319852 0.783881
Si Si2 0.373870 0.437141 0.039307
Si Si3 0.718259 0.174951 0.450548
Si Si4 0.149139 0.777679 0.205242
Si Si5 0.402778 0.067481 0.708641
Si Si6 0.645183 0.066319 0.851531
O O1 0.622666 0.385866 0.817027
O O2 0.661459 0.308964 0.609371
O O3 0.465088 0.309363 0.764961
O O4 0.647715 0.285571 0.977000
O O5 0.345658 0.500000 0.105611
O O6 0.500000 0.439817 0.000000
O O7 0.276778 0.421011 0.862239
O O8 0.740277 0.194208 0.671769
O O9 0.641360 0.214852 0.294896
O O10 0.677649 0.110865 0.421273
O O11 0.531895 0.088486 0.724792
O O12 0.392721 0.000000 0.659258
O O13 0.373328 0.073164 0.925427
O O14 0.636416 0.000000 0.806999
#
# Coordination Sequence:
#
# PCOD9175318 Si02
#       6
#     8   8   8   8   8   8
#     4  11  21  41  63  87 120 159 206 256 298 369
#     4  10  18  32  58  90 124 162 200 250 307 360
#     4  11  22  40  64  86 122 161 200 256 308 358
#     4  10  24  41  57  89 122 158 209 250 301 359
#     4   9  17  32  58  91 119 152 202 253 305 369
#     4   8  15  28  50  87 122 152 200 246 294 362
#
# _framework density 24.136192999999999
#
# number of rings (size 3 to 8) (size 9 to 14) (size 15 to 20)
#    0.000    2.167    3.333    2.000    0.000    2.667 
#    3.000    1.667    0.000    2.000    0.000    3.500 
#    0.000    0.000    0.000    0.000    0.000    0.000 
#
# Total GULP energy -133816.140614 kJ/mol
# GULP energy per Si atom -5575.672526 kJ/mol
# Density = 2.408126 g / cm^3
# Si number density = 24.136193 Si / 1000 Ang^3
#
#
#
# Elastic Constant Matrix: (Units=GPa)
#
#
# Indices 1 2 3 4 5 6 
#
# 1 107.0636 -0.5786 23.9718 0.0000 21.7637 0.0000
# 2 -0.5786 118.1685 35.1467 0.0000 15.3670 0.0000
# 3 23.9718 35.1467 134.2320 0.0000 12.7768 0.0000
# 4 0.0000 0.0000 0.0000 24.6982 0.0000 17.6562
# 5 21.7637 15.3670 12.7768 0.0000 28.5314 0.0000
# 6 0.0000 0.0000 0.0000 17.6562 0.0000 24.7566
#
#
#
# Elastic Compliance Matrix: (Units=1/GPa)
#
#
# Indices 1 2 3 4 5 6 
#
# 1 0.011549 0.001719 -0.001656 0.000000 -0.008993 0.000000
# 2 0.001719 0.009901 -0.002368 0.000000 -0.005583 0.000000
# 3 -0.001656 -0.002368 0.008486 0.000000 -0.001261 0.000000
# 4 0.000000 0.000000 0.000000 0.082604 0.000000 -0.058912
# 5 -0.008993 -0.005583 -0.001261 0.000000 0.045481 0.000000
# 6 0.000000 0.000000 0.000000 -0.058912 0.000000 0.082409
#
#
# Mechanical properties :
#
#
# Convention : Reuss Voigt Hill
#
# Bulk Modulus (GPa) = 39.48812 52.94933 46.21872
# Shear Modulus (GPa) = 19.72531 35.65886 27.69208
#
# Velocity S-wave (km/s) = 2.86186 3.84787 3.39089
# Velocity P-wave (km/s) = 5.22651 6.45963 5.87551
#
# Compressibility (1/GPa) = 0.02532408
#
# Stress axis : x y z
#
# Youngs Moduli (GPa) = 86.59128 100.99679 117.84589
#
# Poissons Ratio (x) = -0.17358 0.19520
# Poissons Ratio (y) = -0.14882 0.27906
# Poissons Ratio (z) = 0.14343 0.23916
#
# Static dielectric constant tensor:
#      x y z
#    x 1.988820 0.000000 -0.032200 
#    y 0.000000 1.954770 0.000000 
#    z -0.032200 0.000000 1.998340 
# 
# From -- ./inp_files/52766.got.cif
#   From: 2010.05.17/outbox.cif.g08.bks.cpg/sg12_27_cif.got.tgz:52766.got - 2010.06.03 13:09:07.
