data_PCOD9175827
_publ_section_title
;
Structure prediction by ZEFSAII (Michael W. Deem and Ramdas Pophale) SiO2 
 PCOD9175827
Probable space group: C 2/M
;
_chemical_formula_sum "Si O2"
_cell_formula_units_Z 56
_cell_length_a 9.401101
_cell_length_b 17.215981
_cell_length_c 25.081258
_cell_angle_alpha 90.000000
_cell_angle_beta 41.888857
_cell_angle_gamma 90.000000
_cell_volume 2710.399082
_symmetry_space_group_name_H-M "C 2/M"
_symmetry_group_IT_number 12
_symmetry_cell_setting 'monoclinic'
loop_
_space_group_symop_operation_xyz
x,y,z
-x,y,-z
-x,-y,-z
x,-y,z
1/2+x,1/2+y,z
1/2-x,1/2+y,-z
1/2-x,1/2-y,-z
1/2+x,1/2-y,z
loop_
_atom_site_type_symbol
_atom_site_label
_atom_site_fract_x
_atom_site_fract_y
_atom_site_fract_z
Si Si1 0.883182 0.795781 0.307643
Si Si2 0.494175 0.088584 0.423742
Si Si3 0.460172 0.592191 0.450906
Si Si4 0.582685 0.123801 0.675464
Si Si5 0.339621 0.200498 0.208060
Si Si6 0.515409 0.278204 0.055364
Si Si7 0.706490 0.910079 0.146394
O O1 0.685969 0.851121 0.375596
O O2 0.899936 0.716042 0.336172
O O3 0.860583 0.760905 0.252813
O O4 0.105717 0.835398 0.262917
O O5 0.265312 0.119219 0.510000
O O6 0.446074 0.085578 0.373661
O O7 0.542812 0.000000 0.427895
O O8 0.500000 0.624116 0.500000
O O9 0.428730 0.500000 0.464193
O O10 0.690338 0.603488 0.360302
O O11 0.389856 0.099037 0.767050
O O12 0.376268 0.243724 0.141913
O O13 0.530436 0.139065 0.162529
O O14 0.432936 0.367041 0.077943
O O15 0.500000 0.247697 0.000000
O O16 0.750000 0.250000 0.000000
O O17 0.715174 0.000000 0.129618
#
# Coordination Sequence:
#
# PCOD9175827 Si02
#       7
#     8   8   8   8   8   8   8
#     4  11  20  35  59  84 119 153 194 246 279 351
#     4  10  19  32  53  82 116 155 198 246 293 334
#     4   8  15  28  48  78 114 151 195 243 291 340
#     4  10  18  33  58  82 114 154 200 239 287 348
#     4  11  21  40  60  90 116 153 197 232 287 350
#     4  12  22  40  65  89 115 157 188 228 291 357
#     4  11  23  38  63  91 118 151 195 242 287 341
#
# _framework density 20.661163999999999
#
# number of rings (size 3 to 8) (size 9 to 14) (size 15 to 20)
#    0.000    1.571    5.714    2.143    0.000    1.429 
#    0.000    0.000    0.000    3.429    0.000    9.000 
#    0.000    0.000    0.000    0.000    0.000    0.000 
#
# Total GULP energy -155921.363744 kJ/mol
# GULP energy per Si atom -5568.620134 kJ/mol
# Density = 2.061414 g / cm^3
# Si number density = 20.661164 Si / 1000 Ang^3
#
#
#
# Elastic Constant Matrix: (Units=GPa)
#
#
# Indices 1 2 3 4 5 6 
#
# 1 108.0414 39.2093 42.8334 0.0006 -10.5866 -0.0003
# 2 39.2093 105.0795 19.7820 0.0017 -22.2975 -0.0001
# 3 42.8334 19.7820 77.8575 0.0041 -20.2729 0.0008
# 4 0.0006 0.0017 0.0041 20.4256 0.0003 -14.5288
# 5 -10.5866 -22.2975 -20.2729 0.0003 45.3446 -0.0005
# 6 -0.0003 -0.0001 0.0008 -14.5288 -0.0005 13.4594
#
#
#
# Elastic Compliance Matrix: (Units=1/GPa)
#
#
# Indices 1 2 3 4 5 6 
#
# 1 0.013216 -0.004072 -0.006739 0.000007 -0.001930 0.000008
# 2 -0.004072 0.012041 0.000538 -0.000004 0.005210 -0.000004
# 3 -0.006739 0.000538 0.018192 -0.000018 0.006824 -0.000021
# 4 0.000007 -0.000004 -0.000018 0.210858 -0.000007 0.227610
# 5 -0.001930 0.005210 0.006824 -0.000007 0.027216 -0.000007
# 6 0.000008 -0.000004 -0.000021 0.227610 -0.000007 0.319992
#
#
# Mechanical properties :
#
#
# Convention : Reuss Voigt Hill
#
# Bulk Modulus (GPa) = 43.66428 54.95865 49.31146
# Shear Modulus (GPa) = 7.94037 28.45616 18.19827
#
# Velocity S-wave (km/s) = 1.96252 3.71520 2.97104
# Velocity P-wave (km/s) = 5.12978 6.71277 5.97394
#
# Compressibility (1/GPa) = 0.02290202
#
# Stress axis : x y z
#
# Youngs Moduli (GPa) = 75.66557 83.05289 54.97060
#
# Poissons Ratio (x) = 0.33822 0.37042
# Poissons Ratio (y) = 0.30813 -0.02957
# Poissons Ratio (z) = 0.50988 -0.04467
#
# Static dielectric constant tensor:
#      x y z
#    x 1.759760 0.000000 -0.041310 
#    y 0.000000 1.730610 0.000000 
#    z -0.041310 0.000000 2.046520 
# 
# From -- ./inp_files/356653.got.cif
#   From: 2010.05.17/outbox.cif.g08.bks.cpg/sg12_179_cif.got.tgz:356653.got - 2010.06.03 13:09:07.
