data_PCOD9175300
_publ_section_title
;
Structure prediction by ZEFSAII (Michael W. Deem and Ramdas Pophale) SiO2 
 PCOD9175300
Probable space group: C 2/M
;
_chemical_formula_sum "Si O2"
_cell_formula_units_Z 56
_cell_length_a 22.432818
_cell_length_b 11.780652
_cell_length_c 18.701165
_cell_angle_alpha 90.000000
_cell_angle_beta 144.995963
_cell_angle_gamma 90.000000
_cell_volume 2835.024532
_symmetry_space_group_name_H-M "C 2/M"
_symmetry_group_IT_number 12
_symmetry_cell_setting 'monoclinic'
loop_
_space_group_symop_operation_xyz
x,y,z
-x,y,-z
-x,-y,-z
x,-y,z
1/2+x,1/2+y,z
1/2-x,1/2+y,-z
1/2-x,1/2-y,-z
1/2+x,1/2-y,z
loop_
_atom_site_type_symbol
_atom_site_label
_atom_site_fract_x
_atom_site_fract_y
_atom_site_fract_z
Si Si1 0.155013 0.630705 0.061542
Si Si2 0.632387 0.371128 0.808252
Si Si3 0.212128 0.628146 0.282716
Si Si4 0.613943 0.872070 0.417038
Si Si5 0.980181 0.236250 0.176301
Si Si6 0.169594 0.873712 0.314722
Si Si7 0.947487 0.805009 0.524616
O O1 0.132567 0.500000 0.019318
O O2 0.265901 0.663417 0.135895
O O3 0.167229 0.633890 0.158464
O O4 0.068494 0.709919 0.941925
O O5 0.648038 0.500000 0.847644
O O6 0.607417 0.294900 0.852113
O O7 0.533159 0.366696 0.657867
O O8 0.182827 0.500000 0.282929
O O9 0.180843 0.751382 0.285600
O O10 0.338269 0.631228 0.405830
O O11 0.557758 0.820437 0.293865
O O12 0.739123 0.868523 0.536381
O O13 0.582272 0.804089 0.457052
O O14 0.579997 0.000000 0.391985
O O15 0.054009 0.130409 0.232026
O O16 0.185465 0.000000 0.295023
O O17 0.000000 0.780621 0.500000
#
# Coordination Sequence:
#
# PCOD9175300 Si02
#       7
#     8   8   8   8   8   8   8
#     4  10  21  36  56  82 116 149 186 239 286 338
#     4  10  20  34  55  83 114 146 186 239 288 337
#     4  10  21  37  60  90 117 149 193 239 288 338
#     4   9  20  36  55  82 115 150 190 238 287 342
#     4  11  21  36  57  81 111 154 195 232 281 344
#     4  10  22  41  61  84 116 150 192 243 291 341
#     4  10  18  32  58  86 115 146 187 239 291 337
#
# _framework density 19.752915000000002
#
# number of rings (size 3 to 8) (size 9 to 14) (size 15 to 20)
#    0.000    2.000    1.429    2.143    0.000    2.571 
#    0.000    7.143    0.000    0.857    0.000    0.000 
#    0.000    0.000    0.000    0.000    0.000    0.000 
#
# Total GULP energy -156037.222491 kJ/mol
# GULP energy per Si atom -5572.757946 kJ/mol
# Density = 1.970796 g / cm^3
# Si number density = 19.752915 Si / 1000 Ang^3
#
#
#
# Elastic Constant Matrix: (Units=GPa)
#
#
# Indices 1 2 3 4 5 6 
#
# 1 23.2204 27.9549 2.2625 0.0000 -0.1147 0.0000
# 2 27.9549 133.6828 42.0909 0.0000 -5.8883 0.0000
# 3 2.2625 42.0909 66.8578 0.0000 -14.3329 0.0000
# 4 0.0000 0.0000 0.0000 5.7527 0.0000 -5.0861
# 5 -0.1147 -5.8883 -14.3329 0.0000 24.0364 0.0000
# 6 0.0000 0.0000 0.0000 -5.0861 0.0000 11.3125
#
#
#
# Elastic Compliance Matrix: (Units=1/GPa)
#
#
# Indices 1 2 3 4 5 6 
#
# 1 0.060354 -0.014973 0.007636 0.000000 0.001173 0.000000
# 2 -0.014973 0.013085 -0.008094 0.000000 -0.001692 0.000000
# 3 0.007636 -0.008094 0.022217 0.000000 0.011302 0.000000
# 4 0.000000 0.000000 0.000000 0.288522 0.000000 0.129721
# 5 0.001173 -0.001692 0.011302 0.000000 0.047934 0.000000
# 6 0.000000 0.000000 0.000000 0.129721 0.000000 0.146721
#
#
# Mechanical properties :
#
#
# Convention : Reuss Voigt Hill
#
# Bulk Modulus (GPa) = 15.43382 40.93085 28.18234
# Shear Modulus (GPa) = 7.92024 18.31716 13.11870
#
# Velocity S-wave (km/s) = 2.00458 3.04849 2.57989
# Velocity P-wave (km/s) = 3.63156 5.75825 4.81382
#
# Compressibility (1/GPa) = 0.06479275
#
# Stress axis : x y z
#
# Youngs Moduli (GPa) = 16.56902 76.42069 45.00990
#
# Poissons Ratio (x) = 1.14426 -0.34368
# Poissons Ratio (y) = 0.24809 0.36432
# Poissons Ratio (z) = -0.12651 0.61856
#
# Static dielectric constant tensor:
#      x y z
#    x 1.726620 0.000000 0.037450 
#    y 0.000000 1.711260 0.000000 
#    z 0.037450 0.000000 1.680660 
# 
# From -- ./inp_files/174500.got.cif
#   From: 2010.05.17/outbox.cif.g08.bks.cpg/sg12_88_cif.got.tgz:174500.got - 2010.06.03 13:09:07.
