data_PCOD9175182
_publ_section_title
;
Structure prediction by ZEFSAII (Michael W. Deem and Ramdas Pophale) SiO2 
 PCOD9175182
Probable space group: C 2/M
;
_chemical_formula_sum "Si O2"
_cell_formula_units_Z 64
_cell_length_a 27.108226
_cell_length_b 11.400320
_cell_length_c 22.137122
_cell_angle_alpha 90.000000
_cell_angle_beta 28.257199
_cell_angle_gamma 90.000000
_cell_volume 3238.883956
_symmetry_space_group_name_H-M "C 2/M"
_symmetry_group_IT_number 12
_symmetry_cell_setting 'monoclinic'
loop_
_space_group_symop_operation_xyz
x,y,z
-x,y,-z
-x,-y,-z
x,-y,z
1/2+x,1/2+y,z
1/2-x,1/2+y,-z
1/2-x,1/2-y,-z
1/2+x,1/2-y,z
loop_
_atom_site_type_symbol
_atom_site_label
_atom_site_fract_x
_atom_site_fract_y
_atom_site_fract_z
Si Si1 0.961760 0.262127 0.219588
Si Si2 0.747928 0.137226 0.599237
Si Si3 0.666872 0.206993 0.169880
Si Si4 0.729513 0.367253 0.283545
Si Si5 0.481110 0.363890 0.316612
Si Si6 0.878032 0.631116 0.646686
Si Si7 0.656934 0.122894 0.050319
Si Si8 0.450062 0.133449 0.988833
O O1 0.841209 0.293152 0.340227
O O2 0.982213 0.155068 0.242833
O O3 0.033950 0.359857 0.174245
O O4 0.010801 0.269463 0.100021
O O5 0.731180 0.142028 0.689532
O O6 0.866094 0.178575 0.460282
O O7 0.742275 0.000000 0.587379
O O8 0.572987 0.294221 0.250965
O O9 0.641372 0.148098 0.260706
O O10 0.678644 0.126957 0.098054
O O11 0.775556 0.277036 0.053857
O O12 0.680608 0.500000 0.331600
O O13 0.665622 0.249572 0.337627
O O14 0.827431 0.365803 0.132963
O O15 0.490736 0.500000 0.321440
O O16 0.836476 0.500000 0.673994
O O17 0.000000 0.629467 0.500000
O O18 0.691019 0.000000 0.987184
O O19 0.481344 0.000000 0.935489
O O20 0.500000 0.152298 0.000000
#
# Coordination Sequence:
#
# PCOD9175182 Si02
#       8
#     8   8   8   8   8   8   8   8
#     4  11  20  33  54  83 117 146 183 228 292 355
#     4  10  19  35  58  83 113 148 192 245 291 339
#     4  10  21  38  58  81 110 151 194 238 290 351
#     4  10  21  37  61  91 117 151 201 249 295 346
#     4  10  22  37  55  81 114 153 194 241 293 345
#     4  11  24  41  60  85 121 161 198 241 297 359
#     4  10  20  34  57  86 111 140 186 245 296 338
#     4  10  18  32  56  85 114 146 188 244 294 337
#
# _framework density 19.759893000000002
#
# number of rings (size 3 to 8) (size 9 to 14) (size 15 to 20)
#    0.000    1.750    1.250    3.750    0.000    2.250 
#    0.000    5.625    0.000    6.000    0.000    0.000 
#    0.000    0.000    0.000    0.000    0.000    0.000 
#
# Total GULP energy -178333.145784 kJ/mol
# GULP energy per Si atom -5572.910806 kJ/mol
# Density = 1.971492 g / cm^3
# Si number density = 19.759893 Si / 1000 Ang^3
#
#
#
# Elastic Constant Matrix: (Units=GPa)
#
#
# Indices 1 2 3 4 5 6 
#
# 1 67.8273 26.0790 0.4188 0.0000 -3.1215 0.0000
# 2 26.0790 92.7642 15.2875 -0.0003 -17.9382 0.0000
# 3 0.4188 15.2875 71.3243 -0.0001 -4.2602 0.0000
# 4 0.0000 -0.0003 -0.0001 -150.6988 0.0001 44.7567
# 5 -3.1215 -17.9382 -4.2602 0.0001 37.6252 0.0000
# 6 0.0000 0.0000 0.0000 44.7567 0.0000 5.1678
#
#
#
# Elastic Compliance Matrix: (Units=1/GPa)
#
#
# Indices 1 2 3 4 5 6 
#
# 1 0.016618 -0.004997 0.000920 0.000000 -0.000900 0.000000
# 2 -0.004997 0.013738 -0.002566 0.000000 0.005845 0.000000
# 3 0.000920 -0.002566 0.014595 0.000000 0.000505 0.000000
# 4 0.000000 0.000000 0.000000 -0.001858 0.000000 0.016088
# 5 -0.000900 0.005845 0.000505 0.000000 0.029347 0.000000
# 6 0.000000 0.000000 0.000000 0.016088 0.000000 0.054170
#
#
# Mechanical properties :
#
#
# Convention : Reuss Voigt Hill
#
# Bulk Modulus (GPa) = 31.58198 35.05406 33.31802
# Shear Modulus (GPa) = 33.23311 -8.90579 12.16366
#
# Velocity S-wave (km/s) = 4.10548 -2.12527 2.48377
# Velocity P-wave (km/s) = 6.20410 3.42872 5.01234
#
# Compressibility (1/GPa) = 0.03166363
#
# Stress axis : x y z
#
# Youngs Moduli (GPa) = 60.17691 72.79068 68.51533
#
# Poissons Ratio (x) = 0.36376 -0.06302
# Poissons Ratio (y) = 0.30072 0.17582
# Poissons Ratio (z) = -0.05535 0.18679
#
# Static dielectric constant tensor:
#      x y z
#    x 1.712770 0.000000 0.004720 
#    y 0.000000 1.704920 0.000000 
#    z 0.004720 0.000000 1.715210 
# 
# From -- ./inp_files/327786.got.cif
#   From: 2010.05.17/outbox.cif.g08.bks.cpg/sg12_164_cif.got.tgz:327786.got - 2010.06.03 13:09:07.
