data_PCOD9175670
_publ_section_title
;
Structure prediction by ZEFSAII (Michael W. Deem and Ramdas Pophale) SiO2 
 PCOD9175670
Probable space group: C 2/M
;
_chemical_formula_sum "Si O2"
_cell_formula_units_Z 60
_cell_length_a 20.298589
_cell_length_b 20.870602
_cell_length_c 15.192655
_cell_angle_alpha 90.000000
_cell_angle_beta 148.702340
_cell_angle_gamma 90.000000
_cell_volume 3343.542575
_symmetry_space_group_name_H-M "C 2/M"
_symmetry_group_IT_number 12
_symmetry_cell_setting 'monoclinic'
loop_
_space_group_symop_operation_xyz
x,y,z
-x,y,-z
-x,-y,-z
x,-y,z
1/2+x,1/2+y,z
1/2-x,1/2+y,-z
1/2-x,1/2-y,-z
1/2+x,1/2-y,z
loop_
_atom_site_type_symbol
_atom_site_label
_atom_site_fract_x
_atom_site_fract_y
_atom_site_fract_z
Si Si1 0.771497 0.230305 0.808356
Si Si2 0.336309 0.572475 0.149279
Si Si3 0.291036 0.423440 0.655658
Si Si4 0.000000 0.158747 0.000000
Si Si5 0.871494 0.924260 0.551081
Si Si6 0.430344 0.155704 0.515762
Si Si7 0.644149 0.359245 0.651984
Si Si8 0.314724 0.185066 0.109921
O O1 0.912038 0.207805 0.952293
O O2 0.672687 0.211460 0.619049
O O3 0.743593 0.304525 0.792171
O O4 0.731590 0.185810 0.843170
O O5 0.297832 0.500000 0.086631
O O6 0.475799 0.583858 0.267092
O O7 0.349688 0.584281 0.269168
O O8 0.239779 0.624208 0.002151
O O9 0.306863 0.500000 0.682787
O O10 0.304436 0.407677 0.566694
O O11 0.157271 0.401074 0.545412
O O12 0.404390 0.385943 0.835203
O O13 0.834734 0.883989 0.422614
O O14 0.849902 0.000000 0.509237
O O15 0.500000 0.141968 0.500000
O O16 0.534273 0.179862 0.704865
O O17 0.500000 0.332522 0.500000
O O18 0.250000 0.250000 0.000000
#
# Coordination Sequence:
#
# PCOD9175670 Si02
#       8
#     8   8   8   4   8   8   8   8
#     4  10  20  37  56  81 113 150 185 235 286 346
#     4  10  20  33  55  86 114 147 194 241 283 336
#     4  10  20  38  60  82 113 153 191 237 295 348
#     4  10  21  38  54  84 115 140 196 244 284 348
#     4   9  19  34  54  82 114 148 190 234 286 343
#     4   9  21  37  56  82 111 142 188 233 283 347
#     4  10  18  33  56  79 112 153 190 235 290 336
#     4  11  20  35  57  83 113 149 188 230 287 338
#
# _framework density 17.945038
#
# number of rings (size 3 to 8) (size 9 to 14) (size 15 to 20)
#    0.000    2.133    1.333    2.600    1.867    2.400 
#    2.400    8.000    0.000    0.000    0.000    3.733 
#    0.000    0.000    0.000    0.000    0.000    0.000 
#
# Total GULP energy -167018.323377 kJ/mol
# GULP energy per Si atom -5567.277446 kJ/mol
# Density = 1.790419 g / cm^3
# Si number density = 17.945038 Si / 1000 Ang^3
#
#
#
# Elastic Constant Matrix: (Units=GPa)
#
#
# Indices 1 2 3 4 5 6 
#
# 1 80.7578 17.7310 23.5925 0.0000 8.8243 0.0000
# 2 17.7310 68.4520 31.7043 0.0000 6.3027 0.0000
# 3 23.5925 31.7043 85.9230 0.0000 6.6737 0.0000
# 4 0.0000 0.0000 0.0000 22.1012 0.0000 -0.1236
# 5 8.8243 6.3027 6.6737 0.0000 23.0453 0.0000
# 6 0.0000 0.0000 0.0000 -0.1236 0.0000 25.7455
#
#
#
# Elastic Compliance Matrix: (Units=1/GPa)
#
#
# Indices 1 2 3 4 5 6 
#
# 1 0.014081 -0.001966 -0.002827 0.000000 -0.004035 0.000000
# 2 -0.001966 0.018100 -0.005947 0.000000 -0.002475 0.000000
# 3 -0.002827 -0.005947 0.014730 0.000000 -0.001557 0.000000
# 4 0.000000 0.000000 0.000000 0.045248 0.000000 0.000217
# 5 -0.004035 -0.002475 -0.001557 0.000000 0.046066 0.000000
# 6 0.000000 0.000000 0.000000 0.000217 0.000000 0.038843
#
#
# Mechanical properties :
#
#
# Convention : Reuss Voigt Hill
#
# Bulk Modulus (GPa) = 39.32254 42.35426 40.83840
# Shear Modulus (GPa) = 24.15166 24.98540 24.56853
#
# Velocity S-wave (km/s) = 3.67259 3.73544 3.70415
# Velocity P-wave (km/s) = 6.32014 6.50063 6.41102
#
# Compressibility (1/GPa) = 0.02543070
#
# Stress axis : x y z
#
# Youngs Moduli (GPa) = 71.01571 55.24787 67.88982
#
# Poissons Ratio (x) = 0.10864 0.19195
# Poissons Ratio (y) = 0.13964 0.40371
# Poissons Ratio (z) = 0.20079 0.32853
#
# Static dielectric constant tensor:
#      x y z
#    x 1.740340 0.000000 -0.042430 
#    y 0.000000 1.625380 0.000000 
#    z -0.042430 0.000000 1.673660 
# 
# From -- ./inp_files/235193.got.cif
#   From: 2010.05.17/outbox.cif.g08.bks.cpg/sg12_118_cif.got.tgz:235193.got - 2010.06.03 13:09:07.
