data_PCOD9175593
_publ_section_title
;
Structure prediction by ZEFSAII (Michael W. Deem and Ramdas Pophale) SiO2 
 PCOD9175593
Probable space group: C 2/M
;
_chemical_formula_sum "Si O2"
_cell_formula_units_Z 64
_cell_length_a 17.834347
_cell_length_b 7.466488
_cell_length_c 20.017641
_cell_angle_alpha 90.000000
_cell_angle_beta 100.013532
_cell_angle_gamma 90.000000
_cell_volume 2624.942778
_symmetry_space_group_name_H-M "C 2/M"
_symmetry_group_IT_number 12
_symmetry_cell_setting 'monoclinic'
loop_
_space_group_symop_operation_xyz
x,y,z
-x,y,-z
-x,-y,-z
x,-y,z
1/2+x,1/2+y,z
1/2-x,1/2+y,-z
1/2-x,1/2-y,-z
1/2+x,1/2-y,z
loop_
_atom_site_type_symbol
_atom_site_label
_atom_site_fract_x
_atom_site_fract_y
_atom_site_fract_z
Si Si1 0.295375 0.790219 0.391460
Si Si2 0.892044 0.711706 0.270943
Si Si3 0.916968 0.280478 0.515619
Si Si4 0.017873 0.208139 0.081012
Si Si5 0.688229 0.710278 0.274751
Si Si6 0.443087 0.784349 0.667044
Si Si7 0.359648 0.697923 0.117161
Si Si8 0.692947 0.285174 0.128157
O O1 0.339121 0.775454 0.327477
O O2 0.347355 0.716165 0.458459
O O3 0.217864 0.709218 0.350102
O O4 0.283553 0.000000 0.407032
O O5 0.895825 0.500000 0.255255
O O6 0.870447 0.801679 0.198689
O O7 0.971510 0.778259 0.310815
O O8 0.915385 0.500000 0.513291
O O9 0.912806 0.218820 0.591024
O O10 0.000000 0.230341 0.500000
O O11 0.105858 0.279313 0.100328
O O12 0.939558 0.285118 0.102873
O O13 0.022449 0.000000 0.105141
O O14 0.000000 0.211939 0.000000
O O15 0.708315 0.500000 0.277393
O O16 0.599181 0.726375 0.272622
O O17 0.709822 0.783382 0.206325
O O18 0.444402 0.000000 0.664233
O O19 0.361247 0.500000 0.087024
O O20 0.269878 0.753983 0.096263
O O21 0.687623 0.500000 0.129998
#
# Coordination Sequence:
#
# PCOD9175593 Si02
#       8
#     8   8   8   8   8   8   8   8
#     4   9  16  29  50  71  96 134 177 215 259 326
#     4  10  18  33  55  78 104 139 182 224 271 330
#     4   9  15  27  48  73  97 128 176 228 274 325
#     4   9  20  39  61  87 121 159 193 224 270 339
#     4  10  20  34  51  73 106 145 179 214 271 340
#     4  10  20  31  51  79 103 132 180 238 282 321
#     4  11  22  36  60  91 118 147 189 240 284 325
#     4  10  20  38  63  86 114 155 196 230 275 342
#
# _framework density 24.381482999999999
#
# number of rings (size 3 to 8) (size 9 to 14) (size 15 to 20)
#    0.000    2.250    2.500    1.125    0.000    3.000 
#    0.000    1.250    0.000    3.750    0.000    0.000 
#    0.000    0.000    0.000    0.000    0.000    0.000 
#
# Total GULP energy -178182.131749 kJ/mol
# GULP energy per Si atom -5568.191617 kJ/mol
# Density = 2.432599 g / cm^3
# Si number density = 24.381483 Si / 1000 Ang^3
#
#
#
# Elastic Constant Matrix: (Units=GPa)
#
#
# Indices 1 2 3 4 5 6 
#
# 1 163.2342 17.0507 43.9824 0.0000 -5.1043 0.0000
# 2 17.0507 61.1787 3.9850 0.0000 -2.7002 0.0000
# 3 43.9824 3.9850 59.8365 0.0000 2.7127 0.0000
# 4 0.0000 0.0000 0.0000 -5.5030 0.0000 -11.3578
# 5 -5.1043 -2.7002 2.7127 0.0000 35.9613 0.0000
# 6 0.0000 0.0000 0.0000 -11.3578 0.0000 9.8906
#
#
#
# Elastic Compliance Matrix: (Units=1/GPa)
#
#
# Indices 1 2 3 4 5 6 
#
# 1 0.007907 -0.001766 -0.005759 0.000000 0.001424 0.000000
# 2 -0.001766 0.016874 0.000128 0.000000 0.001007 0.000000
# 3 -0.005759 0.000128 0.021045 0.000000 -0.002395 0.000000
# 4 0.000000 0.000000 0.000000 -0.053921 0.000000 -0.061920
# 5 0.001424 0.001007 -0.002395 0.000000 0.028266 0.000000
# 6 0.000000 0.000000 0.000000 -0.061920 0.000000 0.030001
#
#
# Mechanical properties :
#
#
# Convention : Reuss Voigt Hill
#
# Bulk Modulus (GPa) = 32.22309 46.03174 39.12742
# Shear Modulus (GPa) = 66.39376 22.68520 44.53948
#
# Velocity S-wave (km/s) = 5.22402 3.05360 4.27872
# Velocity P-wave (km/s) = 7.04500 5.59941 6.36339
#
# Compressibility (1/GPa) = 0.03103364
#
# Stress axis : x y z
#
# Youngs Moduli (GPa) = 126.47335 59.26376 47.51675
#
# Poissons Ratio (x) = 0.10464 0.27364
# Poissons Ratio (y) = 0.22331 -0.00610
# Poissons Ratio (z) = 0.72834 -0.00761
#
# Static dielectric constant tensor:
#      x y z
#    x 2.070570 0.000000 0.031270 
#    y 0.000000 1.935190 0.000000 
#    z 0.031270 0.000000 1.887850 
# 
# From -- ./inp_files/314068.got.cif
#   From: 2010.05.17/outbox.cif.g08.bks.cpg/sg12_158_cif.got.tgz:314068.got - 2010.06.03 13:09:07.
