data_PCOD9175427
_publ_section_title
;
Structure prediction by ZEFSAII (Michael W. Deem and Ramdas Pophale) SiO2 
 PCOD9175427
Probable space group: C 2/M
;
_chemical_formula_sum "Si O2"
_cell_formula_units_Z 64
_cell_length_a 27.155374
_cell_length_b 7.689535
_cell_length_c 15.061759
_cell_angle_alpha 90.000000
_cell_angle_beta 118.854328
_cell_angle_gamma 90.000000
_cell_volume 2754.615839
_symmetry_space_group_name_H-M "C 2/M"
_symmetry_group_IT_number 12
_symmetry_cell_setting 'monoclinic'
loop_
_space_group_symop_operation_xyz
x,y,z
-x,y,-z
-x,-y,-z
x,-y,z
1/2+x,1/2+y,z
1/2-x,1/2+y,-z
1/2-x,1/2-y,-z
1/2+x,1/2-y,z
loop_
_atom_site_type_symbol
_atom_site_label
_atom_site_fract_x
_atom_site_fract_y
_atom_site_fract_z
Si Si1 0.021892 0.211776 0.923117
Si Si2 0.774608 0.301769 0.885536
Si Si3 0.832417 0.802587 0.765218
Si Si4 0.575927 0.711919 0.297872
Si Si5 0.628087 0.296298 0.913024
Si Si6 0.103244 0.805929 0.513943
Si Si7 0.280883 0.806872 0.439079
Si Si8 0.352170 0.286005 0.263832
O O1 0.082529 0.274988 0.942720
O O2 0.978573 0.255356 0.806810
O O3 0.022996 0.000000 0.930997
O O4 0.000000 0.274659 0.000000
O O5 0.763926 0.500000 0.900476
O O6 0.820569 0.293441 0.846178
O O7 0.713940 0.231494 0.799960
O O8 0.808331 0.218490 0.996168
O O9 0.872232 0.732700 0.721309
O O10 0.769777 0.811473 0.673020
O O11 0.852746 0.000000 0.803936
O O12 0.580706 0.500000 0.308402
O O13 0.576340 0.773676 0.400671
O O14 0.615420 0.500000 0.894828
O O15 0.622978 0.227807 0.808720
O O16 0.168705 0.816550 0.542096
O O17 0.112005 0.724310 0.619464
O O18 0.078786 0.000000 0.504219
O O19 0.250000 0.750000 0.500000
O O20 0.305130 0.000000 0.468943
O O21 0.352400 0.500000 0.270118
#
# Coordination Sequence:
#
# PCOD9175427 Si02
#       8
#     8   8   8   8   8   8   8   8
#     4   9  17  31  54  79 101 129 171 221 263 306
#     4  11  21  33  51  76 105 138 173 211 264 316
#     4  10  19  31  49  75 105 139 175 209 251 307
#     4   9  17  30  51  78 103 135 175 213 257 306
#     4  10  20  36  55  75 101 134 176 220 263 313
#     4  10  18  33  51  72 107 142 172 214 261 310
#     4  11  20  30  47  73 106 145 180 210 253 307
#     4   9  19  33  51  75 105 139 169 212 268 312
#
# _framework density 23.233729
#
# number of rings (size 3 to 8) (size 9 to 14) (size 15 to 20)
#    0.000    2.125    2.500    1.875    0.000    2.500 
#    0.000    1.875    0.000    7.875    0.000    0.000 
#    0.000    2.000    0.000    0.000    0.000    0.000 
#
# Total GULP energy -178406.014979 kJ/mol
# GULP energy per Si atom -5575.187968 kJ/mol
# Density = 2.318085 g / cm^3
# Si number density = 23.233729 Si / 1000 Ang^3
#
#
#
# Elastic Constant Matrix: (Units=GPa)
#
#
# Indices 1 2 3 4 5 6 
#
# 1 81.7727 3.8986 59.6691 0.0000 -13.2860 0.0000
# 2 3.8986 44.0628 8.3114 0.0000 -3.5015 0.0000
# 3 59.6691 8.3114 186.4322 0.0000 -15.9704 0.0000
# 4 0.0000 0.0000 0.0000 1.6642 0.0000 5.9706
# 5 -13.2860 -3.5015 -15.9704 0.0000 38.9833 0.0000
# 6 0.0000 0.0000 0.0000 5.9706 0.0000 2.5384
#
#
#
# Elastic Compliance Matrix: (Units=1/GPa)
#
#
# Indices 1 2 3 4 5 6 
#
# 1 0.016423 -0.000239 -0.004942 0.000000 0.003551 0.000000
# 2 -0.000239 0.023000 -0.000807 0.000000 0.001654 0.000000
# 3 -0.004942 -0.000807 0.007079 0.000000 0.001144 0.000000
# 4 0.000000 0.000000 0.000000 -0.080780 0.000000 0.190003
# 5 0.003551 0.001654 0.001144 0.000000 0.027479 0.000000
# 6 0.000000 0.000000 0.000000 0.190003 0.000000 -0.052959
#
#
# Mechanical properties :
#
#
# Convention : Reuss Voigt Hill
#
# Bulk Modulus (GPa) = 28.96270 50.66954 39.81612
# Shear Modulus (GPa) = -137.84355 24.66308 -56.59024
#
# Velocity S-wave (km/s) = -7.71089 3.26163 -4.94063
# Velocity P-wave (km/s) = 8.17217 6.00336 3.92071
#
# Compressibility (1/GPa) = 0.03452717
#
# Stress axis : x y z
#
# Youngs Moduli (GPa) = 60.88949 43.47884 141.25485
#
# Poissons Ratio (x) = 0.01038 0.69801
# Poissons Ratio (y) = 0.01454 0.11403
# Poissons Ratio (z) = 0.30089 0.03510
#
# Static dielectric constant tensor:
#      x y z
#    x 1.831440 0.000000 -0.054760 
#    y 0.000000 1.922840 0.000000 
#    z -0.054760 0.000000 1.907700 
# 
# From -- ./inp_files/244170.got.cif
#   From: 2010.05.17/outbox.cif.g08.bks.cpg/sg12_123_cif.got.tgz:244170.got - 2010.06.03 13:09:07.
