data_PCOD9175557
_publ_section_title
;
Structure prediction by ZEFSAII (Michael W. Deem and Ramdas Pophale) SiO2 
 PCOD9175557
Probable space group: C 2/M
;
_chemical_formula_sum "Si O2"
_cell_formula_units_Z 56
_cell_length_a 16.097973
_cell_length_b 16.109180
_cell_length_c 21.594400
_cell_angle_alpha 90.000000
_cell_angle_beta 150.349634
_cell_angle_gamma 90.000000
_cell_volume 2770.339248
_symmetry_space_group_name_H-M "C 2/M"
_symmetry_group_IT_number 12
_symmetry_cell_setting 'monoclinic'
loop_
_space_group_symop_operation_xyz
x,y,z
-x,y,-z
-x,-y,-z
x,-y,z
1/2+x,1/2+y,z
1/2-x,1/2+y,-z
1/2-x,1/2-y,-z
1/2+x,1/2-y,z
loop_
_atom_site_type_symbol
_atom_site_label
_atom_site_fract_x
_atom_site_fract_y
_atom_site_fract_z
Si Si1 0.323583 0.301961 0.390874
Si Si2 0.997218 0.596678 0.202046
Si Si3 0.687927 0.807042 0.016553
Si Si4 0.150222 0.598793 0.766357
Si Si5 0.013144 0.098826 0.230989
Si Si6 0.106642 0.195019 0.162910
Si Si7 0.184775 0.320628 0.505112
O O1 0.500000 0.349319 0.500000
O O2 0.170534 0.354016 0.320179
O O3 0.243929 0.260895 0.278082
O O4 0.364676 0.228053 0.464743
O O5 0.029861 0.500000 0.228813
O O6 0.915892 0.619731 0.084097
O O7 0.868340 0.620464 0.173159
O O8 0.553138 0.748702 0.962625
O O9 0.750000 0.750000 0.000000
O O10 0.851593 0.849528 0.151156
O O11 0.162693 0.500000 0.768476
O O12 0.304135 0.640178 0.830669
O O13 0.975115 0.630832 0.624157
O O14 0.055995 0.138769 0.190694
O O15 0.165764 0.118848 0.376249
O O16 0.984302 0.000000 0.206862
O O17 0.250000 0.250000 0.500000
#
# Coordination Sequence:
#
# PCOD9175557 Si02
#       7
#     8   8   8   8   8   8   8
#     4  10  18  33  54  80 110 154 201 232 277 337
#     4  10  21  35  55  83 116 150 188 237 291 336
#     4   9  19  37  59  79 109 152 200 229 274 343
#     4  11  21  34  56  90 125 151 182 237 300 345
#     4  10  20  35  59  86 113 151 196 243 284 334
#     4   9  19  34  55  86 118 151 192 234 285 347
#     4  11  21  35  56  84 118 154 189 233 288 354
#
# _framework density 20.214130000000001
#
# number of rings (size 3 to 8) (size 9 to 14) (size 15 to 20)
#    0.000    2.000    2.857    2.143    0.000    0.286 
#    0.000    5.000    0.000    7.714    0.000    1.000 
#    0.000    0.000    0.000    0.000    0.000    0.000 
#
# Total GULP energy -156264.708520 kJ/mol
# GULP energy per Si atom -5580.882447 kJ/mol
# Density = 2.016812 g / cm^3
# Si number density = 20.214130 Si / 1000 Ang^3
#
#
#
# Elastic Constant Matrix: (Units=GPa)
#
#
# Indices 1 2 3 4 5 6 
#
# 1 83.5747 44.9194 27.4215 0.0002 22.6699 0.0001
# 2 44.9194 96.2261 40.7406 0.0021 15.2468 0.0005
# 3 27.4215 40.7406 83.5301 0.0063 21.6907 0.0014
# 4 0.0002 0.0021 0.0063 25.6420 0.0008 4.7473
# 5 22.6699 15.2468 21.6907 0.0008 30.7867 0.0001
# 6 0.0001 0.0005 0.0014 4.7473 0.0001 31.3082
#
#
#
# Elastic Compliance Matrix: (Units=1/GPa)
#
#
# Indices 1 2 3 4 5 6 
#
# 1 0.018491 -0.007020 -0.000016 0.000001 -0.010128 0.000000
# 2 -0.007020 0.015912 -0.005816 0.000000 0.001387 0.000000
# 3 -0.000016 -0.005816 0.017212 -0.000003 -0.009234 0.000000
# 4 0.000001 0.000000 -0.000003 0.040125 0.000001 -0.006084
# 5 -0.010128 0.001387 -0.009234 0.000001 0.045758 0.000000
# 6 0.000000 0.000000 0.000000 -0.006084 0.000000 0.032863
#
#
# Mechanical properties :
#
#
# Convention : Reuss Voigt Hill
#
# Bulk Modulus (GPa) = 38.59666 54.38820 46.49243
# Shear Modulus (GPa) = 24.42560 27.56403 25.99482
#
# Velocity S-wave (km/s) = 3.47989 3.69670 3.58994
# Velocity P-wave (km/s) = 5.93983 6.72200 6.34298
#
# Compressibility (1/GPa) = 0.02590898
#
# Stress axis : x y z
#
# Youngs Moduli (GPa) = 54.08014 62.84519 58.09957
#
# Poissons Ratio (x) = 0.44118 0.00095
# Poissons Ratio (y) = 0.37965 0.33793
# Poissons Ratio (z) = 0.00089 0.36554
#
# Static dielectric constant tensor:
#      x y z
#    x 1.741320 0.000000 0.020080 
#    y 0.000000 1.692310 0.000000 
#    z 0.020080 0.000000 1.791480 
# 
# From -- ./inp_files/311756.got.cif
#   From: 2010.05.17/outbox.cif.g08.bks.cpg/sg12_156_cif.got.tgz:311756.got - 2010.06.03 13:09:07.
