data_PCOD9175911
_publ_section_title
;
Structure prediction by ZEFSAII (Michael W. Deem and Ramdas Pophale) SiO2 
 PCOD9175911
Probable space group: C 2/M
;
_chemical_formula_sum "Si O2"
_cell_formula_units_Z 64
_cell_length_a 33.489311
_cell_length_b 7.666110
_cell_length_c 13.846800
_cell_angle_alpha 90.000000
_cell_angle_beta 54.577924
_cell_angle_gamma 90.000000
_cell_volume 2896.926092
_symmetry_space_group_name_H-M "C 2/M"
_symmetry_group_IT_number 12
_symmetry_cell_setting 'monoclinic'
loop_
_space_group_symop_operation_xyz
x,y,z
-x,y,-z
-x,-y,-z
x,-y,z
1/2+x,1/2+y,z
1/2-x,1/2+y,-z
1/2-x,1/2-y,-z
1/2+x,1/2-y,z
loop_
_atom_site_type_symbol
_atom_site_label
_atom_site_fract_x
_atom_site_fract_y
_atom_site_fract_z
Si Si1 0.349045 0.208531 0.792322
Si Si2 0.156403 0.701243 0.981488
Si Si3 0.102030 0.786730 0.705738
Si Si4 0.498666 0.713233 0.781488
Si Si5 0.207425 0.208389 0.483475
Si Si6 0.040964 0.789901 0.368062
Si Si7 0.736543 0.796038 0.226884
Si Si8 0.072676 0.200167 0.957138
O O1 0.403908 0.244433 0.680096
O O2 0.306469 0.275241 0.781900
O O3 0.342847 0.000000 0.805519
O O4 0.344858 0.274794 0.908053
O O5 0.139889 0.500000 0.007638
O O6 0.211565 0.707997 0.865601
O O7 0.119598 0.797103 0.961510
O O8 0.154734 0.725961 0.595040
O O9 0.088579 0.723380 0.832342
O O10 0.055777 0.739999 0.703965
O O11 0.104670 0.000000 0.705087
O O12 0.495857 0.500000 0.786673
O O13 0.471321 0.772955 0.723094
O O14 0.471249 0.776026 0.916784
O O15 0.250000 0.250000 0.500000
O O16 0.220740 0.279781 0.359829
O O17 0.204365 0.000000 0.478629
O O18 0.000000 0.725877 0.500000
O O19 0.037842 0.000000 0.370275
O O20 0.743859 0.000000 0.194375
O O21 0.058543 0.000000 0.955963
#
# Coordination Sequence:
#
# PCOD9175911 Si02
#       8
#     8   8   8   8   8   8   8   8
#     4  10  23  41  60  85 119 155 194 243 299 359
#     4  11  22  38  60  87 117 151 192 243 301 359
#     4   9  19  33  55  85 115 150 194 240 286 339
#     4   9  17  32  54  85 117 147 190 239 285 339
#     4  11  23  40  62  88 121 159 197 244 295 350
#     4  10  21  35  58  89 119 152 194 244 291 346
#     4  11  24  41  61  85 115 153 199 247 295 354
#     4  10  18  33  59  87 115 152 192 237 291 345
#
# _framework density 22.092382000000001
#
# number of rings (size 3 to 8) (size 9 to 14) (size 15 to 20)
#    0.000    1.875    1.250    2.625    1.750    4.250 
#    0.000    0.625    0.000    3.750    0.000    0.000 
#    0.000    0.000    0.000    0.000    0.000    0.000 
#
# Total GULP energy -178887.803544 kJ/mol
# GULP energy per Si atom -5590.243861 kJ/mol
# Density = 2.204210 g / cm^3
# Si number density = 22.092382 Si / 1000 Ang^3
#
#
#
# Elastic Constant Matrix: (Units=GPa)
#
#
# Indices 1 2 3 4 5 6 
#
# 1 104.5236 -9.3239 23.1518 0.0000 -22.8198 0.0000
# 2 -9.3239 47.8640 -8.8481 0.0000 1.6918 0.0000
# 3 23.1518 -8.8481 105.7300 0.0000 -24.5453 0.0000
# 4 0.0000 0.0000 0.0000 16.1215 0.0000 -13.1238
# 5 -22.8198 1.6918 -24.5453 0.0000 42.2079 0.0000
# 6 0.0000 0.0000 0.0000 -13.1238 0.0000 42.3321
#
#
#
# Elastic Compliance Matrix: (Units=1/GPa)
#
#
# Indices 1 2 3 4 5 6 
#
# 1 0.011123 0.001784 -0.001048 0.000000 0.005332 0.000000
# 2 0.001784 0.021509 0.001657 0.000000 0.001066 0.000000
# 3 -0.001048 0.001657 0.011190 0.000000 0.005874 0.000000
# 4 0.000000 0.000000 0.000000 0.082967 0.000000 0.025721
# 5 0.005332 0.001066 0.005874 0.000000 0.029948 0.000000
# 6 0.000000 0.000000 0.000000 0.025721 0.000000 0.031597
#
#
# Mechanical properties :
#
#
# Convention : Reuss Voigt Hill
#
# Bulk Modulus (GPa) = 20.57308 29.78634 25.17971
# Shear Modulus (GPa) = 25.03118 37.00819 31.01968
#
# Velocity S-wave (km/s) = 3.36969 4.09731 3.75118
# Velocity P-wave (km/s) = 4.94695 5.99131 5.49400
#
# Compressibility (1/GPa) = 0.04860720
#
# Stress axis : x y z
#
# Youngs Moduli (GPa) = 89.90563 46.49277 89.36602
#
# Poissons Ratio (x) = -0.08296 0.09368
# Poissons Ratio (y) = -0.16043 -0.14806
# Poissons Ratio (z) = 0.09425 -0.07703
#
# Static dielectric constant tensor:
#      x y z
#    x 1.776050 0.000000 0.004640 
#    y 0.000000 1.864920 0.000000 
#    z 0.004640 0.000000 1.776220 
# 
# From -- ./inp_files/249828.got.cif
#   From: 2010.05.17/outbox.cif.g08.bks.cpg/sg12_125_cif.got.tgz:249828.got - 2010.06.03 13:09:07.
