data_PCOD9175364
_publ_section_title
;
Structure prediction by ZEFSAII (Michael W. Deem and Ramdas Pophale) SiO2 
 PCOD9175364
Probable space group: C 2/M
;
_chemical_formula_sum "Si O2"
_cell_formula_units_Z 36
_cell_length_a 13.652977
_cell_length_b 14.754341
_cell_length_c 10.694598
_cell_angle_alpha 90.000000
_cell_angle_beta 133.526677
_cell_angle_gamma 90.000000
_cell_volume 1562.003019
_symmetry_space_group_name_H-M "C 2/M"
_symmetry_group_IT_number 12
_symmetry_cell_setting 'monoclinic'
loop_
_space_group_symop_operation_xyz
x,y,z
-x,y,-z
-x,-y,-z
x,-y,z
1/2+x,1/2+y,z
1/2-x,1/2+y,-z
1/2-x,1/2-y,-z
1/2+x,1/2-y,z
loop_
_atom_site_type_symbol
_atom_site_label
_atom_site_fract_x
_atom_site_fract_y
_atom_site_fract_z
Si Si1 0.500000 0.644420 0.000000
Si Si2 0.233765 0.396944 0.895010
Si Si3 0.383293 0.897193 0.792533
Si Si4 0.407848 0.256390 0.664988
Si Si5 0.161319 0.197667 0.758109
O O1 0.375436 0.592149 0.947487
O O2 0.444881 0.701830 0.833155
O O3 0.174902 0.500000 0.852393
O O4 0.177546 0.307122 0.774031
O O5 0.269814 0.353453 0.062111
O O6 0.443321 0.848874 0.722495
O O7 0.249208 0.847031 0.726037
O O8 0.347749 0.000000 0.735774
O O9 0.500000 0.893837 0.000000
O O10 0.250000 0.250000 0.500000
O O11 0.500708 0.307565 0.645701
#
# Coordination Sequence:
#
# PCOD9175364 Si02
#       5
#     4   8   8   8   8
#     4  10  19  40  59  88 122 160 211 246 323 368
#     4  10  18  32  60  90 119 160 203 251 311 381
#     4  11  21  40  69  98 127 169 218 268 323 382
#     4  11  23  41  64  89 129 171 209 265 321 380
#     4  10  21  36  59  91 129 163 213 261 320 375
#
# _framework density 23.047329999999999
#
# number of rings (size 3 to 8) (size 9 to 14) (size 15 to 20)
#    0.000    1.556    3.333    3.667    0.000    3.556 
#    0.000    7.778    0.000    1.333    0.000    0.000 
#    0.000    0.000    0.000    0.000    0.000    0.000 
#
# Total GULP energy -100230.289093 kJ/mol
# GULP energy per Si atom -5568.349394 kJ/mol
# Density = 2.299487 g / cm^3
# Si number density = 23.047330 Si / 1000 Ang^3
#
#
#
# Elastic Constant Matrix: (Units=GPa)
#
#
# Indices 1 2 3 4 5 6 
#
# 1 127.0990 33.4174 18.7736 0.0000 0.4850 0.0000
# 2 33.4174 169.1415 19.4953 0.0000 1.3496 0.0000
# 3 18.7736 19.4953 63.3880 0.0000 18.3044 0.0000
# 4 0.0000 0.0000 0.0000 4.7296 0.0000 4.1841
# 5 0.4850 1.3496 18.3044 0.0000 36.9602 0.0000
# 6 0.0000 0.0000 0.0000 4.1841 0.0000 27.0163
#
#
#
# Elastic Compliance Matrix: (Units=1/GPa)
#
#
# Indices 1 2 3 4 5 6 
#
# 1 0.008599 -0.001427 -0.002439 0.000000 0.001147 0.000000
# 2 -0.001427 0.006388 -0.001727 0.000000 0.000641 0.000000
# 3 -0.002439 -0.001727 0.019839 0.000000 -0.009730 0.000000
# 4 0.000000 0.000000 0.000000 0.245004 0.000000 -0.037945
# 5 0.001147 0.000641 -0.009730 0.000000 0.031837 0.000000
# 6 0.000000 0.000000 0.000000 -0.037945 0.000000 0.042891
#
#
# Mechanical properties :
#
#
# Convention : Reuss Voigt Hill
#
# Bulk Modulus (GPa) = 42.30150 55.88901 49.09526
# Shear Modulus (GPa) = 13.38241 32.93736 23.15988
#
# Velocity S-wave (km/s) = 2.41228 3.78447 3.17343
# Velocity P-wave (km/s) = 5.11398 6.58776 5.89709
#
# Compressibility (1/GPa) = 0.02363982
#
# Stress axis : x y z
#
# Youngs Moduli (GPa) = 116.29309 156.54148 50.40518
#
# Poissons Ratio (x) = 0.22337 0.12295
# Poissons Ratio (y) = 0.16594 0.08706
# Poissons Ratio (z) = 0.28366 0.27037
#
# Static dielectric constant tensor:
#      x y z
#    x 1.957350 0.000000 0.109790 
#    y 0.000000 1.928280 0.000000 
#    z 0.109790 0.000000 2.134650 
# 
# From -- ./inp_files/142277.got.cif
#   From: 2010.05.17/outbox.cif.g08.bks.cpg/sg12_72_cif.got.tgz:142277.got - 2010.06.03 13:09:07.
