data_PCOD9175871
_publ_section_title
;
Structure prediction by ZEFSAII (Michael W. Deem and Ramdas Pophale) SiO2 
 PCOD9175871
Probable space group: C 2/M
;
_chemical_formula_sum "Si O2"
_cell_formula_units_Z 48
_cell_length_a 16.202191
_cell_length_b 13.476622
_cell_length_c 15.850202
_cell_angle_alpha 90.000000
_cell_angle_beta 137.015928
_cell_angle_gamma 90.000000
_cell_volume 2359.627348
_symmetry_space_group_name_H-M "C 2/M"
_symmetry_group_IT_number 12
_symmetry_cell_setting 'monoclinic'
loop_
_space_group_symop_operation_xyz
x,y,z
-x,y,-z
-x,-y,-z
x,-y,z
1/2+x,1/2+y,z
1/2-x,1/2+y,-z
1/2-x,1/2-y,-z
1/2+x,1/2-y,z
loop_
_atom_site_type_symbol
_atom_site_label
_atom_site_fract_x
_atom_site_fract_y
_atom_site_fract_z
Si Si1 0.593393 0.883500 0.687953
Si Si2 0.808253 0.203813 0.328730
Si Si3 0.452921 0.116619 0.868954
Si Si4 0.383799 0.734492 0.564869
Si Si5 0.686844 0.119557 0.941106
Si Si6 0.598262 0.382364 0.778548
O O1 0.656378 0.817921 0.663315
O O2 0.462434 0.834647 0.609293
O O3 0.674428 0.865843 0.832353
O O4 0.584947 0.000000 0.664640
O O5 0.667124 0.180440 0.231875
O O6 0.871617 0.180464 0.464832
O O7 0.852763 0.145990 0.278393
O O8 0.562784 0.151646 0.892840
O O9 0.425116 0.000000 0.829806
O O10 0.500000 0.121191 0.000000
O O11 0.250000 0.750000 0.500000
O O12 0.468236 0.668545 0.687892
O O13 0.687928 0.000000 0.954390
O O14 0.804972 0.155065 0.079694
O O15 0.588092 0.500000 0.777496
#
# Coordination Sequence:
#
# PCOD9175871 Si02
#       6
#     8   8   8   8   8   8
#     4  10  22  41  62  81 112 159 204 239 272 332
#     4  11  22  36  58  88 116 148 193 234 280 344
#     4  10  18  33  58  89 121 146 177 230 295 353
#     4  11  25  40  55  86 115 150 199 234 285 349
#     4   9  18  35  60  89 113 146 191 229 288 349
#     4  10  20  37  60  87 119 145 177 237 298 346
#
# _framework density 20.342193999999999
#
# number of rings (size 3 to 8) (size 9 to 14) (size 15 to 20)
#    0.000    1.833    1.667    3.500    0.000    6.667 
#    3.000    0.000    0.000    0.500    0.000    0.000 
#    0.000    0.000    0.000    0.000    0.000    0.000 
#
# Total GULP energy -134074.814928 kJ/mol
# GULP energy per Si atom -5586.450622 kJ/mol
# Density = 2.029589 g / cm^3
# Si number density = 20.342194 Si / 1000 Ang^3
#
#
#
# Elastic Constant Matrix: (Units=GPa)
#
#
# Indices 1 2 3 4 5 6 
#
# 1 59.1772 16.3495 54.2619 0.0000 11.2542 0.0000
# 2 16.3495 104.4251 43.7441 0.0000 19.9383 0.0000
# 3 54.2619 43.7441 166.5224 0.0000 20.5676 0.0000
# 4 0.0000 0.0000 0.0000 22.0438 0.0000 -1.4513
# 5 11.2542 19.9383 20.5676 0.0000 35.4400 0.0000
# 6 0.0000 0.0000 0.0000 -1.4513 0.0000 15.7469
#
#
#
# Elastic Compliance Matrix: (Units=1/GPa)
#
#
# Indices 1 2 3 4 5 6 
#
# 1 0.024470 -0.000024 -0.007551 0.000000 -0.003375 0.000000
# 2 -0.000024 0.011559 -0.002398 0.000000 -0.005104 0.000000
# 3 -0.007551 -0.002398 0.009299 0.000000 -0.001650 0.000000
# 4 0.000000 0.000000 0.000000 0.045641 0.000000 0.004206
# 5 -0.003375 -0.005104 -0.001650 0.000000 0.033117 0.000000
# 6 0.000000 0.000000 0.000000 0.004206 0.000000 0.063892
#
#
# Mechanical properties :
#
#
# Convention : Reuss Voigt Hill
#
# Bulk Modulus (GPa) = 39.39598 62.09286 50.74442
# Shear Modulus (GPa) = 23.10683 29.03074 26.06879
#
# Velocity S-wave (km/s) = 3.37398 3.78182 3.58371
# Velocity P-wave (km/s) = 5.88107 7.04699 6.49026
#
# Compressibility (1/GPa) = 0.02538330
#
# Stress axis : x y z
#
# Youngs Moduli (GPa) = 40.86584 86.51182 107.53387
#
# Poissons Ratio (x) = 0.00206 0.81194
# Poissons Ratio (y) = 0.00097 0.25791
# Poissons Ratio (z) = 0.30856 0.20749
#
# Static dielectric constant tensor:
#      x y z
#    x 1.719910 0.000000 -0.025960 
#    y 0.000000 1.752530 0.000000 
#    z -0.025960 0.000000 1.743640 
# 
# From -- ./inp_files/278224.got.cif
#   From: 2010.05.17/outbox.cif.g08.bks.cpg/sg12_140_cif.got.tgz:278224.got - 2010.06.03 13:09:07.
