data_PCOD9175286
_publ_section_title
;
Structure prediction by ZEFSAII (Michael W. Deem and Ramdas Pophale) SiO2 
 PCOD9175286
Probable space group: C 2/M
;
_chemical_formula_sum "Si O2"
_cell_formula_units_Z 36
_cell_length_a 16.569316
_cell_length_b 13.744171
_cell_length_c 7.100955
_cell_angle_alpha 90.000000
_cell_angle_beta 76.714897
_cell_angle_gamma 90.000000
_cell_volume 1573.835148
_symmetry_space_group_name_H-M "C 2/M"
_symmetry_group_IT_number 12
_symmetry_cell_setting 'monoclinic'
loop_
_space_group_symop_operation_xyz
x,y,z
-x,y,-z
-x,-y,-z
x,-y,z
1/2+x,1/2+y,z
1/2-x,1/2+y,-z
1/2-x,1/2-y,-z
1/2+x,1/2-y,z
loop_
_atom_site_type_symbol
_atom_site_label
_atom_site_fract_x
_atom_site_fract_y
_atom_site_fract_z
Si Si1 0.099611 0.500000 0.936915
Si Si2 0.081771 0.102999 0.331775
Si Si3 0.678526 0.795959 0.293712
Si Si4 0.598928 0.000000 0.384644
Si Si5 0.150282 0.292371 0.854333
Si Si6 0.500000 0.668047 0.000000
O O1 0.115313 0.500000 0.150822
O O2 0.136705 0.405246 0.818402
O O3 0.000000 0.500000 0.000000
O O4 0.130047 0.197840 0.370936
O O5 0.000000 0.098780 0.500000
O O6 0.128446 0.000000 0.327526
O O7 0.052101 0.112112 0.130126
O O8 0.774815 0.769694 0.271097
O O9 0.642147 0.894644 0.404373
O O10 0.665018 0.797197 0.073276
O O11 0.500000 0.000000 0.500000
O O12 0.064982 0.237398 0.860382
#
# Coordination Sequence:
#
# PCOD9175286 Si02
#       6
#     4   8   8   4   8   4
#     4  10  18  32  58  82 110 151 190 233 283 350
#     4  10  21  37  58  83 115 151 191 234 289 353
#     4   9  19  35  55  84 111 149 190 243 289 338
#     4  10  20  36  60  79 109 149 191 239 291 345
#     4   9  18  33  55  84 114 144 196 237 285 345
#     4  10  19  37  58  84 112 155 192 235 286 344
#
# _framework density 22.874061000000001
#
# number of rings (size 3 to 8) (size 9 to 14) (size 15 to 20)
#    0.000    2.444    1.111    1.000    1.556    0.000 
#   14.000    1.111    0.000    0.000    0.000    0.000 
#    0.000    0.000    0.000    0.000    0.000    0.000 
#
# Total GULP energy -100377.064609 kJ/mol
# GULP energy per Si atom -5576.503589 kJ/mol
# Density = 2.282200 g / cm^3
# Si number density = 22.874061 Si / 1000 Ang^3
#
#
#
# Elastic Constant Matrix: (Units=GPa)
#
#
# Indices 1 2 3 4 5 6 
#
# 1 95.6535 79.9512 5.9210 0.0000 -34.7658 0.0000
# 2 79.9512 248.4904 31.9374 0.0000 -39.4894 0.0000
# 3 5.9210 31.9374 98.7305 0.0000 1.6656 0.0000
# 4 0.0000 0.0000 0.0000 5.7997 0.0000 -27.4527
# 5 -34.7658 -39.4894 1.6656 0.0000 36.7252 0.0000
# 6 0.0000 0.0000 0.0000 -27.4527 0.0000 18.0736
#
#
#
# Elastic Compliance Matrix: (Units=1/GPa)
#
#
# Indices 1 2 3 4 5 6 
#
# 1 0.018538 -0.003813 -0.000105 0.000000 0.013453 0.000000
# 2 -0.003813 0.005926 -0.001736 0.000000 0.002841 0.000000
# 3 -0.000105 -0.001736 0.010738 0.000000 -0.002453 0.000000
# 4 0.000000 0.000000 0.000000 -0.027856 0.000000 -0.042311
# 5 0.013453 0.002841 -0.002453 0.000000 0.043131 0.000000
# 6 0.000000 0.000000 0.000000 -0.042311 0.000000 -0.008939
#
#
# Mechanical properties :
#
#
# Convention : Reuss Voigt Hill
#
# Bulk Modulus (GPa) = 41.85396 75.38819 58.62107
# Shear Modulus (GPa) = 82.22232 33.79070 58.00651
#
# Velocity S-wave (km/s) = 6.00197 3.84767 5.04124
# Velocity P-wave (km/s) = 8.14671 7.26422 7.71809
#
# Compressibility (1/GPa) = 0.02389260
#
# Stress axis : x y z
#
# Youngs Moduli (GPa) = 53.94425 168.75602 93.12824
#
# Poissons Ratio (x) = 0.64345 0.00981
# Poissons Ratio (y) = 0.20569 0.16168
# Poissons Ratio (z) = 0.00568 0.29298
#
# Static dielectric constant tensor:
#      x y z
#    x 1.981870 0.000000 0.159140 
#    y 0.000000 1.923380 0.000000 
#    z 0.159140 0.000000 1.975680 
# 
# From -- ./inp_files/71141.got.cif
#   From: 2010.05.17/outbox.cif.g08.bks.cpg/sg12_36_cif.got.tgz:71141.got - 2010.06.03 13:09:07.
