data_PCOD9175471
_publ_section_title
;
Structure prediction by ZEFSAII (Michael W. Deem and Ramdas Pophale) SiO2 
 PCOD9175471
Probable space group: C 2/M
;
_chemical_formula_sum "Si O2"
_cell_formula_units_Z 48
_cell_length_a 15.643980
_cell_length_b 22.198888
_cell_length_c 17.424938
_cell_angle_alpha 90.000000
_cell_angle_beta 153.388192
_cell_angle_gamma 90.000000
_cell_volume 2710.646039
_symmetry_space_group_name_H-M "C 2/M"
_symmetry_group_IT_number 12
_symmetry_cell_setting 'monoclinic'
loop_
_space_group_symop_operation_xyz
x,y,z
-x,y,-z
-x,-y,-z
x,-y,z
1/2+x,1/2+y,z
1/2-x,1/2+y,-z
1/2-x,1/2-y,-z
1/2+x,1/2-y,z
loop_
_atom_site_type_symbol
_atom_site_label
_atom_site_fract_x
_atom_site_fract_y
_atom_site_fract_z
Si Si1 0.000000 0.409180 0.000000
Si Si2 0.712209 0.691595 0.811878
Si Si3 0.457556 0.163559 0.689058
Si Si4 0.192429 0.568230 0.314769
Si Si5 0.899866 0.202261 0.691935
Si Si6 0.110192 0.816785 0.013379
Si Si7 0.000000 0.160093 0.500000
O O1 0.169491 0.368581 0.102753
O O2 0.086185 0.437099 0.146910
O O3 0.549797 0.686490 0.745113
O O4 0.852079 0.745475 0.944972
O O5 0.614776 0.701186 0.651244
O O6 0.423152 0.104303 0.712544
O O7 0.304119 0.176197 0.498024
O O8 0.415745 0.224331 0.706385
O O9 0.673816 0.161723 0.831290
O O10 0.246042 0.500000 0.380782
O O11 0.366410 0.614217 0.439649
O O12 0.977104 0.175929 0.832759
O O13 0.000000 0.840018 0.000000
#
# Coordination Sequence:
#
# PCOD9175471 Si02
#       7
#     4   8   8   8   8   8   4
#     4  10  19  30  54  80 114 150 183 222 266 326
#     4  10  18  33  52  79 115 149 181 218 277 341
#     4  10  21  36  55  78 112 149 185 231 276 333
#     4  11  21  36  53  79 113 152 191 226 269 324
#     4  10  20  35  54  79 112 148 181 227 288 333
#     4  11  22  33  54  84 111 144 184 231 283 342
#     4  10  21  32  56  80 116 150 183 218 262 334
#
# _framework density 17.707954999999998
#
# number of rings (size 3 to 8) (size 9 to 14) (size 15 to 20)
#    0.000    1.667    2.500    4.500    2.333    0.667 
#    0.000    0.000    0.000    0.500    0.000    1.167 
#    0.000    0.000    0.000    0.000    0.000    0.000 
#
# Total GULP energy -133757.097638 kJ/mol
# GULP energy per Si atom -5573.212402 kJ/mol
# Density = 1.766765 g / cm^3
# Si number density = 17.707955 Si / 1000 Ang^3
#
#
#
# Elastic Constant Matrix: (Units=GPa)
#
#
# Indices 1 2 3 4 5 6 
#
# 1 89.8176 25.9734 33.7227 -0.0007 5.5573 -0.0010
# 2 25.9734 46.1519 13.5445 -0.0007 -11.3435 0.0017
# 3 33.7227 13.5445 96.3884 -0.0013 -1.1379 -0.0070
# 4 -0.0007 -0.0007 -0.0013 1.3195 -0.0011 21.8938
# 5 5.5573 -11.3435 -1.1379 -0.0011 19.0393 -0.0061
# 6 -0.0010 0.0017 -0.0070 21.8938 -0.0061 121.0315
#
#
#
# Elastic Compliance Matrix: (Units=1/GPa)
#
#
# Indices 1 2 3 4 5 6 
#
# 1 0.016690 -0.010958 -0.004437 0.000001 -0.011666 -0.000001
# 2 -0.010958 0.033737 -0.000632 -0.000011 0.023261 0.000003
# 3 -0.004437 -0.000632 0.012035 0.000001 0.001638 0.000001
# 4 0.000001 -0.000011 0.000001 -0.378654 -0.000007 0.068496
# 5 -0.011666 0.023261 0.001638 -0.000007 0.069885 0.000004
# 6 -0.000001 0.000003 0.000001 0.068496 0.000004 -0.004128
#
#
# Mechanical properties :
#
#
# Convention : Reuss Voigt Hill
#
# Bulk Modulus (GPa) = 32.88626 42.09322 37.48974
# Shear Modulus (GPa) = -24.01040 38.88586 7.43773
#
# Velocity S-wave (km/s) = -3.68626 4.69119 2.05167
# Velocity P-wave (km/s) = 0.70266 7.29146 5.17972
#
# Compressibility (1/GPa) = 0.03040783
#
# Stress axis : x y z
#
# Youngs Moduli (GPa) = 59.91523 29.64074 83.08889
#
# Poissons Ratio (x) = 0.32480 0.36868
# Poissons Ratio (y) = 0.65655 0.05255
# Poissons Ratio (z) = 0.26586 0.01874
#
# Static dielectric constant tensor:
#      x y z
#    x 1.594920 0.000000 0.006480 
#    y 0.000000 1.608070 0.000000 
#    z 0.006480 0.000000 1.653600 
# 
# From -- ./inp_files/218577.got.cif
#   From: 2010.05.17/outbox.cif.g08.bks.cpg/sg12_110_cif.got.tgz:218577.got - 2010.06.03 13:09:07.
