data_PCOD9175985
_publ_section_title
;
Structure prediction by ZEFSAII (Michael W. Deem and Ramdas Pophale) SiO2 
 PCOD9175985
Probable space group: C 2/M
;
_chemical_formula_sum "Si O2"
_cell_formula_units_Z 48
_cell_length_a 16.175244
_cell_length_b 15.389132
_cell_length_c 20.289909
_cell_angle_alpha 90.000000
_cell_angle_beta 152.314473
_cell_angle_gamma 90.000000
_cell_volume 2346.612880
_symmetry_space_group_name_H-M "C 2/M"
_symmetry_group_IT_number 12
_symmetry_cell_setting 'monoclinic'
loop_
_space_group_symop_operation_xyz
x,y,z
-x,y,-z
-x,-y,-z
x,-y,z
1/2+x,1/2+y,z
1/2-x,1/2+y,-z
1/2-x,1/2-y,-z
1/2+x,1/2-y,z
loop_
_atom_site_type_symbol
_atom_site_label
_atom_site_fract_x
_atom_site_fract_y
_atom_site_fract_z
Si Si1 0.646109 0.605693 0.552459
Si Si2 0.027657 0.401087 0.802462
Si Si3 0.864814 0.163794 0.091011
Si Si4 0.527411 0.105906 0.653954
Si Si5 0.893055 0.103939 0.855824
Si Si6 0.623807 0.395031 0.382000
O O1 0.500000 0.640667 0.500000
O O2 0.640065 0.500000 0.554700
O O3 0.610991 0.624744 0.450692
O O4 0.848962 0.637416 0.707984
O O5 0.976443 0.500000 0.751240
O O6 0.066808 0.364819 0.757127
O O7 0.202873 0.403306 0.969372
O O8 0.002557 0.149521 0.129056
O O9 0.973663 0.152305 0.234295
O O10 0.750000 0.250000 0.000000
O O11 0.690008 0.134737 0.723005
O O12 0.322256 0.129770 0.496888
O O13 0.535170 0.000000 0.656518
O O14 0.893008 0.000000 0.841633
O O15 0.000000 0.115018 0.000000
O O16 0.606767 0.500000 0.361890
#
# Coordination Sequence:
#
# PCOD9175985 Si02
#       6
#     8   8   8   8   8   8
#     4   8  15  31  58  84 104 135 185 239 282 330
#     4   9  16  32  58  80 102 139 188 237 288 339
#     4  12  24  35  48  77 123 160 184 220 288 355
#     4   8  15  30  58  91 107 131 184 245 300 337
#     4  10  18  33  62  88 108 144 198 246 285 336
#     4   9  18  34  57  86 117 144 185 244 296 340
#
# _framework density 20.455015
#
# number of rings (size 3 to 8) (size 9 to 14) (size 15 to 20)
#    0.000    2.667    1.667    3.500    0.000    0.667 
#    0.000    8.333    3.667    4.000    0.000    0.000 
#    0.000    0.000    0.000    0.000    0.000    0.167 
#
# Total GULP energy -133768.932151 kJ/mol
# GULP energy per Si atom -5573.705506 kJ/mol
# Density = 2.040846 g / cm^3
# Si number density = 20.455015 Si / 1000 Ang^3
#
#
#
# Elastic Constant Matrix: (Units=GPa)
#
#
# Indices 1 2 3 4 5 6 
#
# 1 154.1846 22.5880 73.5392 0.0046 47.6496 0.0002
# 2 22.5880 34.7910 18.0886 -0.0068 3.8776 0.0045
# 3 73.5392 18.0886 151.1397 -0.0074 28.6994 0.0057
# 4 0.0046 -0.0068 -0.0074 17.6089 -0.0030 1.4410
# 5 47.6496 3.8776 28.6994 -0.0030 28.4218 0.0039
# 6 0.0002 0.0045 0.0057 1.4410 0.0039 -13.3765
#
#
#
# Elastic Compliance Matrix: (Units=1/GPa)
#
#
# Indices 1 2 3 4 5 6 
#
# 1 0.015695 -0.006321 -0.002533 -0.000011 -0.022892 -0.000011
# 2 -0.006321 0.033204 -0.002537 0.000014 0.008629 0.000014
# 3 -0.002533 -0.002537 0.009007 0.000003 -0.004503 0.000002
# 4 -0.000011 0.000014 0.000003 0.056293 0.000019 0.006064
# 5 -0.022892 0.008629 -0.004503 0.000019 0.076933 0.000025
# 6 -0.000011 0.000014 0.000002 0.006064 0.000025 -0.074105
#
#
# Mechanical properties :
#
#
# Convention : Reuss Voigt Hill
#
# Bulk Modulus (GPa) = 28.47036 63.17187 45.82111
# Shear Modulus (GPa) = 32.99949 21.59080 27.29514
#
# Velocity S-wave (km/s) = 4.02091 3.25241 3.65691
# Velocity P-wave (km/s) = 5.95867 6.71227 6.34666
#
# Compressibility (1/GPa) = 0.03512425
#
# Stress axis : x y z
#
# Youngs Moduli (GPa) = 63.71658 30.11654 111.01893
#
# Poissons Ratio (x) = 0.19037 0.28121
# Poissons Ratio (y) = 0.40277 0.28163
# Poissons Ratio (z) = 0.16139 0.07640
#
# Static dielectric constant tensor:
#      x y z
#    x 1.721220 0.000080 0.017610 
#    y 0.000080 7.323880 -0.000280 
#    z 0.017610 -0.000280 1.750030 
# 
# From -- ./inp_files/106493.got.cif
#   From: 2010.05.17/outbox.cif.g08.bks.cpg/sg12_54_cif.got.tgz:106493.got - 2010.06.03 13:09:07.
