data_PCOD9175142
_publ_section_title
;
Structure prediction by ZEFSAII (Michael W. Deem and Ramdas Pophale) SiO2 
 PCOD9175142
Probable space group: C 2/M
;
_chemical_formula_sum "Si O2"
_cell_formula_units_Z 42
_cell_length_a 12.062864
_cell_length_b 17.478474
_cell_length_c 9.574490
_cell_angle_alpha 90.000000
_cell_angle_beta 56.998581
_cell_angle_gamma 90.000000
_cell_volume 1692.988513
_symmetry_space_group_name_H-M "C 2/M"
_symmetry_group_IT_number 12
_symmetry_cell_setting 'monoclinic'
loop_
_space_group_symop_operation_xyz
x,y,z
-x,y,-z
-x,-y,-z
x,-y,z
1/2+x,1/2+y,z
1/2-x,1/2+y,-z
1/2-x,1/2-y,-z
1/2+x,1/2-y,z
loop_
_atom_site_type_symbol
_atom_site_label
_atom_site_fract_x
_atom_site_fract_y
_atom_site_fract_z
Si Si1 0.703355 0.136299 0.416104
Si Si2 0.676483 0.414092 0.949551
Si Si3 0.500000 0.000000 0.500000
Si Si4 0.365512 0.735875 0.712845
Si Si5 0.023945 0.091427 0.675532
Si Si6 0.614195 0.831340 0.029108
O O1 0.597368 0.068408 0.496321
O O2 0.638296 0.219218 0.432638
O O3 0.824510 0.118964 0.435247
O O4 0.776468 0.131016 0.216037
O O5 0.676326 0.500000 0.899034
O O6 0.541127 0.400255 0.123736
O O7 0.797282 0.401198 0.975052
O O8 0.430209 0.652068 0.663469
O O9 0.217389 0.719668 0.871552
O O10 0.427959 0.784410 0.801833
O O11 0.013569 0.000000 0.650822
O O12 0.500000 0.852208 0.000000
#
# Coordination Sequence:
#
# PCOD9175142 Si02
#       6
#     8   8   2   8   8   8
#     4  11  20  35  53  76 112 137 181 223 262 305
#     4   9  17  29  49  79 109 140 170 214 260 316
#     4  12  24  36  54  80 100 146 182 234 260 302
#     4   9  19  30  49  76 107 143 172 217 258 317
#     4  10  18  32  56  82 106 135 176 210 270 319
#     4   9  16  27  44  73 113 142 168 198 264 331
#
# _framework density 24.808202000000001
#
# number of rings (size 3 to 8) (size 9 to 14) (size 15 to 20)
#    0.000    2.286    1.905    2.857    0.000    1.905 
#    0.000    0.952    0.000    0.000    0.000    0.667 
#    0.000    0.762    0.000    0.000    0.000    0.000 
#
# Total GULP energy -116923.053924 kJ/mol
# GULP energy per Si atom -5567.764473 kJ/mol
# Density = 2.475174 g / cm^3
# Si number density = 24.808202 Si / 1000 Ang^3
#
#
#
# Elastic Constant Matrix: (Units=GPa)
#
#
# Indices 1 2 3 4 5 6 
#
# 1 125.6002 3.6270 5.1636 0.0000 -20.9226 0.0000
# 2 3.6270 127.7897 -3.3111 0.0000 -1.2329 0.0000
# 3 5.1636 -3.3111 51.8270 0.0000 4.7453 0.0000
# 4 0.0000 0.0000 0.0000 3.6092 0.0000 -8.0062
# 5 -20.9226 -1.2329 4.7453 0.0000 23.5016 0.0000
# 6 0.0000 0.0000 0.0000 -8.0062 0.0000 18.8900
#
#
#
# Elastic Compliance Matrix: (Units=1/GPa)
#
#
# Indices 1 2 3 4 5 6 
#
# 1 0.009509 -0.000231 -0.001769 0.000000 0.008810 0.000000
# 2 -0.000231 0.007846 0.000515 0.000000 0.000102 0.000000
# 3 -0.001769 0.000515 0.020016 0.000000 -0.005589 0.000000
# 4 0.000000 0.000000 0.000000 4.630435 0.000000 1.962521
# 5 0.008810 0.000102 -0.005589 0.000000 0.051528 0.000000
# 6 0.000000 0.000000 0.000000 1.962521 0.000000 0.884715
#
#
# Mechanical properties :
#
#
# Convention : Reuss Voigt Hill
#
# Bulk Modulus (GPa) = 29.06838 35.13065 32.09952
# Shear Modulus (GPa) = 0.88992 29.18267 15.03629
#
# Velocity S-wave (km/s) = 0.59958 3.43349 2.46458
# Velocity P-wave (km/s) = 3.49600 5.46901 4.58978
#
# Compressibility (1/GPa) = 0.03440164
#
# Stress axis : x y z
#
# Youngs Moduli (GPa) = 105.16593 127.44973 49.96048
#
# Poissons Ratio (x) = 0.02940 0.08837
# Poissons Ratio (y) = 0.02426 -0.02572
# Poissons Ratio (z) = 0.18602 -0.06562
#
# Static dielectric constant tensor:
#      x y z
#    x 2.137880 0.000000 0.067340 
#    y 0.000000 1.988760 0.000000 
#    z 0.067340 0.000000 2.123190 
# 
# From -- ./inp_files/132918.got.cif
#   From: 2010.05.17/outbox.cif.g08.bks.cpg/sg12_67_cif.got.tgz:132918.got - 2010.06.03 13:09:07.
