data_PCOD9175702
_publ_section_title
;
Structure prediction by ZEFSAII (Michael W. Deem and Ramdas Pophale) SiO2 
 PCOD9175702
Probable space group: C 2/M
;
_chemical_formula_sum "Si O2"
_cell_formula_units_Z 56
_cell_length_a 11.109082
_cell_length_b 16.185468
_cell_length_c 16.448710
_cell_angle_alpha 90.000000
_cell_angle_beta 118.204630
_cell_angle_gamma 90.000000
_cell_volume 2606.405177
_symmetry_space_group_name_H-M "C 2/M"
_symmetry_group_IT_number 12
_symmetry_cell_setting 'monoclinic'
loop_
_space_group_symop_operation_xyz
x,y,z
-x,y,-z
-x,-y,-z
x,-y,z
1/2+x,1/2+y,z
1/2-x,1/2+y,-z
1/2-x,1/2-y,-z
1/2+x,1/2-y,z
loop_
_atom_site_type_symbol
_atom_site_label
_atom_site_fract_x
_atom_site_fract_y
_atom_site_fract_z
Si Si1 0.188934 0.093694 0.267220
Si Si2 0.378623 0.406293 0.119200
Si Si3 0.894513 0.656741 0.209607
Si Si4 0.973637 0.738397 0.084224
Si Si5 0.688930 0.097213 0.358010
Si Si6 0.768199 0.814118 0.227839
Si Si7 0.843508 0.601139 0.470483
O O1 0.262831 0.115407 0.206644
O O2 0.251185 0.135826 0.367304
O O3 0.027406 0.094407 0.209396
O O4 0.231930 0.000000 0.293809
O O5 0.355261 0.500000 0.080303
O O6 0.398745 0.327307 0.066305
O O7 0.273379 0.380952 0.156587
O O8 0.886556 0.748898 0.245290
O O9 0.891270 0.672381 0.112210
O O10 0.030440 0.610371 0.280785
O O11 0.123028 0.733853 0.174642
O O12 0.000000 0.717056 0.000000
O O13 0.775452 0.144679 0.317619
O O14 0.701206 0.128830 0.454038
O O15 0.720712 0.000000 0.364617
O O16 0.840100 0.500000 0.475767
O O17 0.000000 0.622725 0.500000
#
# Coordination Sequence:
#
# PCOD9175702 Si02
#       7
#     8   8   8   8   8   8   8
#     4  10  18  33  56  83 113 147 188 227 269 321
#     4  10  21  37  59  82 111 148 182 224 273 327
#     4  10  19  33  57  81 109 142 180 225 276 324
#     4  10  22  39  62  81 106 142 185 225 275 336
#     4  10  19  34  59  83 107 146 194 231 262 313
#     4  10  21  38  57  80 115 148 179 216 284 339
#     4   9  16  28  52  84 111 142 188 235 267 306
#
# _framework density 21.485530000000001
#
# number of rings (size 3 to 8) (size 9 to 14) (size 15 to 20)
#    0.000    2.143    2.857    0.857    0.000    2.571 
#    0.000    1.429    6.286   18.000    0.000    0.000 
#    0.000    0.000    0.000    0.000    0.000    0.000 
#
# Total GULP energy -156080.709650 kJ/mol
# GULP energy per Si atom -5574.311059 kJ/mol
# Density = 2.143663 g / cm^3
# Si number density = 21.485530 Si / 1000 Ang^3
#
#
#
# Elastic Constant Matrix: (Units=GPa)
#
#
# Indices 1 2 3 4 5 6 
#
# 1 61.8777 5.2330 25.8558 0.0000 -28.7993 0.0000
# 2 5.2330 24.7230 0.3617 0.0000 -8.4054 0.0000
# 3 25.8558 0.3617 82.7282 0.0000 -31.3822 0.0000
# 4 0.0000 0.0000 0.0000 8.6422 0.0000 3.0540
# 5 -28.7993 -8.4054 -31.3822 0.0000 38.3117 0.0000
# 6 0.0000 0.0000 0.0000 3.0540 0.0000 12.7852
#
#
#
# Elastic Compliance Matrix: (Units=1/GPa)
#
#
# Indices 1 2 3 4 5 6 
#
# 1 0.024933 0.000931 -0.000884 0.000000 0.018222 0.000000
# 2 0.000931 0.045217 0.005136 0.000000 0.014827 0.000000
# 3 -0.000884 0.005136 0.018160 0.000000 0.015337 0.000000
# 4 0.000000 0.000000 0.000000 0.126379 0.000000 -0.030188
# 5 0.018222 0.014827 0.015337 0.000000 0.055616 0.000000
# 6 0.000000 0.000000 0.000000 -0.030188 0.000000 0.085427
#
#
# Mechanical properties :
#
#
# Convention : Reuss Voigt Hill
#
# Bulk Modulus (GPa) = 10.13433 25.80331 17.96882
# Shear Modulus (GPa) = 13.21852 21.13971 17.17912
#
# Velocity S-wave (km/s) = 2.48307 3.14013 2.83073
# Velocity P-wave (km/s) = 3.59832 5.01826 4.36640
#
# Compressibility (1/GPa) = 0.09867453
#
# Stress axis : x y z
#
# Youngs Moduli (GPa) = 40.10800 22.11567 55.06685
#
# Poissons Ratio (x) = -0.02059 0.04868
# Poissons Ratio (y) = -0.03733 -0.28282
# Poissons Ratio (z) = 0.03546 -0.11358
#
# Static dielectric constant tensor:
#      x y z
#    x 1.773350 0.000000 0.007860 
#    y 0.000000 1.860590 0.000000 
#    z 0.007860 0.000000 1.808560 
# 
# From -- ./inp_files/206073.got.cif
#   From: 2010.05.17/outbox.cif.g08.bks.cpg/sg12_104_cif.got.tgz:206073.got - 2010.06.03 13:09:07.
