data_PCOD9175824
_publ_section_title
;
Structure prediction by ZEFSAII (Michael W. Deem and Ramdas Pophale) SiO2 
 PCOD9175824
Probable space group: C 2/M
;
_chemical_formula_sum "Si O2"
_cell_formula_units_Z 56
_cell_length_a 21.117963
_cell_length_b 9.403008
_cell_length_c 33.358350
_cell_angle_alpha 90.000000
_cell_angle_beta 27.715588
_cell_angle_gamma 90.000000
_cell_volume 3080.730958
_symmetry_space_group_name_H-M "C 2/M"
_symmetry_group_IT_number 12
_symmetry_cell_setting 'monoclinic'
loop_
_space_group_symop_operation_xyz
x,y,z
-x,y,-z
-x,-y,-z
x,-y,z
1/2+x,1/2+y,z
1/2-x,1/2+y,-z
1/2-x,1/2-y,-z
1/2+x,1/2-y,z
loop_
_atom_site_type_symbol
_atom_site_label
_atom_site_fract_x
_atom_site_fract_y
_atom_site_fract_z
Si Si1 0.648352 0.659153 0.005606
Si Si2 0.108964 0.672285 0.471597
Si Si3 0.841606 0.339096 0.078204
Si Si4 0.583375 0.330494 0.722858
Si Si5 0.888573 0.327790 0.436753
Si Si6 0.046397 0.339506 0.131241
Si Si7 0.077914 0.832449 0.269923
O O1 0.594343 0.500000 0.031758
O O2 0.676771 0.730379 0.947303
O O3 0.795000 0.651561 0.944885
O O4 0.548770 0.754859 0.088238
O O5 0.104634 0.500000 0.473014
O O6 0.262040 0.712436 0.373593
O O7 0.084939 0.710423 0.531476
O O8 0.000000 0.724996 0.500000
O O9 0.805551 0.500000 0.084630
O O10 0.738113 0.308093 0.172383
O O11 0.000000 0.337407 0.000000
O O12 0.578776 0.500000 0.733686
O O13 0.528079 0.245487 0.791836
O O14 0.494182 0.306357 0.732810
O O15 0.875116 0.500000 0.441230
O O16 0.750000 0.250000 0.500000
O O17 0.008157 0.267253 0.341695
O O18 0.994081 0.500000 0.156280
O O19 0.055692 0.000000 0.292216
#
# Coordination Sequence:
#
# PCOD9175824 Si02
#       7
#     8   8   8   8   8   8   8
#     4  10  20  34  54  79 107 142 184 231 279 328
#     4   9  19  37  58  81 113 149 185 229 284 341
#     4  10  21  38  58  78 111 155 190 233 295 347
#     4  10  18  33  58  82 107 143 187 230 280 335
#     4  11  21  36  61  90 117 151 194 240 290 344
#     4  10  20  33  53  81 110 139 180 230 281 330
#     4  10  20  36  58  85 113 146 192 239 285 343
#
# _framework density 18.177503999999999
#
# number of rings (size 3 to 8) (size 9 to 14) (size 15 to 20)
#    0.000    2.000    2.857    1.286    0.000    2.571 
#    2.571    0.000    0.000    3.000    0.000    0.000 
#    0.000    0.000    0.000    0.000    0.000    0.000 
#
# Total GULP energy -156175.650406 kJ/mol
# GULP energy per Si atom -5577.701800 kJ/mol
# Density = 1.813613 g / cm^3
# Si number density = 18.177504 Si / 1000 Ang^3
#
#
#
# Elastic Constant Matrix: (Units=GPa)
#
#
# Indices 1 2 3 4 5 6 
#
# 1 58.0673 31.4205 42.0386 -0.0001 3.9351 0.0001
# 2 31.4205 98.6900 65.3581 0.0002 21.9766 0.0004
# 3 42.0386 65.3581 147.1286 0.0008 15.5906 -0.0003
# 4 -0.0001 0.0002 0.0008 32.4561 -0.0002 1.8823
# 5 3.9351 21.9766 15.5906 -0.0002 32.7171 0.0001
# 6 0.0001 0.0004 -0.0003 1.8823 0.0001 6.1936
#
#
#
# Elastic Compliance Matrix: (Units=1/GPa)
#
#
# Indices 1 2 3 4 5 6 
#
# 1 0.023074 -0.004809 -0.004744 0.000000 0.002716 -0.000001
# 2 -0.004809 0.017037 -0.005311 0.000000 -0.008335 -0.000001
# 3 -0.004744 -0.005311 0.010609 0.000000 -0.000917 0.000001
# 4 0.000000 0.000000 0.000000 0.031364 0.000000 -0.009531
# 5 0.002716 -0.008335 -0.000917 0.000000 0.036274 0.000000
# 6 -0.000001 -0.000001 0.000001 -0.009531 0.000000 0.164353
#
#
# Mechanical properties :
#
#
# Convention : Reuss Voigt Hill
#
# Bulk Modulus (GPa) = 47.63875 64.61337 56.12606
# Shear Modulus (GPa) = 15.65253 25.27795 20.46524
#
# Velocity S-wave (km/s) = 2.93762 3.73314 3.35902
# Velocity P-wave (km/s) = 6.14578 7.36239 6.78142
#
# Compressibility (1/GPa) = 0.02099131
#
# Stress axis : x y z
#
# Youngs Moduli (GPa) = 43.33813 58.69540 94.26062
#
# Poissons Ratio (x) = 0.28227 0.44722
# Poissons Ratio (y) = 0.20841 0.50062
# Poissons Ratio (z) = 0.20562 0.31173
#
# Static dielectric constant tensor:
#      x y z
#    x 1.620880 0.000000 -0.017540 
#    y 0.000000 1.625450 0.000000 
#    z -0.017540 0.000000 1.617710 
# 
# From -- ./inp_files/380644.got.cif
#   From: 2010.05.17/outbox.cif.g08.bks.cpg/sg12_191_cif.got.tgz:380644.got - 2010.06.03 13:09:07.
