data_PCOD9175540
_publ_section_title
;
Structure prediction by ZEFSAII (Michael W. Deem and Ramdas Pophale) SiO2 
 PCOD9175540
Probable space group: C 2/M
;
_chemical_formula_sum "Si O2"
_cell_formula_units_Z 60
_cell_length_a 23.505591
_cell_length_b 19.713093
_cell_length_c 10.591269
_cell_angle_alpha 90.000000
_cell_angle_beta 46.452980
_cell_angle_gamma 90.000000
_cell_volume 3557.112962
_symmetry_space_group_name_H-M "C 2/M"
_symmetry_group_IT_number 12
_symmetry_cell_setting 'monoclinic'
loop_
_space_group_symop_operation_xyz
x,y,z
-x,y,-z
-x,-y,-z
x,-y,z
1/2+x,1/2+y,z
1/2-x,1/2+y,-z
1/2-x,1/2-y,-z
1/2+x,1/2-y,z
loop_
_atom_site_type_symbol
_atom_site_label
_atom_site_fract_x
_atom_site_fract_y
_atom_site_fract_z
Si Si1 0.000000 0.630448 0.500000
Si Si2 0.292100 0.079550 0.177992
Si Si3 0.054963 0.196503 0.022666
Si Si4 0.689372 0.698477 0.261905
Si Si5 0.912248 0.660249 0.160802
Si Si6 0.697587 0.680118 0.962118
Si Si7 0.166784 0.423169 0.175506
Si Si8 0.940313 0.275258 0.376757
O O1 0.080025 0.589165 0.360770
O O2 0.009865 0.677834 0.606686
O O3 0.216002 0.127518 0.281679
O O4 0.348239 0.111562 0.198016
O O5 0.276426 0.000000 0.223108
O O6 0.332460 0.086302 0.977632
O O7 0.997271 0.222027 0.220994
O O8 0.086971 0.266248 0.909527
O O9 0.129360 0.159852 0.969735
O O10 0.000000 0.162607 0.000000
O O11 0.765425 0.747564 0.134155
O O12 0.625258 0.736969 0.442270
O O13 0.663819 0.687510 0.155753
O O14 0.904088 0.678018 0.320800
O O15 0.000000 0.632368 0.000000
O O16 0.770686 0.628951 0.861849
O O17 0.192028 0.500000 0.162048
#
# Coordination Sequence:
#
# PCOD9175540 Si02
#       8
#     4   8   8   8   8   8   8   8
#     4  12  19  32  52  80 111 136 170 212 265 316
#     4  10  20  35  52  70 103 144 176 210 258 311
#     4   9  18  33  52  76 104 135 175 223 263 308
#     4  10  19  31  52  81 103 133 176 221 260 310
#     4   9  18  32  48  73 104 135 173 210 256 317
#     4  10  18  33  54  76 105 138 176 218 261 309
#     4  10  21  34  52  77 108 143 171 210 260 316
#     4  10  20  30  51  80 104 134 171 220 266 296
#
# _framework density 16.867611
#
# number of rings (size 3 to 8) (size 9 to 14) (size 15 to 20)
#    0.000    2.400    2.667    2.600    1.867    0.800 
#    0.000    1.333    0.000    1.200    0.000    4.200 
#    0.000    0.533    0.000    0.000    0.000    0.000 
#
# Total GULP energy -167214.841020 kJ/mol
# GULP energy per Si atom -5573.828034 kJ/mol
# Density = 1.682922 g / cm^3
# Si number density = 16.867611 Si / 1000 Ang^3
#
#
#
# Elastic Constant Matrix: (Units=GPa)
#
#
# Indices 1 2 3 4 5 6 
#
# 1 122.6127 38.6953 26.6594 0.0000 4.6375 0.0000
# 2 38.6953 69.8894 25.1080 0.0000 -2.9413 0.0000
# 3 26.6594 25.1080 50.3407 0.0000 7.3401 0.0000
# 4 0.0000 0.0000 0.0000 14.2573 0.0000 2.4586
# 5 4.6375 -2.9413 7.3401 0.0000 9.4320 0.0000
# 6 0.0000 0.0000 0.0000 2.4586 0.0000 16.1503
#
#
#
# Elastic Compliance Matrix: (Units=1/GPa)
#
#
# Indices 1 2 3 4 5 6 
#
# 1 0.010474 -0.005220 -0.002205 0.000000 -0.005061 0.000000
# 2 -0.005220 0.021776 -0.010672 0.000000 0.017662 0.000000
# 3 -0.002205 -0.010672 0.030098 0.000000 -0.025666 0.000000
# 4 0.000000 0.000000 0.000000 0.072030 0.000000 -0.010965
# 5 -0.005061 0.017662 -0.025666 0.000000 0.133991 0.000000
# 6 0.000000 0.000000 0.000000 -0.010965 0.000000 0.063588
#
#
# Mechanical properties :
#
#
# Convention : Reuss Voigt Hill
#
# Bulk Modulus (GPa) = 38.23633 47.08538 42.66085
# Shear Modulus (GPa) = 13.26724 18.12660 15.69692
#
# Velocity S-wave (km/s) = 2.80759 3.28173 3.05388
# Velocity P-wave (km/s) = 5.76436 6.50653 6.14665
#
# Compressibility (1/GPa) = 0.02615314
#
# Stress axis : x y z
#
# Youngs Moduli (GPa) = 95.47421 45.92309 33.22533
#
# Poissons Ratio (x) = 0.23971 0.07327
# Poissons Ratio (y) = 0.49836 0.35457
# Poissons Ratio (z) = 0.21056 0.49008
#
# Static dielectric constant tensor:
#      x y z
#    x 1.592900 0.000000 0.008240 
#    y 0.000000 1.551360 0.000000 
#    z 0.008240 0.000000 1.572340 
# 
# From -- ./inp_files/89836.got.cif
#   From: 2010.05.17/outbox.cif.g08.bks.cpg/sg12_45_cif.got.tgz:89836.got - 2010.06.03 13:09:07.
