data_PCOD9175578
_publ_section_title
;
Structure prediction by ZEFSAII (Michael W. Deem and Ramdas Pophale) SiO2 
 PCOD9175578
Probable space group: C 2/M
;
_chemical_formula_sum "Si O2"
_cell_formula_units_Z 56
_cell_length_a 11.423745
_cell_length_b 20.126750
_cell_length_c 14.038548
_cell_angle_alpha 90.000000
_cell_angle_beta 134.577274
_cell_angle_gamma 90.000000
_cell_volume 2299.164411
_symmetry_space_group_name_H-M "C 2/M"
_symmetry_group_IT_number 12
_symmetry_cell_setting 'monoclinic'
loop_
_space_group_symop_operation_xyz
x,y,z
-x,y,-z
-x,-y,-z
x,-y,z
1/2+x,1/2+y,z
1/2-x,1/2+y,-z
1/2-x,1/2-y,-z
1/2+x,1/2-y,z
loop_
_atom_site_type_symbol
_atom_site_label
_atom_site_fract_x
_atom_site_fract_y
_atom_site_fract_z
Si Si1 0.886397 0.659207 0.056587
Si Si2 0.867227 0.073452 0.188574
Si Si3 0.987907 0.424333 0.381236
Si Si4 0.661497 0.815346 0.346609
Si Si5 0.286994 0.277332 0.860334
Si Si6 0.002732 0.799878 0.371491
Si Si7 0.101436 0.095666 0.147883
O O1 0.792355 0.677078 0.101197
O O2 0.074784 0.662196 0.198544
O O3 0.801129 0.595140 0.961717
O O4 0.849661 0.716279 0.959008
O O5 0.926007 0.131131 0.292682
O O6 0.010477 0.073795 0.190532
O O7 0.851492 0.000000 0.221125
O O8 0.046749 0.500000 0.396607
O O9 0.792248 0.422530 0.250420
O O10 0.000000 0.409860 0.500000
O O11 0.090532 0.370166 0.381059
O O12 0.856870 0.813881 0.470963
O O13 0.600121 0.741860 0.343579
O O14 0.403588 0.324004 0.864989
O O15 0.149425 0.251112 0.708575
O O16 0.000000 0.070637 0.000000
#
# Coordination Sequence:
#
# PCOD9175578 Si02
#       7
#     8   8   8   8   8   8   8
#     4   9  17  33  52  69  98 138 188 229 261 299
#     4  11  22  34  51  79 116 151 180 216 270 330
#     4  11  23  36  48  74 119 154 175 212 268 330
#     4  10  18  33  55  71  91 144 194 232 259 305
#     4   9  17  34  50  70  97 139 185 232 259 306
#     4   9  19  35  55  71  96 143 195 230 262 307
#     4  12  21  33  49  77 108 151 181 211 264 325
#
# _framework density 24.356676
#
# number of rings (size 3 to 8) (size 9 to 14) (size 15 to 20)
#    0.000    1.857    4.286    2.143    0.000    4.571 
#    0.000    0.000    0.000    0.000    0.000    0.000 
#    0.000   14.286    0.286    0.571    0.000    0.000 
#
# Total GULP energy -156589.747293 kJ/mol
# GULP energy per Si atom -5592.490975 kJ/mol
# Density = 2.430124 g / cm^3
# Si number density = 24.356676 Si / 1000 Ang^3
#
#
#
# Elastic Constant Matrix: (Units=GPa)
#
#
# Indices 1 2 3 4 5 6 
#
# 1 64.5617 14.3007 30.5704 0.0000 18.0479 0.0000
# 2 14.3007 150.2853 49.7672 0.0000 4.4795 0.0000
# 3 30.5704 49.7672 186.9401 0.0000 24.7734 0.0000
# 4 0.0000 0.0000 0.0000 34.7761 0.0000 0.7125
# 5 18.0479 4.4795 24.7734 0.0000 44.3832 0.0000
# 6 0.0000 0.0000 0.0000 0.7125 0.0000 23.6608
#
#
#
# Elastic Compliance Matrix: (Units=1/GPa)
#
#
# Indices 1 2 3 4 5 6 
#
# 1 0.018365 -0.000923 -0.001922 0.000000 -0.006302 0.000000
# 2 -0.000923 0.007350 -0.001897 0.000000 0.000693 0.000000
# 3 -0.001922 -0.001897 0.006522 0.000000 -0.002667 0.000000
# 4 0.000000 0.000000 0.000000 0.028773 0.000000 -0.000866
# 5 -0.006302 0.000693 -0.002667 0.000000 0.026513 0.000000
# 6 0.000000 0.000000 0.000000 -0.000866 0.000000 0.042290
#
#
# Mechanical properties :
#
#
# Convention : Reuss Voigt Hill
#
# Bulk Modulus (GPa) = 43.95354 65.67376 54.81365
# Shear Modulus (GPa) = 34.04074 41.04061 37.54067
#
# Velocity S-wave (km/s) = 3.74250 4.10931 3.93018
# Velocity P-wave (km/s) = 6.06300 7.03826 6.56876
#
# Compressibility (1/GPa) = 0.02275130
#
# Stress axis : x y z
#
# Youngs Moduli (GPa) = 54.44998 136.06281 153.32033
#
# Poissons Ratio (x) = 0.12561 0.29475
# Poissons Ratio (y) = 0.05027 0.29092
# Poissons Ratio (z) = 0.10468 0.25817
#
# Static dielectric constant tensor:
#      x y z
#    x 2.012360 0.000000 0.040970 
#    y 0.000000 1.946970 0.000000 
#    z 0.040970 0.000000 1.979440 
# 
# From -- ./inp_files/217726.got.cif
#   From: 2010.05.17/outbox.cif.g08.bks.cpg/sg12_109_cif.got.tgz:217726.got - 2010.06.03 13:09:07.
