data_PCOD9175304
_publ_section_title
;
Structure prediction by ZEFSAII (Michael W. Deem and Ramdas Pophale) SiO2 
 PCOD9175304
Probable space group: C 2/M
;
_chemical_formula_sum "Si O2"
_cell_formula_units_Z 44
_cell_length_a 15.396287
_cell_length_b 15.739215
_cell_length_c 15.956748
_cell_angle_alpha 90.000000
_cell_angle_beta 148.097923
_cell_angle_gamma 90.000000
_cell_volume 2043.445501
_symmetry_space_group_name_H-M "C 2/M"
_symmetry_group_IT_number 12
_symmetry_cell_setting 'monoclinic'
loop_
_space_group_symop_operation_xyz
x,y,z
-x,y,-z
-x,-y,-z
x,-y,z
1/2+x,1/2+y,z
1/2-x,1/2+y,-z
1/2-x,1/2-y,-z
1/2+x,1/2-y,z
loop_
_atom_site_type_symbol
_atom_site_label
_atom_site_fract_x
_atom_site_fract_y
_atom_site_fract_z
Si Si1 0.189616 0.261376 0.305206
Si Si2 0.118119 0.090631 0.460343
Si Si3 0.356013 0.095269 0.494356
Si Si4 0.268252 0.633308 0.101878
Si Si5 0.396754 0.816315 0.192405
Si Si6 0.000000 0.344314 0.000000
O O1 0.334228 0.328482 0.445208
O O2 0.263591 0.167390 0.365824
O O3 0.104413 0.288361 0.150130
O O4 0.049841 0.275645 0.263422
O O5 0.248539 0.090005 0.491564
O O6 0.941284 0.097413 0.272217
O O7 0.132398 0.000000 0.517821
O O8 0.528122 0.133274 0.668314
O O9 0.367038 0.000000 0.468594
O O10 0.287536 0.735766 0.127925
O O11 0.206471 0.624719 0.955917
O O12 0.125498 0.603356 0.046160
#
# Coordination Sequence:
#
# PCOD9175304 Si02
#       6
#     8   8   8   8   8   4
#     4  10  18  38  53  82 109 142 178 226 263 325
#     4  10  19  33  59  85 108 138 179 223 269 319
#     4  10  18  32  58  87 108 136 175 228 276 313
#     4  10  18  34  53  81 106 145 179 218 260 320
#     4   9  17  32  58  76 109 138 177 226 267 305
#     4  10  24  34  56  74 110 156 180 210 278 312
#
# _framework density 21.532260999999998
#
# number of rings (size 3 to 8) (size 9 to 14) (size 15 to 20)
#    0.000    2.182    3.636    1.091    0.000    1.455 
#    0.000    5.909    0.000    2.182    0.000    0.000 
#    0.000    0.000    0.000    0.000    0.000    0.000 
#
# Total GULP energy -122816.961474 kJ/mol
# GULP energy per Si atom -5582.589158 kJ/mol
# Density = 2.148325 g / cm^3
# Si number density = 21.532261 Si / 1000 Ang^3
#
#
#
# Elastic Constant Matrix: (Units=GPa)
#
#
# Indices 1 2 3 4 5 6 
#
# 1 38.2461 0.4578 -4.6510 -0.0003 6.3764 -0.0003
# 2 0.4578 120.0500 35.8166 -0.0011 -10.5385 -0.0009
# 3 -4.6510 35.8166 110.1718 -0.0006 3.0750 -0.0005
# 4 -0.0003 -0.0011 -0.0006 -3.7023 -0.0002 1.0214
# 5 6.3764 -10.5385 3.0750 -0.0002 20.0814 -0.0001
# 6 -0.0003 -0.0009 -0.0005 1.0214 -0.0001 -8.2602
#
#
#
# Elastic Compliance Matrix: (Units=1/GPa)
#
#
# Indices 1 2 3 4 5 6 
#
# 1 0.028081 -0.001580 0.001980 -0.000002 -0.010049 -0.000001
# 2 -0.001580 0.009917 -0.003465 -0.000003 0.006237 -0.000001
# 3 0.001980 -0.003465 0.010399 -0.000001 -0.004039 0.000000
# 4 -0.000002 -0.000003 -0.000001 -0.279642 -0.000003 -0.034580
# 5 -0.010049 0.006237 -0.004039 -0.000003 0.056879 -0.000001
# 6 -0.000001 -0.000001 0.000000 -0.034580 -0.000001 -0.125339
#
#
# Mechanical properties :
#
#
# Convention : Reuss Voigt Hill
#
# Bulk Modulus (GPa) = 23.65862 36.85719 30.25791
# Shear Modulus (GPa) = -17.89011 17.41342 -0.23834
#
# Velocity S-wave (km/s) = -2.88558 2.84687 -0.33306
# Velocity P-wave (km/s) = 0.30114 5.28778 3.73296
#
# Compressibility (1/GPa) = 0.04226788
#
# Stress axis : x y z
#
# Youngs Moduli (GPa) = 35.61069 100.83633 96.15905
#
# Poissons Ratio (x) = 0.15930 -0.19035
# Poissons Ratio (y) = 0.05626 0.33317
# Poissons Ratio (z) = -0.07049 0.34938
#
# Static dielectric constant tensor:
#      x y z
#    x 1.799820 0.000000 0.017990 
#    y 0.000000 1.806550 0.000000 
#    z 0.017990 0.000000 1.769470 
# 
# From -- ./inp_files/97214.got.cif
#   From: 2010.05.17/outbox.cif.g08.bks.cpg/sg12_49_cif.got.tgz:97214.got - 2010.06.03 13:09:07.
