data_PCOD9175683
_publ_section_title
;
Structure prediction by ZEFSAII (Michael W. Deem and Ramdas Pophale) SiO2 
 PCOD9175683
Probable space group: C 2/M
;
_chemical_formula_sum "Si O2"
_cell_formula_units_Z 64
_cell_length_a 14.697884
_cell_length_b 14.677944
_cell_length_c 12.928796
_cell_angle_alpha 90.000000
_cell_angle_beta 91.699399
_cell_angle_gamma 90.000000
_cell_volume 2787.963397
_symmetry_space_group_name_H-M "C 2/M"
_symmetry_group_IT_number 12
_symmetry_cell_setting 'monoclinic'
loop_
_space_group_symop_operation_xyz
x,y,z
-x,y,-z
-x,-y,-z
x,-y,z
1/2+x,1/2+y,z
1/2-x,1/2+y,-z
1/2-x,1/2-y,-z
1/2+x,1/2-y,z
loop_
_atom_site_type_symbol
_atom_site_label
_atom_site_fract_x
_atom_site_fract_y
_atom_site_fract_z
Si Si1 0.764250 0.604682 0.450254
Si Si2 0.042024 0.364163 0.608624
Si Si3 0.636013 0.609836 0.273590
Si Si4 0.537225 0.352495 0.613804
Si Si5 0.481809 0.105047 0.164060
Si Si6 0.676186 0.888198 0.114718
Si Si7 0.721321 0.111429 0.891533
Si Si8 0.244377 0.894633 0.668248
O O1 0.736844 0.500000 0.469167
O O2 0.854385 0.603180 0.385541
O O3 0.686238 0.647088 0.378153
O O4 0.783573 0.646721 0.562918
O O5 0.045124 0.255696 0.604205
O O6 0.000000 0.398162 0.500000
O O7 0.994673 0.392748 0.712890
O O8 0.644158 0.500000 0.273756
O O9 0.531509 0.629931 0.293610
O O10 0.694397 0.641824 0.177080
O O11 0.500000 0.387078 0.500000
O O12 0.636299 0.389711 0.645644
O O13 0.570656 0.143572 0.110155
O O14 0.379966 0.143829 0.147225
O O15 0.474466 0.000000 0.130095
O O16 0.724017 0.855369 0.221557
O O17 0.674005 0.000000 0.115210
O O18 0.728002 0.862749 0.011963
O O19 0.720599 0.000000 0.884941
O O20 0.273982 0.000000 0.673948
#
# Coordination Sequence:
#
# PCOD9175683 Si02
#       8
#     8   8   8   8   8   8   8   8
#     4  10  19  34  57  84 111 140 181 231 282 329
#     4  11  23  35  49  81 117 149 179 221 279 337
#     4  10  19  35  60  84 106 140 190 237 269 317
#     4  11  23  38  53  78 112 153 191 225 272 333
#     4  10  18  33  56  81 111 146 183 225 273 335
#     4   9  18  32  53  85 114 138 178 229 284 331
#     4   9  17  32  57  85 109 139 183 231 277 326
#     4  10  20  35  57  83 111 144 183 234 280 323
#
# _framework density 22.955824
#
# number of rings (size 3 to 8) (size 9 to 14) (size 15 to 20)
#    0.000    2.000    2.500    1.875    0.000    4.500 
#    2.250    0.625    0.000    7.500    0.000    0.000 
#    0.000    0.000    0.000    0.000    0.000    0.000 
#
# Total GULP energy -178685.168008 kJ/mol
# GULP energy per Si atom -5583.911500 kJ/mol
# Density = 2.290358 g / cm^3
# Si number density = 22.955824 Si / 1000 Ang^3
#
#
#
# Elastic Constant Matrix: (Units=GPa)
#
#
# Indices 1 2 3 4 5 6 
#
# 1 80.6710 -3.5230 37.8983 0.0000 -25.7282 0.0000
# 2 -3.5230 49.5766 5.5927 0.0000 -8.8461 0.0000
# 3 37.8983 5.5927 145.6195 0.0000 -26.8216 0.0000
# 4 0.0000 0.0000 0.0000 11.1340 0.0000 -17.0603
# 5 -25.7282 -8.8461 -26.8216 0.0000 38.5430 0.0000
# 6 0.0000 0.0000 0.0000 -17.0603 0.0000 41.1320
#
#
#
# Elastic Compliance Matrix: (Units=1/GPa)
#
#
# Indices 1 2 3 4 5 6 
#
# 1 0.017090 0.003357 -0.002677 0.000000 0.010316 0.000000
# 2 0.003357 0.021693 -0.000432 0.000000 0.006919 0.000000
# 3 -0.002677 -0.000432 0.008296 0.000000 0.003887 0.000000
# 4 0.000000 0.000000 0.000000 0.246433 0.000000 0.102213
# 5 0.010316 0.006919 0.003887 0.000000 0.037124 0.000000
# 6 0.000000 0.000000 0.000000 0.102213 0.000000 0.066707
#
#
# Mechanical properties :
#
#
# Convention : Reuss Voigt Hill
#
# Bulk Modulus (GPa) = 21.01942 39.53368 30.27655
# Shear Modulus (GPa) = 12.11517 33.88840 23.00179
#
# Velocity S-wave (km/s) = 2.29980 3.84636 3.16888
# Velocity P-wave (km/s) = 4.02845 6.08153 5.15817
#
# Compressibility (1/GPa) = 0.04757505
#
# Stress axis : x y z
#
# Youngs Moduli (GPa) = 58.51349 46.09853 120.53329
#
# Poissons Ratio (x) = -0.15476 0.32263
# Poissons Ratio (y) = -0.19643 0.05213
# Poissons Ratio (z) = 0.15662 0.01994
#
# Static dielectric constant tensor:
#      x y z
#    x 1.862770 0.000000 0.019350 
#    y 0.000000 1.920520 0.000000 
#    z 0.019350 0.000000 1.895300 
# 
# From -- ./inp_files/146152.got.cif
#   From: 2010.05.17/outbox.cif.g08.bks.cpg/sg12_74_cif.got.tgz:146152.got - 2010.06.03 13:09:07.
