data_PCOD9175979
_publ_section_title
;
Structure prediction by ZEFSAII (Michael W. Deem and Ramdas Pophale) SiO2 
 PCOD9175979
Probable space group: C 2/M
;
_chemical_formula_sum "Si O2"
_cell_formula_units_Z 26
_cell_length_a 7.653325
_cell_length_b 31.312453
_cell_length_c 5.469341
_cell_angle_alpha 90.000000
_cell_angle_beta 58.427532
_cell_angle_gamma 90.000000
_cell_volume 1116.685681
_symmetry_space_group_name_H-M "C 2/M"
_symmetry_group_IT_number 12
_symmetry_cell_setting 'monoclinic'
loop_
_space_group_symop_operation_xyz
x,y,z
-x,y,-z
-x,-y,-z
x,-y,z
1/2+x,1/2+y,z
1/2-x,1/2+y,-z
1/2-x,1/2-y,-z
1/2+x,1/2-y,z
loop_
_atom_site_type_symbol
_atom_site_label
_atom_site_fract_x
_atom_site_fract_y
_atom_site_fract_z
Si Si1 0.262257 0.300029 0.440695
Si Si2 0.500000 0.000000 0.000000
Si Si3 0.727411 0.335056 0.068073
Si Si4 0.368591 0.434246 0.852046
O O1 0.250000 0.250000 0.500000
O O2 0.500081 0.314434 0.250547
O O3 0.182338 0.326062 0.732140
O O4 0.179497 0.311927 0.235147
O O5 0.330761 0.036784 0.040470
O O6 0.700267 0.385439 0.053000
O O7 0.500000 0.436467 0.500000
O O8 0.500000 0.446641 0.000000
#
# Coordination Sequence:
#
# PCOD9175979 Si02
#       4
#     8   2   8   8
#     4  10  18  33  61  95 128 177 250 276 338 441
#     4  12  32  46  80 128 132 194 272 306 384 484
#     4  10  19  38  62  92 134 194 229 286 375 418
#     4  12  24  51  79 104 157 198 243 318 392 449
#
# _framework density 23.283183000000001
#
# number of rings (size 3 to 8) (size 9 to 14) (size 15 to 20)
#    0.000    1.231    6.154    1.846    0.000    2.462 
#    0.000    9.231    0.000    0.000    0.000    0.000 
#    0.000    0.000    0.000    0.000    0.000    0.000 
#
# Total GULP energy -72433.930368 kJ/mol
# GULP energy per Si atom -5571.840798 kJ/mol
# Density = 2.323019 g / cm^3
# Si number density = 23.283183 Si / 1000 Ang^3
#
#
#
# Elastic Constant Matrix: (Units=GPa)
#
#
# Indices 1 2 3 4 5 6 
#
# 1 192.1478 80.9726 64.6337 0.0000 39.2562 0.0000
# 2 80.9726 231.9386 45.8230 0.0000 -1.1303 0.0000
# 3 64.6337 45.8230 191.8449 0.0000 39.1981 0.0000
# 4 0.0000 0.0000 0.0000 -16.2041 0.0000 23.3745
# 5 39.2562 -1.1303 39.1981 0.0000 47.9621 0.0000
# 6 0.0000 0.0000 0.0000 23.3745 0.0000 102.2360
#
#
#
# Elastic Compliance Matrix: (Units=1/GPa)
#
#
# Indices 1 2 3 4 5 6 
#
# 1 0.007729 -0.002563 -0.000824 0.000000 -0.005713 0.000000
# 2 -0.002563 0.005432 -0.001067 0.000000 0.003098 0.000000
# 3 -0.000824 -0.001067 0.006737 0.000000 -0.004857 0.000000
# 4 0.000000 0.000000 0.000000 -0.046407 0.000000 0.010610
# 5 -0.005713 0.003098 -0.004857 0.000000 0.029568 0.000000
# 6 0.000000 0.000000 0.000000 0.010610 0.000000 0.007355
#
#
# Mechanical properties :
#
#
# Convention : Reuss Voigt Hill
#
# Bulk Modulus (GPa) = 90.99690 110.97667 100.98678
# Shear Modulus (GPa) = 217.51692 55.09892 136.30792
#
# Velocity S-wave (km/s) = 9.67601 4.86991 7.65967
# Velocity P-wave (km/s) = 12.80629 8.91004 11.03154
#
# Compressibility (1/GPa) = 0.01098939
#
# Stress axis : x y z
#
# Youngs Moduli (GPa) = 129.38437 184.08684 148.42345
#
# Poissons Ratio (x) = 0.47185 0.12237
# Poissons Ratio (y) = 0.33164 0.15836
# Poissons Ratio (z) = 0.10667 0.19641
#
# Static dielectric constant tensor:
#      x y z
#    x 0.782510 0.000000 0.717730 
#    y 0.000000 1.767570 0.000000 
#    z 0.717730 0.000000 1.501760 
# 
# From -- ./inp_files/3380.got.cif
#   From: 2010.05.17/outbox.cif.g08.bks.cpg/sg12_2_cif.got.tgz:3380.got - 2010.06.03 13:09:07.
