data_PCOD9175191
_publ_section_title
;
Structure prediction by ZEFSAII (Michael W. Deem and Ramdas Pophale) SiO2 
 PCOD9175191
Probable space group: C 2/M
;
_chemical_formula_sum "Si O2"
_cell_formula_units_Z 48
_cell_length_a 30.937407
_cell_length_b 19.042164
_cell_length_c 13.890209
_cell_angle_alpha 90.000000
_cell_angle_beta 162.482780
_cell_angle_gamma 90.000000
_cell_volume 2463.000802
_symmetry_space_group_name_H-M "C 2/M"
_symmetry_group_IT_number 12
_symmetry_cell_setting 'monoclinic'
loop_
_space_group_symop_operation_xyz
x,y,z
-x,y,-z
-x,-y,-z
x,-y,z
1/2+x,1/2+y,z
1/2-x,1/2+y,-z
1/2-x,1/2-y,-z
1/2+x,1/2-y,z
loop_
_atom_site_type_symbol
_atom_site_label
_atom_site_fract_x
_atom_site_fract_y
_atom_site_fract_z
Si Si1 0.034826 0.218401 0.291892
Si Si2 0.143614 0.416718 0.861503
Si Si3 0.234985 0.709402 0.569977
Si Si4 0.280293 0.581002 0.344613
Si Si5 0.368578 0.301118 0.293182
Si Si6 0.833960 0.081175 0.671495
O O1 0.100193 0.265566 0.345034
O O2 0.096596 0.139102 0.409485
O O3 0.079713 0.232506 0.496283
O O4 0.866566 0.225279 0.920434
O O5 0.156603 0.500000 0.870867
O O6 0.000000 0.392572 0.500000
O O7 0.152038 0.406575 0.995854
O O8 0.284439 0.374516 0.128199
O O9 0.250000 0.750000 0.500000
O O10 0.257503 0.629031 0.587342
O O11 0.329832 0.500000 0.434992
O O12 0.246682 0.587070 0.386048
O O13 0.500000 0.308870 0.500000
O O14 0.250000 0.250000 0.000000
O O15 0.842765 0.000000 0.718822
O O16 0.000000 0.103778 0.000000
#
# Coordination Sequence:
#
# PCOD9175191 Si02
#       6
#     8   8   8   8   8   8
#     4  11  23  37  59  85 116 152 194 243 292 349
#     4   9  19  36  61  90 122 157 196 247 308 367
#     4  12  21  36  56  88 118 151 193 235 288 347
#     4   9  17  33  56  85 113 150 197 234 283 348
#     4  11  23  41  61  86 119 158 204 254 304 355
#     4  10  18  32  56  86 119 153 193 238 284 345
#
# _framework density 19.488423000000001
#
# number of rings (size 3 to 8) (size 9 to 14) (size 15 to 20)
#    0.000    1.667    3.333    2.000    0.000    1.667 
#    0.000    0.000    0.000    6.000    0.000    0.000 
#    0.000    0.000    0.000    0.000    0.000    0.000 
#
# Total GULP energy -133820.383198 kJ/mol
# GULP energy per Si atom -5575.849300 kJ/mol
# Density = 1.944407 g / cm^3
# Si number density = 19.488423 Si / 1000 Ang^3
#
#
#
# Elastic Constant Matrix: (Units=GPa)
#
#
# Indices 1 2 3 4 5 6 
#
# 1 96.7997 21.4733 30.5921 0.0000 -14.7626 0.0000
# 2 21.4733 51.5362 10.1624 0.0000 0.1354 0.0000
# 3 30.5921 10.1624 84.5143 0.0001 -25.2396 0.0001
# 4 0.0000 0.0000 0.0001 21.9572 0.0000 -7.6473
# 5 -14.7626 0.1354 -25.2396 0.0000 38.2244 0.0000
# 6 0.0000 0.0000 0.0001 -7.6473 0.0000 21.3915
#
#
#
# Elastic Compliance Matrix: (Units=1/GPa)
#
#
# Indices 1 2 3 4 5 6 
#
# 1 0.012831 -0.004717 -0.003229 0.000000 0.002840 0.000000
# 2 -0.004717 0.021739 -0.001836 0.000000 -0.003111 0.000000
# 3 -0.003229 -0.001836 0.016008 0.000000 0.009330 0.000000
# 4 0.000000 0.000000 0.000000 0.052020 0.000000 0.018597
# 5 0.002840 -0.003111 0.009330 0.000000 0.033429 0.000000
# 6 0.000000 0.000000 0.000000 0.018597 0.000000 0.053396
#
#
# Mechanical properties :
#
#
# Convention : Reuss Voigt Hill
#
# Bulk Modulus (GPa) = 32.24261 39.70065 35.97163
# Shear Modulus (GPa) = 22.79725 27.68943 25.24334
#
# Velocity S-wave (km/s) = 3.42392 3.77346 3.60293
# Velocity P-wave (km/s) = 5.67551 6.27702 5.98383
#
# Compressibility (1/GPa) = 0.03101486
#
# Stress axis : x y z
#
# Youngs Moduli (GPa) = 77.93911 45.99967 62.46829
#
# Poissons Ratio (x) = 0.21697 0.20172
# Poissons Ratio (y) = 0.36762 0.11467
# Poissons Ratio (z) = 0.25167 0.08444
#
# Static dielectric constant tensor:
#      x y z
#    x 1.667860 0.000000 -0.047750 
#    y 0.000000 1.748090 0.000000 
#    z -0.047750 0.000000 1.686650 
# 
# From -- ./inp_files/184826.got.cif
#   From: 2010.05.17/outbox.cif.g08.bks.cpg/sg12_93_cif.got.tgz:184826.got - 2010.06.03 13:09:07.
