data_PCOD9175228
_publ_section_title
;
Structure prediction by ZEFSAII (Michael W. Deem and Ramdas Pophale) SiO2 
 PCOD9175228
Probable space group: C 2/M
;
_chemical_formula_sum "Si O2"
_cell_formula_units_Z 64
_cell_length_a 30.024923
_cell_length_b 13.381432
_cell_length_c 17.735664
_cell_angle_alpha 90.000000
_cell_angle_beta 26.764463
_cell_angle_gamma 90.000000
_cell_volume 3208.905178
_symmetry_space_group_name_H-M "C 2/M"
_symmetry_group_IT_number 12
_symmetry_cell_setting 'monoclinic'
loop_
_space_group_symop_operation_xyz
x,y,z
-x,y,-z
-x,-y,-z
x,-y,z
1/2+x,1/2+y,z
1/2-x,1/2+y,-z
1/2-x,1/2-y,-z
1/2+x,1/2-y,z
loop_
_atom_site_type_symbol
_atom_site_label
_atom_site_fract_x
_atom_site_fract_y
_atom_site_fract_z
Si Si1 0.788093 0.788718 0.709914
Si Si2 0.626626 0.388035 0.564504
Si Si3 0.605275 0.379321 0.760489
Si Si4 0.616657 0.779891 0.174593
Si Si5 0.939250 0.616846 0.512675
Si Si6 0.691950 0.614468 0.162027
Si Si7 0.888554 0.895279 0.930044
Si Si8 0.881249 0.179411 0.097286
O O1 0.846352 0.823919 0.548019
O O2 0.842924 0.687422 0.655683
O O3 0.793409 0.864023 0.771666
O O4 0.677451 0.774635 0.844561
O O5 0.666131 0.500000 0.493422
O O6 0.657313 0.354651 0.602577
O O7 0.507638 0.394504 0.747264
O O8 0.586074 0.500000 0.789262
O O9 0.654513 0.352534 0.765817
O O10 0.500176 0.321583 0.919689
O O11 0.515465 0.840176 0.334757
O O12 0.618604 0.698305 0.239179
O O13 0.638186 0.706938 0.071160
O O14 0.706541 0.858526 0.036073
O O15 0.916038 0.500000 0.536203
O O16 0.000000 0.624239 0.500000
O O17 0.661477 0.500000 0.197907
O O18 0.852565 0.000000 0.949911
O O19 0.859429 0.894291 0.061158
#
# Coordination Sequence:
#
# PCOD9175228 Si02
#       8
#     8   8   8   8   8   8   8   8
#     4  12  22  37  56  87 118 145 196 232 271 349
#     4   9  19  34  56  81 113 148 180 231 287 335
#     4   9  18  36  58  83 111 144 184 233 295 337
#     4  11  21  41  57  80 113 150 195 232 271 343
#     4  11  24  41  58  79 117 159 187 230 289 335
#     4  11  24  39  58  83 112 152 192 238 281 321
#     4  10  18  32  57  83 109 145 188 236 278 321
#     4  10  19  32  55  86 115 143 180 239 283 332
#
# _framework density 19.944496000000001
#
# number of rings (size 3 to 8) (size 9 to 14) (size 15 to 20)
#    0.000    1.625    3.750    3.375    0.000    2.000 
#    0.000    0.625    0.000    0.000    0.000    7.000 
#    0.000    0.000    0.000    0.000    0.000    0.000 
#
# Total GULP energy -178220.843841 kJ/mol
# GULP energy per Si atom -5569.401370 kJ/mol
# Density = 1.989910 g / cm^3
# Si number density = 19.944496 Si / 1000 Ang^3
#
#
#
# Elastic Constant Matrix: (Units=GPa)
#
#
# Indices 1 2 3 4 5 6 
#
# 1 115.8486 32.0386 17.2824 0.0000 31.9236 0.0000
# 2 32.0386 78.7910 14.3782 0.0000 15.2327 0.0000
# 3 17.2824 14.3782 30.6754 0.0000 9.3597 0.0000
# 4 0.0000 0.0000 0.0000 5.5505 0.0000 6.1447
# 5 31.9236 15.2327 9.3597 0.0000 29.3415 0.0000
# 6 0.0000 0.0000 0.0000 6.1447 0.0000 23.4297
#
#
#
# Elastic Compliance Matrix: (Units=1/GPa)
#
#
# Indices 1 2 3 4 5 6 
#
# 1 0.013023 -0.002509 -0.002476 0.000000 -0.012077 0.000000
# 2 -0.002509 0.015274 -0.004608 0.000000 -0.003730 0.000000
# 3 -0.002476 -0.004608 0.038333 0.000000 -0.007142 0.000000
# 4 0.000000 0.000000 0.000000 0.253872 0.000000 -0.066581
# 5 -0.012077 -0.003730 -0.007142 0.000000 0.051436 0.000000
# 6 0.000000 0.000000 0.000000 -0.066581 0.000000 0.060142
#
#
# Mechanical properties :
#
#
# Convention : Reuss Voigt Hill
#
# Bulk Modulus (GPa) = 21.07716 39.19039 30.13377
# Shear Modulus (GPa) = 10.70477 22.43872 16.57175
#
# Velocity S-wave (km/s) = 2.31925 3.35783 2.88565
# Velocity P-wave (km/s) = 4.21459 5.89285 5.12291
#
# Compressibility (1/GPa) = 0.04744473
#
# Stress axis : x y z
#
# Youngs Moduli (GPa) = 76.78649 65.47102 26.08696
#
# Poissons Ratio (x) = 0.16426 0.06460
# Poissons Ratio (y) = 0.19265 0.12020
# Poissons Ratio (z) = 0.19015 0.30167
#
# Static dielectric constant tensor:
#      x y z
#    x 1.762000 0.000000 0.020730 
#    y 0.000000 1.727280 0.000000 
#    z 0.020730 0.000000 1.730730 
# 
# From -- ./inp_files/296463.got.cif
#   From: 2010.05.17/outbox.cif.g08.bks.cpg/sg12_149_cif.got.tgz:296463.got - 2010.06.03 13:09:07.
