data_PCOD9175137
_publ_section_title
;
Structure prediction by ZEFSAII (Michael W. Deem and Ramdas Pophale) SiO2 
 PCOD9175137
Probable space group: C 2/M
;
_chemical_formula_sum "Si O2"
_cell_formula_units_Z 40
_cell_length_a 17.260304
_cell_length_b 13.905660
_cell_length_c 15.399622
_cell_angle_alpha 90.000000
_cell_angle_beta 155.982448
_cell_angle_gamma 90.000000
_cell_volume 1504.395763
_symmetry_space_group_name_H-M "C 2/M"
_symmetry_group_IT_number 12
_symmetry_cell_setting 'monoclinic'
loop_
_space_group_symop_operation_xyz
x,y,z
-x,y,-z
-x,-y,-z
x,-y,z
1/2+x,1/2+y,z
1/2-x,1/2+y,-z
1/2-x,1/2-y,-z
1/2+x,1/2-y,z
loop_
_atom_site_type_symbol
_atom_site_label
_atom_site_fract_x
_atom_site_fract_y
_atom_site_fract_z
Si Si1 0.389274 0.000000 0.952465
Si Si2 0.986573 0.605759 0.628917
Si Si3 0.626298 0.500000 0.557852
Si Si4 0.618432 0.811557 0.945278
Si Si5 0.534897 0.299952 0.432257
Si Si6 0.415545 0.391511 0.010387
O O1 0.633750 0.000000 0.177459
O O2 0.395814 0.892281 0.995638
O O3 0.125014 0.000000 0.671339
O O4 0.903184 0.500000 0.534395
O O5 0.043394 0.628780 0.786198
O O6 0.864976 0.697922 0.477409
O O7 0.182566 0.608424 0.773554
O O8 0.626967 0.400563 0.504727
O O9 0.537945 0.706609 0.888637
O O10 0.846689 0.794762 0.179980
O O11 0.500000 0.306467 0.500000
O O12 0.462932 0.500000 0.093817
O O13 0.500000 0.384746 0.000000
#
# Coordination Sequence:
#
# PCOD9175137 Si02
#       6
#     4   8   4   8   8   8
#     4  12  22  34  62  94 116 152 191 248 299 346
#     4  10  21  34  55  87 116 151 200 248 292 344
#     4  10  18  36  56  84 118 146 197 245 281 347
#     4  11  19  36  55  89 119 146 195 250 293 348
#     4  10  18  32  56  81 112 150 193 243 285 343
#     4   9  18  32  49  77 115 150 185 236 293 344
#
# _framework density 26.588747999999999
#
# number of rings (size 3 to 8) (size 9 to 14) (size 15 to 20)
#    0.000    1.800    5.000    3.000    0.000    0.400 
#    1.800    0.000    0.000    1.200   10.400    0.000 
#    0.000    0.000    0.000    0.000    0.000    0.000 
#
# Total GULP energy -111556.634531 kJ/mol
# GULP energy per Si atom -5577.831727 kJ/mol
# Density = 2.652823 g / cm^3
# Si number density = 26.588748 Si / 1000 Ang^3
#
#
#
# Elastic Constant Matrix: (Units=GPa)
#
#
# Indices 1 2 3 4 5 6 
#
# 1 68.4897 46.5179 23.8543 -0.0004 8.6921 -0.0003
# 2 46.5179 333.5040 24.2558 -0.0008 0.4587 -0.0012
# 3 23.8543 24.2558 93.3919 -0.0019 25.5317 -0.0015
# 4 -0.0004 -0.0008 -0.0019 -26.5325 -0.0013 0.8699
# 5 8.6921 0.4587 25.5317 -0.0013 39.1210 -0.0009
# 6 -0.0003 -0.0012 -0.0015 0.8699 -0.0009 19.5482
#
#
#
# Elastic Compliance Matrix: (Units=1/GPa)
#
#
# Indices 1 2 3 4 5 6 
#
# 1 0.017495 -0.002186 -0.003463 0.000000 -0.001601 0.000000
# 2 -0.002186 0.003340 -0.000525 0.000000 0.000789 0.000000
# 3 -0.003463 -0.000525 0.014017 0.000000 -0.008373 0.000001
# 4 0.000000 0.000000 0.000000 -0.037635 -0.000001 0.001675
# 5 -0.001601 0.000789 -0.008373 -0.000001 0.031373 0.000001
# 6 0.000000 0.000000 0.000001 0.001675 0.000001 0.051081
#
#
# Mechanical properties :
#
#
# Convention : Reuss Voigt Hill
#
# Bulk Modulus (GPa) = 44.43543 76.07129 60.25336
# Shear Modulus (GPa) = 50.24043 33.14451 41.69247
#
# Velocity S-wave (km/s) = 4.35160 3.53450 3.96416
# Velocity P-wave (km/s) = 6.48050 6.73271 6.60781
#
# Compressibility (1/GPa) = 0.02250456
#
# Stress axis : x y z
#
# Youngs Moduli (GPa) = 57.15939 299.35729 71.34012
#
# Poissons Ratio (x) = 0.65444 0.24705
# Poissons Ratio (y) = 0.12496 0.03745
# Poissons Ratio (z) = 0.19794 0.15715
#
# Static dielectric constant tensor:
#      x y z
#    x 2.146290 0.000000 0.128380 
#    y 0.000000 2.032610 0.000000 
#    z 0.128380 0.000000 2.335240 
# 
# From -- ./inp_files/284665.got.cif
#   From: 2010.05.17/outbox.cif.g08.bks.cpg/sg12_143_cif.got.tgz:284665.got - 2010.06.03 13:09:07.
