data_PCOD9175879
_publ_section_title
;
Structure prediction by ZEFSAII (Michael W. Deem and Ramdas Pophale) SiO2 
 PCOD9175879
Probable space group: C 2/M
;
_chemical_formula_sum "Si O2"
_cell_formula_units_Z 48
_cell_length_a 17.116852
_cell_length_b 19.157045
_cell_length_c 14.880998
_cell_angle_alpha 90.000000
_cell_angle_beta 34.519798
_cell_angle_gamma 90.000000
_cell_volume 2765.226862
_symmetry_space_group_name_H-M "C 2/M"
_symmetry_group_IT_number 12
_symmetry_cell_setting 'monoclinic'
loop_
_space_group_symop_operation_xyz
x,y,z
-x,y,-z
-x,-y,-z
x,-y,z
1/2+x,1/2+y,z
1/2-x,1/2+y,-z
1/2-x,1/2-y,-z
1/2+x,1/2-y,z
loop_
_atom_site_type_symbol
_atom_site_label
_atom_site_fract_x
_atom_site_fract_y
_atom_site_fract_z
Si Si1 0.348383 0.296648 0.839946
Si Si2 0.013509 0.668817 0.699380
Si Si3 0.684326 0.920204 0.239613
Si Si4 0.232879 0.582607 0.396711
Si Si5 0.955009 0.131435 0.900516
Si Si6 0.926403 0.705515 0.978616
O O1 0.481123 0.248068 0.697806
O O2 0.397175 0.361338 0.853354
O O3 0.250000 0.250000 0.000000
O O4 0.239217 0.307991 0.864195
O O5 0.157225 0.633869 0.537603
O O6 0.900992 0.625386 0.749455
O O7 0.985781 0.668910 0.832416
O O8 0.670033 0.901096 0.357635
O O9 0.641584 0.000000 0.270192
O O10 0.844614 0.910838 0.062810
O O11 0.211732 0.500000 0.434648
O O12 0.394510 0.599245 0.240325
O O13 0.954651 0.211268 0.938018
O O14 0.000000 0.683376 0.000000
#
# Coordination Sequence:
#
# PCOD9175879 Si02
#       6
#     8   8   8   8   8   8
#     4   8  16  32  54  74  98 132 170 209 260 303
#     4  10  19  35  49  73 111 135 167 216 258 299
#     4  11  19  32  52  74 104 147 175 199 247 312
#     4  11  23  32  48  80 111 140 172 203 251 315
#     4  10  18  34  53  77 109 135 169 212 252 308
#     4  10  18  33  59  80  97 130 175 223 259 298
#
# _framework density 17.358431
#
# number of rings (size 3 to 8) (size 9 to 14) (size 15 to 20)
#    0.000    2.333    5.000    3.000    0.000    5.333 
#    0.000    0.000    0.000    2.000    0.000    1.167 
#    0.000    0.000    0.000    0.000    0.000    0.000 
#
# Total GULP energy -133680.678095 kJ/mol
# GULP energy per Si atom -5570.028254 kJ/mol
# Density = 1.731892 g / cm^3
# Si number density = 17.358431 Si / 1000 Ang^3
#
#
#
# Elastic Constant Matrix: (Units=GPa)
#
#
# Indices 1 2 3 4 5 6 
#
# 1 115.4751 12.9484 12.5215 -0.0006 7.6905 0.0001
# 2 12.9484 29.7883 6.2062 -0.0016 14.1009 0.0007
# 3 12.5215 6.2062 50.4509 -0.0017 -3.5875 0.0006
# 4 -0.0006 -0.0016 -0.0017 4.0567 0.0011 7.0665
# 5 7.6905 14.1009 -3.5875 0.0011 22.2175 -0.0004
# 6 0.0001 0.0007 0.0006 7.0665 -0.0004 17.3756
#
#
#
# Elastic Compliance Matrix: (Units=1/GPa)
#
#
# Indices 1 2 3 4 5 6 
#
# 1 0.009318 -0.002751 -0.002103 -0.000001 -0.001819 0.000000
# 2 -0.002751 0.052370 -0.008149 0.000106 -0.033601 -0.000046
# 3 -0.002103 -0.008149 0.022018 0.000012 0.009455 -0.000005
# 4 -0.000001 0.000106 0.000012 0.845409 -0.000115 -0.343819
# 5 -0.001819 -0.033601 0.009455 -0.000115 0.068492 0.000049
# 6 0.000000 -0.000046 -0.000005 -0.343819 0.000049 0.197380
#
#
# Mechanical properties :
#
#
# Convention : Reuss Voigt Hill
#
# Bulk Modulus (GPa) = 17.33137 28.78517 23.05827
# Shear Modulus (GPa) = 4.03153 19.66585 11.84869
#
# Velocity S-wave (km/s) = 1.52563 3.36955 2.61548
# Velocity P-wave (km/s) = 3.62070 5.63536 4.73639
#
# Compressibility (1/GPa) = 0.05769886
#
# Stress axis : x y z
#
# Youngs Moduli (GPa) = 107.32412 19.09507 45.41721
#
# Poissons Ratio (x) = 0.05253 0.09553
# Poissons Ratio (y) = 0.29523 0.37010
# Poissons Ratio (z) = 0.22576 0.15560
#
# Static dielectric constant tensor:
#      x y z
#    x 1.651350 0.000000 -0.021740 
#    y 0.000000 1.594940 0.000000 
#    z -0.021740 0.000000 1.632770 
# 
# From -- ./inp_files/76703.got.cif
#   From: 2010.05.17/outbox.cif.g08.bks.cpg/sg12_39_cif.got.tgz:76703.got - 2010.06.03 13:09:07.
