data_PCOD9175640
_publ_section_title
;
Structure prediction by ZEFSAII (Michael W. Deem and Ramdas Pophale) SiO2 
 PCOD9175640
Probable space group: C 2/M
;
_chemical_formula_sum "Si O2"
_cell_formula_units_Z 48
_cell_length_a 14.597758
_cell_length_b 19.419825
_cell_length_c 16.047900
_cell_angle_alpha 90.000000
_cell_angle_beta 145.517270
_cell_angle_gamma 90.000000
_cell_volume 2575.651970
_symmetry_space_group_name_H-M "C 2/M"
_symmetry_group_IT_number 12
_symmetry_cell_setting 'monoclinic'
loop_
_space_group_symop_operation_xyz
x,y,z
-x,y,-z
-x,-y,-z
x,-y,z
1/2+x,1/2+y,z
1/2-x,1/2+y,-z
1/2-x,1/2-y,-z
1/2+x,1/2-y,z
loop_
_atom_site_type_symbol
_atom_site_label
_atom_site_fract_x
_atom_site_fract_y
_atom_site_fract_z
Si Si1 0.531204 0.145281 0.932960
Si Si2 0.957816 0.422571 0.236281
Si Si3 0.607862 0.624187 0.006309
Si Si4 0.916953 0.225145 0.764197
Si Si5 0.679236 0.739868 0.819970
Si Si6 0.058186 0.686532 0.454249
O O1 0.714550 0.173928 0.078738
O O2 0.500000 0.113002 0.000000
O O3 0.505492 0.100829 0.830957
O O4 0.420714 0.214259 0.836356
O O5 0.015001 0.500000 0.294455
O O6 0.761613 0.420061 0.096053
O O7 0.028217 0.369928 0.358845
O O8 0.696739 0.696572 0.096596
O O9 0.758759 0.713041 0.405130
O O10 0.480002 0.651311 0.843188
O O11 0.056642 0.249791 0.805465
O O12 0.000000 0.095596 0.000000
O O13 0.559367 0.748410 0.652822
O O14 0.000000 0.658031 0.500000
#
# Coordination Sequence:
#
# PCOD9175640 Si02
#       6
#     8   8   8   8   8   8
#     4  11  20  36  60  85 112 144 182 234 284 334
#     4  11  24  41  55  76 112 155 200 233 263 319
#     4  10  18  34  57  82 112 144 181 233 281 330
#     4  11  17  33  59  86 117 143 170 229 299 341
#     4  10  18  33  55  88 116 141 170 230 292 342
#     4  11  22  35  55  87 117 146 179 227 286 347
#
# _framework density 18.636057999999998
#
# number of rings (size 3 to 8) (size 9 to 14) (size 15 to 20)
#    0.000    1.333    5.000    6.500    0.000    1.000 
#    0.000    0.833    0.000    0.000    0.000    1.167 
#    0.000    0.000    0.000    0.000    0.000    0.000 
#
# Total GULP energy -133661.505134 kJ/mol
# GULP energy per Si atom -5569.229381 kJ/mol
# Density = 1.859364 g / cm^3
# Si number density = 18.636058 Si / 1000 Ang^3
#
#
#
# Elastic Constant Matrix: (Units=GPa)
#
#
# Indices 1 2 3 4 5 6 
#
# 1 80.2624 8.4277 37.3503 -0.0007 -5.6637 -0.0006
# 2 8.4277 43.4296 19.4734 -0.0007 -4.6508 -0.0007
# 3 37.3503 19.4734 113.4887 -0.0007 3.7214 -0.0008
# 4 -0.0007 -0.0007 -0.0007 15.0410 -0.0007 0.1344
# 5 -5.6637 -4.6508 3.7214 -0.0007 51.1297 -0.0007
# 6 -0.0006 -0.0007 -0.0008 0.1344 -0.0007 2.6331
#
#
#
# Elastic Compliance Matrix: (Units=1/GPa)
#
#
# Indices 1 2 3 4 5 6 
#
# 1 0.014926 -0.000492 -0.004892 0.000000 0.001965 0.000002
# 2 -0.000492 0.025307 -0.004264 0.000001 0.002558 0.000006
# 3 -0.004892 -0.004264 0.011210 0.000000 -0.001746 0.000001
# 4 0.000000 0.000001 0.000000 0.066515 0.000001 -0.003396
# 5 0.001965 0.002558 -0.001746 0.000001 0.020135 0.000006
# 6 0.000002 0.000006 0.000001 -0.003396 0.000006 0.379957
#
#
# Mechanical properties :
#
#
# Convention : Reuss Voigt Hill
#
# Bulk Modulus (GPa) = 31.10811 40.85373 35.98092
# Shear Modulus (GPa) = 9.12300 25.22271 17.17285
#
# Velocity S-wave (km/s) = 2.21494 3.68290 3.03889
# Velocity P-wave (km/s) = 4.82390 6.32886 5.62692
#
# Compressibility (1/GPa) = 0.03214596
#
# Stress axis : x y z
#
# Youngs Moduli (GPa) = 66.99672 39.51429 89.20223
#
# Poissons Ratio (x) = 0.01946 0.43640
# Poissons Ratio (y) = 0.03299 0.38038
# Poissons Ratio (z) = 0.32776 0.16850
#
# Static dielectric constant tensor:
#      x y z
#    x 1.710120 0.000000 -0.052010 
#    y 0.000000 1.648850 0.000000 
#    z -0.052010 0.000000 1.720870 
# 
# From -- ./inp_files/146719.got.cif
#   From: 2010.05.17/outbox.cif.g08.bks.cpg/sg12_74_cif.got.tgz:146719.got - 2010.06.03 13:09:07.
