data_PCOD9175696
_publ_section_title
;
Structure prediction by ZEFSAII (Michael W. Deem and Ramdas Pophale) SiO2 
 PCOD9175696
Probable space group: C 2/M
;
_chemical_formula_sum "Si O2"
_cell_formula_units_Z 50
_cell_length_a 19.338653
_cell_length_b 7.882861
_cell_length_c 13.774552
_cell_angle_alpha 90.000000
_cell_angle_beta 101.679149
_cell_angle_gamma 90.000000
_cell_volume 2056.372532
_symmetry_space_group_name_H-M "C 2/M"
_symmetry_group_IT_number 12
_symmetry_cell_setting 'monoclinic'
loop_
_space_group_symop_operation_xyz
x,y,z
-x,y,-z
-x,-y,-z
x,-y,z
1/2+x,1/2+y,z
1/2-x,1/2+y,-z
1/2-x,1/2-y,-z
1/2+x,1/2-y,z
loop_
_atom_site_type_symbol
_atom_site_label
_atom_site_fract_x
_atom_site_fract_y
_atom_site_fract_z
Si Si1 0.928373 0.195968 0.081258
Si Si2 0.448756 0.798788 0.397680
Si Si3 0.070130 0.799534 0.310763
Si Si4 0.714835 0.298422 0.887047
Si Si5 0.671099 0.701875 0.509082
Si Si6 0.500000 0.000000 0.000000
Si Si7 0.139883 0.299578 0.133207
O O1 0.981861 0.347900 0.075431
O O2 0.889429 0.190613 0.964113
O O3 0.952272 0.000000 0.108366
O O4 0.865564 0.260674 0.134602
O O5 0.500000 0.730452 0.500000
O O6 0.488446 0.732336 0.313419
O O7 0.368177 0.754147 0.401930
O O8 0.454315 0.000000 0.397910
O O9 0.118767 0.727265 0.411133
O O10 0.100447 0.726475 0.221281
O O11 0.080755 0.000000 0.310382
O O12 0.707861 0.500000 0.881813
O O13 0.777081 0.255978 0.829990
O O14 0.750000 0.250000 0.000000
O O15 0.668567 0.500000 0.508431
O O16 0.750000 0.750000 0.500000
O O17 0.130463 0.500000 0.098893
#
# Coordination Sequence:
#
# PCOD9175696 Si02
#       7
#     8   8   8   8   8   2   8
#     4  10  20  36  56  81 111 147 187 230 274 328
#     4   9  17  31  52  77 101 134 180 225 267 319
#     4  10  20  33  52  81 110 141 178 224 276 327
#     4   8  16  29  51  78 103 133 175 228 275 314
#     4  10  20  34  54  77 108 142 180 224 274 330
#     4  12  22  36  56  82 112 148 192 222 274 346
#     4  10  18  33  56  83 110 137 180 230 276 324
#
# _framework density 24.31466
#
# number of rings (size 3 to 8) (size 9 to 14) (size 15 to 20)
#    0.000    2.400    0.800    2.160    1.120    4.480 
#    0.000    0.000    3.520    0.000    0.000    0.000 
#    0.000    0.000    0.000    0.000    0.000    0.000 
#
# Total GULP energy -139304.605675 kJ/mol
# GULP energy per Si atom -5572.184227 kJ/mol
# Density = 2.425932 g / cm^3
# Si number density = 24.314660 Si / 1000 Ang^3
#
#
#
# Elastic Constant Matrix: (Units=GPa)
#
#
# Indices 1 2 3 4 5 6 
#
# 1 140.3628 25.3415 61.4173 0.0000 -40.4012 0.0000
# 2 25.3415 107.3251 8.2492 0.0000 -18.2552 0.0000
# 3 61.4173 8.2492 86.8390 0.0000 -48.5439 0.0000
# 4 0.0000 0.0000 0.0000 22.5404 0.0000 -12.1847
# 5 -40.4012 -18.2552 -48.5439 0.0000 47.6813 0.0000
# 6 0.0000 0.0000 0.0000 -12.1847 0.0000 32.2897
#
#
#
# Elastic Compliance Matrix: (Units=1/GPa)
#
#
# Indices 1 2 3 4 5 6 
#
# 1 0.010790 -0.001713 -0.006323 0.000000 0.002049 0.000000
# 2 -0.001713 0.010530 0.003838 0.000000 0.006487 0.000000
# 3 -0.006323 0.003838 0.031214 0.000000 0.027890 0.000000
# 4 0.000000 0.000000 0.000000 0.055734 0.000000 0.021032
# 5 0.002049 0.006487 0.027890 0.000000 0.053588 0.000000
# 6 0.000000 0.000000 0.000000 0.021032 0.000000 0.038906
#
#
# Mechanical properties :
#
#
# Convention : Reuss Voigt Hill
#
# Bulk Modulus (GPa) = 22.65632 58.28254 40.46943
# Shear Modulus (GPa) = 22.33417 36.47021 29.40219
#
# Velocity S-wave (km/s) = 3.03404 3.87709 3.48118
# Velocity P-wave (km/s) = 4.64888 6.63812 5.73047
#
# Compressibility (1/GPa) = 0.04413779
#
# Stress axis : x y z
#
# Youngs Moduli (GPa) = 92.67541 94.96256 32.03679
#
# Poissons Ratio (x) = 0.16269 0.20257
# Poissons Ratio (y) = 0.15877 -0.12295
# Poissons Ratio (z) = 0.58600 -0.36445
#
# Static dielectric constant tensor:
#      x y z
#    x 2.447700 0.000000 0.073550 
#    y 0.000000 1.917330 0.000000 
#    z 0.073550 0.000000 2.017810 
# 
# From -- ./inp_files/274257.got.cif
#   From: 2010.05.17/outbox.cif.g08.bks.cpg/sg12_138_cif.got.tgz:274257.got - 2010.06.03 13:09:07.
