data_PCOD9175322
_publ_section_title
;
Structure prediction by ZEFSAII (Michael W. Deem and Ramdas Pophale) SiO2 
 PCOD9175322
Probable space group: C 2/M
;
_chemical_formula_sum "Si O2"
_cell_formula_units_Z 44
_cell_length_a 25.355384
_cell_length_b 9.391187
_cell_length_c 12.646668
_cell_angle_alpha 90.000000
_cell_angle_beta 128.251050
_cell_angle_gamma 90.000000
_cell_volume 2364.860267
_symmetry_space_group_name_H-M "C 2/M"
_symmetry_group_IT_number 12
_symmetry_cell_setting 'monoclinic'
loop_
_space_group_symop_operation_xyz
x,y,z
-x,y,-z
-x,-y,-z
x,-y,z
1/2+x,1/2+y,z
1/2-x,1/2+y,-z
1/2-x,1/2-y,-z
1/2+x,1/2-y,z
loop_
_atom_site_type_symbol
_atom_site_label
_atom_site_fract_x
_atom_site_fract_y
_atom_site_fract_z
Si Si1 0.861742 0.660242 0.915211
Si Si2 0.500000 0.253963 0.000000
Si Si3 0.560195 0.340242 0.288772
Si Si4 0.957654 0.172092 0.345927
Si Si5 0.686124 0.832126 0.378986
Si Si6 0.821044 0.172105 0.069569
O O1 0.845048 0.500000 0.931566
O O2 0.822217 0.690655 0.757472
O O3 0.846947 0.774060 0.987399
O O4 0.939212 0.665503 0.974902
O O5 0.529774 0.342341 0.133616
O O6 0.582908 0.500000 0.346372
O O7 0.502831 0.295162 0.299452
O O8 0.621378 0.231824 0.357497
O O9 0.880520 0.215266 0.226506
O O10 0.000000 0.224903 0.500000
O O11 0.954762 0.000000 0.351075
O O12 0.750000 0.750000 0.500000
O O13 0.690934 0.000000 0.402722
O O14 0.814172 0.000000 0.063497
O O15 0.750000 0.250000 0.000000
#
# Coordination Sequence:
#
# PCOD9175322 Si02
#       6
#     8   4   8   8   8   8
#     4  10  21  37  59  86 117 154 195 247 306 364
#     4  10  18  32  58  92 116 144 192 246 298 356
#     4  10  19  33  57  86 114 149 192 245 299 357
#     4   9  19  37  59  84 115 156 204 248 298 362
#     4  10  22  38  56  84 119 156 195 242 306 371
#     4  11  23  40  61  89 121 161 210 259 312 370
#
# _framework density 18.605751000000001
#
# number of rings (size 3 to 8) (size 9 to 14) (size 15 to 20)
#    0.000    2.000    1.818    1.636    0.000    5.818 
#    0.000    3.636    0.000    3.818    0.000    0.000 
#    0.000    0.000    0.000    0.000    0.000    0.000 
#
# Total GULP energy -122655.473063 kJ/mol
# GULP energy per Si atom -5575.248776 kJ/mol
# Density = 1.856340 g / cm^3
# Si number density = 18.605751 Si / 1000 Ang^3
#
#
#
# Elastic Constant Matrix: (Units=GPa)
#
#
# Indices 1 2 3 4 5 6 
#
# 1 109.0195 39.8803 67.9539 0.0000 13.5080 0.0000
# 2 39.8803 75.0376 59.4026 0.0000 9.9720 0.0000
# 3 67.9539 59.4026 117.5518 0.0000 31.7645 0.0000
# 4 0.0000 0.0000 0.0000 15.6376 0.0000 -5.1066
# 5 13.5080 9.9720 31.7645 0.0000 28.3661 0.0000
# 6 0.0000 0.0000 0.0000 -5.1066 0.0000 25.5016
#
#
#
# Elastic Compliance Matrix: (Units=1/GPa)
#
#
# Indices 1 2 3 4 5 6 
#
# 1 0.014670 -0.001377 -0.008643 0.000000 0.003177 0.000000
# 2 -0.001377 0.023303 -0.012824 0.000000 0.006824 0.000000
# 3 -0.008643 -0.012824 0.025313 0.000000 -0.019721 0.000000
# 4 0.000000 0.000000 0.000000 0.068423 0.000000 0.013701
# 5 0.003177 0.006824 -0.019721 0.000000 0.053425 0.000000
# 6 0.000000 0.000000 0.000000 0.013701 0.000000 0.041957
#
#
# Mechanical properties :
#
#
# Convention : Reuss Voigt Hill
#
# Bulk Modulus (GPa) = 56.82299 70.67583 63.74941
# Shear Modulus (GPa) = 17.94397 22.85920 20.40159
#
# Velocity S-wave (km/s) = 3.10890 3.50896 3.31497
# Velocity P-wave (km/s) = 6.59499 7.38143 6.99926
#
# Compressibility (1/GPa) = 0.01759851
#
# Stress axis : x y z
#
# Youngs Moduli (GPa) = 68.16594 42.91202 39.50593
#
# Poissons Ratio (x) = 0.05907 0.34146
# Poissons Ratio (y) = 0.09384 0.50663
# Poissons Ratio (z) = 0.58917 0.55031
#
# Static dielectric constant tensor:
#      x y z
#    x 1.634840 0.000000 0.013150 
#    y 0.000000 1.640900 0.000000 
#    z 0.013150 0.000000 1.661270 
# 
# From -- ./inp_files/181306.got.cif
#   From: 2010.05.17/outbox.cif.g08.bks.cpg/sg12_91_cif.got.tgz:181306.got - 2010.06.03 13:09:07.
