data_PCOD9175016
_publ_section_title
;
Structure prediction by ZEFSAII (Michael W. Deem and Ramdas Pophale) SiO2 
 PCOD9175016
Probable space group: C 2/M
;
_chemical_formula_sum "Si O2"
_cell_formula_units_Z 64
_cell_length_a 21.048580
_cell_length_b 7.760786
_cell_length_c 20.575908
_cell_angle_alpha 90.000000
_cell_angle_beta 101.223595
_cell_angle_gamma 90.000000
_cell_volume 3296.865447
_symmetry_space_group_name_H-M "C 2/M"
_symmetry_group_IT_number 12
_symmetry_cell_setting 'monoclinic'
loop_
_space_group_symop_operation_xyz
x,y,z
-x,y,-z
-x,-y,-z
x,-y,z
1/2+x,1/2+y,z
1/2-x,1/2+y,-z
1/2-x,1/2-y,-z
1/2+x,1/2-y,z
loop_
_atom_site_type_symbol
_atom_site_label
_atom_site_fract_x
_atom_site_fract_y
_atom_site_fract_z
Si Si1 0.693762 0.292396 0.769787
Si Si2 0.164475 0.207789 0.152317
Si Si3 0.571753 0.291996 0.490154
Si Si4 0.599640 0.288937 0.867752
Si Si5 0.677349 0.292611 0.007797
Si Si6 0.377487 0.300363 0.369261
Si Si7 0.982347 0.300772 0.649512
Si Si8 0.040609 0.792086 0.207447
O O1 0.686953 0.500000 0.766770
O O2 0.767462 0.250751 0.800716
O O3 0.647455 0.232103 0.819300
O O4 0.667908 0.223427 0.695577
O O5 0.165012 0.272921 0.078105
O O6 0.103307 0.271858 0.181293
O O7 0.159983 0.000000 0.148589
O O8 0.500000 0.239525 0.500000
O O9 0.574266 0.500000 0.490845
O O10 0.618814 0.226840 0.556754
O O11 0.572328 0.233996 0.415871
O O12 0.600029 0.500000 0.867949
O O13 0.526914 0.232372 0.837680
O O14 0.628122 0.230811 0.942407
O O15 0.671989 0.500000 0.008697
O O16 0.750000 0.250000 0.000000
O O17 0.358369 0.500000 0.372949
O O18 0.451228 0.297361 0.355995
O O19 0.000040 0.500000 0.650364
O O20 0.959756 0.255270 0.716930
O O21 0.040568 0.000000 0.203960
#
# Coordination Sequence:
#
# PCOD9175016 Si02
#       8
#     8   8   8   8   8   8   8   8
#     4  10  18  32  55  78 102 136 175 212 252 307
#     4  10  22  35  52  78 106 135 170 217 263 305
#     4   8  15  28  47  71 101 136 172 208 250 305
#     4   9  17  31  55  77  96 133 177 211 249 301
#     4  10  19  33  52  78 104 131 169 212 261 306
#     4   9  17  31  51  75 102 137 177 211 249 303
#     4  11  20  29  47  76 107 136 167 213 264 304
#     4  10  20  37  54  71 102 141 179 213 252 310
#
# _framework density 19.412379000000001
#
# number of rings (size 3 to 8) (size 9 to 14) (size 15 to 20)
#    0.000    2.375    2.500    1.875    0.000    3.750 
#    0.000    3.125    0.000    0.750    0.000    2.625 
#    0.000    0.000    0.000    0.000    0.000    0.000 
#
# Total GULP energy -178463.445199 kJ/mol
# GULP energy per Si atom -5576.982662 kJ/mol
# Density = 1.936820 g / cm^3
# Si number density = 19.412379 Si / 1000 Ang^3
#
#
#
# Elastic Constant Matrix: (Units=GPa)
#
#
# Indices 1 2 3 4 5 6 
#
# 1 123.0881 -2.0618 97.2193 0.0000 14.6758 0.0000
# 2 -2.0618 26.8321 2.5232 0.0000 6.2217 0.0000
# 3 97.2193 2.5232 215.2472 0.0000 35.2680 0.0000
# 4 0.0000 0.0000 0.0000 -6.2655 0.0000 3.2787
# 5 14.6758 6.2217 35.2680 0.0000 27.1478 0.0000
# 6 0.0000 0.0000 0.0000 3.2787 0.0000 17.6557
#
#
#
# Elastic Compliance Matrix: (Units=1/GPa)
#
#
# Indices 1 2 3 4 5 6 
#
# 1 0.012694 0.001440 -0.005808 0.000000 0.000353 0.000000
# 2 0.001440 0.039808 0.000642 0.000000 -0.010736 0.000000
# 3 -0.005808 0.000642 0.008602 0.000000 -0.008183 0.000000
# 4 0.000000 0.000000 0.000000 -0.145468 0.000000 0.027014
# 5 0.000353 -0.010736 -0.008183 0.000000 0.049735 0.000000
# 6 0.000000 0.000000 0.000000 0.027014 0.000000 0.051623
#
#
# Mechanical properties :
#
#
# Convention : Reuss Voigt Hill
#
# Bulk Modulus (GPa) = 18.63870 62.28098 40.45984
# Shear Modulus (GPa) = 118.11802 25.54004 71.82903
#
# Velocity S-wave (km/s) = 7.80890 3.63113 6.08950
# Velocity P-wave (km/s) = 9.53559 7.05216 8.38631
#
# Compressibility (1/GPa) = 0.05365182
#
# Stress axis : x y z
#
# Youngs Moduli (GPa) = 78.77973 25.12035 116.24809
#
# Poissons Ratio (x) = -0.03616 0.67517
# Poissons Ratio (y) = -0.11341 -0.07465
# Poissons Ratio (z) = 0.45755 -0.01613
#
# Static dielectric constant tensor:
#      x y z
#    x 1.636760 0.000000 0.023380 
#    y 0.000000 1.726490 0.000000 
#    z 0.023380 0.000000 1.716190 
# 
# From -- ./inp_files/281369.got.cif
#   From: 2010.05.17/outbox.cif.g08.bks.cpg/sg12_141_cif.got.tgz:281369.got - 2010.06.03 13:09:07.
