data_PCOD9175776
_publ_section_title
;
Structure prediction by ZEFSAII (Michael W. Deem and Ramdas Pophale) SiO2 
 PCOD9175776
Probable space group: C 2/M
;
_chemical_formula_sum "Si O2"
_cell_formula_units_Z 56
_cell_length_a 8.886246
_cell_length_b 18.756374
_cell_length_c 30.372060
_cell_angle_alpha 90.000000
_cell_angle_beta 36.932839
_cell_angle_gamma 90.000000
_cell_volume 3041.782131
_symmetry_space_group_name_H-M "C 2/M"
_symmetry_group_IT_number 12
_symmetry_cell_setting 'monoclinic'
loop_
_space_group_symop_operation_xyz
x,y,z
-x,y,-z
-x,-y,-z
x,-y,z
1/2+x,1/2+y,z
1/2-x,1/2+y,-z
1/2-x,1/2-y,-z
1/2+x,1/2-y,z
loop_
_atom_site_type_symbol
_atom_site_label
_atom_site_fract_x
_atom_site_fract_y
_atom_site_fract_z
Si Si1 0.027880 0.796271 0.347536
Si Si2 0.164127 0.829374 0.005736
Si Si3 0.021890 0.218335 0.448008
Si Si4 0.170439 0.205674 0.791929
Si Si5 0.801289 0.662332 0.146352
Si Si6 0.771882 0.079872 0.757008
Si Si7 0.772512 0.915367 0.156401
O O1 0.099737 0.809906 0.381574
O O2 0.191894 0.734346 0.284544
O O3 0.082236 0.866384 0.307675
O O4 0.738541 0.774810 0.409191
O O5 0.431818 0.864002 0.932745
O O6 0.250000 0.750000 0.000000
O O7 0.000000 0.823970 0.000000
O O8 0.000739 0.874979 0.078351
O O9 0.000000 0.176130 0.500000
O O10 0.750000 0.250000 0.500000
O O11 0.175000 0.270423 0.825763
O O12 0.279520 0.134302 0.788767
O O13 0.883609 0.188477 0.847906
O O14 0.679990 0.600686 0.203973
O O15 0.475529 0.089377 0.815979
O O16 0.841147 0.000000 0.730944
O O17 0.818826 0.000000 0.153728
#
# Coordination Sequence:
#
# PCOD9175776 Si02
#       7
#     8   8   8   8   8   8   8
#     4  10  18  33  57  84 111 149 181 224 279 329
#     4  12  23  37  58  79 105 148 198 243 298 350
#     4   9  18  32  55  87 117 139 174 223 266 318
#     4  11  21  36  57  84 111 141 192 239 287 343
#     4  11  21  35  57  80 107 144 194 248 290 343
#     4  10  21  37  56  81 113 150 193 235 284 341
#     4  11  24  39  54  78 113 152 193 244 296 345
#
# _framework density 18.410260000000001
#
# number of rings (size 3 to 8) (size 9 to 14) (size 15 to 20)
#    0.000    1.429    2.857    5.143    0.000    1.429 
#    0.000    0.714    0.000    4.286    0.000    4.000 
#    0.000    0.000    0.000    0.000    0.000    0.000 
#
# Total GULP energy -156052.751523 kJ/mol
# GULP energy per Si atom -5573.312554 kJ/mol
# Density = 1.836836 g / cm^3
# Si number density = 18.410260 Si / 1000 Ang^3
#
#
#
# Elastic Constant Matrix: (Units=GPa)
#
#
# Indices 1 2 3 4 5 6 
#
# 1 64.9795 5.9615 6.5148 -0.0098 -3.6132 0.0110
# 2 5.9615 88.3876 30.1820 -0.0051 4.6290 0.0066
# 3 6.5148 30.1820 76.9743 0.0246 5.7064 0.0212
# 4 -0.0098 -0.0051 0.0246 7.6606 -0.0034 -5.2909
# 5 -3.6132 4.6290 5.7064 -0.0034 35.5310 -0.0074
# 6 0.0110 0.0066 0.0212 -5.2909 -0.0074 16.0393
#
#
#
# Elastic Compliance Matrix: (Units=1/GPa)
#
#
# Indices 1 2 3 4 5 6 
#
# 1 0.015681 -0.000757 -0.001170 0.000024 0.001881 0.000000
# 2 -0.000757 0.013127 -0.005010 0.000032 -0.000982 0.000012
# 3 -0.001170 -0.005010 0.015196 -0.000087 -0.001907 -0.000047
# 4 0.000024 0.000032 -0.000087 0.169054 0.000040 0.055766
# 5 0.001881 -0.000982 -0.001907 0.000040 0.028770 0.000028
# 6 0.000000 0.000012 -0.000047 0.055766 0.000028 0.080742
#
#
# Mechanical properties :
#
#
# Convention : Reuss Voigt Hill
#
# Bulk Modulus (GPa) = 33.18901 35.07310 34.13106
# Shear Modulus (GPa) = 14.43051 24.35839 19.39445
#
# Velocity S-wave (km/s) = 2.80273 3.64137 3.24922
# Velocity P-wave (km/s) = 5.34232 6.06397 5.71454
#
# Compressibility (1/GPa) = 0.03013046
#
# Stress axis : x y z
#
# Youngs Moduli (GPa) = 63.77228 76.17772 65.80524
#
# Poissons Ratio (x) = 0.05764 0.07699
# Poissons Ratio (y) = 0.04825 0.32971
# Poissons Ratio (z) = 0.07461 0.38168
#
# Static dielectric constant tensor:
#      x y z
#    x 1.662540 0.000000 0.029940 
#    y 0.000000 1.622790 0.000000 
#    z 0.029940 0.000000 1.721590 
# 
# From -- ./inp_files/257196.got.cif
#   From: 2010.05.17/outbox.cif.g08.bks.cpg/sg12_129_cif.got.tgz:257196.got - 2010.06.03 13:09:07.
