data_PCOD9175896
_publ_section_title
;
Structure prediction by ZEFSAII (Michael W. Deem and Ramdas Pophale) SiO2 
 PCOD9175896
Probable space group: C 2/M
;
_chemical_formula_sum "Si O2"
_cell_formula_units_Z 36
_cell_length_a 10.845087
_cell_length_b 19.507501
_cell_length_c 7.378376
_cell_angle_alpha 90.000000
_cell_angle_beta 116.276329
_cell_angle_gamma 90.000000
_cell_volume 1399.676953
_symmetry_space_group_name_H-M "C 2/M"
_symmetry_group_IT_number 12
_symmetry_cell_setting 'monoclinic'
loop_
_space_group_symop_operation_xyz
x,y,z
-x,y,-z
-x,-y,-z
x,-y,z
1/2+x,1/2+y,z
1/2-x,1/2+y,-z
1/2-x,1/2-y,-z
1/2+x,1/2-y,z
loop_
_atom_site_type_symbol
_atom_site_label
_atom_site_fract_x
_atom_site_fract_y
_atom_site_fract_z
Si Si1 0.959520 0.208332 0.682290
Si Si2 0.483082 0.500000 0.775013
Si Si3 0.348206 0.000000 0.988677
Si Si4 0.316114 0.619948 0.124293
Si Si5 0.673342 0.850180 0.409818
Si Si6 0.183296 0.500000 0.438671
O O1 0.808763 0.173408 0.613386
O O2 0.935659 0.289568 0.666989
O O3 0.000000 0.192087 0.500000
O O4 0.091836 0.183621 0.884825
O O5 0.556863 0.568073 0.753120
O O6 0.325125 0.500000 0.633063
O O7 0.500000 0.500000 0.000000
O O8 0.292197 0.931116 0.047488
O O9 0.273833 0.000000 0.744692
O O10 0.500000 0.000000 0.000000
O O11 0.229937 0.643781 0.241264
O O12 0.617708 0.925501 0.425901
#
# Coordination Sequence:
#
# PCOD9175896 Si02
#       6
#     8   4   4   8   8   4
#     4   9  16  29  53  91 121 150 194 250 315 378
#     4  11  21  34  60  93 119 151 211 263 317 376
#     4   9  19  32  60  92 118 153 204 259 309 375
#     4   9  18  33  60  81 118 155 197 256 314 374
#     4   9  17  28  56  93 117 144 197 253 311 392
#     4  10  18  33  59  85 118 155 193 259 309 382
#
# _framework density 25.720222
#
# number of rings (size 3 to 8) (size 9 to 14) (size 15 to 20)
#    0.000    2.667    2.222    0.667    3.111    1.778 
#    0.000    0.556   19.556   12.000    0.000    0.000 
#    0.000    0.000    0.000    1.889    0.000    0.000 
#
# Total GULP energy -100289.203195 kJ/mol
# GULP energy per Si atom -5571.622400 kJ/mol
# Density = 2.566168 g / cm^3
# Si number density = 25.720222 Si / 1000 Ang^3
#
#
#
# Elastic Constant Matrix: (Units=GPa)
#
#
# Indices 1 2 3 4 5 6 
#
# 1 108.5120 67.7712 21.5661 0.0000 15.2013 0.0000
# 2 67.7712 216.5191 5.1803 0.0000 29.7122 0.0000
# 3 21.5661 5.1803 57.3146 0.0000 2.3000 0.0000
# 4 0.0000 0.0000 0.0000 -2.0033 0.0000 5.3251
# 5 15.2013 29.7122 2.3000 0.0000 35.9606 0.0000
# 6 0.0000 0.0000 0.0000 5.3251 0.0000 64.9797
#
#
#
# Elastic Compliance Matrix: (Units=1/GPa)
#
#
# Indices 1 2 3 4 5 6 
#
# 1 0.012587 -0.003546 -0.004331 0.000000 -0.002114 0.000000
# 2 -0.003546 0.006213 0.000921 0.000000 -0.003694 0.000000
# 3 -0.004331 0.000921 0.019000 0.000000 -0.000145 0.000000
# 4 0.000000 0.000000 0.000000 -0.409896 0.000000 0.033591
# 5 -0.002114 -0.003694 -0.000145 0.000000 0.031763 0.000000
# 6 0.000000 0.000000 0.000000 0.033591 0.000000 0.012637
#
#
# Mechanical properties :
#
#
# Convention : Reuss Voigt Hill
#
# Bulk Modulus (GPa) = 41.86181 63.48677 52.67429
# Shear Modulus (GPa) = -16.34941 38.97595 11.31327
#
# Velocity S-wave (km/s) = -2.52397 3.89701 2.09956
# Velocity P-wave (km/s) = 2.79594 6.70717 5.13826
#
# Compressibility (1/GPa) = 0.02388812
#
# Stress axis : x y z
#
# Youngs Moduli (GPa) = 79.44593 160.94484 52.63218
#
# Poissons Ratio (x) = 0.57073 0.22795
# Poissons Ratio (y) = 0.28173 -0.04847
# Poissons Ratio (z) = 0.34407 -0.14823
#
# Static dielectric constant tensor:
#      x y z
#    x 2.026410 0.000000 0.054920 
#    y 0.000000 2.221920 0.000000 
#    z 0.054920 0.000000 2.162640 
# 
# From -- ./inp_files/49018.got.cif
#   From: 2010.05.17/outbox.cif.g08.bks.cpg/sg12_25_cif.got.tgz:49018.got - 2010.06.03 13:09:07.
