data_PCOD9175461
_publ_section_title
;
Structure prediction by ZEFSAII (Michael W. Deem and Ramdas Pophale) SiO2 
 PCOD9175461
Probable space group: C 2/M
;
_chemical_formula_sum "Si O2"
_cell_formula_units_Z 56
_cell_length_a 5.344356
_cell_length_b 28.564268
_cell_length_c 17.791844
_cell_angle_alpha 90.000000
_cell_angle_beta 107.545725
_cell_angle_gamma 90.000000
_cell_volume 2589.700324
_symmetry_space_group_name_H-M "C 2/M"
_symmetry_group_IT_number 12
_symmetry_cell_setting 'monoclinic'
loop_
_space_group_symop_operation_xyz
x,y,z
-x,y,-z
-x,-y,-z
x,-y,z
1/2+x,1/2+y,z
1/2-x,1/2+y,-z
1/2-x,1/2-y,-z
1/2+x,1/2-y,z
loop_
_atom_site_type_symbol
_atom_site_label
_atom_site_fract_x
_atom_site_fract_y
_atom_site_fract_z
Si Si1 0.205377 0.391646 0.601304
Si Si2 0.936875 0.415176 0.804871
Si Si3 0.345670 0.703070 0.552718
Si Si4 0.584234 0.631296 0.215060
Si Si5 0.283006 0.053061 0.032001
Si Si6 0.770141 0.944420 0.380482
Si Si7 0.377505 0.274490 0.265136
O O1 0.168239 0.337688 0.572258
O O2 0.305996 0.386005 0.695320
O O3 0.447610 0.419649 0.587021
O O4 0.937767 0.420361 0.582225
O O5 0.156050 0.374200 0.811924
O O6 0.102314 0.448603 0.873923
O O7 0.670177 0.400612 0.823600
O O8 0.842347 0.434688 0.715115
O O9 0.500000 0.677659 0.500000
O O10 0.250000 0.750000 0.500000
O O11 0.521750 0.718320 0.639595
O O12 0.458694 0.681407 0.222292
O O13 0.248913 0.000000 0.998995
O O14 0.500000 0.076986 0.000000
O O15 0.000000 0.076208 0.000000
O O16 0.787732 0.000000 0.393077
O O17 0.068858 0.265196 0.247455
#
# Coordination Sequence:
#
# PCOD9175461 Si02
#       7
#     8   8   8   8   8   8   8
#     4   9  21  35  53  81 111 137 182 243 276 321
#     4  10  18  33  52  77 107 145 184 221 263 327
#     4  11  22  37  57  84 113 151 185 213 273 365
#     4   9  19  32  50  74 107 141 176 224 273 312
#     4  10  20  32  48  76 114 148 176 214 260 310
#     4  10  19  36  59  80 103 145 192 238 285 319
#     4  11  21  35  53  79 112 140 170 220 269 334
#
# _framework density 21.624120999999999
#
# number of rings (size 3 to 8) (size 9 to 14) (size 15 to 20)
#    0.000    2.000    1.429    2.571    0.000    4.571 
#    0.000    4.286    0.000    2.571    0.000    0.000 
#    0.000   40.000    0.000    0.000    0.000    0.000 
#
# Total GULP energy -156006.525231 kJ/mol
# GULP energy per Si atom -5571.661615 kJ/mol
# Density = 2.157490 g / cm^3
# Si number density = 21.624121 Si / 1000 Ang^3
#
#
#
# Elastic Constant Matrix: (Units=GPa)
#
#
# Indices 1 2 3 4 5 6 
#
# 1 138.2508 21.0502 29.7363 0.0000 4.4061 0.0000
# 2 21.0502 92.6926 11.1225 0.0000 2.6949 0.0000
# 3 29.7363 11.1225 61.4209 0.0000 17.2043 0.0000
# 4 0.0000 0.0000 0.0000 14.2625 0.0000 0.0548
# 5 4.4061 2.6949 17.2043 0.0000 28.4807 0.0000
# 6 0.0000 0.0000 0.0000 0.0548 0.0000 16.7788
#
#
#
# Elastic Compliance Matrix: (Units=1/GPa)
#
#
# Indices 1 2 3 4 5 6 
#
# 1 0.008297 -0.001427 -0.004137 0.000000 0.001350 0.000000
# 2 -0.001427 0.011274 -0.001341 0.000000 -0.000036 0.000000
# 3 -0.004137 -0.001341 0.022041 0.000000 -0.012548 0.000000
# 4 0.000000 0.000000 0.000000 0.070115 0.000000 -0.000229
# 5 0.001350 -0.000036 -0.012548 0.000000 0.042486 0.000000
# 6 0.000000 0.000000 0.000000 -0.000229 0.000000 0.059600
#
#
# Mechanical properties :
#
#
# Convention : Reuss Voigt Hill
#
# Bulk Modulus (GPa) = 35.96620 46.24249 41.10435
# Shear Modulus (GPa) = 21.10682 27.26809 24.18746
#
# Velocity S-wave (km/s) = 3.12761 3.55491 3.34809
# Velocity P-wave (km/s) = 5.45080 6.18716 5.83062
#
# Compressibility (1/GPa) = 0.02780388
#
# Stress axis : x y z
#
# Youngs Moduli (GPa) = 120.52128 88.69688 45.36933
#
# Poissons Ratio (x) = 0.12658 0.18769
# Poissons Ratio (y) = 0.17200 0.06082
# Poissons Ratio (z) = 0.49858 0.11890
#
# Static dielectric constant tensor:
#      x y z
#    x 1.967130 0.000000 0.016920 
#    y 0.000000 1.812760 0.000000 
#    z 0.016920 0.000000 1.808130 
# 
# From -- ./inp_files/253911.got.cif
#   From: 2010.05.17/outbox.cif.g08.bks.cpg/sg12_127_cif.got.tgz:253911.got - 2010.06.03 13:09:07.
