data_PCOD9175143
_publ_section_title
;
Structure prediction by ZEFSAII (Michael W. Deem and Ramdas Pophale) SiO2 
 PCOD9175143
Probable space group: C 2/M
;
_chemical_formula_sum "Si O2"
_cell_formula_units_Z 64
_cell_length_a 20.939482
_cell_length_b 17.926969
_cell_length_c 11.430952
_cell_angle_alpha 90.000000
_cell_angle_beta 125.756711
_cell_angle_gamma 90.000000
_cell_volume 3482.143733
_symmetry_space_group_name_H-M "C 2/M"
_symmetry_group_IT_number 12
_symmetry_cell_setting 'monoclinic'
loop_
_space_group_symop_operation_xyz
x,y,z
-x,y,-z
-x,-y,-z
x,-y,z
1/2+x,1/2+y,z
1/2-x,1/2+y,-z
1/2-x,1/2-y,-z
1/2+x,1/2-y,z
loop_
_atom_site_type_symbol
_atom_site_label
_atom_site_fract_x
_atom_site_fract_y
_atom_site_fract_z
Si Si1 0.768122 0.205454 0.337334
Si Si2 0.823099 0.160638 0.641832
Si Si3 0.222809 0.584209 0.104550
Si Si4 0.022731 0.082189 0.160904
Si Si5 0.223163 0.082229 0.189026
Si Si6 0.631054 0.635992 0.889167
Si Si7 0.887310 0.583059 0.235710
Si Si8 0.580853 0.242651 0.649784
O O1 0.799664 0.159544 0.482181
O O2 0.708538 0.264480 0.330819
O O3 0.726425 0.149851 0.202357
O O4 0.843146 0.245765 0.354636
O O5 0.915581 0.147031 0.749070
O O6 0.785283 0.097858 0.684158
O O7 0.218499 0.500000 0.147868
O O8 0.304769 0.593027 0.120579
O O9 0.152728 0.592793 0.935028
O O10 0.947184 0.092267 0.160995
O O11 0.057461 0.000000 0.219654
O O12 0.000000 0.085595 0.000000
O O13 0.312208 0.081842 0.241912
O O14 0.189368 0.000000 0.124900
O O15 0.176612 0.143567 0.062132
O O16 0.605015 0.708625 0.789280
O O17 0.924740 0.500000 0.280612
O O18 0.932154 0.657356 0.322109
O O19 0.500000 0.268245 0.500000
#
# Coordination Sequence:
#
# PCOD9175143 Si02
#       8
#     8   8   8   8   8   8   8   8
#     4  10  23  37  52  78 111 144 185 227 267 326
#     4  11  21  35  52  75 111 150 184 221 261 312
#     4   9  19  35  58  82 108 139 177 225 278 328
#     4  11  21  32  51  81 114 144 178 216 262 323
#     4  10  18  32  56  82 106 138 179 223 269 316
#     4  10  20  33  55  83 114 140 176 222 266 325
#     4   9  19  34  56  82 104 132 180 232 274 319
#     4  11  22  37  56  78 110 145 182 222 280 327
#
# _framework density 18.379483
#
# number of rings (size 3 to 8) (size 9 to 14) (size 15 to 20)
#    0.000    1.875    2.500    3.000    1.750    2.750 
#    0.000    0.000    0.000    6.000    0.000    0.000 
#    0.000   12.000    0.000    0.000    0.000    0.000 
#
# Total GULP energy -178317.635746 kJ/mol
# GULP energy per Si atom -5572.426117 kJ/mol
# Density = 1.833765 g / cm^3
# Si number density = 18.379483 Si / 1000 Ang^3
#
#
#
# Elastic Constant Matrix: (Units=GPa)
#
#
# Indices 1 2 3 4 5 6 
#
# 1 37.3762 1.9631 8.5959 0.0000 -9.3128 0.0000
# 2 1.9631 64.3669 31.3224 0.0000 -8.0203 0.0000
# 3 8.5959 31.3224 55.7638 0.0000 -13.9792 0.0000
# 4 0.0000 0.0000 0.0000 20.7206 0.0000 1.2792
# 5 -9.3128 -8.0203 -13.9792 0.0000 27.6093 0.0000
# 6 0.0000 0.0000 0.0000 1.2792 0.0000 10.7488
#
#
#
# Elastic Compliance Matrix: (Units=1/GPa)
#
#
# Indices 1 2 3 4 5 6 
#
# 1 0.029635 0.001847 -0.003396 0.000000 0.008813 0.000000
# 2 0.001847 0.021495 -0.012184 0.000000 0.000698 0.000000
# 3 -0.003396 -0.012184 0.027633 0.000000 0.009306 0.000000
# 4 0.000000 0.000000 0.000000 0.048618 0.000000 -0.005786
# 5 0.008813 0.000698 0.009306 0.000000 0.044107 0.000000
# 6 0.000000 0.000000 0.000000 -0.005786 0.000000 0.093722
#
#
# Mechanical properties :
#
#
# Convention : Reuss Voigt Hill
#
# Bulk Modulus (GPa) = 19.49414 26.80774 23.15094
# Shear Modulus (GPa) = 16.14070 19.52410 17.83240
#
# Velocity S-wave (km/s) = 2.96664 3.26280 3.11824
# Velocity P-wave (km/s) = 4.72907 5.36766 5.05845
#
# Compressibility (1/GPa) = 0.05129746
#
# Stress axis : x y z
#
# Youngs Moduli (GPa) = 33.74387 46.52147 36.18898
#
# Poissons Ratio (x) = -0.08593 0.12291
# Poissons Ratio (y) = -0.06233 0.44091
# Poissons Ratio (z) = 0.11460 0.56680
#
# Static dielectric constant tensor:
#      x y z
#    x 1.630690 0.000000 -0.002220 
#    y 0.000000 1.668480 0.000000 
#    z -0.002220 0.000000 1.645940 
# 
# From -- ./inp_files/177140.got.cif
#   From: 2010.05.17/outbox.cif.g08.bks.cpg/sg12_89_cif.got.tgz:177140.got - 2010.06.03 13:09:07.
