data_PCOD9175866
_publ_section_title
;
Structure prediction by ZEFSAII (Michael W. Deem and Ramdas Pophale) SiO2 
 PCOD9175866
Probable space group: C 2/M
;
_chemical_formula_sum "Si O2"
_cell_formula_units_Z 64
_cell_length_a 29.615311
_cell_length_b 7.742593
_cell_length_c 15.093115
_cell_angle_alpha 90.000000
_cell_angle_beta 46.890105
_cell_angle_gamma 90.000000
_cell_volume 2526.566901
_symmetry_space_group_name_H-M "C 2/M"
_symmetry_group_IT_number 12
_symmetry_cell_setting 'monoclinic'
loop_
_space_group_symop_operation_xyz
x,y,z
-x,y,-z
-x,-y,-z
x,-y,z
1/2+x,1/2+y,z
1/2-x,1/2+y,-z
1/2-x,1/2-y,-z
1/2+x,1/2-y,z
loop_
_atom_site_type_symbol
_atom_site_label
_atom_site_fract_x
_atom_site_fract_y
_atom_site_fract_z
Si Si1 0.351070 0.801562 0.528673
Si Si2 0.039665 0.300800 0.266764
Si Si3 0.939246 0.201059 0.262695
Si Si4 0.094761 0.802971 0.873838
Si Si5 0.224820 0.303858 0.630424
Si Si6 0.097045 0.288780 0.363482
Si Si7 0.267385 0.793735 0.876475
Si Si8 0.363666 0.711523 0.997714
O O1 0.384197 0.789913 0.390011
O O2 0.285323 0.710345 0.611298
O O3 0.400286 0.739263 0.536746
O O4 0.337087 0.000000 0.568586
O O5 0.018787 0.500000 0.300520
O O6 0.048219 0.229690 0.354744
O O7 0.106857 0.288502 0.130530
O O8 0.997118 0.213037 0.250354
O O9 0.944421 0.270445 0.155769
O O10 0.922765 0.000000 0.275843
O O11 0.165912 0.802395 0.742975
O O12 0.073748 0.000000 0.916583
O O13 0.099536 0.725194 0.965109
O O14 0.203398 0.500000 0.655467
O O15 0.250000 0.250000 0.500000
O O16 0.092107 0.500000 0.366031
O O17 0.165348 0.229493 0.240940
O O18 0.271072 0.000000 0.863005
O O19 0.250000 0.750000 0.000000
O O20 0.207999 0.736823 0.899668
O O21 0.366563 0.500000 0.988977
#
# Coordination Sequence:
#
# PCOD9175866 Si02
#       8
#     8   8   8   8   8   8   8   8
#     4  11  22  40  65  90 120 158 201 248 298 360
#     4  11  23  41  63  86 118 159 204 252 301 358
#     4  11  24  42  62  86 118 156 204 255 303 358
#     4  10  22  41  64  87 120 161 201 246 299 360
#     4  12  23  37  61  93 127 160 196 242 300 359
#     4   9  20  38  61  88 120 159 199 240 299 363
#     4  10  18  33  58  87 119 152 190 235 290 353
#     4  10  21  38  62  90 119 157 199 246 303 357
#
# _framework density 25.330815999999999
#
# number of rings (size 3 to 8) (size 9 to 14) (size 15 to 20)
#    0.000    1.500    2.500    3.000    0.000    4.000 
#    0.000   10.000    0.000    0.000    0.000    0.000 
#    0.000    0.000    0.000    0.000    0.000    0.000 
#
# Total GULP energy -178967.048132 kJ/mol
# GULP energy per Si atom -5592.720254 kJ/mol
# Density = 2.527316 g / cm^3
# Si number density = 25.330816 Si / 1000 Ang^3
#
#
#
# Elastic Constant Matrix: (Units=GPa)
#
#
# Indices 1 2 3 4 5 6 
#
# 1 185.3766 11.0385 16.6756 0.0000 29.1300 0.0001
# 2 11.0385 58.7209 -6.7852 0.0002 2.0017 0.0004
# 3 16.6756 -6.7852 68.0171 0.0001 22.8029 0.0000
# 4 0.0000 0.0002 0.0001 16.4020 0.0000 -2.9368
# 5 29.1300 2.0017 22.8029 0.0000 54.8855 0.0000
# 6 0.0001 0.0004 0.0000 -2.9368 0.0000 23.8948
#
#
#
# Elastic Compliance Matrix: (Units=1/GPa)
#
#
# Indices 1 2 3 4 5 6 
#
# 1 0.005966 -0.001094 -0.000608 0.000000 -0.002874 0.000000
# 2 -0.001094 0.017545 0.002368 0.000000 -0.001043 0.000000
# 3 -0.000608 0.002368 0.017437 0.000000 -0.007008 0.000000
# 4 0.000000 0.000000 0.000000 0.062340 0.000000 0.007662
# 5 -0.002874 -0.001043 -0.007008 0.000000 0.022695 0.000000
# 6 0.000000 0.000000 0.000000 0.007662 0.000000 0.042792
#
#
# Mechanical properties :
#
#
# Convention : Reuss Voigt Hill
#
# Bulk Modulus (GPa) = 23.65226 39.33026 31.49126
# Shear Modulus (GPa) = 27.54293 38.44885 32.99589
#
# Velocity S-wave (km/s) = 3.30104 3.90021 3.61307
# Velocity P-wave (km/s) = 4.88741 5.98686 5.46486
#
# Compressibility (1/GPa) = 0.04227925
#
# Stress axis : x y z
#
# Youngs Moduli (GPa) = 167.62071 56.99783 57.34937
#
# Poissons Ratio (x) = 0.06234 0.03489
# Poissons Ratio (y) = 0.18334 -0.13581
# Poissons Ratio (z) = 0.10197 -0.13498
#
# Static dielectric constant tensor:
#      x y z
#    x 2.073510 0.000000 -0.015860 
#    y 0.000000 1.995360 0.000000 
#    z -0.015860 0.000000 1.989750 
# 
# From -- ./inp_files/249762.got.cif
#   From: 2010.05.17/outbox.cif.g08.bks.cpg/sg12_125_cif.got.tgz:249762.got - 2010.06.03 13:09:07.
