data_PCOD9175462
_publ_section_title
;
Structure prediction by ZEFSAII (Michael W. Deem and Ramdas Pophale) SiO2 
 PCOD9175462
Probable space group: C 2/M
;
_chemical_formula_sum "Si O2"
_cell_formula_units_Z 42
_cell_length_a 12.741521
_cell_length_b 19.925276
_cell_length_c 6.924955
_cell_angle_alpha 90.000000
_cell_angle_beta 106.533126
_cell_angle_gamma 90.000000
_cell_volume 1685.408131
_symmetry_space_group_name_H-M "C 2/M"
_symmetry_group_IT_number 12
_symmetry_cell_setting 'monoclinic'
loop_
_space_group_symop_operation_xyz
x,y,z
-x,y,-z
-x,-y,-z
x,-y,z
1/2+x,1/2+y,z
1/2-x,1/2+y,-z
1/2-x,1/2-y,-z
1/2+x,1/2-y,z
loop_
_atom_site_type_symbol
_atom_site_label
_atom_site_fract_x
_atom_site_fract_y
_atom_site_fract_z
Si Si1 0.000000 0.000000 0.500000
Si Si2 0.410030 0.112207 0.716446
Si Si3 0.350623 0.925436 0.121861
Si Si4 0.319995 0.617076 0.499518
Si Si5 0.459656 0.266008 0.702357
Si Si6 0.313217 0.318441 0.068967
O O1 0.911241 0.940918 0.526259
O O2 0.532325 0.090819 0.721920
O O3 0.305498 0.095339 0.527741
O O4 0.420059 0.192935 0.745217
O O5 0.382688 0.079712 0.909626
O O6 0.313418 0.000000 0.145941
O O7 0.250200 0.874317 0.088170
O O8 0.365440 0.678267 0.650557
O O9 0.308658 0.650608 0.281479
O O10 0.500000 0.257886 0.500000
O O11 0.561476 0.295837 0.872645
O O12 0.250000 0.250000 0.000000
#
# Coordination Sequence:
#
# PCOD9175462 Si02
#       6
#     2   8   8   8   8   8
#     4  12  20  36  52  86 114 146 176 236 294 332
#     4  10  19  32  52  77 112 140 180 226 282 322
#     4  10  21  32  52  84 111 135 177 235 284 321
#     4  10  22  32  54  79 113 143 185 229 284 332
#     4  10  19  35  51  79 109 144 185 228 266 334
#     4  10  18  33  52  77 110 144 178 222 268 332
#
# _framework density 24.919778999999998
#
# number of rings (size 3 to 8) (size 9 to 14) (size 15 to 20)
#    0.000    1.905    4.762    1.714    6.667    0.000 
#    0.000    0.000    0.000    2.286    0.000    0.000 
#    0.000   17.333    0.000    0.000    0.000    0.000 
#
# Total GULP energy -117176.736300 kJ/mol
# GULP energy per Si atom -5579.844586 kJ/mol
# Density = 2.486306 g / cm^3
# Si number density = 24.919779 Si / 1000 Ang^3
#
#
#
# Elastic Constant Matrix: (Units=GPa)
#
#
# Indices 1 2 3 4 5 6 
#
# 1 128.1877 51.5792 39.6744 0.0000 25.3513 0.0000
# 2 51.5792 226.2320 45.0494 0.0000 25.8129 0.0000
# 3 39.6744 45.0494 105.8733 0.0000 31.9667 0.0000
# 4 0.0000 0.0000 0.0000 19.6178 0.0000 8.3635
# 5 25.3513 25.8129 31.9667 0.0000 57.0554 0.0000
# 6 0.0000 0.0000 0.0000 8.3635 0.0000 80.1861
#
#
#
# Elastic Compliance Matrix: (Units=1/GPa)
#
#
# Indices 1 2 3 4 5 6 
#
# 1 0.009546 -0.001463 -0.002255 0.000000 -0.002316 0.000000
# 2 -0.001463 0.005128 -0.001360 0.000000 -0.000908 0.000000
# 3 -0.002255 -0.001360 0.012494 0.000000 -0.005383 0.000000
# 4 0.000000 0.000000 0.000000 0.053346 0.000000 -0.005564
# 5 -0.002316 -0.000908 -0.005383 0.000000 0.021983 0.000000
# 6 0.000000 0.000000 0.000000 -0.005564 0.000000 0.013051
#
#
# Mechanical properties :
#
#
# Convention : Reuss Voigt Hill
#
# Bulk Modulus (GPa) = 58.78103 81.43320 70.10712
# Shear Modulus (GPa) = 38.05901 52.97120 45.51511
#
# Velocity S-wave (km/s) = 3.91226 4.61550 4.27835
# Velocity P-wave (km/s) = 6.63679 7.82003 7.25258
#
# Compressibility (1/GPa) = 0.01701229
#
# Stress axis : x y z
#
# Youngs Moduli (GPa) = 104.75814 195.00172 80.03710
#
# Poissons Ratio (x) = 0.28529 0.18051
# Poissons Ratio (y) = 0.15326 0.10882
# Poissons Ratio (z) = 0.23627 0.26512
#
# Static dielectric constant tensor:
#      x y z
#    x 2.167170 0.000000 0.000310 
#    y 0.000000 1.869400 0.000000 
#    z 0.000310 0.000000 1.922630 
# 
# From -- ./inp_files/61861.got.cif
#   From: 2010.05.17/outbox.cif.g08.bks.cpg/sg12_31_cif.got.tgz:61861.got - 2010.06.03 13:09:07.
