data_PCOD9175748
_publ_section_title
;
Structure prediction by ZEFSAII (Michael W. Deem and Ramdas Pophale) SiO2 
 PCOD9175748
Probable space group: C 2/M
;
_chemical_formula_sum "Si O2"
_cell_formula_units_Z 64
_cell_length_a 31.986400
_cell_length_b 7.739811
_cell_length_c 11.468669
_cell_angle_alpha 90.000000
_cell_angle_beta 93.773286
_cell_angle_gamma 90.000000
_cell_volume 2833.128538
_symmetry_space_group_name_H-M "C 2/M"
_symmetry_group_IT_number 12
_symmetry_cell_setting 'monoclinic'
loop_
_space_group_symop_operation_xyz
x,y,z
-x,y,-z
-x,-y,-z
x,-y,z
1/2+x,1/2+y,z
1/2-x,1/2+y,-z
1/2-x,1/2-y,-z
1/2+x,1/2-y,z
loop_
_atom_site_type_symbol
_atom_site_label
_atom_site_fract_x
_atom_site_fract_y
_atom_site_fract_z
Si Si1 0.046818 0.301471 0.522222
Si Si2 0.855193 0.199077 0.877586
Si Si3 0.899354 0.295039 0.121040
Si Si4 0.868467 0.711122 0.351104
Si Si5 0.991763 0.702171 0.135508
Si Si6 0.761886 0.208904 0.866615
Si Si7 0.925602 0.697893 0.736175
Si Si8 0.722105 0.791708 0.609824
O O1 0.039875 0.500000 0.564129
O O2 0.085344 0.225495 0.602428
O O3 0.066614 0.307684 0.398245
O O4 0.000000 0.224846 0.500000
O O5 0.809358 0.277264 0.860851
O O6 0.882957 0.215867 0.767654
O O7 0.848420 0.000000 0.903149
O O8 0.882660 0.267150 0.989236
O O9 0.904097 0.500000 0.135765
O O10 0.866675 0.241108 0.214043
O O11 0.945969 0.220865 0.147687
O O12 0.869703 0.500000 0.363562
O O13 0.826488 0.769000 0.408657
O O14 0.990952 0.500000 0.173874
O O15 0.032523 0.781182 0.202553
O O16 0.000000 0.703908 0.000000
O O17 0.738221 0.267316 0.742320
O O18 0.759721 0.000000 0.859909
O O19 0.750000 0.250000 0.000000
O O20 0.922461 0.500000 0.780128
O O21 0.750000 0.750000 0.500000
O O22 0.721406 0.000000 0.614745
#
# Coordination Sequence:
#
# PCOD9175748 Si02
#       8
#     8   8   8   8   8   8   8   8
#     4   9  17  30  51  83 115 139 174 228 280 321
#     4  11  23  36  52  79 114 144 178 228 281 334
#     4  10  18  33  57  80 108 146 186 227 278 330
#     4   9  18  32  54  82 109 139 179 229 274 325
#     4   9  15  26  46  76 107 136 180 228 265 316
#     4  10  23  42  62  85 115 150 192 244 297 349
#     4  10  19  32  53  79 109 146 186 224 273 334
#     4  10  22  40  60  86 118 151 193 240 291 348
#
# _framework density 22.589867999999999
#
# number of rings (size 3 to 8) (size 9 to 14) (size 15 to 20)
#    0.000    2.250    1.250    1.875    1.750    5.500 
#    0.000    1.875    0.000    1.125    0.000    0.000 
#    0.000    0.000    0.000    0.000    0.000    0.000 
#
# Total GULP energy -178357.878999 kJ/mol
# GULP energy per Si atom -5573.683719 kJ/mol
# Density = 2.253845 g / cm^3
# Si number density = 22.589868 Si / 1000 Ang^3
#
#
#
# Elastic Constant Matrix: (Units=GPa)
#
#
# Indices 1 2 3 4 5 6 
#
# 1 168.9410 3.8202 59.4124 0.0000 -18.7371 0.0000
# 2 3.8202 26.6922 3.4664 0.0000 -0.2727 0.0000
# 3 59.4124 3.4664 117.7776 0.0000 -14.6764 0.0000
# 4 0.0000 0.0000 0.0000 29.0416 0.0000 1.8431
# 5 -18.7371 -0.2727 -14.6764 0.0000 34.7740 0.0000
# 6 0.0000 0.0000 0.0000 1.8431 0.0000 14.0219
#
#
#
# Elastic Compliance Matrix: (Units=1/GPa)
#
#
# Indices 1 2 3 4 5 6 
#
# 1 0.007413 -0.000593 -0.003404 0.000000 0.002553 0.000000
# 2 -0.000593 0.037656 -0.000857 0.000000 -0.000386 0.000000
# 3 -0.003404 -0.000857 0.010559 0.000000 0.002616 0.000000
# 4 0.000000 0.000000 0.000000 0.034723 0.000000 -0.004564
# 5 0.002553 -0.000386 0.002616 0.000000 0.031234 0.000000
# 6 0.000000 0.000000 0.000000 -0.004564 0.000000 0.071917
#
#
# Mechanical properties :
#
#
# Convention : Reuss Voigt Hill
#
# Bulk Modulus (GPa) = 21.77695 49.64543 35.71119
# Shear Modulus (GPa) = 22.88158 32.01493 27.44826
#
# Velocity S-wave (km/s) = 3.18608 3.76869 3.48957
# Velocity P-wave (km/s) = 4.81621 6.40015 5.66382
#
# Compressibility (1/GPa) = 0.04592011
#
# Stress axis : x y z
#
# Youngs Moduli (GPa) = 134.90157 26.55589 94.70804
#
# Poissons Ratio (x) = 0.01574 0.32237
# Poissons Ratio (y) = 0.07997 0.08120
# Poissons Ratio (z) = 0.45918 0.02277
#
# Static dielectric constant tensor:
#      x y z
#    x 1.891470 0.000000 0.025220 
#    y 0.000000 1.884100 0.000000 
#    z 0.025220 0.000000 1.847730 
# 
# From -- ./inp_files/187553.got.cif
#   From: 2010.05.17/outbox.cif.g08.bks.cpg/sg12_94_cif.got.tgz:187553.got - 2010.06.03 13:09:07.
