data_PCOD9175698
_publ_section_title
;
Structure prediction by ZEFSAII (Michael W. Deem and Ramdas Pophale) SiO2 
 PCOD9175698
Probable space group: C 2/M
;
_chemical_formula_sum "Si O2"
_cell_formula_units_Z 46
_cell_length_a 22.286262
_cell_length_b 17.783472
_cell_length_c 11.545206
_cell_angle_alpha 90.000000
_cell_angle_beta 148.046236
_cell_angle_gamma 90.000000
_cell_volume 2421.607872
_symmetry_space_group_name_H-M "C 2/M"
_symmetry_group_IT_number 12
_symmetry_cell_setting 'monoclinic'
loop_
_space_group_symop_operation_xyz
x,y,z
-x,y,-z
-x,-y,-z
x,-y,z
1/2+x,1/2+y,z
1/2-x,1/2+y,-z
1/2-x,1/2-y,-z
1/2+x,1/2-y,z
loop_
_atom_site_type_symbol
_atom_site_label
_atom_site_fract_x
_atom_site_fract_y
_atom_site_fract_z
Si Si1 0.211479 0.656427 0.728884
Si Si2 0.632110 0.000000 0.865731
Si Si3 0.130012 0.380319 0.052726
Si Si4 0.049333 0.218458 0.827580
Si Si5 0.193124 0.790314 0.516273
Si Si6 0.500000 0.000000 0.000000
Si Si7 0.500000 0.781296 0.500000
Si Si8 0.639980 0.000000 0.608027
O O1 0.191635 0.723572 0.607608
O O2 0.110915 0.667928 0.657866
O O3 0.190589 0.575750 0.638907
O O4 0.338692 0.668111 0.980060
O O5 0.671828 0.000000 0.797568
O O6 0.494888 0.000000 0.630217
O O7 0.666523 0.927278 0.998404
O O8 0.231873 0.356730 0.305946
O O9 0.045755 0.434166 0.984601
O O10 0.075792 0.301391 0.923171
O O11 0.938517 0.187660 0.712048
O O12 0.023180 0.231184 0.649881
O O13 0.250000 0.750000 0.500000
#
# Coordination Sequence:
#
# PCOD9175698 Si02
#       8
#     8   4   8   8   8   2   4   4
#     4  10  21  34  56  83 113 147 186 233 280 336
#     4  10  20  34  55  81 115 147 186 239 280 334
#     4  10  20  34  54  81 109 143 187 235 286 330
#     4  10  20  35  56  82 112 146 186 231 281 336
#     4  10  21  38  58  80 109 149 194 237 283 337
#     4  10  20  34  54  78 106 138 178 232 276 322
#     4  10  18  33  56  83 110 144 188 232 278 331
#     4  11  20  34  54  82 114 149 185 227 288 339
#
# _framework density 18.995645
#
# number of rings (size 3 to 8) (size 9 to 14) (size 15 to 20)
#    0.000    1.913    0.000    5.739    0.000    6.261 
#    0.000    2.609    0.000    2.609    0.000    0.000 
#    0.000    0.000    0.000    0.000    0.000    0.000 
#
# Total GULP energy -128050.399725 kJ/mol
# GULP energy per Si atom -5567.408684 kJ/mol
# Density = 1.895241 g / cm^3
# Si number density = 18.995645 Si / 1000 Ang^3
#
#
#
# Elastic Constant Matrix: (Units=GPa)
#
#
# Indices 1 2 3 4 5 6 
#
# 1 70.1276 -2.7058 26.6579 0.0000 11.7288 0.0000
# 2 -2.7058 61.1289 11.5177 0.0000 2.6646 0.0000
# 3 26.6579 11.5177 92.2918 0.0000 22.7100 0.0000
# 4 0.0000 0.0000 0.0000 23.1225 0.0000 -4.2648
# 5 11.7288 2.6646 22.7100 0.0000 21.7506 0.0000
# 6 0.0000 0.0000 0.0000 -4.2648 0.0000 9.0342
#
#
#
# Elastic Compliance Matrix: (Units=1/GPa)
#
#
# Indices 1 2 3 4 5 6 
#
# 1 0.016618 0.001664 -0.003704 0.000000 -0.005297 0.000000
# 2 0.001664 0.016920 -0.002505 0.000000 -0.000355 0.000000
# 3 -0.003704 -0.002505 0.015679 0.000000 -0.014066 0.000000
# 4 0.000000 0.000000 0.000000 0.047373 0.000000 0.022363
# 5 -0.005297 -0.000355 -0.014066 0.000000 0.063562 0.000000
# 6 0.000000 0.000000 0.000000 0.022363 0.000000 0.121248
#
#
# Mechanical properties :
#
#
# Convention : Reuss Voigt Hill
#
# Bulk Modulus (GPa) = 24.92059 32.72088 28.82073
# Shear Modulus (GPa) = 16.45467 23.32003 19.88735
#
# Velocity S-wave (km/s) = 2.94638 3.50759 3.23916
# Velocity P-wave (km/s) = 4.97217 5.80233 5.40322
#
# Compressibility (1/GPa) = 0.04012747
#
# Stress axis : x y z
#
# Youngs Moduli (GPa) = 60.17563 59.10164 63.77961
#
# Poissons Ratio (x) = -0.09837 0.23625
# Poissons Ratio (y) = -0.10016 0.15977
# Poissons Ratio (z) = 0.22290 0.14805
#
# Static dielectric constant tensor:
#      x y z
#    x 1.706440 0.000000 0.006240 
#    y 0.000000 1.640310 0.000000 
#    z 0.006240 0.000000 1.720400 
# 
# From -- ./inp_files/177449.got.cif
#   From: 2010.05.17/outbox.cif.g08.bks.cpg/sg12_89_cif.got.tgz:177449.got - 2010.06.03 13:09:07.
