data_PCOD9175818
_publ_section_title
;
Structure prediction by ZEFSAII (Michael W. Deem and Ramdas Pophale) SiO2 
 PCOD9175818
Probable space group: C 2/M
;
_chemical_formula_sum "Si O2"
_cell_formula_units_Z 44
_cell_length_a 11.817890
_cell_length_b 24.531175
_cell_length_c 10.347954
_cell_angle_alpha 90.000000
_cell_angle_beta 56.786247
_cell_angle_gamma 90.000000
_cell_volume 2509.849607
_symmetry_space_group_name_H-M "C 2/M"
_symmetry_group_IT_number 12
_symmetry_cell_setting 'monoclinic'
loop_
_space_group_symop_operation_xyz
x,y,z
-x,y,-z
-x,-y,-z
x,-y,z
1/2+x,1/2+y,z
1/2-x,1/2+y,-z
1/2-x,1/2-y,-z
1/2+x,1/2-y,z
loop_
_atom_site_type_symbol
_atom_site_label
_atom_site_fract_x
_atom_site_fract_y
_atom_site_fract_z
Si Si1 0.751053 0.224620 0.206362
Si Si2 0.162191 0.560734 0.895511
Si Si3 0.850487 0.062627 0.528325
Si Si4 0.898814 0.831433 0.353479
Si Si5 0.787159 0.167476 0.911541
Si Si6 0.500000 0.255148 0.500000
O O1 0.832959 0.200242 0.275036
O O2 0.775351 0.287545 0.148130
O O3 0.593236 0.221755 0.344607
O O4 0.779329 0.191205 0.059607
O O5 0.203972 0.500000 0.913152
O O6 0.234991 0.568347 0.710399
O O7 0.215213 0.609989 0.947386
O O8 0.000000 0.562406 0.000000
O O9 0.836668 0.110326 0.431515
O O10 0.000000 0.070018 0.500000
O O11 0.845631 0.000000 0.482947
O O12 0.899508 0.792996 0.479616
O O13 0.056836 0.839586 0.224323
#
# Coordination Sequence:
#
# PCOD9175818 Si02
#       6
#     8   8   8   8   8   4
#     4  10  22  34  53  78 112 146 181 222 275 331
#     4  10  21  36  57  83 109 141 182 227 273 322
#     4  10  18  33  58  81 105 141 181 224 269 319
#     4  11  19  35  55  81 107 140 186 231 268 322
#     4  10  21  37  53  78 109 147 181 226 272 325
#     4  10  20  34  51  78 107 144 182 224 272 326
#
# _framework density 17.530930999999999
#
# number of rings (size 3 to 8) (size 9 to 14) (size 15 to 20)
#    0.000    1.818    2.727    2.182    0.000    5.818 
#    0.000    0.909    0.000    2.182    0.000    5.091 
#    0.000    0.000    0.000    0.000    0.000    0.000 
#
# Total GULP energy -122666.205870 kJ/mol
# GULP energy per Si atom -5575.736630 kJ/mol
# Density = 1.749103 g / cm^3
# Si number density = 17.530931 Si / 1000 Ang^3
#
#
#
# Elastic Constant Matrix: (Units=GPa)
#
#
# Indices 1 2 3 4 5 6 
#
# 1 55.3652 48.7894 20.7048 0.0000 9.2029 0.0000
# 2 48.7894 115.4603 38.4424 0.0000 7.3806 0.0000
# 3 20.7048 38.4424 92.9450 0.0000 -4.7096 0.0000
# 4 0.0000 0.0000 0.0000 25.5268 0.0000 0.1196
# 5 9.2029 7.3806 -4.7096 0.0000 34.9670 0.0000
# 6 0.0000 0.0000 0.0000 0.1196 0.0000 21.4687
#
#
#
# Elastic Compliance Matrix: (Units=1/GPa)
#
#
# Indices 1 2 3 4 5 6 
#
# 1 0.030067 -0.011609 -0.002188 0.000000 -0.005758 0.000000
# 2 -0.011609 0.014785 -0.003557 0.000000 -0.000545 0.000000
# 3 -0.002188 -0.003557 0.012873 0.000000 0.003061 0.000000
# 4 0.000000 0.000000 0.000000 0.039176 0.000000 -0.000218
# 5 -0.005758 -0.000545 0.003061 0.000000 0.030641 0.000000
# 6 0.000000 0.000000 0.000000 -0.000218 0.000000 0.046581
#
#
# Mechanical properties :
#
#
# Convention : Reuss Voigt Hill
#
# Bulk Modulus (GPa) = 43.44482 53.29375 48.36928
# Shear Modulus (GPa) = 23.09438 26.78142 24.93790
#
# Velocity S-wave (km/s) = 3.63347 3.91278 3.77571
# Velocity P-wave (km/s) = 6.51448 7.13295 6.83072
#
# Compressibility (1/GPa) = 0.02301770
#
# Stress axis : x y z
#
# Youngs Moduli (GPa) = 33.25885 67.63388 77.68341
#
# Poissons Ratio (x) = 0.78514 0.16999
# Poissons Ratio (y) = 0.38609 0.27632
# Poissons Ratio (z) = 0.07278 0.24057
#
# Static dielectric constant tensor:
#      x y z
#    x 1.586160 0.000000 -0.015930 
#    y 0.000000 1.616850 0.000000 
#    z -0.015930 0.000000 1.609100 
# 
# From -- ./inp_files/51220.got.cif
#   From: 2010.05.17/outbox.cif.g08.bks.cpg/sg12_26_cif.got.tgz:51220.got - 2010.06.03 13:09:07.
