data_PCOD9175885
_publ_section_title
;
Structure prediction by ZEFSAII (Michael W. Deem and Ramdas Pophale) SiO2 
 PCOD9175885
Probable space group: C 2/M
;
_chemical_formula_sum "Si O2"
_cell_formula_units_Z 56
_cell_length_a 31.833180
_cell_length_b 17.717058
_cell_length_c 9.514584
_cell_angle_alpha 90.000000
_cell_angle_beta 144.586972
_cell_angle_gamma 90.000000
_cell_volume 3109.494350
_symmetry_space_group_name_H-M "C 2/M"
_symmetry_group_IT_number 12
_symmetry_cell_setting 'monoclinic'
loop_
_space_group_symop_operation_xyz
x,y,z
-x,y,-z
-x,-y,-z
x,-y,z
1/2+x,1/2+y,z
1/2-x,1/2+y,-z
1/2-x,1/2-y,-z
1/2+x,1/2-y,z
loop_
_atom_site_type_symbol
_atom_site_label
_atom_site_fract_x
_atom_site_fract_y
_atom_site_fract_z
Si Si1 0.857344 0.912055 0.440592
Si Si2 0.416864 0.281569 0.783621
Si Si3 0.824716 0.745524 0.791143
Si Si4 0.654511 0.185285 0.644390
Si Si5 0.939071 0.415098 0.439861
Si Si6 0.684112 0.675333 0.933325
Si Si7 0.197059 0.584504 0.135898
O O1 0.906589 0.861942 0.677917
O O2 0.859410 0.883310 0.284225
O O3 0.775149 0.900543 0.276944
O O4 0.874045 0.000000 0.493427
O O5 0.388061 0.274571 0.862410
O O6 0.364878 0.227803 0.550642
O O7 0.500000 0.258747 0.000000
O O8 0.750000 0.750000 0.500000
O O9 0.826485 0.656761 0.837367
O O10 0.828106 0.797554 0.940295
O O11 0.585203 0.136013 0.497658
O O12 0.669943 0.247660 0.806604
O O13 0.732549 0.146602 0.842480
O O14 0.962383 0.500000 0.543708
O O15 0.000000 0.383987 0.500000
O O16 0.864387 0.419902 0.150038
O O17 0.200313 0.500000 0.211684
#
# Coordination Sequence:
#
# PCOD9175885 Si02
#       7
#     8   8   8   8   8   8   8
#     4  10  20  39  63  87 114 151 196 246 298 353
#     4  11  25  38  57  86 120 161 197 237 300 356
#     4  12  20  37  58  87 119 152 192 245 287 346
#     4  10  18  34  54  79 110 146 192 243 276 336
#     4  10  20  32  52  83 115 151 191 232 283 339
#     4  10  18  33  59  84 105 138 194 246 289 333
#     4  10  19  34  57  83 114 152 194 235 286 345
#
# _framework density 18.009359
#
# number of rings (size 3 to 8) (size 9 to 14) (size 15 to 20)
#    0.000    1.571    5.714    0.857    2.000    0.286 
#    0.000    4.286    0.000    1.714    0.000    0.000 
#    0.000    0.000    0.000    0.000    0.000    0.000 
#
# Total GULP energy -155885.656970 kJ/mol
# GULP energy per Si atom -5567.344892 kJ/mol
# Density = 1.796837 g / cm^3
# Si number density = 18.009359 Si / 1000 Ang^3
#
#
#
# Elastic Constant Matrix: (Units=GPa)
#
#
# Indices 1 2 3 4 5 6 
#
# 1 100.8503 21.2020 10.8991 0.0000 -13.7691 0.0000
# 2 21.2020 79.1866 -5.2130 0.0000 -17.3456 0.0000
# 3 10.8991 -5.2130 32.7414 0.0000 -8.3542 0.0000
# 4 0.0000 0.0000 0.0000 15.2019 0.0000 1.0523
# 5 -13.7691 -17.3456 -8.3542 0.0000 28.0091 0.0000
# 6 0.0000 0.0000 0.0000 1.0523 0.0000 12.9638
#
#
#
# Elastic Compliance Matrix: (Units=1/GPa)
#
#
# Indices 1 2 3 4 5 6 
#
# 1 0.011225 -0.002597 -0.003412 0.000000 0.002893 0.000000
# 2 -0.002597 0.016014 0.006082 0.000000 0.010455 0.000000
# 3 -0.003412 0.006082 0.035913 0.000000 0.012801 0.000000
# 4 0.000000 0.000000 0.000000 0.066153 0.000000 -0.005370
# 5 0.002893 0.010455 0.012801 0.000000 0.047417 0.000000
# 6 0.000000 0.000000 0.000000 -0.005370 0.000000 0.077574
#
#
# Mechanical properties :
#
#
# Convention : Reuss Voigt Hill
#
# Bulk Modulus (GPa) = 15.79822 29.61716 22.70769
# Shear Modulus (GPa) = 18.16535 23.62763 20.89649
#
# Velocity S-wave (km/s) = 3.17939 3.62603 3.41003
# Velocity P-wave (km/s) = 4.71903 5.83198 5.30477
#
# Compressibility (1/GPa) = 0.06329827
#
# Stress axis : x y z
#
# Youngs Moduli (GPa) = 89.08502 62.44497 27.84530
#
# Poissons Ratio (x) = 0.16214 0.09501
# Poissons Ratio (y) = 0.23131 -0.16935
# Poissons Ratio (z) = 0.30396 -0.37977
#
# Static dielectric constant tensor:
#      x y z
#    x 1.645910 0.000000 -0.011470 
#    y 0.000000 1.669000 0.000000 
#    z -0.011470 0.000000 1.616100 
# 
# From -- ./inp_files/87818.got.cif
#   From: 2010.05.17/outbox.cif.g08.bks.cpg/sg12_44_cif.got.tgz:87818.got - 2010.06.03 13:09:07.
