data_PCOD9175800
_publ_section_title
;
Structure prediction by ZEFSAII (Michael W. Deem and Ramdas Pophale) SiO2 
 PCOD9175800
Probable space group: C 2/M
;
_chemical_formula_sum "Si O2"
_cell_formula_units_Z 50
_cell_length_a 20.652521
_cell_length_b 7.605608
_cell_length_c 19.157677
_cell_angle_alpha 90.000000
_cell_angle_beta 129.993592
_cell_angle_gamma 90.000000
_cell_volume 2305.390905
_symmetry_space_group_name_H-M "C 2/M"
_symmetry_group_IT_number 12
_symmetry_cell_setting 'monoclinic'
loop_
_space_group_symop_operation_xyz
x,y,z
-x,y,-z
-x,-y,-z
x,-y,z
1/2+x,1/2+y,z
1/2-x,1/2+y,-z
1/2-x,1/2-y,-z
1/2+x,1/2-y,z
loop_
_atom_site_type_symbol
_atom_site_label
_atom_site_fract_x
_atom_site_fract_y
_atom_site_fract_z
Si Si1 0.206968 0.794864 0.193162
Si Si2 0.524127 0.288841 0.115788
Si Si3 0.000000 0.500000 0.000000
Si Si4 0.281336 0.709590 0.099713
Si Si5 0.377380 0.203986 0.378553
Si Si6 0.474369 0.712502 0.239906
Si Si7 0.551482 0.300105 0.431029
O O1 0.118096 0.723926 0.158779
O O2 0.223889 0.780467 0.122576
O O3 0.289516 0.721498 0.289418
O O4 0.202865 0.000000 0.209295
O O5 0.512634 0.500000 0.094011
O O6 0.467814 0.157372 0.031842
O O7 0.508605 0.258112 0.186365
O O8 0.282720 0.500000 0.108056
O O9 0.377583 0.776119 0.177432
O O10 0.250000 0.750000 0.000000
O O11 0.457415 0.298275 0.399565
O O12 0.389504 0.211921 0.470240
O O13 0.383848 0.000000 0.361465
O O14 0.471059 0.500000 0.247210
O O15 0.535119 0.779607 0.343462
O O16 0.581482 0.500000 0.444991
#
# Coordination Sequence:
#
# PCOD9175800 Si02
#       7
#     8   8   2   8   8   8   8
#     4  10  22  40  60  85 120 163 193 246 310 358
#     4  10  24  45  65  87 128 162 207 257 301 369
#     4  12  26  44  64 102 108 172 218 238 320 362
#     4  11  23  37  58  85 117 150 197 249 300 359
#     4  10  19  33  54  88 121 155 196 242 306 360
#     4   9  20  40  60  83 118 163 196 249 311 356
#     4  10  18  33  57  87 115 156 202 242 303 359
#
# _framework density 21.688296999999999
#
# number of rings (size 3 to 8) (size 9 to 14) (size 15 to 20)
#    0.000    1.920    1.600    2.640    3.360    0.640 
#    4.320    0.800    0.000    0.000    0.000    0.000 
#    0.000    0.000    0.000    0.000    0.000    0.000 
#
# Total GULP energy -139342.711043 kJ/mol
# GULP energy per Si atom -5573.708442 kJ/mol
# Density = 2.163893 g / cm^3
# Si number density = 21.688297 Si / 1000 Ang^3
#
#
#
# Elastic Constant Matrix: (Units=GPa)
#
#
# Indices 1 2 3 4 5 6 
#
# 1 97.1275 1.0113 31.2806 0.0000 -8.5789 0.0000
# 2 1.0113 76.6461 6.4737 0.0000 -4.6077 0.0000
# 3 31.2806 6.4737 114.4049 0.0000 -18.8798 0.0000
# 4 0.0000 0.0000 0.0000 37.5083 0.0000 -23.5938
# 5 -8.5789 -4.6077 -18.8798 0.0000 39.3621 0.0000
# 6 0.0000 0.0000 0.0000 -23.5938 0.0000 11.8752
#
#
#
# Elastic Compliance Matrix: (Units=1/GPa)
#
#
# Indices 1 2 3 4 5 6 
#
# 1 0.011333 0.000163 -0.002929 0.000000 0.001084 0.000000
# 2 0.000163 0.013172 -0.000575 0.000000 0.001302 0.000000
# 3 -0.002929 -0.000575 0.010271 0.000000 0.004221 0.000000
# 4 0.000000 0.000000 0.000000 -0.106744 0.000000 -0.212081
# 5 0.001084 0.001302 0.004221 0.000000 0.027818 0.000000
# 6 0.000000 0.000000 0.000000 -0.212081 0.000000 -0.337156
#
#
# Mechanical properties :
#
#
# Convention : Reuss Voigt Hill
#
# Bulk Modulus (GPa) = 35.59555 40.63442 38.11498
# Shear Modulus (GPa) = -13.68889 34.37664 10.34387
#
# Velocity S-wave (km/s) = -2.51502 3.98556 2.18625
# Velocity P-wave (km/s) = 2.83093 6.32107 4.89745
#
# Compressibility (1/GPa) = 0.02809340
#
# Stress axis : x y z
#
# Youngs Moduli (GPa) = 88.23697 75.92066 97.36346
#
# Poissons Ratio (x) = -0.01238 0.28518
# Poissons Ratio (y) = -0.01439 0.05599
# Poissons Ratio (z) = 0.25845 0.04366
#
# Static dielectric constant tensor:
#      x y z
#    x 1.781510 0.000000 0.036810 
#    y 0.000000 1.820670 0.000000 
#    z 0.036810 0.000000 1.892230 
# 
# From -- ./inp_files/275757.got.cif
#   From: 2010.05.17/outbox.cif.g08.bks.cpg/sg12_138_cif.got.tgz:275757.got - 2010.06.03 13:09:07.
