data_PCOD9175825
_publ_section_title
;
Structure prediction by ZEFSAII (Michael W. Deem and Ramdas Pophale) SiO2 
 PCOD9175825
Probable space group: C 2/M
;
_chemical_formula_sum "Si O2"
_cell_formula_units_Z 56
_cell_length_a 25.385193
_cell_length_b 16.324178
_cell_length_c 20.526743
_cell_angle_alpha 90.000000
_cell_angle_beta 19.968225
_cell_angle_gamma 90.000000
_cell_volume 2904.833327
_symmetry_space_group_name_H-M "C 2/M"
_symmetry_group_IT_number 12
_symmetry_cell_setting 'monoclinic'
loop_
_space_group_symop_operation_xyz
x,y,z
-x,y,-z
-x,-y,-z
x,-y,z
1/2+x,1/2+y,z
1/2-x,1/2+y,-z
1/2-x,1/2-y,-z
1/2+x,1/2-y,z
loop_
_atom_site_type_symbol
_atom_site_label
_atom_site_fract_x
_atom_site_fract_y
_atom_site_fract_z
Si Si1 0.360282 0.315578 0.473764
Si Si2 0.652872 0.911715 0.625811
Si Si3 0.561680 0.408257 0.805396
Si Si4 0.462868 0.852204 0.738213
Si Si5 0.630786 0.595950 0.097206
Si Si6 0.660150 0.274491 0.797709
Si Si7 0.121864 0.593638 0.416881
O O1 0.210269 0.339459 0.605677
O O2 0.452935 0.233934 0.346372
O O3 0.487447 0.384879 0.311983
O O4 0.288387 0.290282 0.626223
O O5 0.785761 0.913924 0.416503
O O6 0.500051 0.900997 0.761027
O O7 0.652809 0.000000 0.660236
O O8 0.534535 0.500000 0.864553
O O9 0.429440 0.388789 0.906354
O O10 0.602046 0.337808 0.809058
O O11 0.540813 0.888676 0.581442
O O12 0.281143 0.851379 0.937733
O O13 0.671917 0.500000 0.053305
O O14 0.745050 0.338627 0.746828
O O15 0.500000 0.231336 0.000000
O O16 0.179784 0.500000 0.350730
O O17 0.000000 0.600227 0.500000
#
# Coordination Sequence:
#
# PCOD9175825 Si02
#       7
#     8   8   8   8   8   8   8
#     4  10  21  37  53  78 112 145 178 225 279 320
#     4  10  18  33  58  82 109 142 175 220 275 327
#     4   9  18  32  51  75 106 142 177 217 262 319
#     4  11  20  33  54  84 115 142 180 222 266 322
#     4  10  21  34  54  82 110 141 177 221 276 330
#     4  11  23  36  52  74 104 146 193 228 261 314
#     4  10  21  35  51  74 112 155 184 212 255 318
#
# _framework density 19.278214999999999
#
# number of rings (size 3 to 8) (size 9 to 14) (size 15 to 20)
#    0.000    1.857    2.857    3.857    4.000    1.143 
#    0.000    0.000    0.000    1.714    0.000    0.000 
#    0.000   38.857    0.000    0.000    0.000    0.000 
#
# Total GULP energy -155992.991299 kJ/mol
# GULP energy per Si atom -5571.178261 kJ/mol
# Density = 1.923434 g / cm^3
# Si number density = 19.278215 Si / 1000 Ang^3
#
#
#
# Elastic Constant Matrix: (Units=GPa)
#
#
# Indices 1 2 3 4 5 6 
#
# 1 57.9094 26.8096 11.5862 0.0009 -28.0016 -0.0006
# 2 26.8096 45.7613 -4.5785 0.0066 -6.6141 -0.0059
# 3 11.5862 -4.5785 68.2663 0.0100 -16.5019 -0.0056
# 4 0.0009 0.0066 0.0100 13.2171 -0.0040 -6.9271
# 5 -28.0016 -6.6141 -16.5019 -0.0040 31.1558 0.0017
# 6 -0.0006 -0.0059 -0.0056 -6.9271 0.0017 9.4034
#
#
#
# Elastic Compliance Matrix: (Units=1/GPa)
#
#
# Indices 1 2 3 4 5 6 
#
# 1 0.043625 -0.020597 -0.000418 0.000015 0.034614 -0.000006
# 2 -0.020597 0.032841 0.003336 -0.000013 -0.009773 0.000013
# 3 -0.000418 0.003336 0.017229 -0.000010 0.009458 0.000003
# 4 0.000015 -0.000013 -0.000010 0.123242 0.000016 0.090788
# 5 0.034614 -0.009773 0.009458 0.000016 0.066141 0.000002
# 6 -0.000006 0.000013 0.000003 0.090788 0.000002 0.173226
#
#
# Mechanical properties :
#
#
# Convention : Reuss Voigt Hill
#
# Bulk Modulus (GPa) = 17.14193 26.61908 21.88051
# Shear Modulus (GPa) = 9.78267 19.96323 14.87295
#
# Velocity S-wave (km/s) = 2.25510 3.22146 2.78058
# Velocity P-wave (km/s) = 3.96129 5.26070 4.65654
#
# Compressibility (1/GPa) = 0.05833648
#
# Stress axis : x y z
#
# Youngs Moduli (GPa) = 22.92276 30.45015 58.04005
#
# Poissons Ratio (x) = 0.62718 0.02428
# Poissons Ratio (y) = 0.47214 -0.19361
# Poissons Ratio (z) = 0.00959 -0.10158
#
# Static dielectric constant tensor:
#      x y z
#    x 1.685550 0.000000 0.009910 
#    y 0.000000 1.723460 0.000000 
#    z 0.009910 0.000000 1.729710 
# 
# From -- ./inp_files/325994.got.cif
#   From: 2010.05.17/outbox.cif.g08.bks.cpg/sg12_163_cif.got.tgz:325994.got - 2010.06.03 13:09:07.
