data_PCOD9175121
_publ_section_title
;
Structure prediction by ZEFSAII (Michael W. Deem and Ramdas Pophale) SiO2 
 PCOD9175121
Probable space group: C 2/M
;
_chemical_formula_sum "Si O2"
_cell_formula_units_Z 56
_cell_length_a 19.262602
_cell_length_b 12.263646
_cell_length_c 20.669515
_cell_angle_alpha 90.000000
_cell_angle_beta 152.359699
_cell_angle_gamma 90.000000
_cell_volume 2265.203631
_symmetry_space_group_name_H-M "C 2/M"
_symmetry_group_IT_number 12
_symmetry_cell_setting 'monoclinic'
loop_
_space_group_symop_operation_xyz
x,y,z
-x,y,-z
-x,-y,-z
x,-y,z
1/2+x,1/2+y,z
1/2-x,1/2+y,-z
1/2-x,1/2-y,-z
1/2+x,1/2-y,z
loop_
_atom_site_type_symbol
_atom_site_label
_atom_site_fract_x
_atom_site_fract_y
_atom_site_fract_z
Si Si1 0.978215 0.343066 0.556354
Si Si2 0.398429 0.845499 0.690919
Si Si3 0.878629 0.621463 0.825076
Si Si4 0.687490 0.387547 0.397977
Si Si5 0.693682 0.878016 0.857254
Si Si6 0.410813 0.623057 0.344979
Si Si7 0.204420 0.368270 0.060124
O O1 0.112427 0.367681 0.718840
O O2 0.962615 0.211850 0.543551
O O3 0.000000 0.377974 0.500000
O O4 0.826614 0.385557 0.463170
O O5 0.369203 0.878321 0.739627
O O6 0.409951 0.715797 0.696657
O O7 0.266599 0.877932 0.533177
O O8 0.555286 0.885346 0.792815
O O9 0.857482 0.500000 0.833622
O O10 0.731763 0.674979 0.733982
O O11 0.052907 0.648185 0.977426
O O12 0.602824 0.500000 0.322585
O O13 0.776023 0.762870 0.945067
O O14 0.769239 0.000000 0.921008
O O15 0.451978 0.500000 0.396926
O O16 0.353941 0.620783 0.225049
O O17 0.186153 0.500000 0.020536
#
# Coordination Sequence:
#
# PCOD9175121 Si02
#       7
#     8   8   8   8   8   8   8
#     4  10  19  33  53  76 103 138 178 214 257 313
#     4  10  20  35  53  75 102 136 175 213 258 312
#     4  10  18  32  56  79 102 134 173 215 258 309
#     4  10  21  36  52  72 102 138 174 215 261 309
#     4  10  21  37  55  76 107 142 174 214 263 313
#     4   9  18  32  51  78 108 135 170 218 266 309
#     4   9  19  35  56  81 106 136 174 217 264 310
#
# _framework density 24.72184
#
# number of rings (size 3 to 8) (size 9 to 14) (size 15 to 20)
#    0.000    2.286    0.000    3.857    0.000    4.286 
#    0.000    9.286    0.000    7.714    0.000    0.000 
#    0.000    0.000    0.000    0.000    0.000    0.000 
#
# Total GULP energy -155948.403706 kJ/mol
# GULP energy per Si atom -5569.585847 kJ/mol
# Density = 2.466557 g / cm^3
# Si number density = 24.721840 Si / 1000 Ang^3
#
#
#
# Elastic Constant Matrix: (Units=GPa)
#
#
# Indices 1 2 3 4 5 6 
#
# 1 102.6946 24.2010 4.0663 0.0004 -9.1142 0.0004
# 2 24.2010 234.2030 34.7053 0.0005 6.7674 0.0005
# 3 4.0663 34.7053 44.8837 0.0006 -7.7953 0.0007
# 4 0.0004 0.0005 0.0006 67.3286 0.0004 84.5398
# 5 -9.1142 6.7674 -7.7953 0.0004 30.9972 0.0005
# 6 0.0004 0.0005 0.0007 84.5398 0.0005 159.9481
#
#
#
# Elastic Compliance Matrix: (Units=1/GPa)
#
#
# Indices 1 2 3 4 5 6 
#
# 1 0.010318 -0.001262 0.000644 0.000000 0.003471 0.000000
# 2 -0.001262 0.005109 -0.004281 0.000000 -0.002563 0.000000
# 3 0.000644 -0.004281 0.026902 0.000000 0.007889 0.000000
# 4 0.000000 0.000000 0.000000 0.044159 0.000000 -0.023340
# 5 0.003471 -0.002563 0.007889 0.000000 0.035825 0.000000
# 6 0.000000 0.000000 0.000000 -0.023340 0.000000 0.018588
#
#
# Mechanical properties :
#
#
# Convention : Reuss Voigt Hill
#
# Bulk Modulus (GPa) = 30.74080 56.41407 43.57743
# Shear Modulus (GPa) = 30.95176 72.90868 51.93022
#
# Velocity S-wave (km/s) = 3.54220 5.43651 4.58818
# Velocity P-wave (km/s) = 5.40289 7.89155 6.76269
#
# Compressibility (1/GPa) = 0.03253006
#
# Stress axis : x y z
#
# Youngs Moduli (GPa) = 96.92228 195.74764 37.17219
#
# Poissons Ratio (x) = 0.24700 -0.02393
# Poissons Ratio (y) = 0.12230 0.15913
# Poissons Ratio (z) = -0.06240 0.83798
#
# Static dielectric constant tensor:
#      x y z
#    x 1.992940 0.000000 -0.042990 
#    y 0.000000 2.021050 0.000000 
#    z -0.042990 0.000000 1.993610 
# 
# From -- ./inp_files/347046.got.cif
#   From: 2010.05.17/outbox.cif.g08.bks.cpg/sg12_174_cif.got.tgz:347046.got - 2010.06.03 13:09:07.
