data_PCOD9175693
_publ_section_title
;
Structure prediction by ZEFSAII (Michael W. Deem and Ramdas Pophale) SiO2 
 PCOD9175693
Probable space group: C 2/M
;
_chemical_formula_sum "Si O2"
_cell_formula_units_Z 48
_cell_length_a 27.418082
_cell_length_b 7.643844
_cell_length_c 11.699673
_cell_angle_alpha 90.000000
_cell_angle_beta 58.794635
_cell_angle_gamma 90.000000
_cell_volume 2097.244572
_symmetry_space_group_name_H-M "C 2/M"
_symmetry_group_IT_number 12
_symmetry_cell_setting 'monoclinic'
loop_
_space_group_symop_operation_xyz
x,y,z
-x,y,-z
-x,-y,-z
x,-y,z
1/2+x,1/2+y,z
1/2-x,1/2+y,-z
1/2-x,1/2-y,-z
1/2+x,1/2-y,z
loop_
_atom_site_type_symbol
_atom_site_label
_atom_site_fract_x
_atom_site_fract_y
_atom_site_fract_z
Si Si1 0.379624 0.700483 0.831886
Si Si2 0.617285 0.796634 0.424152
Si Si3 0.553682 0.710989 0.853980
Si Si4 0.508362 0.200150 0.667003
Si Si5 0.338642 0.285658 0.125792
Si Si6 0.230080 0.289627 0.396487
O O1 0.361157 0.500000 0.845120
O O2 0.365283 0.787113 0.728903
O O3 0.448342 0.706506 0.758737
O O4 0.353025 0.775209 0.980363
O O5 0.553974 0.722625 0.522009
O O6 0.667660 0.719409 0.440047
O O7 0.610849 0.000000 0.463792
O O8 0.555443 0.500000 0.837205
O O9 0.542420 0.793527 0.745024
O O10 0.611140 0.766992 0.848149
O O11 0.500000 0.751833 0.000000
O O12 0.493006 0.000000 0.654481
O O13 0.339940 0.500000 0.121604
O O14 0.278315 0.228226 0.249377
O O15 0.227424 0.500000 0.388321
O O16 0.250000 0.250000 0.500000
#
# Coordination Sequence:
#
# PCOD9175693 Si02
#       6
#     8   8   8   8   8   8
#     4  11  22  38  59  84 112 147 194 235 277 337
#     4  10  23  40  56  81 117 152 185 231 286 333
#     4  10  18  33  56  82 114 146 184 231 278 329
#     4  11  22  36  55  82 118 152 186 232 285 337
#     4   9  19  36  58  84 114 148 184 233 284 325
#     4  10  21  40  63  84 113 148 185 230 281 334
#
# _framework density 22.887173000000001
#
# number of rings (size 3 to 8) (size 9 to 14) (size 15 to 20)
#    0.000    1.833    1.667    2.500    0.000    5.000 
#    0.000    1.667    0.000    0.000    0.000    0.000 
#    0.000    0.000    0.000    0.000    0.000    0.000 
#
# Total GULP energy -134186.724501 kJ/mol
# GULP energy per Si atom -5591.113521 kJ/mol
# Density = 2.283508 g / cm^3
# Si number density = 22.887173 Si / 1000 Ang^3
#
#
#
# Elastic Constant Matrix: (Units=GPa)
#
#
# Indices 1 2 3 4 5 6 
#
# 1 86.7119 -4.3172 36.6761 0.0000 -2.1918 0.0000
# 2 -4.3172 45.2002 -0.4501 0.0000 -5.6767 0.0000
# 3 36.6761 -0.4501 134.2732 0.0000 -0.3421 0.0000
# 4 0.0000 0.0000 0.0000 17.5618 0.0000 11.9680
# 5 -2.1918 -5.6767 -0.3421 0.0000 41.7286 0.0000
# 6 0.0000 0.0000 0.0000 11.9680 0.0000 13.1643
#
#
#
# Elastic Compliance Matrix: (Units=1/GPa)
#
#
# Indices 1 2 3 4 5 6 
#
# 1 0.013134 0.001324 -0.003581 0.000000 0.000841 0.000000
# 2 0.001324 0.022643 -0.000278 0.000000 0.003148 0.000000
# 3 -0.003581 -0.000278 0.008424 0.000000 -0.000157 0.000000
# 4 0.000000 0.000000 0.000000 0.149672 0.000000 -0.136071
# 5 0.000841 0.003148 -0.000157 0.000000 0.024435 0.000000
# 6 0.000000 0.000000 0.000000 -0.136071 0.000000 0.199669
#
#
# Mechanical properties :
#
#
# Convention : Reuss Voigt Hill
#
# Bulk Modulus (GPa) = 25.55416 36.66699 31.11058
# Shear Modulus (GPa) = 11.46551 30.10937 20.78744
#
# Velocity S-wave (km/s) = 2.24064 3.63100 3.01700
# Velocity P-wave (km/s) = 4.22888 5.79952 5.07532
#
# Compressibility (1/GPa) = 0.03913257
#
# Stress axis : x y z
#
# Youngs Moduli (GPa) = 76.13675 44.16413 118.70416
#
# Poissons Ratio (x) = -0.05849 0.42508
# Poissons Ratio (y) = -0.10084 0.03298
# Poissons Ratio (z) = 0.27264 0.01227
#
# Static dielectric constant tensor:
#      x y z
#    x 1.848440 0.000000 -0.018210 
#    y 0.000000 1.851240 0.000000 
#    z -0.018210 0.000000 1.850960 
# 
# From -- ./inp_files/179754.got.cif
#   From: 2010.05.17/outbox.cif.g08.bks.cpg/sg12_90_cif.got.tgz:179754.got - 2010.06.03 13:09:07.
