data_PCOD9175387
_publ_section_title
;
Structure prediction by ZEFSAII (Michael W. Deem and Ramdas Pophale) SiO2 
 PCOD9175387
Probable space group: C 2/M
;
_chemical_formula_sum "Si O2"
_cell_formula_units_Z 50
_cell_length_a 14.426625
_cell_length_b 21.375339
_cell_length_c 8.273322
_cell_angle_alpha 90.000000
_cell_angle_beta 111.193093
_cell_angle_gamma 90.000000
_cell_volume 2378.727845
_symmetry_space_group_name_H-M "C 2/M"
_symmetry_group_IT_number 12
_symmetry_cell_setting 'monoclinic'
loop_
_space_group_symop_operation_xyz
x,y,z
-x,y,-z
-x,-y,-z
x,-y,z
1/2+x,1/2+y,z
1/2-x,1/2+y,-z
1/2-x,1/2-y,-z
1/2+x,1/2-y,z
loop_
_atom_site_type_symbol
_atom_site_label
_atom_site_fract_x
_atom_site_fract_y
_atom_site_fract_z
Si Si1 0.729019 0.701639 0.286278
Si Si2 0.888046 0.122175 0.057836
Si Si3 0.037695 0.796052 0.348811
Si Si4 0.289811 0.158161 0.849996
Si Si5 0.921410 0.667235 0.258242
Si Si6 0.943035 0.570801 0.789692
Si Si7 0.000000 0.000000 0.000000
O O1 0.655881 0.700717 0.394063
O O2 0.734870 0.772701 0.227133
O O3 0.840973 0.675340 0.350323
O O4 0.668781 0.660585 0.117120
O O5 0.807575 0.121833 0.151632
O O6 0.981070 0.161672 0.182493
O O7 0.925095 0.055449 0.021902
O O8 0.000000 0.817196 0.500000
O O9 0.995898 0.725834 0.301901
O O10 0.350389 0.116435 0.761863
O O11 0.359496 0.168948 0.051593
O O12 0.982702 0.603477 0.289280
O O13 0.916109 0.500000 0.730236
O O14 0.000000 0.568996 0.000000
#
# Coordination Sequence:
#
# PCOD9175387 Si02
#       7
#     8   8   8   8   8   8   2
#     4  11  19  37  62  84 111 149 194 246 289 335
#     4  11  22  39  57  90 113 153 196 236 293 337
#     4  12  23  36  57  87 121 150 193 245 293 346
#     4  10  18  32  64  84 112 145 192 244 285 336
#     4  10  19  34  55  84 113 149 187 238 292 335
#     4   9  18  30  49  86 118 143 174 231 287 342
#     4  12  24  36  66  84 122 152 196 244 276 358
#
# _framework density 21.019639999999999
#
# number of rings (size 3 to 8) (size 9 to 14) (size 15 to 20)
#    0.000    1.440    6.400    0.960    1.120    0.640 
#    4.320    0.400    0.000    0.480    0.000    0.000 
#    0.000    0.000    0.000    0.000    0.000    0.000 
#
# Total GULP energy -139468.229878 kJ/mol
# GULP energy per Si atom -5578.729195 kJ/mol
# Density = 2.097180 g / cm^3
# Si number density = 21.019640 Si / 1000 Ang^3
#
#
#
# Elastic Constant Matrix: (Units=GPa)
#
#
# Indices 1 2 3 4 5 6 
#
# 1 190.0654 76.0900 26.9064 0.0000 -39.5948 0.0000
# 2 76.0900 171.8191 31.9828 0.0000 -10.0849 0.0000
# 3 26.9064 31.9828 55.6698 0.0000 -4.2935 0.0000
# 4 0.0000 0.0000 0.0000 -2.4539 0.0000 -8.3616
# 5 -39.5948 -10.0849 -4.2935 0.0000 32.2342 0.0000
# 6 0.0000 0.0000 0.0000 -8.3616 0.0000 29.0212
#
#
#
# Elastic Compliance Matrix: (Units=1/GPa)
#
#
# Indices 1 2 3 4 5 6 
#
# 1 0.008671 -0.002955 -0.001761 0.000000 0.009492 0.000000
# 2 -0.002955 0.007602 -0.003067 0.000000 -0.001660 0.000000
# 3 -0.001761 -0.003067 0.020547 0.000000 -0.000386 0.000000
# 4 0.000000 0.000000 0.000000 -0.205634 0.000000 -0.059247
# 5 0.009492 -0.001660 -0.000386 0.000000 0.042112 0.000000
# 6 0.000000 0.000000 0.000000 -0.059247 0.000000 0.017387
#
#
# Mechanical properties :
#
#
# Convention : Reuss Voigt Hill
#
# Bulk Modulus (GPa) = 47.05236 76.39030 61.72133
# Shear Modulus (GPa) = -57.69429 30.59865 -13.54782
#
# Velocity S-wave (km/s) = -5.24475 3.81952 -2.54152
# Velocity P-wave (km/s) = 3.77399 7.47482 4.56234
#
# Compressibility (1/GPa) = 0.02125292
#
# Stress axis : x y z
#
# Youngs Moduli (GPa) = 115.32621 131.54019 48.66965
#
# Poissons Ratio (x) = 0.38870 0.08572
# Poissons Ratio (y) = 0.34079 0.14929
# Poissons Ratio (z) = 0.20311 0.40348
#
# Static dielectric constant tensor:
#      x y z
#    x 1.808340 0.000000 -0.028610 
#    y 0.000000 1.681490 0.000000 
#    z -0.028610 0.000000 1.807270 
# 
# From -- ./inp_files/63470.got.cif
#   From: 2010.05.17/outbox.cif.g08.bks.cpg/sg12_32_cif.got.tgz:63470.got - 2010.06.03 13:09:07.
