data_PCOD9175207
_publ_section_title
;
Structure prediction by ZEFSAII (Michael W. Deem and Ramdas Pophale) SiO2 
 PCOD9175207
Probable space group: C 2/M
;
_chemical_formula_sum "Si O2"
_cell_formula_units_Z 54
_cell_length_a 14.750980
_cell_length_b 13.886851
_cell_length_c 10.652138
_cell_angle_alpha 90.000000
_cell_angle_beta 74.616719
_cell_angle_gamma 90.000000
_cell_volume 2103.857563
_symmetry_space_group_name_H-M "C 2/M"
_symmetry_group_IT_number 12
_symmetry_cell_setting 'monoclinic'
loop_
_space_group_symop_operation_xyz
x,y,z
-x,y,-z
-x,-y,-z
x,-y,z
1/2+x,1/2+y,z
1/2-x,1/2+y,-z
1/2-x,1/2-y,-z
1/2+x,1/2-y,z
loop_
_atom_site_type_symbol
_atom_site_label
_atom_site_fract_x
_atom_site_fract_y
_atom_site_fract_z
Si Si1 0.500000 0.334845 0.500000
Si Si2 0.223150 0.387458 0.965608
Si Si3 0.655102 0.171914 0.446395
Si Si4 0.340781 0.883824 0.283699
Si Si5 0.804087 0.114670 0.186536
Si Si6 0.963075 0.696950 0.874724
Si Si7 0.489201 0.394946 0.777728
Si Si8 0.000000 0.500000 0.500000
O O1 0.591962 0.267196 0.463693
O O2 0.503237 0.396006 0.624492
O O3 0.243893 0.500000 0.942846
O O4 0.290781 0.347502 0.049552
O O5 0.122225 0.375054 0.071327
O O6 0.210253 0.352908 0.826839
O O7 0.696155 0.157737 0.572112
O O8 0.733802 0.161611 0.311574
O O9 0.581607 0.084147 0.456655
O O10 0.449988 0.850400 0.231751
O O11 0.339539 0.000000 0.290244
O O12 0.910788 0.124023 0.193035
O O13 0.783827 0.000000 0.192889
O O14 0.933061 0.796917 0.822963
O O15 0.000000 0.718686 0.000000
O O16 0.454151 0.500000 0.833917
#
# Coordination Sequence:
#
# PCOD9175207 Si02
#       8
#     4   8   8   8   8   8   8   2
#     4  11  23  39  61  86 114 154 206 256 304 350
#     4   9  19  34  61  94 128 155 184 237 311 377
#     4  11  20  33  61  92 128 156 191 244 302 371
#     4  10  18  32  56  92 129 157 183 232 300 375
#     4  10  21  37  58  89 123 161 199 244 306 367
#     4  10  20  37  59  88 118 154 204 247 295 356
#     4  11  24  42  62  81 114 162 215 261 298 345
#     4  10  20  28  54  98 130 154 184 224 302 366
#
# _framework density 25.667138000000001
#
# number of rings (size 3 to 8) (size 9 to 14) (size 15 to 20)
#    0.000    1.778    2.963    1.556    2.074    2.667 
#    0.000    2.963    3.259    0.000    0.000    1.037 
#    0.000    0.000    0.000    0.000    0.000    0.000 
#
# Total GULP energy -151074.898965 kJ/mol
# GULP energy per Si atom -5595.366628 kJ/mol
# Density = 2.560872 g / cm^3
# Si number density = 25.667138 Si / 1000 Ang^3
#
#
#
# Elastic Constant Matrix: (Units=GPa)
#
#
# Indices 1 2 3 4 5 6 
#
# 1 102.5388 47.9122 73.7205 0.0000 3.0888 0.0000
# 2 47.9122 116.4842 38.4210 0.0000 -2.4324 0.0000
# 3 73.7205 38.4210 186.8479 0.0000 16.0674 0.0000
# 4 0.0000 0.0000 0.0000 32.3269 0.0000 -0.1761
# 5 3.0888 -2.4324 16.0674 0.0000 43.5056 0.0000
# 6 0.0000 0.0000 0.0000 -0.1761 0.0000 15.1677
#
#
#
# Elastic Compliance Matrix: (Units=1/GPa)
#
#
# Indices 1 2 3 4 5 6 
#
# 1 0.015744 -0.004719 -0.005291 0.000000 0.000572 0.000000
# 2 -0.004719 0.010690 -0.000430 0.000000 0.001092 0.000000
# 3 -0.005291 -0.000430 0.007744 0.000000 -0.002508 0.000000
# 4 0.000000 0.000000 0.000000 0.030936 0.000000 0.000359
# 5 0.000572 0.001092 -0.002508 0.000000 0.023932 0.000000
# 6 0.000000 0.000000 0.000000 0.000359 0.000000 0.065934
#
#
# Mechanical properties :
#
#
# Convention : Reuss Voigt Hill
#
# Bulk Modulus (GPa) = 75.19689 80.66425 77.93057
# Shear Modulus (GPa) = 27.73284 34.58785 31.16035
#
# Velocity S-wave (km/s) = 3.29063 3.67489 3.48805
# Velocity P-wave (km/s) = 6.61802 7.03574 6.83008
#
# Compressibility (1/GPa) = 0.01329842
#
# Stress axis : x y z
#
# Youngs Moduli (GPa) = 63.51752 93.54106 129.14022
#
# Poissons Ratio (x) = 0.44139 0.68323
# Poissons Ratio (y) = 0.29972 0.05558
# Poissons Ratio (z) = 0.33604 0.04026
#
# Static dielectric constant tensor:
#      x y z
#    x 2.031200 0.000000 0.036950 
#    y 0.000000 2.011620 0.000000 
#    z 0.036950 0.000000 1.989480 
# 
# From -- ./inp_files/143790.got.cif
#   From: 2010.05.17/outbox.cif.g08.bks.cpg/sg12_72_cif.got.tgz:143790.got - 2010.06.03 13:09:07.
