data_PCOD9175499
_publ_section_title
;
Structure prediction by ZEFSAII (Michael W. Deem and Ramdas Pophale) SiO2 
 PCOD9175499
Probable space group: C 2/M
;
_chemical_formula_sum "Si O2"
_cell_formula_units_Z 48
_cell_length_a 8.066022
_cell_length_b 20.087430
_cell_length_c 16.042759
_cell_angle_alpha 90.000000
_cell_angle_beta 86.710072
_cell_angle_gamma 90.000000
_cell_volume 2595.054575
_symmetry_space_group_name_H-M "C 2/M"
_symmetry_group_IT_number 12
_symmetry_cell_setting 'monoclinic'
loop_
_space_group_symop_operation_xyz
x,y,z
-x,y,-z
-x,-y,-z
x,-y,z
1/2+x,1/2+y,z
1/2-x,1/2+y,-z
1/2-x,1/2-y,-z
1/2+x,1/2-y,z
loop_
_atom_site_type_symbol
_atom_site_label
_atom_site_fract_x
_atom_site_fract_y
_atom_site_fract_z
Si Si1 0.920809 0.793547 0.912775
Si Si2 0.355388 0.721715 0.642431
Si Si3 0.062499 0.421483 0.252131
Si Si4 0.049183 0.648913 0.910250
Si Si5 0.137947 0.179096 0.746489
Si Si6 0.940440 0.649356 0.416075
O O1 0.736415 0.822622 0.909718
O O2 0.927186 0.713121 0.906468
O O3 0.040318 0.816999 0.835512
O O4 0.000000 0.810679 0.000000
O O5 0.240248 0.753176 0.719979
O O6 0.498747 0.677434 0.678786
O O7 0.438684 0.786745 0.599980
O O8 0.242576 0.680699 0.582514
O O9 0.084610 0.500000 0.250267
O O10 0.235182 0.381468 0.255681
O O11 0.959255 0.397539 0.335565
O O12 0.977081 0.396029 0.169629
O O13 0.000000 0.616222 0.000000
O O14 0.000000 0.616973 0.500000
#
# Coordination Sequence:
#
# PCOD9175499 Si02
#       6
#     8   8   8   8   8   8
#     4  11  19  31  56  87 111 132 167 220 282 328
#     4   9  18  32  56  85 108 132 167 218 280 325
#     4  11  24  39  53  72 105 151 190 218 255 306
#     4  11  21  35  57  84 112 139 172 219 271 323
#     4  10  18  33  53  77 109 139 173 219 267 319
#     4  10  19  34  58  85 112 138 171 218 270 324
#
# _framework density 18.496721999999998
#
# number of rings (size 3 to 8) (size 9 to 14) (size 15 to 20)
#    0.000    1.667    0.000    9.500    0.000    0.667 
#    0.000    3.333    0.000    3.000    0.000    0.000 
#    0.000    0.000    0.000    0.000    0.000    0.000 
#
# Total GULP energy -134047.287576 kJ/mol
# GULP energy per Si atom -5585.303649 kJ/mol
# Density = 1.845462 g / cm^3
# Si number density = 18.496722 Si / 1000 Ang^3
#
#
#
# Elastic Constant Matrix: (Units=GPa)
#
#
# Indices 1 2 3 4 5 6 
#
# 1 88.6974 24.9664 14.3972 0.0000 23.0164 0.0000
# 2 24.9664 71.5732 25.2650 0.0000 25.1584 0.0000
# 3 14.3972 25.2650 92.5545 0.0000 23.9729 0.0000
# 4 0.0000 0.0000 0.0000 3.9927 0.0000 1.9652
# 5 23.0164 25.1584 23.9729 0.0000 27.1390 0.0000
# 6 0.0000 0.0000 0.0000 1.9652 0.0000 7.7666
#
#
#
# Elastic Compliance Matrix: (Units=1/GPa)
#
#
# Indices 1 2 3 4 5 6 
#
# 1 0.014626 -0.001180 0.001266 0.000000 -0.012429 0.000000
# 2 -0.001180 0.020876 -0.000988 0.000000 -0.017479 0.000000
# 3 0.001266 -0.000988 0.014157 0.000000 -0.012664 0.000000
# 4 0.000000 0.000000 0.000000 0.286088 0.000000 -0.072390
# 5 -0.012429 -0.017479 -0.012664 0.000000 0.074778 0.000000
# 6 0.000000 0.000000 0.000000 -0.072390 0.000000 0.147073
#
#
# Mechanical properties :
#
#
# Convention : Reuss Voigt Hill
#
# Bulk Modulus (GPa) = 20.89597 42.45359 31.67478
# Shear Modulus (GPa) = 8.69031 20.32610 14.50820
#
# Velocity S-wave (km/s) = 2.16991 3.31857 2.80369
# Velocity P-wave (km/s) = 4.19519 6.13886 5.25763
#
# Compressibility (1/GPa) = 0.04785612
#
# Stress axis : x y z
#
# Youngs Moduli (GPa) = 68.37089 47.90180 70.63546
#
# Poissons Ratio (x) = 0.05653 -0.08944
# Poissons Ratio (y) = 0.08069 0.06977
# Poissons Ratio (z) = -0.08657 0.04731
#
# Static dielectric constant tensor:
#      x y z
#    x 1.665320 0.000000 -0.007700 
#    y 0.000000 1.585960 0.000000 
#    z -0.007700 0.000000 1.703780 
# 
# From -- ./inp_files/195951.got.cif
#   From: 2010.05.17/outbox.cif.g08.bks.cpg/sg12_98_cif.got.tgz:195951.got - 2010.06.03 13:09:07.
