data_PCOD9175787
_publ_section_title
;
Structure prediction by ZEFSAII (Michael W. Deem and Ramdas Pophale) SiO2 
 PCOD9175787
Probable space group: C 2/M
;
_chemical_formula_sum "Si O2"
_cell_formula_units_Z 58
_cell_length_a 21.472038
_cell_length_b 7.455424
_cell_length_c 18.349768
_cell_angle_alpha 90.000000
_cell_angle_beta 113.145632
_cell_angle_gamma 90.000000
_cell_volume 2701.046448
_symmetry_space_group_name_H-M "C 2/M"
_symmetry_group_IT_number 12
_symmetry_cell_setting 'monoclinic'
loop_
_space_group_symop_operation_xyz
x,y,z
-x,y,-z
-x,-y,-z
x,-y,z
1/2+x,1/2+y,z
1/2-x,1/2+y,-z
1/2-x,1/2-y,-z
1/2+x,1/2-y,z
loop_
_atom_site_type_symbol
_atom_site_label
_atom_site_fract_x
_atom_site_fract_y
_atom_site_fract_z
Si Si1 0.327929 0.785133 0.555628
Si Si2 0.677398 0.716082 0.708764
Si Si3 0.431711 0.215512 0.890674
Si Si4 0.500000 0.500000 0.000000
Si Si5 0.324515 0.782356 0.717739
Si Si6 0.815796 0.784233 0.124969
Si Si7 0.836131 0.711822 0.976630
Si Si8 0.923285 0.713400 0.469723
O O1 0.250000 0.750000 0.500000
O O2 0.337773 0.717146 0.642181
O O3 0.378559 0.714710 0.516771
O O4 0.336576 0.000000 0.561578
O O5 0.681124 0.500000 0.713044
O O6 0.751652 0.779643 0.715496
O O7 0.663258 0.778666 0.785030
O O8 0.620038 0.761654 0.623800
O O9 0.494789 0.341209 0.933539
O O10 0.386833 0.256171 0.799436
O O11 0.384668 0.281964 0.936547
O O12 0.444808 0.000000 0.900071
O O13 0.319547 0.000000 0.713369
O O14 0.739415 0.716748 0.073396
O O15 0.814063 0.000000 0.126546
O O16 0.855409 0.737236 0.069573
O O17 0.833249 0.500000 0.961565
O O18 0.929122 0.500000 0.483939
O O19 0.000000 0.784778 0.500000
#
# Coordination Sequence:
#
# PCOD9175787 Si02
#       8
#     8   8   8   2   8   8   8   8
#     4  10  19  34  59  89 116 156 202 254 307 360
#     4  10  18  33  57  85 114 149 194 245 303 358
#     4  10  21  41  62  84 120 163 204 258 316 368
#     4  12  26  40  60  90 116 160 214 256 308 384
#     4   9  17  34  60  85 115 150 199 256 310 363
#     4   9  17  29  50  82 115 143 181 235 293 352
#     4   9  17  31  52  79 111 150 186 231 300 354
#     4  10  22  38  54  81 123 160 192 239 305 376
#
# _framework density 21.473158000000002
#
# number of rings (size 3 to 8) (size 9 to 14) (size 15 to 20)
#    0.000    2.345    2.759    0.207    0.966    0.828 
#    2.483    1.379    0.000    3.310    0.000    0.000 
#    0.000    0.000    0.000    0.000    0.000    0.000 
#
# Total GULP energy -161540.880789 kJ/mol
# GULP energy per Si atom -5570.375200 kJ/mol
# Density = 2.142428 g / cm^3
# Si number density = 21.473158 Si / 1000 Ang^3
#
#
#
# Elastic Constant Matrix: (Units=GPa)
#
#
# Indices 1 2 3 4 5 6 
#
# 1 73.5684 6.7621 64.6712 0.0000 -7.6511 0.0000
# 2 6.7621 77.6151 8.6582 0.0000 5.0490 0.0000
# 3 64.6712 8.6582 200.3669 0.0000 -8.0672 0.0000
# 4 0.0000 0.0000 0.0000 13.8982 0.0000 1.8255
# 5 -7.6511 5.0490 -8.0672 0.0000 39.4753 0.0000
# 6 0.0000 0.0000 0.0000 1.8255 0.0000 -3.1564
#
#
#
# Elastic Compliance Matrix: (Units=1/GPa)
#
#
# Indices 1 2 3 4 5 6 
#
# 1 0.019320 -0.001178 -0.006078 0.000000 0.002653 0.000000
# 2 -0.001178 0.013144 -0.000267 0.000000 -0.001964 0.000000
# 3 -0.006078 -0.000267 0.006976 0.000000 0.000282 0.000000
# 4 0.000000 0.000000 0.000000 0.066872 0.000000 0.038675
# 5 0.002653 -0.001964 0.000282 0.000000 0.026155 0.000000
# 6 0.000000 0.000000 0.000000 0.038675 0.000000 -0.294451
#
#
# Mechanical properties :
#
#
# Convention : Reuss Voigt Hill
#
# Bulk Modulus (GPa) = 40.99339 56.85926 48.92633
# Shear Modulus (GPa) = -36.02114 28.14069 -3.94022
#
# Velocity S-wave (km/s) = -4.10017 3.62402 -1.35607
# Velocity P-wave (km/s) = 1.81196 6.63687 4.51469
#
# Compressibility (1/GPa) = 0.02439417
#
# Stress axis : x y z
#
# Youngs Moduli (GPa) = 51.75985 76.07894 143.35884
#
# Poissons Ratio (x) = 0.08960 0.87135
# Poissons Ratio (y) = 0.06096 0.03826
# Poissons Ratio (z) = 0.31460 0.02031
#
# Static dielectric constant tensor:
#      x y z
#    x 1.841790 0.000000 0.053210 
#    y 0.000000 1.835800 0.000000 
#    z 0.053210 0.000000 1.763280 
# 
# From -- ./inp_files/281553.got.cif
#   From: 2010.05.17/outbox.cif.g08.bks.cpg/sg12_141_cif.got.tgz:281553.got - 2010.06.03 13:09:07.
