data_PCOD9175059
_publ_section_title
;
Structure prediction by ZEFSAII (Michael W. Deem and Ramdas Pophale) SiO2 
 PCOD9175059
Probable space group: C 2/M
;
_chemical_formula_sum "Si O2"
_cell_formula_units_Z 56
_cell_length_a 21.204756
_cell_length_b 7.934837
_cell_length_c 31.053142
_cell_angle_alpha 90.000000
_cell_angle_beta 146.460272
_cell_angle_gamma 90.000000
_cell_volume 2886.828309
_symmetry_space_group_name_H-M "C 2/M"
_symmetry_group_IT_number 12
_symmetry_cell_setting 'monoclinic'
loop_
_space_group_symop_operation_xyz
x,y,z
-x,y,-z
-x,-y,-z
x,-y,z
1/2+x,1/2+y,z
1/2-x,1/2+y,-z
1/2-x,1/2-y,-z
1/2+x,1/2-y,z
loop_
_atom_site_type_symbol
_atom_site_label
_atom_site_fract_x
_atom_site_fract_y
_atom_site_fract_z
Si Si1 0.084374 0.700387 0.923807
Si Si2 0.299968 0.302873 0.097971
Si Si3 0.666588 0.295879 0.228682
Si Si4 0.593756 0.793374 0.674905
Si Si5 0.033467 0.303924 0.735517
Si Si6 0.566484 0.794278 0.494266
Si Si7 0.188043 0.800315 0.339080
O O1 0.101020 0.500000 0.928411
O O2 0.119183 0.781702 0.897971
O O3 0.953400 0.737500 0.858964
O O4 0.176277 0.759630 0.011541
O O5 0.292040 0.500000 0.103919
O O6 0.358521 0.214304 0.171449
O O7 0.665272 0.500000 0.228439
O O8 0.779641 0.241388 0.267770
O O9 0.673655 0.233387 0.282270
O O10 0.560837 0.734660 0.703812
O O11 0.502736 0.738229 0.587083
O O12 0.594307 0.000000 0.675515
O O13 0.006073 0.500000 0.715013
O O14 0.924904 0.224793 0.697413
O O15 0.500000 0.746496 0.500000
O O16 0.696889 0.735016 0.572844
O O17 0.565912 0.000000 0.492451
O O18 0.205650 0.000000 0.343891
#
# Coordination Sequence:
#
# PCOD9175059 Si02
#       7
#     8   8   8   8   8   8   8
#     4  10  20  33  54  83 108 134 173 222 272 314
#     4  10  20  35  54  77 107 141 179 218 259 319
#     4  10  18  32  55  81 107 139 181 223 259 310
#     4   9  19  34  52  78 110 145 183 221 263 313
#     4  11  22  35  52  77 113 147 176 218 270 319
#     4   9  15  29  54  81 105 134 180 228 263 305
#     4  10  19  31  55  83 104 135 181 225 264 314
#
# _framework density 19.398451999999999
#
# number of rings (size 3 to 8) (size 9 to 14) (size 15 to 20)
#    0.000    2.143    2.857    1.286    0.000    2.286 
#    0.000    2.143    0.000    6.429    0.000    0.000 
#    0.000    0.000    0.000    0.000    0.000    0.000 
#
# Total GULP energy -156275.793819 kJ/mol
# GULP energy per Si atom -5581.278351 kJ/mol
# Density = 1.935430 g / cm^3
# Si number density = 19.398452 Si / 1000 Ang^3
#
#
#
# Elastic Constant Matrix: (Units=GPa)
#
#
# Indices 1 2 3 4 5 6 
#
# 1 111.9756 -7.7354 65.9003 0.0000 -2.5030 0.0005
# 2 -7.7354 11.8711 -6.3467 0.0000 1.1724 0.0013
# 3 65.9003 -6.3467 144.7723 0.0001 7.3146 0.0000
# 4 0.0000 0.0000 0.0001 10.8597 -0.0001 1.4866
# 5 -2.5030 1.1724 7.3146 -0.0001 30.8363 -0.0001
# 6 0.0005 0.0013 0.0000 1.4866 -0.0001 13.0644
#
#
#
# Elastic Compliance Matrix: (Units=1/GPa)
#
#
# Indices 1 2 3 4 5 6 
#
# 1 0.012649 0.005008 -0.005648 0.000000 0.002176 -0.000001
# 2 0.005008 0.088790 0.001784 0.000002 -0.003393 -0.000009
# 3 -0.005648 0.001784 0.009700 0.000000 -0.002827 0.000000
# 4 0.000000 0.000002 0.000000 0.093541 0.000000 -0.010644
# 5 0.002176 -0.003393 -0.002827 0.000000 0.033406 0.000000
# 6 -0.000001 -0.000009 0.000000 -0.010644 0.000000 0.077755
#
#
# Mechanical properties :
#
#
# Convention : Reuss Voigt Hill
#
# Bulk Modulus (GPa) = 8.81628 41.36171 25.08900
# Shear Modulus (GPa) = 14.23034 25.40546 19.81790
#
# Velocity S-wave (km/s) = 2.71141 3.62285 3.19975
# Velocity P-wave (km/s) = 3.78907 6.23447 5.15876
#
# Compressibility (1/GPa) = 0.11342648
#
# Stress axis : x y z
#
# Youngs Moduli (GPa) = 79.05581 11.26251 103.09703
#
# Poissons Ratio (x) = -0.05640 0.58233
# Poissons Ratio (y) = -0.39589 -0.18397
# Poissons Ratio (z) = 0.44654 -0.02010
#
# Static dielectric constant tensor:
#      x y z
#    x 1.644620 0.000000 0.000490 
#    y 0.000000 1.716400 0.000000 
#    z 0.000490 0.000000 1.685730 
# 
# From -- ./inp_files/342591.got.cif
#   From: 2010.05.17/outbox.cif.g08.bks.cpg/sg12_172_cif.got.tgz:342591.got - 2010.06.03 13:09:07.
