data_PCOD9175080
_publ_section_title
;
Structure prediction by ZEFSAII (Michael W. Deem and Ramdas Pophale) SiO2 
 PCOD9175080
Probable space group: C 2/M
;
_chemical_formula_sum "Si O2"
_cell_formula_units_Z 64
_cell_length_a 16.791775
_cell_length_b 15.275183
_cell_length_c 12.632893
_cell_angle_alpha 90.000000
_cell_angle_beta 107.541345
_cell_angle_gamma 90.000000
_cell_volume 3089.629561
_symmetry_space_group_name_H-M "C 2/M"
_symmetry_group_IT_number 12
_symmetry_cell_setting 'monoclinic'
loop_
_space_group_symop_operation_xyz
x,y,z
-x,y,-z
-x,-y,-z
x,-y,z
1/2+x,1/2+y,z
1/2-x,1/2+y,-z
1/2-x,1/2-y,-z
1/2+x,1/2-y,z
loop_
_atom_site_type_symbol
_atom_site_label
_atom_site_fract_x
_atom_site_fract_y
_atom_site_fract_z
Si Si1 0.989734 0.664386 0.669569
Si Si2 0.432516 0.357983 0.598760
Si Si3 0.616897 0.628794 0.659769
Si Si4 0.707687 0.098108 0.232018
Si Si5 0.152829 0.103309 0.216820
Si Si6 0.168373 0.330019 0.676061
Si Si7 0.822126 0.597649 0.545917
Si Si8 0.935458 0.723113 0.880529
O O1 0.080190 0.628195 0.674729
O O2 0.956896 0.754599 0.599655
O O3 0.920532 0.595662 0.608051
O O4 0.978883 0.691449 0.788163
O O5 0.394906 0.387734 0.471410
O O6 0.524566 0.395184 0.662565
O O7 0.370905 0.380539 0.668937
O O8 0.694779 0.588852 0.752785
O O9 0.641975 0.730252 0.684214
O O10 0.711247 0.132541 0.355554
O O11 0.648591 0.163910 0.145818
O O12 0.670906 0.000000 0.218552
O O13 0.248705 0.133437 0.235247
O O14 0.093546 0.175570 0.137534
O O15 0.142200 0.000000 0.188693
O O16 0.188727 0.344451 0.561063
O O17 0.789125 0.500000 0.513647
O O18 0.000000 0.709205 0.000000
#
# Coordination Sequence:
#
# PCOD9175080 Si02
#       8
#     8   8   8   8   8   8   8   8
#     4   9  19  34  53  81 113 148 192 232 281 333
#     4   9  19  33  53  81 117 161 192 224 269 333
#     4  10  18  32  55  82 118 157 194 227 274 332
#     4  10  21  36  57  86 115 147 193 242 286 340
#     4  11  23  37  57  85 117 152 192 234 287 349
#     4  11  19  31  53  84 118 154 186 227 272 341
#     4  10  19  29  48  82 121 155 185 220 273 340
#     4  10  22  43  65  83 106 148 192 247 303 341
#
# _framework density 20.714456999999999
#
# number of rings (size 3 to 8) (size 9 to 14) (size 15 to 20)
#    0.000    2.000    2.500    1.500    0.000    5.000 
#    0.000    1.875    0.000    0.000    0.000    0.000 
#    0.000    0.000    0.000    0.000    0.000    0.000 
#
# Total GULP energy -178276.109297 kJ/mol
# GULP energy per Si atom -5571.128416 kJ/mol
# Density = 2.066731 g / cm^3
# Si number density = 20.714457 Si / 1000 Ang^3
#
#
#
# Elastic Constant Matrix: (Units=GPa)
#
#
# Indices 1 2 3 4 5 6 
#
# 1 108.5859 20.4286 24.8099 0.0000 38.4576 0.0000
# 2 20.4286 92.8768 27.2713 0.0000 15.8965 0.0000
# 3 24.8099 27.2713 73.6023 0.0000 25.2117 0.0000
# 4 0.0000 0.0000 0.0000 0.9660 0.0000 4.3051
# 5 38.4576 15.8965 25.2117 0.0000 24.6685 0.0000
# 6 0.0000 0.0000 0.0000 4.3051 0.0000 -1.8143
#
#
#
# Elastic Compliance Matrix: (Units=1/GPa)
#
#
# Indices 1 2 3 4 5 6 
#
# 1 0.022611 0.000286 0.006785 0.000000 -0.042369 0.000000
# 2 0.000286 0.012489 -0.002792 0.000000 -0.005641 0.000000
# 3 0.006785 -0.002792 0.023604 0.000000 -0.032903 0.000000
# 4 0.000000 0.000000 0.000000 0.089433 0.000000 0.212214
# 5 -0.042369 -0.005641 -0.032903 0.000000 0.143852 0.000000
# 6 0.000000 0.000000 0.000000 0.212214 0.000000 -0.047617
#
#
# Mechanical properties :
#
#
# Convention : Reuss Voigt Hill
#
# Bulk Modulus (GPa) = 14.86688 46.67605 30.77146
# Shear Modulus (GPa) = 19.36220 18.26773 18.81497
#
# Velocity S-wave (km/s) = 3.06063 2.97287 3.01707
# Velocity P-wave (km/s) = 4.43651 5.86225 5.19849
#
# Compressibility (1/GPa) = 0.06726362
#
# Stress axis : x y z
#
# Youngs Moduli (GPa) = 44.22666 80.06901 42.36486
#
# Poissons Ratio (x) = -0.02290 -0.28746
# Poissons Ratio (y) = -0.01265 0.11827
# Poissons Ratio (z) = -0.30009 0.22353
#
# Static dielectric constant tensor:
#      x y z
#    x 1.853030 0.000000 0.013080 
#    y 0.000000 1.825720 0.000000 
#    z 0.013080 0.000000 1.710030 
# 
# From -- ./inp_files/225331.got.cif
#   From: 2010.05.17/outbox.cif.g08.bks.cpg/sg12_113_cif.got.tgz:225331.got - 2010.06.03 13:09:07.
