data_PCOD9175438
_publ_section_title
;
Structure prediction by ZEFSAII (Michael W. Deem and Ramdas Pophale) SiO2 
 PCOD9175438
Probable space group: C 2/M
;
_chemical_formula_sum "Si O2"
_cell_formula_units_Z 56
_cell_length_a 17.205076
_cell_length_b 14.674846
_cell_length_c 15.729481
_cell_angle_alpha 90.000000
_cell_angle_beta 124.903934
_cell_angle_gamma 90.000000
_cell_volume 3257.001959
_symmetry_space_group_name_H-M "C 2/M"
_symmetry_group_IT_number 12
_symmetry_cell_setting 'monoclinic'
loop_
_space_group_symop_operation_xyz
x,y,z
-x,y,-z
-x,-y,-z
x,-y,z
1/2+x,1/2+y,z
1/2-x,1/2+y,-z
1/2-x,1/2-y,-z
1/2+x,1/2-y,z
loop_
_atom_site_type_symbol
_atom_site_label
_atom_site_fract_x
_atom_site_fract_y
_atom_site_fract_z
Si Si1 0.389383 0.900559 0.414737
Si Si2 0.150622 0.890123 0.077252
Si Si3 0.027354 0.890237 0.154751
Si Si4 0.636438 0.895222 0.802912
Si Si5 0.170394 0.761414 0.519889
Si Si6 0.981085 0.779234 0.292051
Si Si7 0.602701 0.395047 0.611200
O O1 0.500000 0.879897 0.500000
O O2 0.372339 0.903050 0.304374
O O3 0.326110 0.825011 0.416875
O O4 0.370186 0.000000 0.440002
O O5 0.255455 0.863563 0.113615
O O6 0.114015 0.859808 0.147564
O O7 0.154349 0.000000 0.085297
O O8 0.068249 0.868702 0.958506
O O9 0.018149 0.843200 0.239620
O O10 0.032848 0.000000 0.167920
O O11 0.564712 0.812374 0.776628
O O12 0.620464 0.000000 0.826034
O O13 0.250000 0.750000 0.500000
O O14 0.169869 0.848230 0.582571
O O15 0.070576 0.757120 0.407595
O O16 0.909665 0.833530 0.311499
O O17 0.500000 0.395514 0.500000
O O18 0.627274 0.500000 0.646065
#
# Coordination Sequence:
#
# PCOD9175438 Si02
#       7
#     8   8   8   8   8   8   8
#     4  10  18  33  52  69  94 129 167 205 242 282
#     4   8  17  34  53  74 103 125 155 206 255 294
#     4   9  18  33  52  78 103 126 156 202 253 298
#     4  10  19  32  53  73  95 130 166 204 247 287
#     4  11  22  33  46  70 101 131 167 204 242 288
#     4  11  20  31  52  73  98 130 169 199 240 298
#     4   9  18  34  48  64  95 129 159 197 239 285
#
# _framework density 17.193726000000002
#
# number of rings (size 3 to 8) (size 9 to 14) (size 15 to 20)
#    0.000    2.286    2.857    1.714    2.000    1.714 
#    0.000    0.000    0.000    0.000    0.000    2.000 
#    0.000    0.000    0.000    0.000    0.000    0.000 
#
# Total GULP energy -155896.179811 kJ/mol
# GULP energy per Si atom -5567.720708 kJ/mol
# Density = 1.715459 g / cm^3
# Si number density = 17.193726 Si / 1000 Ang^3
#
#
#
# Elastic Constant Matrix: (Units=GPa)
#
#
# Indices 1 2 3 4 5 6 
#
# 1 26.6789 32.8899 -8.9569 0.0000 -3.8905 0.0000
# 2 32.8899 81.4371 -1.4700 0.0000 -7.5195 0.0000
# 3 -8.9569 -1.4700 20.9264 0.0000 -4.2033 0.0000
# 4 0.0000 0.0000 0.0000 5.2311 0.0000 16.8836
# 5 -3.8905 -7.5195 -4.2033 0.0000 26.1639 0.0000
# 6 0.0000 0.0000 0.0000 16.8836 0.0000 -33.4709
#
#
#
# Elastic Compliance Matrix: (Units=1/GPa)
#
#
# Indices 1 2 3 4 5 6 
#
# 1 0.102291 -0.039537 0.043171 0.000000 0.010783 0.000000
# 2 -0.039537 0.027953 -0.015011 0.000000 -0.000257 0.000000
# 3 0.043171 -0.015011 0.067821 0.000000 0.013001 0.000000
# 4 0.000000 0.000000 0.000000 0.072740 0.000000 0.036692
# 5 0.010783 -0.000257 0.013001 0.000000 0.041839 0.000000
# 6 0.000000 0.000000 0.000000 0.036692 0.000000 -0.011368
#
#
# Mechanical properties :
#
#
# Convention : Reuss Voigt Hill
#
# Bulk Modulus (GPa) = 5.70416 19.32980 12.51698
# Shear Modulus (GPa) = 13.07309 6.69011 9.88160
#
# Velocity S-wave (km/s) = 2.76042 1.97471 2.39994
# Velocity P-wave (km/s) = 3.67215 4.05784 3.86980
#
# Compressibility (1/GPa) = 0.17531066
#
# Stress axis : x y z
#
# Youngs Moduli (GPa) = 9.77607 35.77497 14.74463
#
# Poissons Ratio (x) = 1.41444 -0.63654
# Poissons Ratio (y) = 0.38652 0.22133
# Poissons Ratio (z) = -0.42204 0.53700
#
# Static dielectric constant tensor:
#      x y z
#    x 1.577070 0.000000 0.003370 
#    y 0.000000 1.617830 0.000000 
#    z 0.003370 0.000000 1.567590 
# 
# From -- ./inp_files/224653.got.cif
#   From: 2010.05.17/outbox.cif.g08.bks.cpg/sg12_113_cif.got.tgz:224653.got - 2010.06.03 13:09:07.
