data_PCOD9175127
_publ_section_title
;
Structure prediction by ZEFSAII (Michael W. Deem and Ramdas Pophale) SiO2 
 PCOD9175127
Probable space group: C 2/M
;
_chemical_formula_sum "Si O2"
_cell_formula_units_Z 44
_cell_length_a 19.430971
_cell_length_b 8.695034
_cell_length_c 11.727850
_cell_angle_alpha 90.000000
_cell_angle_beta 89.930768
_cell_angle_gamma 90.000000
_cell_volume 1981.453449
_symmetry_space_group_name_H-M "C 2/M"
_symmetry_group_IT_number 12
_symmetry_cell_setting 'monoclinic'
loop_
_space_group_symop_operation_xyz
x,y,z
-x,y,-z
-x,-y,-z
x,-y,z
1/2+x,1/2+y,z
1/2-x,1/2+y,-z
1/2-x,1/2-y,-z
1/2+x,1/2-y,z
loop_
_atom_site_type_symbol
_atom_site_label
_atom_site_fract_x
_atom_site_fract_y
_atom_site_fract_z
Si Si1 0.573607 0.179384 0.435375
Si Si2 0.653747 0.317455 0.629783
Si Si3 0.990381 0.171151 0.259038
Si Si4 0.142485 0.817141 0.019431
Si Si5 0.500000 0.260049 0.000000
Si Si6 0.765149 0.318709 0.179217
O O1 0.500000 0.207499 0.500000
O O2 0.633139 0.268655 0.502220
O O3 0.552811 0.231100 0.309355
O O4 0.588875 0.000000 0.441518
O O5 0.662371 0.500000 0.637207
O O6 0.584709 0.271004 0.701709
O O7 0.716416 0.235605 0.693894
O O8 0.992164 0.163453 0.123760
O O9 0.997664 0.000000 0.308417
O O10 0.188114 0.797224 0.132330
O O11 0.122093 0.000000 0.015290
O O12 0.077833 0.701609 0.014472
O O13 0.189103 0.780094 0.909562
O O14 0.781010 0.500000 0.167459
#
# Coordination Sequence:
#
# PCOD9175127 Si02
#       6
#     8   8   8   8   4   8
#     4   9  18  32  50  75 109 140 174 224 278 322
#     4  10  18  32  56  80 104 139 185 228 268 318
#     4  10  19  31  51  78 107 141 182 222 264 319
#     4  10  20  35  54  77 107 147 187 224 265 320
#     4  12  21  36  59  82 111 148 187 222 263 324
#     4  10  20  33  52  79 111 143 181 226 274 320
#
# _framework density 22.205922000000001
#
# number of rings (size 3 to 8) (size 9 to 14) (size 15 to 20)
#    0.000    2.000    1.818    3.273    0.000    3.636 
#    0.000    1.818    0.000    1.091    0.000    0.000 
#    0.000    0.000    0.000    0.000    0.000    0.000 
#
# Total GULP energy -122589.921812 kJ/mol
# GULP energy per Si atom -5572.269173 kJ/mol
# Density = 2.215538 g / cm^3
# Si number density = 22.205922 Si / 1000 Ang^3
#
#
#
# Elastic Constant Matrix: (Units=GPa)
#
#
# Indices 1 2 3 4 5 6 
#
# 1 75.1194 29.0639 36.3426 0.0000 30.1663 0.0000
# 2 29.0639 44.9990 32.3040 0.0000 27.4320 0.0000
# 3 36.3426 32.3040 119.2600 0.0000 50.5021 0.0000
# 4 0.0000 0.0000 0.0000 8.3653 0.0000 16.2723
# 5 30.1663 27.4320 50.5021 0.0000 48.5469 0.0000
# 6 0.0000 0.0000 0.0000 16.2723 0.0000 7.5383
#
#
#
# Elastic Compliance Matrix: (Units=1/GPa)
#
#
# Indices 1 2 3 4 5 6 
#
# 1 0.019493 -0.007813 -0.001008 0.000000 -0.006649 0.000000
# 2 -0.007813 0.037278 -0.001524 0.000000 -0.014624 0.000000
# 3 -0.001008 -0.001524 0.015148 0.000000 -0.014271 0.000000
# 4 0.000000 0.000000 0.000000 -0.037369 0.000000 0.080665
# 5 -0.006649 -0.014624 -0.014271 0.000000 0.047839 0.000000
# 6 0.000000 0.000000 0.000000 0.080665 0.000000 -0.041468
#
#
# Mechanical properties :
#
#
# Convention : Reuss Voigt Hill
#
# Bulk Modulus (GPa) = 19.52017 48.31104 33.91560
# Shear Modulus (GPa) = 63.54231 22.33461 42.93846
#
# Velocity S-wave (km/s) = 5.35511 3.17487 4.40210
# Velocity P-wave (km/s) = 6.85899 5.93657 6.41439
#
# Compressibility (1/GPa) = 0.05122908
#
# Stress axis : x y z
#
# Youngs Moduli (GPa) = 51.30094 26.82543 66.01471
#
# Poissons Ratio (x) = 0.20958 0.06656
# Poissons Ratio (y) = 0.40081 0.10059
# Poissons Ratio (z) = 0.05173 0.04088
#
# Static dielectric constant tensor:
#      x y z
#    x 1.873820 0.000000 0.005800 
#    y 0.000000 1.766200 0.000000 
#    z 0.005800 0.000000 1.825110 
# 
# From -- ./inp_files/163213.got.cif
#   From: 2010.05.17/outbox.cif.g08.bks.cpg/sg12_82_cif.got.tgz:163213.got - 2010.06.03 13:09:07.
