data_PCOD9175544
_publ_section_title
;
Structure prediction by ZEFSAII (Michael W. Deem and Ramdas Pophale) SiO2 
 PCOD9175544
Probable space group: C 2/M
;
_chemical_formula_sum "Si O2"
_cell_formula_units_Z 56
_cell_length_a 17.056238
_cell_length_b 31.983768
_cell_length_c 5.407590
_cell_angle_alpha 90.000000
_cell_angle_beta 50.665549
_cell_angle_gamma 90.000000
_cell_volume 2281.676429
_symmetry_space_group_name_H-M "C 2/M"
_symmetry_group_IT_number 12
_symmetry_cell_setting 'monoclinic'
loop_
_space_group_symop_operation_xyz
x,y,z
-x,y,-z
-x,-y,-z
x,-y,z
1/2+x,1/2+y,z
1/2-x,1/2+y,-z
1/2-x,1/2-y,-z
1/2+x,1/2-y,z
loop_
_atom_site_type_symbol
_atom_site_label
_atom_site_fract_x
_atom_site_fract_y
_atom_site_fract_z
Si Si1 0.877015 0.278372 0.988517
Si Si2 0.064669 0.187872 0.118614
Si Si3 0.369127 0.548121 0.608503
Si Si4 0.106914 0.687480 0.542847
Si Si5 0.377792 0.047198 0.896349
Si Si6 0.861597 0.905395 0.124355
Si Si7 0.117299 0.408220 0.614968
O O1 0.866554 0.228969 0.988827
O O2 0.838976 0.302252 0.822432
O O3 0.998395 0.288833 0.752129
O O4 0.836647 0.296820 0.324973
O O5 0.000000 0.185437 0.500000
O O6 0.112655 0.142738 0.976270
O O7 0.000000 0.196625 0.000000
O O8 0.402123 0.500000 0.509538
O O9 0.397737 0.577132 0.317830
O O10 0.245556 0.547542 0.855518
O O11 0.397516 0.566772 0.819417
O O12 0.085507 0.638632 0.611842
O O13 0.407877 0.061061 0.561035
O O14 0.408983 0.000000 0.891309
O O15 0.410577 0.077641 0.052648
O O16 0.739933 0.907904 0.372387
#
# Coordination Sequence:
#
# PCOD9175544 Si02
#       7
#     8   8   8   8   8   8   8
#     4  10  19  35  54  75  93 138 186 211 243 312
#     4  12  21  38  58  74 101 136 185 220 247 311
#     4   9  17  33  54  76 107 141 171 208 254 313
#     4  10  18  33  54  77 104 130 173 223 249 303
#     4   9  17  30  50  77 109 143 173 200 248 316
#     4  10  21  33  53  83 106 134 174 214 268 303
#     4  10  19  32  51  82 112 132 164 222 267 298
#
# _framework density 24.543358000000001
#
# number of rings (size 3 to 8) (size 9 to 14) (size 15 to 20)
#    0.000    2.000    2.857    2.571    0.000    3.429 
#    0.000    1.429    0.000    8.571    0.000   40.000 
#    0.000    0.000    0.000    0.000    0.000    0.000 
#
# Total GULP energy -156821.166103 kJ/mol
# GULP energy per Si atom -5600.755932 kJ/mol
# Density = 2.448750 g / cm^3
# Si number density = 24.543358 Si / 1000 Ang^3
#
#
#
# Elastic Constant Matrix: (Units=GPa)
#
#
# Indices 1 2 3 4 5 6 
#
# 1 81.5355 21.9629 39.0202 0.0000 28.2837 0.0000
# 2 21.9629 202.5642 69.1586 0.0000 41.7139 0.0000
# 3 39.0202 69.1586 177.4320 0.0000 49.6715 0.0000
# 4 0.0000 0.0000 0.0000 3615.7911 0.0000-4691.0420
# 5 28.2837 41.7139 49.6715 0.0000 56.5778 0.0000
# 6 0.0000 0.0000 0.0000-4691.0420 0.0000 6223.2691
#
#
#
# Elastic Compliance Matrix: (Units=1/GPa)
#
#
# Indices 1 2 3 4 5 6 
#
# 1 0.015184 0.000217 -0.001663 0.000000 -0.006291 0.000000
# 2 0.000217 0.006104 -0.001507 0.000000 -0.003286 0.000000
# 3 -0.001663 -0.001507 0.008015 0.000000 -0.005094 0.000000
# 4 0.000000 0.000000 0.000000 0.012543 0.000000 0.009455
# 5 -0.006291 -0.003286 -0.005094 0.000000 0.027715 0.000000
# 6 0.000000 0.000000 0.000000 0.009455 0.000000 0.007287
#
#
# Mechanical properties :
#
#
# Convention : Reuss Voigt Hill
#
# Bulk Modulus (GPa) = 42.73919 80.20166 61.47043
# Shear Modulus (GPa) = 55.21563 2001.22025 1028.21794
#
# Velocity S-wave (km/s) = 4.74826 28.58587 20.49021
# Velocity P-wave (km/s) = 6.89296 33.50051 24.18467
#
# Compressibility (1/GPa) = 0.02339773
#
# Stress axis : x y z
#
# Youngs Moduli (GPa) = 65.85839 163.81554 124.76229
#
# Poissons Ratio (x) = -0.03551 0.20744
# Poissons Ratio (y) = -0.01428 0.18804
# Poissons Ratio (z) = 0.10950 0.24690
#
# Static dielectric constant tensor:
#      x y z
#    x 2.002160 0.000000 -0.059110 
#    y 0.000000 1.854070 0.000000 
#    z -0.059110 0.000000 1.955680 
# 
# From -- ./inp_files/22281.got.cif
#   From: 2010.05.17/outbox.cif.g08.bks.cpg/sg12_12_cif.got.tgz:22281.got - 2010.06.03 13:09:07.
