data_PCOD9175641
_publ_section_title
;
Structure prediction by ZEFSAII (Michael W. Deem and Ramdas Pophale) SiO2 
 PCOD9175641
Probable space group: C 2/M
;
_chemical_formula_sum "Si O2"
_cell_formula_units_Z 48
_cell_length_a 7.992101
_cell_length_b 26.599733
_cell_length_c 11.195569
_cell_angle_alpha 90.000000
_cell_angle_beta 119.450592
_cell_angle_gamma 90.000000
_cell_volume 2072.491987
_symmetry_space_group_name_H-M "C 2/M"
_symmetry_group_IT_number 12
_symmetry_cell_setting 'monoclinic'
loop_
_space_group_symop_operation_xyz
x,y,z
-x,y,-z
-x,-y,-z
x,-y,z
1/2+x,1/2+y,z
1/2-x,1/2+y,-z
1/2-x,1/2-y,-z
1/2+x,1/2-y,z
loop_
_atom_site_type_symbol
_atom_site_label
_atom_site_fract_x
_atom_site_fract_y
_atom_site_fract_z
Si Si1 0.994629 0.372979 0.135149
Si Si2 0.470374 0.308042 0.851860
Si Si3 0.784794 0.153105 0.421777
Si Si4 0.367626 0.418973 0.854669
Si Si5 0.272651 0.945996 0.444985
Si Si6 0.936444 0.719488 0.256011
O O1 0.202358 0.372499 0.271159
O O2 0.928774 0.315022 0.132485
O O3 0.837593 0.403724 0.157431
O O4 0.000000 0.387236 0.000000
O O5 0.483106 0.367652 0.861441
O O6 0.584096 0.276319 0.794653
O O7 0.251267 0.295601 0.738461
O O8 0.500000 0.290950 0.000000
O O9 0.780533 0.105930 0.509813
O O10 0.626971 0.197269 0.385225
O O11 0.000000 0.173433 0.500000
O O12 0.328324 0.446137 0.718536
O O13 0.500000 0.444248 0.000000
O O14 0.500000 0.943479 0.500000
O O15 0.232978 0.000000 0.493012
#
# Coordination Sequence:
#
# PCOD9175641 Si02
#       6
#     8   8   8   8   8   8
#     4   9  19  37  59  87 121 159 197 247 293 349
#     4  10  18  33  55  88 124 162 198 245 292 357
#     4  10  23  41  61  89 120 165 203 246 303 362
#     4  10  22  37  62  93 120 155 203 252 303 351
#     4  11  22  43  68  86 118 159 203 252 305 371
#     4   9  20  34  55  88 123 156 209 241 287 352
#
# _framework density 23.160522
#
# number of rings (size 3 to 8) (size 9 to 14) (size 15 to 20)
#    1.000    1.167    1.667    1.000    2.333    4.667 
#    0.000    4.167    0.000    1.000    0.000    0.000 
#    0.000    0.000    0.000    0.000    0.000    0.000 
#
# Total GULP energy -133885.336641 kJ/mol
# GULP energy per Si atom -5578.555693 kJ/mol
# Density = 2.310781 g / cm^3
# Si number density = 23.160522 Si / 1000 Ang^3
#
#
#
# Elastic Constant Matrix: (Units=GPa)
#
#
# Indices 1 2 3 4 5 6 
#
# 1 36.4785 0.9693 12.3820 0.0000 17.5771 0.0000
# 2 0.9693 92.2073 14.1150 0.0000 -9.1009 0.0000
# 3 12.3820 14.1150 129.9559 0.0000 14.7333 0.0000
# 4 0.0000 0.0000 0.0000 31.7059 0.0000 13.3607
# 5 17.5771 -9.1009 14.7333 0.0000 40.0229 0.0000
# 6 0.0000 0.0000 0.0000 13.3607 0.0000 -10.0260
#
#
#
# Elastic Compliance Matrix: (Units=1/GPa)
#
#
# Indices 1 2 3 4 5 6 
#
# 1 0.035357 -0.001668 -0.001444 0.000000 -0.015375 0.000000
# 2 -0.001668 0.011483 -0.001531 0.000000 0.003907 0.000000
# 3 -0.001444 -0.001531 0.008313 0.000000 -0.002774 0.000000
# 4 0.000000 0.000000 0.000000 0.020198 0.000000 0.026916
# 5 -0.015375 0.003907 -0.002774 0.000000 0.033648 0.000000
# 6 0.000000 0.000000 0.000000 0.026916 0.000000 -0.063873
#
#
# Mechanical properties :
#
#
# Convention : Reuss Voigt Hill
#
# Bulk Modulus (GPa) = 21.80303 34.84159 28.32231
# Shear Modulus (GPa) = 71.73466 27.75226 49.74346
#
# Velocity S-wave (km/s) = 5.57136 3.46534 4.63943
# Velocity P-wave (km/s) = 7.12889 5.57563 6.39956
#
# Compressibility (1/GPa) = 0.04586519
#
# Stress axis : x y z
#
# Youngs Moduli (GPa) = 28.28325 87.08744 120.28830
#
# Poissons Ratio (x) = 0.14527 0.17375
# Poissons Ratio (y) = 0.04718 0.18419
# Poissons Ratio (z) = 0.04085 0.13335
#
# Static dielectric constant tensor:
#      x y z
#    x 1.917640 0.000000 0.006080 
#    y 0.000000 1.856090 0.000000 
#    z 0.006080 0.000000 1.920720 
# 
# From -- ./inp_files/123895.got.cif
#   From: 2010.05.17/outbox.cif.g08.bks.cpg/sg12_62_cif.got.tgz:123895.got - 2010.06.03 13:09:07.
