data_PCOD9175418
_publ_section_title
;
Structure prediction by ZEFSAII (Michael W. Deem and Ramdas Pophale) SiO2 
 PCOD9175418
Probable space group: C 2/M
;
_chemical_formula_sum "Si O2"
_cell_formula_units_Z 64
_cell_length_a 24.704184
_cell_length_b 22.430245
_cell_length_c 8.934130
_cell_angle_alpha 90.000000
_cell_angle_beta 49.620033
_cell_angle_gamma 90.000000
_cell_volume 3771.184145
_symmetry_space_group_name_H-M "C 2/M"
_symmetry_group_IT_number 12
_symmetry_cell_setting 'monoclinic'
loop_
_space_group_symop_operation_xyz
x,y,z
-x,y,-z
-x,-y,-z
x,-y,z
1/2+x,1/2+y,z
1/2-x,1/2+y,-z
1/2-x,1/2-y,-z
1/2+x,1/2-y,z
loop_
_atom_site_type_symbol
_atom_site_label
_atom_site_fract_x
_atom_site_fract_y
_atom_site_fract_z
Si Si1 0.910101 0.780452 0.514694
Si Si2 0.072237 0.430830 0.454176
Si Si3 0.284477 0.303825 0.139263
Si Si4 0.066571 0.769351 0.175332
Si Si5 0.929249 0.349441 0.029285
Si Si6 0.233383 0.170318 0.178384
Si Si7 0.156658 0.432477 0.001833
Si Si8 0.853101 0.338776 0.462438
O O1 0.915186 0.761512 0.681023
O O2 0.847853 0.829089 0.620155
O O3 0.884320 0.722869 0.471008
O O4 0.987970 0.797178 0.316738
O O5 0.060124 0.500000 0.520551
O O6 0.101748 0.390331 0.534996
O O7 0.000000 0.409234 0.500000
O O8 0.132242 0.429780 0.217973
O O9 0.267008 0.232898 0.173446
O O10 0.229954 0.337642 0.344800
O O11 0.369126 0.307439 0.010128
O O12 0.267682 0.324827 0.000359
O O13 0.064525 0.705966 0.095410
O O14 0.910346 0.408449 0.972019
O O15 0.867196 0.340033 0.261706
O O16 0.000000 0.353549 0.000000
O O17 0.280266 0.114095 0.137006
O O18 0.174640 0.500000 0.930745
#
# Coordination Sequence:
#
# PCOD9175418 Si02
#       8
#     8   8   8   8   8   8   8   8
#     4   9  19  31  56  75  98 136 168 211 262 312
#     4  10  21  34  51  71  94 135 186 216 241 299
#     4   9  17  30  54  75 102 127 167 217 259 312
#     4  10  18  33  50  76 104 136 165 204 259 317
#     4  12  23  33  46  73 112 142 171 210 246 305
#     4   9  16  33  53  80  97 124 175 221 257 300
#     4  11  22  37  54  71 102 143 181 216 252 298
#     4  11  20  31  49  72 101 139 164 213 257 296
#
# _framework density 16.970797000000001
#
# number of rings (size 3 to 8) (size 9 to 14) (size 15 to 20)
#    0.000    1.875    3.750    2.250    1.750    1.250 
#    0.000    0.000    0.000    0.000    0.000    7.875 
#    0.000    1.000    0.000    0.000    0.000    0.250 
#
# Total GULP energy -178492.120273 kJ/mol
# GULP energy per Si atom -5577.878759 kJ/mol
# Density = 1.693217 g / cm^3
# Si number density = 16.970797 Si / 1000 Ang^3
#
#
#
# Elastic Constant Matrix: (Units=GPa)
#
#
# Indices 1 2 3 4 5 6 
#
# 1 70.2537 34.8895 26.0523 0.0000 -20.9983 0.0000
# 2 34.8895 65.7948 16.0159 0.0000 -7.3810 0.0000
# 3 26.0523 16.0159 90.0707 0.0000 -25.1362 0.0000
# 4 0.0000 0.0000 0.0000 11.0986 0.0000 -10.7169
# 5 -20.9983 -7.3810 -25.1362 0.0000 28.3530 0.0000
# 6 0.0000 0.0000 0.0000 -10.7169 0.0000 10.7847
#
#
#
# Elastic Compliance Matrix: (Units=1/GPa)
#
#
# Indices 1 2 3 4 5 6 
#
# 1 0.024386 -0.011066 -0.001129 0.000000 0.014179 0.000000
# 2 -0.011066 0.021009 -0.001722 0.000000 -0.004253 0.000000
# 3 -0.001129 -0.001722 0.015117 0.000000 0.012117 0.000000
# 4 0.000000 0.000000 0.000000 2.226600 0.000000 2.212600
# 5 0.014179 -0.004253 0.012117 0.000000 0.055406 0.000000
# 6 0.000000 0.000000 0.000000 2.212600 0.000000 2.291412
#
#
# Mechanical properties :
#
#
# Convention : Reuss Voigt Hill
#
# Bulk Modulus (GPa) = 30.60124 42.22608 36.41366
# Shear Modulus (GPa) = 1.07006 19.99135 10.53070
#
# Velocity S-wave (km/s) = 0.79492 3.43590 2.49372
# Velocity P-wave (km/s) = 4.34895 6.37779 5.45846
#
# Compressibility (1/GPa) = 0.03267841
#
# Stress axis : x y z
#
# Youngs Moduli (GPa) = 41.00632 47.59884 66.15212
#
# Poissons Ratio (x) = 0.52674 0.07468
# Poissons Ratio (y) = 0.45378 0.11390
# Poissons Ratio (z) = 0.04629 0.08195
#
# Static dielectric constant tensor:
#      x y z
#    x 1.605650 0.000000 -0.031070 
#    y 0.000000 1.539510 0.000000 
#    z -0.031070 0.000000 1.624400 
# 
# From -- ./inp_files/106388.got.cif
#   From: 2010.05.17/outbox.cif.g08.bks.cpg/sg12_54_cif.got.tgz:106388.got - 2010.06.03 13:09:07.
