data_PCOD9175101
_publ_section_title
;
Structure prediction by ZEFSAII (Michael W. Deem and Ramdas Pophale) SiO2 
 PCOD9175101
Probable space group: C 2/M
;
_chemical_formula_sum "Si O2"
_cell_formula_units_Z 64
_cell_length_a 22.457381
_cell_length_b 11.587789
_cell_length_c 19.452484
_cell_angle_alpha 90.000000
_cell_angle_beta 136.783423
_cell_angle_gamma 90.000000
_cell_volume 3466.345578
_symmetry_space_group_name_H-M "C 2/M"
_symmetry_group_IT_number 12
_symmetry_cell_setting 'monoclinic'
loop_
_space_group_symop_operation_xyz
x,y,z
-x,y,-z
-x,-y,-z
x,-y,z
1/2+x,1/2+y,z
1/2-x,1/2+y,-z
1/2-x,1/2-y,-z
1/2+x,1/2-y,z
loop_
_atom_site_type_symbol
_atom_site_label
_atom_site_fract_x
_atom_site_fract_y
_atom_site_fract_z
Si Si1 0.273653 0.134038 0.565144
Si Si2 0.982690 0.868860 0.064307
Si Si3 0.505775 0.364094 0.665644
Si Si4 0.649959 0.876370 0.905910
Si Si5 0.536740 0.216763 0.239543
Si Si6 0.292200 0.700245 0.929272
Si Si7 0.811964 0.136652 0.245736
Si Si8 0.875524 0.866464 0.445899
O O1 0.250000 0.250000 0.500000
O O2 0.371287 0.153833 0.675233
O O3 0.205539 0.135748 0.570560
O O4 0.267731 0.000000 0.530867
O O5 0.022119 0.781636 0.154333
O O6 0.015874 0.000000 0.102730
O O7 0.878169 0.870573 0.985106
O O8 0.000000 0.833926 0.000000
O O9 0.486856 0.500000 0.651679
O O10 0.470463 0.310025 0.705325
O O11 0.608658 0.351500 0.741669
O O12 0.455463 0.315375 0.556485
O O13 0.546371 0.863856 0.814047
O O14 0.705852 0.864267 0.883303
O O15 0.673029 0.000000 0.956235
O O16 0.678830 0.778166 0.982154
O O17 0.266159 0.785477 0.846103
O O18 0.847661 0.180540 0.348930
O O19 0.790457 0.000000 0.232689
O O20 0.899283 0.000000 0.450567
#
# Coordination Sequence:
#
# PCOD9175101 Si02
#       8
#     8   8   8   8   8   8   8   8
#     4  11  23  39  62  89 120 156 200 247 292 347
#     4  10  23  40  57  80 113 152 194 240 290 353
#     4  10  18  32  55  85 112 143 189 238 287 342
#     4  10  20  35  53  78 109 137 177 234 285 335
#     4  11  21  36  58  83 109 152 190 237 285 345
#     4  10  20  34  56  81 104 142 186 228 287 343
#     4  10  19  32  55  84 115 147 184 235 294 345
#     4   9  19  34  53  81 115 150 188 237 288 343
#
# _framework density 18.463248
#
# number of rings (size 3 to 8) (size 9 to 14) (size 15 to 20)
#    0.000    1.875    2.500    1.875    1.750    2.000 
#    0.000    0.000    0.000    2.250    0.000    1.750 
#    0.000    0.000    0.000    0.000    0.000    0.000 
#
# Total GULP energy -178224.110825 kJ/mol
# GULP energy per Si atom -5569.503463 kJ/mol
# Density = 1.842123 g / cm^3
# Si number density = 18.463248 Si / 1000 Ang^3
#
#
#
# Elastic Constant Matrix: (Units=GPa)
#
#
# Indices 1 2 3 4 5 6 
#
# 1 57.6908 23.6230 18.0619 0.0000 -0.8872 0.0000
# 2 23.6230 68.9281 20.7169 0.0000 1.1989 0.0000
# 3 18.0619 20.7169 71.0381 0.0000 2.1525 0.0000
# 4 0.0000 0.0000 0.0000 27.8657 0.0000 3.3495
# 5 -0.8872 1.1989 2.1525 0.0000 31.5633 0.0000
# 6 0.0000 0.0000 0.0000 3.3495 0.0000 17.8291
#
#
#
# Elastic Compliance Matrix: (Units=1/GPa)
#
#
# Indices 1 2 3 4 5 6 
#
# 1 0.020982 -0.006134 -0.003578 0.000000 0.001067 0.000000
# 2 -0.006134 0.017698 -0.003583 0.000000 -0.000600 0.000000
# 3 -0.003578 -0.003583 0.016064 0.000000 -0.001060 0.000000
# 4 0.000000 0.000000 0.000000 0.036715 0.000000 -0.006898
# 5 0.001067 -0.000600 -0.001060 0.000000 0.031807 0.000000
# 6 0.000000 0.000000 0.000000 -0.006898 0.000000 0.057384
#
#
# Mechanical properties :
#
#
# Convention : Reuss Voigt Hill
#
# Bulk Modulus (GPa) = 35.52114 35.82896 35.67505
# Shear Modulus (GPa) = 23.08121 24.46861 23.77491
#
# Velocity S-wave (km/s) = 3.53953 3.64436 3.59233
# Velocity P-wave (km/s) = 5.99875 6.09559 6.04736
#
# Compressibility (1/GPa) = 0.02815225
#
# Stress axis : x y z
#
# Youngs Moduli (GPa) = 47.65924 56.50484 62.25135
#
# Poissons Ratio (x) = 0.34661 0.22276
# Poissons Ratio (y) = 0.29235 0.22307
# Poissons Ratio (z) = 0.17054 0.20248
#
# Static dielectric constant tensor:
#      x y z
#    x 1.641970 0.000000 0.015790 
#    y 0.000000 1.650670 0.000000 
#    z 0.015790 0.000000 1.668260 
# 
# From -- ./inp_files/283306.got.cif
#   From: 2010.05.17/outbox.cif.g08.bks.cpg/sg12_142_cif.got.tgz:283306.got - 2010.06.03 13:09:07.
