data_PCOD9175778
_publ_section_title
;
Structure prediction by ZEFSAII (Michael W. Deem and Ramdas Pophale) SiO2 
 PCOD9175778
Probable space group: C 2/M
;
_chemical_formula_sum "Si O2"
_cell_formula_units_Z 50
_cell_length_a 7.997079
_cell_length_b 18.764428
_cell_length_c 18.959486
_cell_angle_alpha 90.000000
_cell_angle_beta 124.145315
_cell_angle_gamma 90.000000
_cell_volume 2354.629088
_symmetry_space_group_name_H-M "C 2/M"
_symmetry_group_IT_number 12
_symmetry_cell_setting 'monoclinic'
loop_
_space_group_symop_operation_xyz
x,y,z
-x,y,-z
-x,-y,-z
x,-y,z
1/2+x,1/2+y,z
1/2-x,1/2+y,-z
1/2-x,1/2-y,-z
1/2+x,1/2-y,z
loop_
_atom_site_type_symbol
_atom_site_label
_atom_site_fract_x
_atom_site_fract_y
_atom_site_fract_z
Si Si1 0.816119 0.723893 0.381419
Si Si2 0.240982 0.081056 0.739481
Si Si3 0.000000 0.000000 0.500000
Si Si4 0.032011 0.797437 0.089892
Si Si5 0.909771 0.138012 0.570165
Si Si6 0.343349 0.141734 0.910482
Si Si7 0.454322 0.180698 0.268266
O O1 0.934590 0.799089 0.417836
O O2 0.779964 0.682122 0.445536
O O3 0.596780 0.749092 0.298043
O O4 0.913037 0.677287 0.342104
O O5 0.023284 0.109792 0.666750
O O6 0.281680 0.094511 0.830414
O O7 0.408859 0.119925 0.732470
O O8 0.246463 0.000000 0.719738
O O9 0.113184 0.066764 0.482181
O O10 0.036614 0.711231 0.090537
O O11 0.247249 0.816463 0.175499
O O12 0.850478 0.828941 0.093152
O O13 0.000000 0.818480 0.000000
O O14 0.500000 0.104653 0.000000
#
# Coordination Sequence:
#
# PCOD9175778 Si02
#       7
#     8   8   2   8   8   8   8
#     4   9  19  37  64  89 113 152 207 242 287 349
#     4  11  22  38  56  79 116 157 196 237 302 357
#     4  12  24  40  64  94 134 158 188 238 304 364
#     4  11  19  31  52  82 112 142 192 253 303 333
#     4  10  21  40  65  91 121 161 198 245 293 355
#     4  11  21  33  54  81 114 151 194 245 295 350
#     4  10  18  33  57  84 112 147 197 252 289 346
#
# _framework density 21.234767000000002
#
# number of rings (size 3 to 8) (size 9 to 14) (size 15 to 20)
#    0.000    1.600    0.800    8.640    0.000    0.960 
#    1.440    0.800    0.000   10.560    0.000    0.000 
#    0.000    0.000    0.000    0.000    0.000    0.000 
#
# Total GULP energy -139299.283848 kJ/mol
# GULP energy per Si atom -5571.971354 kJ/mol
# Density = 2.118644 g / cm^3
# Si number density = 21.234767 Si / 1000 Ang^3
#
#
#
# Elastic Constant Matrix: (Units=GPa)
#
#
# Indices 1 2 3 4 5 6 
#
# 1 103.6131 35.5708 11.6091 0.0000 -3.6033 0.0000
# 2 35.5708 112.7004 5.6160 0.0000 -13.3625 0.0000
# 3 11.6091 5.6160 61.0842 0.0000 3.1672 0.0000
# 4 0.0000 0.0000 0.0000 19.1738 0.0000 -4.7643
# 5 -3.6033 -13.3625 3.1672 0.0000 27.6589 0.0000
# 6 0.0000 0.0000 0.0000 -4.7643 0.0000 16.7682
#
#
#
# Elastic Compliance Matrix: (Units=1/GPa)
#
#
# Indices 1 2 3 4 5 6 
#
# 1 0.011014 -0.003387 -0.001782 0.000000 0.000002 0.000000
# 2 -0.003387 0.010529 -0.000569 0.000000 0.004711 0.000000
# 3 -0.001782 -0.000569 0.016888 0.000000 -0.002441 0.000000
# 4 0.000000 0.000000 0.000000 0.056116 0.000000 0.015944
# 5 0.000002 0.004711 -0.002441 0.000000 0.038710 0.000000
# 6 0.000000 0.000000 0.000000 0.015944 0.000000 0.064167
#
#
# Mechanical properties :
#
#
# Convention : Reuss Voigt Hill
#
# Bulk Modulus (GPa) = 37.09749 42.55437 39.82593
# Shear Modulus (GPa) = 22.94788 27.69362 25.32075
#
# Velocity S-wave (km/s) = 3.29093 3.61524 3.45689
# Velocity P-wave (km/s) = 5.65229 6.12455 5.89315
#
# Compressibility (1/GPa) = 0.02695600
#
# Stress axis : x y z
#
# Youngs Moduli (GPa) = 90.79484 94.97599 59.21252
#
# Poissons Ratio (x) = 0.32170 0.10551
# Poissons Ratio (y) = 0.30753 0.03366
# Poissons Ratio (z) = 0.16179 0.05400
#
# Static dielectric constant tensor:
#      x y z
#    x 1.855220 0.000000 0.046690 
#    y 0.000000 1.724850 0.000000 
#    z 0.046690 0.000000 1.917030 
# 
# From -- ./inp_files/257266.got.cif
#   From: 2010.05.17/outbox.cif.g08.bks.cpg/sg12_129_cif.got.tgz:257266.got - 2010.06.03 13:09:07.
