data_PCOD9175864
_publ_section_title
;
Structure prediction by ZEFSAII (Michael W. Deem and Ramdas Pophale) SiO2 
 PCOD9175864
Probable space group: C 2/M
;
_chemical_formula_sum "Si O2"
_cell_formula_units_Z 40
_cell_length_a 20.527277
_cell_length_b 18.583106
_cell_length_c 12.637272
_cell_angle_alpha 90.000000
_cell_angle_beta 25.621633
_cell_angle_gamma 90.000000
_cell_volume 2084.562879
_symmetry_space_group_name_H-M "C 2/M"
_symmetry_group_IT_number 12
_symmetry_cell_setting 'monoclinic'
loop_
_space_group_symop_operation_xyz
x,y,z
-x,y,-z
-x,-y,-z
x,-y,z
1/2+x,1/2+y,z
1/2-x,1/2+y,-z
1/2-x,1/2-y,-z
1/2+x,1/2-y,z
loop_
_atom_site_type_symbol
_atom_site_label
_atom_site_fract_x
_atom_site_fract_y
_atom_site_fract_z
Si Si1 0.878119 0.418304 0.090130
Si Si2 0.465165 0.918710 0.367565
Si Si3 0.168535 0.155012 0.725233
Si Si4 0.576272 0.231161 0.276290
Si Si5 0.183869 0.804470 0.460243
O O1 0.832893 0.500000 0.182707
O O2 0.739458 0.364391 0.297762
O O3 0.957095 0.417982 0.861575
O O4 0.000000 0.395119 0.000000
O O5 0.292885 0.895038 0.598115
O O6 0.546665 0.854555 0.310660
O O7 0.475406 0.000000 0.395210
O O8 0.188281 0.160106 0.569694
O O9 0.203044 0.236753 0.711320
O O10 0.000000 0.133635 0.000000
O O11 0.500000 0.253407 0.500000
O O12 0.477254 0.270804 0.331313
O O13 0.750000 0.250000 0.000000
#
# Coordination Sequence:
#
# PCOD9175864 Si02
#       5
#     8   8   8   8   8
#     4  10  18  33  58  87 118 146 180 231 299 360
#     4  10  22  39  61  88 119 154 190 239 299 361
#     4  10  21  32  57  89 119 150 184 239 304 353
#     4  11  25  42  63  85 115 162 211 247 283 337
#     4  10  21  35  58  85 117 148 197 243 291 347
#
# _framework density 19.188675
#
# number of rings (size 3 to 8) (size 9 to 14) (size 15 to 20)
#    0.000    1.800    2.000    1.800   11.200    0.800 
#    0.000    1.000    0.000    3.600    0.000    0.000 
#    0.000    0.000    0.000    0.000    0.000    0.000 
#
# Total GULP energy -111636.862983 kJ/mol
# GULP energy per Si atom -5581.843149 kJ/mol
# Density = 1.914500 g / cm^3
# Si number density = 19.188675 Si / 1000 Ang^3
#
#
#
# Elastic Constant Matrix: (Units=GPa)
#
#
# Indices 1 2 3 4 5 6 
#
# 1 37.5522 18.0075 13.9057 -0.0003 -6.6247 -0.0003
# 2 18.0075 94.1401 65.3781 -0.0012 -12.8752 -0.0005
# 3 13.9057 65.3781 120.6630 -0.0005 -21.6253 0.0003
# 4 -0.0003 -0.0012 -0.0005 22.2425 0.0008 8.6442
# 5 -6.6247 -12.8752 -21.6253 0.0008 26.0688 0.0003
# 6 -0.0003 -0.0005 0.0003 8.6442 0.0003 32.0562
#
#
#
# Elastic Compliance Matrix: (Units=1/GPa)
#
#
# Indices 1 2 3 4 5 6 
#
# 1 0.029952 -0.005238 0.000337 0.000000 0.005304 0.000000
# 2 -0.005238 0.017964 -0.009137 0.000001 -0.000038 0.000000
# 3 0.000337 -0.009137 0.014572 0.000000 0.007661 0.000000
# 4 0.000000 0.000001 0.000000 0.050222 -0.000001 -0.013543
# 5 0.005304 -0.000038 0.007661 -0.000001 0.046045 0.000000
# 6 0.000000 0.000000 0.000000 -0.013543 0.000000 0.034847
#
#
# Mechanical properties :
#
#
# Convention : Reuss Voigt Hill
#
# Bulk Modulus (GPa) = 29.05847 49.65978 39.35913
# Shear Modulus (GPa) = 21.44543 26.41111 23.92827
#
# Velocity S-wave (km/s) = 3.34669 3.71400 3.53512
# Velocity P-wave (km/s) = 5.48728 6.65790 6.10073
#
# Compressibility (1/GPa) = 0.03441337
#
# Stress axis : x y z
#
# Youngs Moduli (GPa) = 33.38645 55.66548 68.62318
#
# Poissons Ratio (x) = 0.29157 -0.02311
# Poissons Ratio (y) = 0.17487 0.62699
# Poissons Ratio (z) = -0.01124 0.50860
#
# Static dielectric constant tensor:
#      x y z
#    x 1.705870 0.000000 0.008900 
#    y 0.000000 1.687850 0.000000 
#    z 0.008900 0.000000 1.662520 
# 
# From -- ./inp_files/46955.got.cif
#   From: 2010.05.17/outbox.cif.g08.bks.cpg/sg12_24_cif.got.tgz:46955.got - 2010.06.03 13:09:07.
