data_PCOD9175970
_publ_section_title
;
Structure prediction by ZEFSAII (Michael W. Deem and Ramdas Pophale) SiO2 
 PCOD9175970
Probable space group: C 2/M
;
_chemical_formula_sum "Si O2"
_cell_formula_units_Z 56
_cell_length_a 19.009566
_cell_length_b 15.209117
_cell_length_c 12.090132
_cell_angle_alpha 90.000000
_cell_angle_beta 47.461405
_cell_angle_gamma 90.000000
_cell_volume 2575.549375
_symmetry_space_group_name_H-M "C 2/M"
_symmetry_group_IT_number 12
_symmetry_cell_setting 'monoclinic'
loop_
_space_group_symop_operation_xyz
x,y,z
-x,y,-z
-x,-y,-z
x,-y,z
1/2+x,1/2+y,z
1/2-x,1/2+y,-z
1/2-x,1/2-y,-z
1/2+x,1/2-y,z
loop_
_atom_site_type_symbol
_atom_site_label
_atom_site_fract_x
_atom_site_fract_y
_atom_site_fract_z
Si Si1 0.459033 0.744918 0.354426
Si Si2 0.235594 0.635699 0.733602
Si Si3 0.431213 0.206026 0.969859
Si Si4 0.802882 0.665728 0.652678
Si Si5 0.399333 0.406080 0.723299
Si Si6 0.189781 0.096382 0.570133
Si Si7 0.715345 0.334344 0.964593
O O1 0.510165 0.802759 0.205651
O O2 0.406166 0.808999 0.495887
O O3 0.533174 0.678264 0.334381
O O4 0.382702 0.677443 0.377174
O O5 0.251324 0.739403 0.704229
O O6 0.331846 0.601515 0.688550
O O7 0.233678 0.599488 0.612177
O O8 0.145439 0.631546 0.911767
O O9 0.500000 0.215471 0.000000
O O10 0.375164 0.296962 0.006536
O O11 0.745360 0.608324 0.625749
O O12 0.792096 0.636916 0.791669
O O13 0.450145 0.500000 0.668875
O O14 0.325886 0.401707 0.904084
O O15 0.142741 0.000000 0.618452
O O16 0.750000 0.250000 0.000000
#
# Coordination Sequence:
#
# PCOD9175970 Si02
#       7
#     8   8   8   8   8   8   8
#     4  10  21  35  59  94 123 155 203 253 307 366
#     4  10  20  38  59  82 122 164 207 237 296 376
#     4  10  18  33  61  88 112 154 210 253 282 349
#     4  10  20  37  61  82 118 162 212 236 293 368
#     4  11  22  37  60  94 125 154 193 256 319 360
#     4  11  22  37  58  90 128 161 195 253 313 362
#     4  10  19  38  59  82 120 166 205 234 290 374
#
# _framework density 21.742933000000001
#
# number of rings (size 3 to 8) (size 9 to 14) (size 15 to 20)
#    0.000    1.714    2.857    5.143    0.000    2.857 
#    0.000    3.571    0.000   15.000    0.000    3.000 
#    0.000    0.000    0.000    0.000    0.000    0.000 
#
# Total GULP energy -156182.077055 kJ/mol
# GULP energy per Si atom -5577.931323 kJ/mol
# Density = 2.169345 g / cm^3
# Si number density = 21.742933 Si / 1000 Ang^3
#
#
#
# Elastic Constant Matrix: (Units=GPa)
#
#
# Indices 1 2 3 4 5 6 
#
# 1 90.2245 10.2885 26.7248 0.0000 8.1467 0.0000
# 2 10.2885 28.4503 2.9210 0.0000 -1.9290 0.0000
# 3 26.7248 2.9210 174.6861 0.0000 15.4629 0.0000
# 4 0.0000 0.0000 0.0000 7.8296 0.0000 8.7511
# 5 8.1467 -1.9290 15.4629 0.0000 30.9552 0.0000
# 6 0.0000 0.0000 0.0000 8.7511 0.0000 24.7375
#
#
#
# Elastic Compliance Matrix: (Units=1/GPa)
#
#
# Indices 1 2 3 4 5 6 
#
# 1 0.012304 -0.004474 -0.001565 0.000000 -0.002735 0.000000
# 2 -0.004474 0.037038 -0.000255 0.000000 0.003613 0.000000
# 3 -0.001565 -0.000255 0.006208 0.000000 -0.002705 0.000000
# 4 0.000000 0.000000 0.000000 0.211245 0.000000 -0.074730
# 5 -0.002735 0.003613 -0.002705 0.000000 0.034601 0.000000
# 6 0.000000 0.000000 0.000000 -0.074730 0.000000 0.066861
#
#
# Mechanical properties :
#
#
# Convention : Reuss Voigt Hill
#
# Bulk Modulus (GPa) = 23.27674 41.46994 32.37334
# Shear Modulus (GPa) = 12.65292 29.59957 21.12625
#
# Velocity S-wave (km/s) = 2.41494 3.69364 3.12049
# Velocity P-wave (km/s) = 4.30170 6.10777 5.28249
#
# Compressibility (1/GPa) = 0.04296134
#
# Stress axis : x y z
#
# Youngs Moduli (GPa) = 81.27210 26.99920 161.08941
#
# Poissons Ratio (x) = 0.12080 0.25218
# Poissons Ratio (y) = 0.36364 0.04101
# Poissons Ratio (z) = 0.12723 0.00687
#
# Static dielectric constant tensor:
#      x y z
#    x 1.807260 0.000000 -0.014340 
#    y 0.000000 1.828760 0.000000 
#    z -0.014340 0.000000 1.936140 
# 
# From -- ./inp_files/158229.got.cif
#   From: 2010.05.17/outbox.cif.g08.bks.cpg/sg12_80_cif.got.tgz:158229.got - 2010.06.03 13:09:07.
