data_PCOD9175831
_publ_section_title
;
Structure prediction by ZEFSAII (Michael W. Deem and Ramdas Pophale) SiO2 
 PCOD9175831
Probable space group: C 2/M
;
_chemical_formula_sum "Si O2"
_cell_formula_units_Z 64
_cell_length_a 20.420931
_cell_length_b 7.686590
_cell_length_c 34.198191
_cell_angle_alpha 90.000000
_cell_angle_beta 147.238076
_cell_angle_gamma 90.000000
_cell_volume 2904.889670
_symmetry_space_group_name_H-M "C 2/M"
_symmetry_group_IT_number 12
_symmetry_cell_setting 'monoclinic'
loop_
_space_group_symop_operation_xyz
x,y,z
-x,y,-z
-x,-y,-z
x,-y,z
1/2+x,1/2+y,z
1/2-x,1/2+y,-z
1/2-x,1/2-y,-z
1/2+x,1/2-y,z
loop_
_atom_site_type_symbol
_atom_site_label
_atom_site_fract_x
_atom_site_fract_y
_atom_site_fract_z
Si Si1 0.136864 0.702216 0.563533
Si Si2 0.451220 0.300056 0.126368
Si Si3 0.692732 0.202150 0.281448
Si Si4 0.723931 0.712794 0.817486
Si Si5 0.490857 0.200652 0.930860
Si Si6 0.149612 0.792393 0.481693
Si Si7 0.392487 0.287235 0.319713
Si Si8 0.748709 0.286451 0.916058
O O1 0.130913 0.500000 0.571699
O O2 0.234725 0.783434 0.641700
O O3 0.173004 0.718740 0.536497
O O4 0.000000 0.775610 0.500000
O O5 0.427722 0.500000 0.103791
O O6 0.564118 0.293732 0.212896
O O7 0.489228 0.206843 0.105684
O O8 0.333979 0.227445 0.089535
O O9 0.783686 0.268343 0.293429
O O10 0.668804 0.000000 0.261443
O O11 0.724345 0.500000 0.816562
O O12 0.635244 0.769088 0.738341
O O13 0.695240 0.764459 0.847262
O O14 0.860083 0.774557 0.875767
O O15 0.485858 0.000000 0.941398
O O16 0.612973 0.274883 0.010919
O O17 0.250000 0.750000 0.500000
O O18 0.019817 0.727928 0.400905
O O19 0.142675 0.000000 0.482553
O O20 0.393814 0.500000 0.321066
O O21 0.749328 0.500000 0.917957
#
# Coordination Sequence:
#
# PCOD9175831 Si02
#       8
#     8   8   8   8   8   8   8   8
#     4  11  23  39  62  92 121 154 195 244 298 352
#     4  11  22  35  52  82 119 153 186 233 296 352
#     4  11  21  38  62  88 114 149 198 243 288 348
#     4   9  16  31  56  84 107 139 191 243 281 327
#     4  10  18  33  58  83 106 145 197 242 282 341
#     4  11  23  40  61  89 124 161 200 244 296 355
#     4   9  18  33  57  85 112 147 191 240 291 343
#     4   9  19  32  51  82 117 147 186 240 293 341
#
# _framework density 22.031817
#
# number of rings (size 3 to 8) (size 9 to 14) (size 15 to 20)
#    0.000    1.875    2.500    2.250    0.000    3.000 
#    0.000    3.125    0.000    3.000    0.000    0.000 
#    0.000    0.000    0.000    0.000    0.000    0.000 
#
# Total GULP energy -178839.727511 kJ/mol
# GULP energy per Si atom -5588.741485 kJ/mol
# Density = 2.198167 g / cm^3
# Si number density = 22.031817 Si / 1000 Ang^3
#
#
#
# Elastic Constant Matrix: (Units=GPa)
#
#
# Indices 1 2 3 4 5 6 
#
# 1 60.6754 -9.1977 -10.2364 0.0003 -19.7097 -0.0017
# 2 -9.1977 45.0857 -5.6794 0.0008 2.0639 -0.0035
# 3 -10.2364 -5.6794 78.3302 -0.0001 -25.4697 -0.0001
# 4 0.0003 0.0008 -0.0001 7.6570 0.0001 -0.1957
# 5 -19.7097 2.0639 -25.4697 0.0001 33.5934 -0.0001
# 6 -0.0017 -0.0035 -0.0001 -0.1957 -0.0001 12.6218
#
#
#
# Elastic Compliance Matrix: (Units=1/GPa)
#
#
# Indices 1 2 3 4 5 6 
#
# 1 0.027591 0.006017 0.012191 -0.000002 0.025061 0.000005
# 2 0.006017 0.023698 0.004219 -0.000003 0.005273 0.000007
# 3 0.012191 0.004219 0.022439 -0.000001 0.023906 0.000003
# 4 -0.000002 -0.000003 -0.000001 0.130651 -0.000002 0.002026
# 5 0.025061 0.005273 0.023906 -0.000002 0.062272 0.000005
# 6 0.000005 0.000007 0.000003 0.002026 0.000005 0.079260
#
#
# Mechanical properties :
#
#
# Convention : Reuss Voigt Hill
#
# Bulk Modulus (GPa) = 8.43310 14.87382 11.65346
# Shear Modulus (GPa) = 14.68074 24.72142 19.70108
#
# Velocity S-wave (km/s) = 2.58416 3.35338 2.99358
# Velocity P-wave (km/s) = 3.56929 4.66468 4.15326
#
# Compressibility (1/GPa) = 0.11858039
#
# Stress axis : x y z
#
# Youngs Moduli (GPa) = 36.24423 42.19842 44.56607
#
# Poissons Ratio (x) = -0.25391 -0.54329
# Poissons Ratio (y) = -0.21808 -0.18803
# Poissons Ratio (z) = -0.44184 -0.17804
#
# Static dielectric constant tensor:
#      x y z
#    x 1.772550 0.000000 0.001740 
#    y 0.000000 1.842090 0.000000 
#    z 0.001740 0.000000 1.798020 
# 
# From -- ./inp_files/378492.got.cif
#   From: 2010.05.17/outbox.cif.g08.bks.cpg/sg12_190_cif.got.tgz:378492.got - 2010.06.03 13:09:07.
