data_PCOD9175996
_publ_section_title
;
Structure prediction by ZEFSAII (Michael W. Deem and Ramdas Pophale) SiO2 
 PCOD9175996
Probable space group: C 2/M
;
_chemical_formula_sum "Si O2"
_cell_formula_units_Z 64
_cell_length_a 11.358348
_cell_length_b 27.079425
_cell_length_c 14.034225
_cell_angle_alpha 90.000000
_cell_angle_beta 48.643503
_cell_angle_gamma 90.000000
_cell_volume 3240.105170
_symmetry_space_group_name_H-M "C 2/M"
_symmetry_group_IT_number 12
_symmetry_cell_setting 'monoclinic'
loop_
_space_group_symop_operation_xyz
x,y,z
-x,y,-z
-x,-y,-z
x,-y,z
1/2+x,1/2+y,z
1/2-x,1/2+y,-z
1/2-x,1/2-y,-z
1/2+x,1/2-y,z
loop_
_atom_site_type_symbol
_atom_site_label
_atom_site_fract_x
_atom_site_fract_y
_atom_site_fract_z
Si Si1 0.638875 0.555573 0.170747
Si Si2 0.806573 0.838706 0.220873
Si Si3 0.876396 0.053636 0.152107
Si Si4 0.467199 0.380248 0.405319
Si Si5 0.632916 0.142398 0.006542
Si Si6 0.930492 0.197472 0.805726
Si Si7 0.049446 0.691641 0.239212
Si Si8 0.137149 0.636939 0.494401
O O1 0.700857 0.500000 0.143524
O O2 0.482366 0.554624 0.189978
O O3 0.580017 0.577296 0.302421
O O4 0.759158 0.593586 0.057783
O O5 0.780700 0.895798 0.204967
O O6 0.726012 0.805452 0.186165
O O7 0.722028 0.830654 0.367569
O O8 0.985955 0.829037 0.148884
O O9 0.794433 0.000000 0.190145
O O10 0.000000 0.055898 0.000000
O O11 0.500000 0.374622 0.500000
O O12 0.521130 0.331855 0.316269
O O13 0.285233 0.389510 0.468588
O O14 0.554486 0.154179 0.149040
O O15 0.500000 0.137145 0.000000
O O16 0.747176 0.188178 0.919692
O O17 0.990353 0.253154 0.769667
O O18 0.945877 0.669225 0.379804
O O19 0.000000 0.611668 0.500000
#
# Coordination Sequence:
#
# PCOD9175996 Si02
#       8
#     8   8   8   8   8   8   8   8
#     4  10  21  41  64  88 119 158 206 259 314 372
#     4  10  20  39  61  86 124 152 208 253 303 367
#     4  10  18  33  63  91 113 151 203 252 305 361
#     4  10  21  37  66  90 122 160 212 253 299 372
#     4  11  24  40  57  87 124 158 205 259 307 357
#     4  10  23  40  55  90 119 166 206 249 299 360
#     4  11  24  36  63  84 126 168 201 248 306 367
#     4   9  20  38  57  90 121 160 197 251 312 358
#
# _framework density 19.752445999999999
#
# number of rings (size 3 to 8) (size 9 to 14) (size 15 to 20)
#    0.000    1.875    3.750    1.125    5.250    4.000 
#    0.000    0.000    0.000    7.500    0.000    0.000 
#    0.000    0.000    0.000    0.000    0.000    0.000 
#
# Total GULP energy -178229.698455 kJ/mol
# GULP energy per Si atom -5569.678077 kJ/mol
# Density = 1.970749 g / cm^3
# Si number density = 19.752446 Si / 1000 Ang^3
#
#
#
# Elastic Constant Matrix: (Units=GPa)
#
#
# Indices 1 2 3 4 5 6 
#
# 1 65.5921 0.6200 -11.0788 0.0000 4.5703 0.0000
# 2 0.6200 100.3528 27.0157 0.0000 1.3919 0.0000
# 3 -11.0788 27.0157 49.5233 0.0000 2.2411 0.0000
# 4 0.0000 0.0000 0.0000 -6.7979 0.0000 -11.9691
# 5 4.5703 1.3919 2.2411 0.0000 26.1603 0.0000
# 6 0.0000 0.0000 0.0000 -11.9691 0.0000 4.8339
#
#
#
# Elastic Compliance Matrix: (Units=1/GPa)
#
#
# Indices 1 2 3 4 5 6 
#
# 1 0.016230 -0.001257 0.004459 0.000000 -0.003151 0.000000
# 2 -0.001257 0.011778 -0.006714 0.000000 0.000168 0.000000
# 3 0.004459 -0.006714 0.024968 0.000000 -0.002561 0.000000
# 4 0.000000 0.000000 0.000000 -0.027447 0.000000 -0.067960
# 5 -0.003151 0.000168 -0.002561 0.000000 0.038987 0.000000
# 6 0.000000 0.000000 0.000000 -0.067960 0.000000 0.038598
#
#
# Mechanical properties :
#
#
# Convention : Reuss Voigt Hill
#
# Bulk Modulus (GPa) = 21.76123 27.62022 24.69072
# Shear Modulus (GPa) = 39.85483 18.10001 28.97742
#
# Velocity S-wave (km/s) = 4.49677 3.03040 3.83434
# Velocity P-wave (km/s) = 6.16459 5.12425 5.66834
#
# Compressibility (1/GPa) = 0.04595329
#
# Stress axis : x y z
#
# Youngs Moduli (GPa) = 61.61307 84.90646 40.05058
#
# Poissons Ratio (x) = 0.10673 -0.17859
# Poissons Ratio (y) = 0.07745 0.26889
# Poissons Ratio (z) = -0.27474 0.57004
#
# Static dielectric constant tensor:
#      x y z
#    x 1.725990 0.000000 -0.033190 
#    y 0.000000 1.712130 0.000000 
#    z -0.033190 0.000000 1.726080 
# 
# From -- ./inp_files/209387.got.cif
#   From: 2010.05.17/outbox.cif.g08.bks.cpg/sg12_105_cif.got.tgz:209387.got - 2010.06.03 13:09:07.
