data_PCOD9175071
_publ_section_title
;
Structure prediction by ZEFSAII (Michael W. Deem and Ramdas Pophale) SiO2 
 PCOD9175071
Probable space group: C 2/M
;
_chemical_formula_sum "Si O2"
_cell_formula_units_Z 48
_cell_length_a 25.284296
_cell_length_b 7.669683
_cell_length_c 12.084367
_cell_angle_alpha 90.000000
_cell_angle_beta 111.610268
_cell_angle_gamma 90.000000
_cell_volume 2178.712484
_symmetry_space_group_name_H-M "C 2/M"
_symmetry_group_IT_number 12
_symmetry_cell_setting 'monoclinic'
loop_
_space_group_symop_operation_xyz
x,y,z
-x,y,-z
-x,-y,-z
x,-y,z
1/2+x,1/2+y,z
1/2-x,1/2+y,-z
1/2-x,1/2-y,-z
1/2+x,1/2-y,z
loop_
_atom_site_type_symbol
_atom_site_label
_atom_site_fract_x
_atom_site_fract_y
_atom_site_fract_z
Si Si1 0.733677 0.289737 0.861404
Si Si2 0.940676 0.210676 0.012825
Si Si3 0.666567 0.200322 0.216096
Si Si4 0.877461 0.213127 0.348349
Si Si5 0.020699 0.787051 0.718155
Si Si6 0.108627 0.793168 0.397792
O O1 0.733655 0.500000 0.854465
O O2 0.780825 0.220635 0.811215
O O3 0.671858 0.228500 0.773169
O O4 0.750000 0.250000 0.000000
O O5 0.946916 0.264206 0.144658
O O6 0.934996 0.000000 0.003480
O O7 0.887776 0.286088 0.906350
O O8 0.000000 0.256283 0.000000
O O9 0.647439 0.269475 0.320407
O O10 0.680971 0.000000 0.247019
O O11 0.939911 0.265355 0.353876
O O12 0.867743 0.272152 0.466732
O O13 0.876524 0.000000 0.345492
O O14 0.955698 0.723971 0.669402
O O15 0.018587 0.000000 0.717527
O O16 0.102063 0.000000 0.406068
#
# Coordination Sequence:
#
# PCOD9175071 Si02
#       6
#     8   8   8   8   8   8
#     4  10  22  40  59  81 108 143 185 226 271 325
#     4  10  18  32  55  82 108 137 182 228 265 317
#     4  11  23  36  52  79 116 149 178 219 275 332
#     4   9  18  33  56  81 106 140 183 230 273 314
#     4   9  16  29  53  84 110 132 172 233 281 312
#     4  10  19  34  56  82 108 139 183 228 272 323
#
# _framework density 22.031362000000001
#
# number of rings (size 3 to 8) (size 9 to 14) (size 15 to 20)
#    0.000    2.167    1.667    2.000    0.000    5.667 
#    0.000    0.833    0.000    3.000    0.000    0.000 
#    0.000    0.000    0.000    0.000    0.000    0.000 
#
# Total GULP energy -134029.010014 kJ/mol
# GULP energy per Si atom -5584.542084 kJ/mol
# Density = 2.198122 g / cm^3
# Si number density = 22.031362 Si / 1000 Ang^3
#
#
#
# Elastic Constant Matrix: (Units=GPa)
#
#
# Indices 1 2 3 4 5 6 
#
# 1 126.4319 3.4642 52.0849 0.0000 -22.8964 0.0000
# 2 3.4642 30.8346 4.2892 0.0000 0.0101 0.0000
# 3 52.0849 4.2892 141.3972 0.0000 -25.7148 0.0000
# 4 0.0000 0.0000 0.0000 10.1164 0.0000 -0.9083
# 5 -22.8964 0.0101 -25.7148 0.0000 27.6325 0.0000
# 6 0.0000 0.0000 0.0000 -0.9083 0.0000 10.8201
#
#
#
# Elastic Compliance Matrix: (Units=1/GPa)
#
#
# Indices 1 2 3 4 5 6 
#
# 1 0.010079 -0.000771 -0.002613 0.000000 0.005920 0.000000
# 2 -0.000771 0.032656 -0.000993 0.000000 -0.001575 0.000000
# 3 -0.002613 -0.000993 0.009234 0.000000 0.006429 0.000000
# 4 0.000000 0.000000 0.000000 0.099600 0.000000 0.008361
# 5 0.005920 -0.001575 0.006429 0.000000 0.047078 0.000000
# 6 0.000000 0.000000 0.000000 0.008361 0.000000 0.093122
#
#
# Mechanical properties :
#
#
# Convention : Reuss Voigt Hill
#
# Bulk Modulus (GPa) = 23.13952 46.48229 34.81090
# Shear Modulus (GPa) = 15.87664 25.63549 20.75607
#
# Velocity S-wave (km/s) = 2.68738 3.41485 3.07272
# Velocity P-wave (km/s) = 4.48945 6.05741 5.33139
#
# Compressibility (1/GPa) = 0.04321612
#
# Stress axis : x y z
#
# Youngs Moduli (GPa) = 99.21640 30.62194 108.29668
#
# Poissons Ratio (x) = 0.02361 0.28293
# Poissons Ratio (y) = 0.07648 0.10755
# Poissons Ratio (z) = 0.25921 0.03041
#
# Static dielectric constant tensor:
#      x y z
#    x 1.805690 0.000000 -0.013470 
#    y 0.000000 1.841480 0.000000 
#    z -0.013470 0.000000 1.782270 
# 
# From -- ./inp_files/172891.got.cif
#   From: 2010.05.17/outbox.cif.g08.bks.cpg/sg12_87_cif.got.tgz:172891.got - 2010.06.03 13:09:07.
