data_PCOD9175956
_publ_section_title
;
Structure prediction by ZEFSAII (Michael W. Deem and Ramdas Pophale) SiO2 
 PCOD9175956
Probable space group: C 2/M
;
_chemical_formula_sum "Si O2"
_cell_formula_units_Z 36
_cell_length_a 11.689379
_cell_length_b 21.996594
_cell_length_c 7.941506
_cell_angle_alpha 90.000000
_cell_angle_beta 68.021374
_cell_angle_gamma 90.000000
_cell_volume 1893.568540
_symmetry_space_group_name_H-M "C 2/M"
_symmetry_group_IT_number 12
_symmetry_cell_setting 'monoclinic'
loop_
_space_group_symop_operation_xyz
x,y,z
-x,y,-z
-x,-y,-z
x,-y,z
1/2+x,1/2+y,z
1/2-x,1/2+y,-z
1/2-x,1/2-y,-z
1/2+x,1/2-y,z
loop_
_atom_site_type_symbol
_atom_site_label
_atom_site_fract_x
_atom_site_fract_y
_atom_site_fract_z
Si Si1 0.629510 0.500000 0.648678
Si Si2 0.000000 0.306674 0.000000
Si Si3 0.745490 0.633764 0.093086
Si Si4 0.515621 0.284069 0.304562
Si Si5 0.166054 0.000000 0.237712
Si Si6 0.871166 0.125282 0.177800
O O1 0.679646 0.500000 0.431871
O O2 0.480282 0.500000 0.719287
O O3 0.664635 0.560618 0.727765
O O4 0.021262 0.264306 0.151310
O O5 0.877559 0.346396 0.086377
O O6 0.637289 0.673468 0.237611
O O7 0.720224 0.562413 0.134981
O O8 0.727977 0.647182 0.903388
O O9 0.500000 0.258683 0.500000
O O10 0.403686 0.328520 0.309174
O O11 0.000000 0.119403 0.000000
#
# Coordination Sequence:
#
# PCOD9175956 Si02
#       6
#     4   4   8   8   4   8
#     4  11  18  33  61  99 121 143 201 270 312 346
#     4  12  26  45  58  85 132 176 204 238 298 380
#     4  11  23  41  64  89 125 165 204 251 309 366
#     4  11  22  40  66  94 119 157 208 263 305 350
#     4  11  21  35  62  95 120 154 202 254 314 360
#     4  10  18  33  60  92 122 150 196 254 316 352
#
# _framework density 19.011723
#
# number of rings (size 3 to 8) (size 9 to 14) (size 15 to 20)
#    0.000    1.111    7.778    3.000    0.000    1.333 
#    4.000    0.000    0.000    1.333    0.000    0.000 
#    0.000    0.000    0.000    0.000    0.000    0.000 
#
# Total GULP energy -100542.198941 kJ/mol
# GULP energy per Si atom -5585.677719 kJ/mol
# Density = 1.896845 g / cm^3
# Si number density = 19.011723 Si / 1000 Ang^3
#
#
#
# Elastic Constant Matrix: (Units=GPa)
#
#
# Indices 1 2 3 4 5 6 
#
# 1 80.2411 41.1610 27.0620 0.0000 -2.5791 0.0000
# 2 41.1610 69.5523 25.7312 0.0000 -5.7454 0.0000
# 3 27.0620 25.7312 76.1280 0.0000 28.9779 0.0000
# 4 0.0000 0.0000 0.0000 26.0778 0.0000 42.4376
# 5 -2.5791 -5.7454 28.9779 0.0000 23.9806 0.0000
# 6 0.0000 0.0000 0.0000 42.4376 0.0000 60.8400
#
#
#
# Elastic Compliance Matrix: (Units=1/GPa)
#
#
# Indices 1 2 3 4 5 6 
#
# 1 0.019488 -0.007645 -0.008229 0.000000 0.010208 0.000000
# 2 -0.007645 0.026691 -0.015601 0.000000 0.024425 0.000000
# 3 -0.008229 -0.015601 0.042764 0.000000 -0.056299 0.000000
# 4 0.000000 0.000000 0.000000 -0.283792 0.000000 0.197953
# 5 0.010208 0.024425 -0.056299 0.000000 0.116681 0.000000
# 6 0.000000 0.000000 0.000000 0.197953 0.000000 -0.121641
#
#
# Mechanical properties :
#
#
# Convention : Reuss Voigt Hill
#
# Bulk Modulus (GPa) = 38.47329 45.98107 42.22718
# Shear Modulus (GPa) = -39.00348 30.97748 -4.01300
#
# Velocity S-wave (km/s) = -4.53432 4.04095 -1.45444
# Velocity P-wave (km/s) = 2.67073 6.78310 4.40895
#
# Compressibility (1/GPa) = 0.02599206
#
# Stress axis : x y z
#
# Youngs Moduli (GPa) = 51.31482 37.46519 23.38402
#
# Poissons Ratio (x) = 0.28642 0.19243
# Poissons Ratio (y) = 0.39230 0.36482
# Poissons Ratio (z) = 0.42228 0.58451
#
# Static dielectric constant tensor:
#      x y z
#    x 1.657500 0.000000 0.017440 
#    y 0.000000 1.654570 0.000000 
#    z 0.017440 0.000000 1.683930 
# 
# From -- ./inp_files/48434.got.cif
#   From: 2010.05.17/outbox.cif.g08.bks.cpg/sg12_25_cif.got.tgz:48434.got - 2010.06.03 13:09:07.
