data_PCOD9175149
_publ_section_title
;
Structure prediction by ZEFSAII (Michael W. Deem and Ramdas Pophale) SiO2 
 PCOD9175149
Probable space group: C 2/M
;
_chemical_formula_sum "Si O2"
_cell_formula_units_Z 48
_cell_length_a 20.434223
_cell_length_b 7.462714
_cell_length_c 14.057446
_cell_angle_alpha 90.000000
_cell_angle_beta 91.890466
_cell_angle_gamma 90.000000
_cell_volume 2142.520115
_symmetry_space_group_name_H-M "C 2/M"
_symmetry_group_IT_number 12
_symmetry_cell_setting 'monoclinic'
loop_
_space_group_symop_operation_xyz
x,y,z
-x,y,-z
-x,-y,-z
x,-y,z
1/2+x,1/2+y,z
1/2-x,1/2+y,-z
1/2-x,1/2-y,-z
1/2+x,1/2-y,z
loop_
_atom_site_type_symbol
_atom_site_label
_atom_site_fract_x
_atom_site_fract_y
_atom_site_fract_z
Si Si1 0.045580 0.792472 0.419897
Si Si2 0.119039 0.219447 0.863391
Si Si3 0.692738 0.787201 0.422526
Si Si4 0.474272 0.719058 0.794959
Si Si5 0.244227 0.208861 0.767198
Si Si6 0.146397 0.216759 0.079148
O O1 0.122246 0.787377 0.448438
O O2 0.037637 0.717112 0.313241
O O3 0.000000 0.712407 0.500000
O O4 0.024931 0.000000 0.409852
O O5 0.173100 0.282678 0.790320
O O6 0.045598 0.273865 0.834724
O O7 0.120024 0.000000 0.863036
O O8 0.139444 0.276360 0.970264
O O9 0.750000 0.750000 0.500000
O O10 0.716606 0.714625 0.320960
O O11 0.683043 0.000000 0.414873
O O12 0.472560 0.500000 0.795591
O O13 0.416156 0.776451 0.861991
O O14 0.289056 0.222069 0.862753
O O15 0.234300 0.000000 0.743410
O O16 0.147282 0.000000 0.079040
#
# Coordination Sequence:
#
# PCOD9175149 Si02
#       6
#     8   8   8   8   8   8
#     4  10  21  37  61  87 111 144 188 236 286 341
#     4   9  18  31  52  82 111 144 185 225 268 322
#     4  11  24  40  60  83 113 149 188 235 284 338
#     4   9  17  31  53  81 110 139 179 228 271 320
#     4  10  21  36  55  79 111 147 180 222 277 334
#     4  10  18  32  56  82 109 142 184 230 271 320
#
# _framework density 22.403523
#
# number of rings (size 3 to 8) (size 9 to 14) (size 15 to 20)
#    0.000    2.167    1.667    1.500    2.333    3.000 
#    0.000    0.000    0.000    4.000    0.000    0.000 
#    0.000    0.000    0.000    0.000    0.000    0.000 
#
# Total GULP energy -134140.810470 kJ/mol
# GULP energy per Si atom -5589.200436 kJ/mol
# Density = 2.235253 g / cm^3
# Si number density = 22.403523 Si / 1000 Ang^3
#
#
#
# Elastic Constant Matrix: (Units=GPa)
#
#
# Indices 1 2 3 4 5 6 
#
# 1 89.6714 -19.6327 19.6679 0.0000 -17.6829 0.0000
# 2 -19.6327 67.2497 -5.5307 0.0000 -11.4668 0.0000
# 3 19.6679 -5.5307 85.8153 0.0000 -12.5172 0.0000
# 4 0.0000 0.0000 0.0000 1.8046 0.0000 12.9026
# 5 -17.6829 -11.4668 -12.5172 0.0000 45.7578 0.0000
# 6 0.0000 0.0000 0.0000 12.9026 0.0000 10.2116
#
#
#
# Elastic Compliance Matrix: (Units=1/GPa)
#
#
# Indices 1 2 3 4 5 6 
#
# 1 0.013853 0.004912 -0.001977 0.000000 0.006043 0.000000
# 2 0.004912 0.017499 0.000957 0.000000 0.006545 0.000000
# 3 -0.001977 0.000957 0.012594 0.000000 0.002921 0.000000
# 4 0.000000 0.000000 0.000000 -0.068974 0.000000 0.087151
# 5 0.006043 0.006545 0.002921 0.000000 0.026629 0.000000
# 6 0.000000 0.000000 0.000000 0.087151 0.000000 -0.012189
#
#
# Mechanical properties :
#
#
# Convention : Reuss Voigt Hill
#
# Bulk Modulus (GPa) = 19.33162 25.74948 22.54055
# Shear Modulus (GPa) = -4422.59626 28.10359 -2197.24634
#
# Velocity S-wave (km/s) = -44.47863 3.54563 -31.35105
# Velocity P-wave (km/s) = 51.27524 5.31794 36.06154
#
# Compressibility (1/GPa) = 0.05172871
#
# Stress axis : x y z
#
# Youngs Moduli (GPa) = 72.18870 57.14735 79.40490
#
# Poissons Ratio (x) = -0.28071 0.15696
# Poissons Ratio (y) = -0.35459 -0.07596
# Poissons Ratio (z) = 0.14270 -0.05467
#
# Static dielectric constant tensor:
#      x y z
#    x 1.781700 0.000000 -0.031010 
#    y 0.000000 1.860940 0.000000 
#    z -0.031010 0.000000 1.803460 
# 
# From -- ./inp_files/221509.got.cif
#   From: 2010.05.17/outbox.cif.g08.bks.cpg/sg12_111_cif.got.tgz:221509.got - 2010.06.03 13:09:07.
