data_PCOD9175502
_publ_section_title
;
Structure prediction by ZEFSAII (Michael W. Deem and Ramdas Pophale) SiO2 
 PCOD9175502
Probable space group: C 2/M
;
_chemical_formula_sum "Si O2"
_cell_formula_units_Z 56
_cell_length_a 17.443881
_cell_length_b 14.403473
_cell_length_c 18.134274
_cell_angle_alpha 90.000000
_cell_angle_beta 30.124323
_cell_angle_gamma 90.000000
_cell_volume 2286.697085
_symmetry_space_group_name_H-M "C 2/M"
_symmetry_group_IT_number 12
_symmetry_cell_setting 'monoclinic'
loop_
_space_group_symop_operation_xyz
x,y,z
-x,y,-z
-x,-y,-z
x,-y,z
1/2+x,1/2+y,z
1/2-x,1/2+y,-z
1/2-x,1/2-y,-z
1/2+x,1/2-y,z
loop_
_atom_site_type_symbol
_atom_site_label
_atom_site_fract_x
_atom_site_fract_y
_atom_site_fract_z
Si Si1 0.254178 0.809306 0.689575
Si Si2 0.487974 0.608691 0.746136
Si Si3 0.815299 0.609134 0.479347
Si Si4 0.082667 0.163439 0.034363
Si Si5 0.618415 0.105067 0.276010
Si Si6 0.343221 0.900763 0.232532
Si Si7 0.174734 0.631460 0.925346
O O1 0.294164 0.867444 0.583689
O O2 0.364505 0.829770 0.666353
O O3 0.229716 0.700125 0.688725
O O4 0.088361 0.848615 0.852815
O O5 0.509690 0.500000 0.750191
O O6 0.654374 0.642901 0.578928
O O7 0.342737 0.611191 0.814498
O O8 0.441949 0.664216 0.857445
O O9 0.820785 0.500000 0.457542
O O10 0.989962 0.642031 0.325217
O O11 0.219924 0.097752 0.898964
O O12 0.145529 0.259827 0.951903
O O13 0.577184 0.000000 0.334546
O O14 0.333685 0.901132 0.151582
O O15 0.278169 0.000000 0.314431
O O16 0.526088 0.901698 0.094945
#
# Coordination Sequence:
#
# PCOD9175502 Si02
#       7
#     8   8   8   8   8   8   8
#     4  10  19  33  53  79 109 140 175 220 267 309
#     4  10  19  33  52  77 108 142 176 215 261 313
#     4   9  20  35  53  79 109 145 181 208 255 328
#     4  10  20  32  50  81 111 135 174 220 268 314
#     4  11  20  33  53  78 110 145 177 215 262 317
#     4  10  19  32  54  83 106 132 179 226 267 312
#     4  10  18  33  53  79 107 139 173 219 269 316
#
# _framework density 24.489470000000001
#
# number of rings (size 3 to 8) (size 9 to 14) (size 15 to 20)
#    0.000    2.000    1.429    3.857    0.000    3.429 
#    0.000    0.714    0.000    1.714    0.000    0.000 
#    0.000    0.000    0.000    0.571    0.000    0.000 
#
# Total GULP energy -156198.129319 kJ/mol
# GULP energy per Si atom -5578.504619 kJ/mol
# Density = 2.443373 g / cm^3
# Si number density = 24.489470 Si / 1000 Ang^3
#
#
#
# Elastic Constant Matrix: (Units=GPa)
#
#
# Indices 1 2 3 4 5 6 
#
# 1 91.9266 0.3111 47.7443 0.0000 -36.1900 0.0002
# 2 0.3111 75.9545 27.8362 0.0010 -5.4123 0.0007
# 3 47.7443 27.8362 85.9191 0.0052 -31.8974 0.0010
# 4 0.0000 0.0010 0.0052 19.1150 -0.0016 -9.4168
# 5 -36.1900 -5.4123 -31.8974 -0.0016 50.6801 -0.0005
# 6 0.0002 0.0007 0.0010 -9.4168 -0.0005 13.4085
#
#
#
# Elastic Compliance Matrix: (Units=1/GPa)
#
#
# Indices 1 2 3 4 5 6 
#
# 1 0.018471 0.003570 -0.008329 0.000005 0.008329 0.000004
# 2 0.003570 0.015770 -0.007205 0.000002 -0.000301 0.000001
# 3 -0.008329 -0.007205 0.021019 -0.000008 0.006512 -0.000007
# 4 0.000005 0.000002 -0.000008 0.079991 0.000001 0.056178
# 5 0.008329 -0.000301 0.006512 0.000001 0.029746 0.000001
# 6 0.000004 0.000001 -0.000007 0.056178 0.000001 0.114034
#
#
# Mechanical properties :
#
#
# Convention : Reuss Voigt Hill
#
# Bulk Modulus (GPa) = 31.91492 45.06481 38.48987
# Shear Modulus (GPa) = 15.95399 28.50127 22.22763
#
# Velocity S-wave (km/s) = 2.55515 3.41518 3.01598
# Velocity P-wave (km/s) = 4.66534 5.83034 5.28007
#
# Compressibility (1/GPa) = 0.03133331
#
# Stress axis : x y z
#
# Youngs Moduli (GPa) = 54.13936 63.41071 47.57629
#
# Poissons Ratio (x) = -0.22638 0.39624
# Poissons Ratio (y) = -0.19328 0.34278
# Poissons Ratio (z) = 0.45090 0.45687
#
# Static dielectric constant tensor:
#      x y z
#    x 1.944250 0.000000 -0.060380 
#    y 0.000000 2.019860 0.000000 
#    z -0.060380 0.000000 2.014980 
# 
# From -- ./inp_files/316711.got.cif
#   From: 2010.05.17/outbox.cif.g08.bks.cpg/sg12_159_cif.got.tgz:316711.got - 2010.06.03 13:09:07.
