data_PCOD9175440
_publ_section_title
;
Structure prediction by ZEFSAII (Michael W. Deem and Ramdas Pophale) SiO2 
 PCOD9175440
Probable space group: C 2/M
;
_chemical_formula_sum "Si O2"
_cell_formula_units_Z 64
_cell_length_a 33.607784
_cell_length_b 12.379669
_cell_length_c 8.109593
_cell_angle_alpha 90.000000
_cell_angle_beta 105.627634
_cell_angle_gamma 90.000000
_cell_volume 3249.294137
_symmetry_space_group_name_H-M "C 2/M"
_symmetry_group_IT_number 12
_symmetry_cell_setting 'monoclinic'
loop_
_space_group_symop_operation_xyz
x,y,z
-x,y,-z
-x,-y,-z
x,-y,z
1/2+x,1/2+y,z
1/2-x,1/2+y,-z
1/2-x,1/2-y,-z
1/2+x,1/2-y,z
loop_
_atom_site_type_symbol
_atom_site_label
_atom_site_fract_x
_atom_site_fract_y
_atom_site_fract_z
Si Si1 0.774449 0.764482 0.301471
Si Si2 0.553012 0.374469 0.204778
Si Si3 0.901815 0.197163 0.415341
Si Si4 0.670298 0.374252 0.878941
Si Si5 0.850633 0.628265 0.531953
Si Si6 0.791149 0.881504 0.642628
Si Si7 0.368533 0.719440 0.840957
Si Si8 0.026372 0.875808 0.699237
O O1 0.789095 0.817221 0.148688
O O2 0.808291 0.678264 0.409477
O O3 0.775168 0.856671 0.442233
O O4 0.730792 0.705204 0.263779
O O5 0.552224 0.500000 0.156850
O O6 0.576654 0.360914 0.406291
O O7 0.583095 0.308890 0.117601
O O8 0.505832 0.341884 0.194807
O O9 0.886155 0.312795 0.463270
O O10 0.934785 0.197068 0.303929
O O11 0.000000 0.121388 0.500000
O O12 0.675594 0.500000 0.932556
O O13 0.637902 0.367401 0.691865
O O14 0.649145 0.302422 0.997766
O O15 0.850919 0.500000 0.523636
O O16 0.858176 0.671609 0.727706
O O17 0.840304 0.865518 0.705026
O O18 0.779266 0.000000 0.680908
O O19 0.039974 0.000000 0.745820
#
# Coordination Sequence:
#
# PCOD9175440 Si02
#       8
#     8   8   8   8   8   8   8   8
#     4   9  20  32  51  76  94 122 162 202 246 287
#     4   9  15  27  47  70  97 129 162 196 240 288
#     4   9  17  28  48  72  95 125 162 198 240 285
#     4  11  20  32  48  73 108 133 155 189 234 291
#     4   9  18  35  53  69  93 124 166 213 246 277
#     4  10  18  33  52  70  95 125 162 202 240 284
#     4  10  21  32  47  70  97 132 165 192 235 293
#     4   8  13  23  43  71  99 124 154 197 244 286
#
# _framework density 19.696586
#
# number of rings (size 3 to 8) (size 9 to 14) (size 15 to 20)
#    0.000    2.625    0.000    4.500    0.000    0.500 
#    0.000    4.375    0.000   11.625    0.000    0.000 
#    0.000   20.000    0.000    0.000    0.000    0.000 
#
# Total GULP energy -178388.333666 kJ/mol
# GULP energy per Si atom -5574.635427 kJ/mol
# Density = 1.965176 g / cm^3
# Si number density = 19.696586 Si / 1000 Ang^3
#
#
#
# Elastic Constant Matrix: (Units=GPa)
#
#
# Indices 1 2 3 4 5 6 
#
# 1 104.8238 28.5275 21.3613 0.0000 -29.6341 0.0000
# 2 28.5275 96.4741 24.0999 0.0000 -7.4954 0.0000
# 3 21.3613 24.0999 84.1915 0.0000 -24.6559 0.0000
# 4 0.0000 0.0000 0.0000 4.3775 0.0000 -4.1372
# 5 -29.6341 -7.4954 -24.6559 0.0000 31.9241 0.0000
# 6 0.0000 0.0000 0.0000 -4.1372 0.0000 19.9764
#
#
#
# Elastic Compliance Matrix: (Units=1/GPa)
#
#
# Indices 1 2 3 4 5 6 
#
# 1 0.013913 -0.003417 0.001286 0.000000 0.013106 0.000000
# 2 -0.003417 0.012004 -0.003454 0.000000 -0.003021 0.000000
# 3 0.001286 -0.003454 0.016350 0.000000 0.013011 0.000000
# 4 0.000000 0.000000 0.000000 0.284038 0.000000 0.058825
# 5 0.013106 -0.003021 0.013011 0.000000 0.052829 0.000000
# 6 0.000000 0.000000 0.000000 0.058825 0.000000 0.062242
#
#
# Mechanical properties :
#
#
# Convention : Reuss Voigt Hill
#
# Bulk Modulus (GPa) = 32.15688 48.16300 40.15994
# Shear Modulus (GPa) = 10.80119 25.35563 18.07841
#
# Velocity S-wave (km/s) = 2.34429 3.59180 3.03288
# Velocity P-wave (km/s) = 4.86715 6.45809 5.71822
#
# Compressibility (1/GPa) = 0.03109755
#
# Stress axis : x y z
#
# Youngs Moduli (GPa) = 71.87672 83.30558 61.16096
#
# Poissons Ratio (x) = 0.28466 -0.07867
# Poissons Ratio (y) = 0.24561 0.21124
# Poissons Ratio (z) = -0.09245 0.28773
#
# Static dielectric constant tensor:
#      x y z
#    x 1.747610 0.000000 -0.018280 
#    y 0.000000 1.650400 0.000000 
#    z -0.018280 0.000000 1.787020 
# 
# From -- ./inp_files/110485.got.cif
#   From: 2010.05.17/outbox.cif.g08.bks.cpg/sg12_56_cif.got.tgz:110485.got - 2010.06.03 13:09:07.
