data_PCOD9175810
_publ_section_title
;
Structure prediction by ZEFSAII (Michael W. Deem and Ramdas Pophale) SiO2 
 PCOD9175810
Probable space group: C 2/M
;
_chemical_formula_sum "Si O2"
_cell_formula_units_Z 40
_cell_length_a 18.604151
_cell_length_b 20.210720
_cell_length_c 6.328293
_cell_angle_alpha 90.000000
_cell_angle_beta 124.567641
_cell_angle_gamma 90.000000
_cell_volume 1959.381998
_symmetry_space_group_name_H-M "C 2/M"
_symmetry_group_IT_number 12
_symmetry_cell_setting 'monoclinic'
loop_
_space_group_symop_operation_xyz
x,y,z
-x,y,-z
-x,-y,-z
x,-y,z
1/2+x,1/2+y,z
1/2-x,1/2+y,-z
1/2-x,1/2-y,-z
1/2+x,1/2-y,z
loop_
_atom_site_type_symbol
_atom_site_label
_atom_site_fract_x
_atom_site_fract_y
_atom_site_fract_z
Si Si1 0.375910 0.926021 0.776151
Si Si2 0.827323 0.200680 0.549258
Si Si3 0.577829 0.184677 0.464188
Si Si4 0.189722 0.072350 0.228058
Si Si5 0.721913 0.131151 0.005323
O O1 0.427466 0.874322 0.715976
O O2 0.280705 0.929238 0.507945
O O3 0.352190 0.902411 0.971772
O O4 0.410488 0.000000 0.830559
O O5 0.750000 0.250000 0.500000
O O6 0.909441 0.246754 0.636528
O O7 0.850154 0.140508 0.746790
O O8 0.786083 0.169830 0.268071
O O9 0.500000 0.184571 0.500000
O O10 0.667417 0.174399 0.747225
O O11 0.146660 0.000000 0.186054
O O12 0.219178 0.082090 0.035260
#
# Coordination Sequence:
#
# PCOD9175810 Si02
#       5
#     8   8   8   8   8
#     4   9  18  33  50  74 107 142 177 210 248 306
#     4  11  19  36  56  78 105 137 176 217 256 305
#     4  11  23  35  50  78 109 139 176 217 260 307
#     4   9  18  31  54  81 103 130 175 222 256 301
#     4  10  18  33  58  75 104 138 177 212 260 305
#
# _framework density 20.4146
#
# number of rings (size 3 to 8) (size 9 to 14) (size 15 to 20)
#    0.000    2.000    6.000    1.200    0.000    2.800 
#    0.000    1.000    0.000    0.600    0.000    1.400 
#    0.000    0.000    0.000    0.000    0.000    0.000 
#
# Total GULP energy -111509.593926 kJ/mol
# GULP energy per Si atom -5575.479696 kJ/mol
# Density = 2.036814 g / cm^3
# Si number density = 20.414600 Si / 1000 Ang^3
#
#
#
# Elastic Constant Matrix: (Units=GPa)
#
#
# Indices 1 2 3 4 5 6 
#
# 1 65.0276 70.5592 15.4316 0.0000 -33.9010 0.0000
# 2 70.5592 190.1308 37.0007 0.0000 -45.0906 0.0000
# 3 15.4316 37.0007 68.0642 0.0000 -30.5742 0.0000
# 4 0.0000 0.0000 0.0000 11.0283 0.0000 -10.4758
# 5 -33.9010 -45.0906 -30.5742 0.0000 32.6294 0.0000
# 6 0.0000 0.0000 0.0000 -10.4758 0.0000 3.9561
#
#
#
# Elastic Compliance Matrix: (Units=1/GPa)
#
#
# Indices 1 2 3 4 5 6 
#
# 1 0.051578 -0.008738 0.020210 0.000000 0.060450 0.000000
# 2 -0.008738 0.009347 -0.002376 0.000000 0.001612 0.000000
# 3 0.020210 -0.002376 0.033429 0.000000 0.049038 0.000000
# 4 0.000000 0.000000 0.000000 -0.059838 0.000000 -0.158451
# 5 0.060450 0.001612 0.049038 0.000000 0.141630 0.000000
# 6 0.000000 0.000000 0.000000 -0.158451 0.000000 -0.166807
#
#
# Mechanical properties :
#
#
# Convention : Reuss Voigt Hill
#
# Bulk Modulus (GPa) = 8.88522 63.24507 36.06514
# Shear Modulus (GPa) = 174.44822 22.87150 98.65986
#
# Velocity S-wave (km/s) = 9.25409 3.35079 6.95938
# Velocity P-wave (km/s) = 10.88789 6.78366 9.07094
#
# Compressibility (1/GPa) = 0.11254651
#
# Stress axis : x y z
#
# Youngs Moduli (GPa) = 19.38817 106.98791 29.91387
#
# Poissons Ratio (x) = 0.93485 -0.60457
# Poissons Ratio (y) = 0.16941 0.07108
# Poissons Ratio (z) = -0.39184 0.25421
#
# Static dielectric constant tensor:
#      x y z
#    x 1.747970 0.000000 -0.030530 
#    y 0.000000 1.807420 0.000000 
#    z -0.030530 0.000000 1.734640 
# 
# From -- ./inp_files/11397.got.cif
#   From: 2010.05.17/outbox.cif.g08.bks.cpg/sg12_6_cif.got.tgz:11397.got - 2010.06.03 13:09:07.
