data_PCOD9175302
_publ_section_title
;
Structure prediction by ZEFSAII (Michael W. Deem and Ramdas Pophale) SiO2 
 PCOD9175302
Probable space group: C 2/M
;
_chemical_formula_sum "Si O2"
_cell_formula_units_Z 56
_cell_length_a 16.337581
_cell_length_b 18.931881
_cell_length_c 24.901260
_cell_angle_alpha 90.000000
_cell_angle_beta 158.487682
_cell_angle_gamma 90.000000
_cell_volume 2824.328647
_symmetry_space_group_name_H-M "C 2/M"
_symmetry_group_IT_number 12
_symmetry_cell_setting 'monoclinic'
loop_
_space_group_symop_operation_xyz
x,y,z
-x,y,-z
-x,-y,-z
x,-y,z
1/2+x,1/2+y,z
1/2-x,1/2+y,-z
1/2-x,1/2-y,-z
1/2+x,1/2-y,z
loop_
_atom_site_type_symbol
_atom_site_label
_atom_site_fract_x
_atom_site_fract_y
_atom_site_fract_z
Si Si1 0.422862 0.709216 0.068482
Si Si2 0.030591 0.919809 0.721930
Si Si3 0.125250 0.211442 0.520113
Si Si4 0.753681 0.861918 0.868639
Si Si5 0.771574 0.216816 0.208127
Si Si6 0.187347 0.423873 0.414431
Si Si7 0.237496 0.852721 0.350742
O O1 0.541659 0.763710 0.099117
O O2 0.615690 0.672403 0.221893
O O3 0.250000 0.750000 0.000000
O O4 0.284109 0.651512 0.950295
O O5 0.828329 0.915986 0.554908
O O6 0.915717 0.906744 0.709671
O O7 0.198116 0.856600 0.805871
O O8 0.122887 0.000000 0.775407
O O9 0.262545 0.141243 0.593628
O O10 0.258356 0.283963 0.607698
O O11 0.000000 0.204656 0.500000
O O12 0.955871 0.216686 0.367430
O O13 0.689814 0.785509 0.804817
O O14 0.575769 0.916978 0.738581
O O15 0.000000 0.880657 0.000000
O O16 0.247269 0.500000 0.427637
O O17 0.500000 0.871526 0.500000
#
# Coordination Sequence:
#
# PCOD9175302 Si02
#       7
#     8   8   8   8   8   8   8
#     4  11  21  35  59  90 118 148 192 251 305 351
#     4  10  22  38  62  89 121 160 202 246 300 362
#     4  10  18  32  58  86 116 145 195 247 299 342
#     4  10  22  35  57  83 113 152 199 243 290 349
#     4  10  19  37  59  88 115 153 198 247 294 352
#     4  10  21  36  55  82 116 159 195 238 294 356
#     4  11  21  37  62  90 119 154 200 258 310 345
#
# _framework density 19.827722000000001
#
# number of rings (size 3 to 8) (size 9 to 14) (size 15 to 20)
#    0.000    1.714    2.857    3.429    2.000    3.143 
#    0.000    0.714    0.000   10.714    0.000    0.000 
#    0.000    0.000    0.000    0.000    0.000    0.000 
#
# Total GULP energy -156155.607659 kJ/mol
# GULP energy per Si atom -5576.985988 kJ/mol
# Density = 1.978259 g / cm^3
# Si number density = 19.827722 Si / 1000 Ang^3
#
#
#
# Elastic Constant Matrix: (Units=GPa)
#
#
# Indices 1 2 3 4 5 6 
#
# 1 57.2278 17.6441 9.1975 0.0103 0.7657 0.0084
# 2 17.6441 85.4667 12.6762 0.0017 4.7917 -0.0088
# 3 9.1975 12.6762 69.2787 -0.0066 -3.9557 -0.0072
# 4 0.0103 0.0017 -0.0066 14.0510 0.0052 -0.4369
# 5 0.7657 4.7917 -3.9557 0.0052 24.6564 0.0105
# 6 0.0084 -0.0088 -0.0072 -0.4369 0.0105 12.4235
#
#
#
# Elastic Compliance Matrix: (Units=1/GPa)
#
#
# Indices 1 2 3 4 5 6 
#
# 1 0.018889 -0.003614 -0.001857 -0.000015 -0.000182 -0.000017
# 2 -0.003614 0.012901 -0.002036 0.000002 -0.002722 0.000013
# 3 -0.001857 -0.002036 0.015219 0.000008 0.002895 0.000006
# 4 -0.000015 0.000002 0.000008 0.071247 -0.000015 0.002506
# 5 -0.000182 -0.002722 0.002895 -0.000015 0.041556 -0.000036
# 6 -0.000017 0.000013 0.000006 0.002506 -0.000036 0.080581
#
#
# Mechanical properties :
#
#
# Convention : Reuss Voigt Hill
#
# Bulk Modulus (GPa) = 31.25478 32.33430 31.79454
# Shear Modulus (GPa) = 18.79187 21.72322 20.25754
#
# Velocity S-wave (km/s) = 3.08191 3.31357 3.19984
# Velocity P-wave (km/s) = 5.33494 5.56621 5.45180
#
# Compressibility (1/GPa) = 0.03199511
#
# Stress axis : x y z
#
# Youngs Moduli (GPa) = 52.94057 77.51262 65.70807
#
# Poissons Ratio (x) = 0.28012 0.12201
# Poissons Ratio (y) = 0.19132 0.13379
# Poissons Ratio (z) = 0.09830 0.15783
#
# Static dielectric constant tensor:
#      x y z
#    x 1.691670 0.000000 0.057920 
#    y 0.000000 1.707160 -0.000010 
#    z 0.057920 -0.000010 1.717010 
# 
# From -- ./inp_files/364425.got.cif
#   From: 2010.05.17/outbox.cif.g08.bks.cpg/sg12_183_cif.got.tgz:364425.got - 2010.06.03 13:09:07.
