data_PCOD9175314
_publ_section_title
;
Structure prediction by ZEFSAII (Michael W. Deem and Ramdas Pophale) SiO2 
 PCOD9175314
Probable space group: C 2/M
;
_chemical_formula_sum "Si O2"
_cell_formula_units_Z 56
_cell_length_a 28.510670
_cell_length_b 21.203186
_cell_length_c 7.977182
_cell_angle_alpha 90.000000
_cell_angle_beta 33.859368
_cell_angle_gamma 90.000000
_cell_volume 2686.798740
_symmetry_space_group_name_H-M "C 2/M"
_symmetry_group_IT_number 12
_symmetry_cell_setting 'monoclinic'
loop_
_space_group_symop_operation_xyz
x,y,z
-x,y,-z
-x,-y,-z
x,-y,z
1/2+x,1/2+y,z
1/2-x,1/2+y,-z
1/2-x,1/2-y,-z
1/2+x,1/2-y,z
loop_
_atom_site_type_symbol
_atom_site_label
_atom_site_fract_x
_atom_site_fract_y
_atom_site_fract_z
Si Si1 0.802796 0.832138 0.670008
Si Si2 0.922034 0.613536 0.128497
Si Si3 0.271678 0.071751 0.368097
Si Si4 0.536434 0.365335 0.626685
Si Si5 0.986941 0.277403 0.347039
Si Si6 0.613403 0.427036 0.069884
Si Si7 0.184400 0.304646 0.319384
O O1 0.748305 0.877525 0.715689
O O2 0.896512 0.859489 0.422077
O O3 0.801951 0.759008 0.612825
O O4 0.761595 0.825199 0.976523
O O5 0.866436 0.576736 0.158318
O O6 0.853917 0.638896 0.462125
O O7 0.000000 0.583141 0.000000
O O8 0.961491 0.675516 0.923405
O O9 0.256607 0.000000 0.354660
O O10 0.203136 0.084963 0.718175
O O11 0.494519 0.296185 0.735153
O O12 0.588270 0.384311 0.303816
O O13 0.459378 0.413962 0.852125
O O14 0.889532 0.284861 0.589057
O O15 0.000000 0.294420 0.500000
O O16 0.610510 0.500000 0.131729
#
# Coordination Sequence:
#
# PCOD9175314 Si02
#       7
#     8   8   8   8   8   8   8
#     4  10  21  36  57  86 121 154 196 247 296 354
#     4  10  22  40  62  86 117 152 195 250 309 366
#     4  11  25  41  59  86 119 159 207 250 293 349
#     4  10  19  34  57  85 120 159 198 237 291 346
#     4  10  18  32  58  89 121 149 186 247 301 354
#     4  10  21  37  56  83 120 165 208 238 279 350
#     4   9  20  36  57  88 118 152 194 240 307 361
#
# _framework density 20.842646999999999
#
# number of rings (size 3 to 8) (size 9 to 14) (size 15 to 20)
#    0.000    2.000    1.429    2.571    2.000    2.571 
#    0.000    2.143    0.000    8.143    0.000    0.000 
#    0.000    0.000    0.000    0.000    0.000    0.000 
#
# Total GULP energy -156218.315317 kJ/mol
# GULP energy per Si atom -5579.225547 kJ/mol
# Density = 2.079521 g / cm^3
# Si number density = 20.842647 Si / 1000 Ang^3
#
#
#
# Elastic Constant Matrix: (Units=GPa)
#
#
# Indices 1 2 3 4 5 6 
#
# 1 85.0105 32.6351 8.7077 0.0000 -20.5282 0.0000
# 2 32.6351 64.0578 20.3169 0.0000 -10.4871 0.0000
# 3 8.7077 20.3169 63.9591 0.0000 -17.3258 0.0000
# 4 0.0000 0.0000 0.0000 14.8553 0.0000 -1.2907
# 5 -20.5282 -10.4871 -17.3258 0.0000 29.3775 0.0000
# 6 0.0000 0.0000 0.0000 -1.2907 0.0000 4.3115
#
#
#
# Elastic Compliance Matrix: (Units=1/GPa)
#
#
# Indices 1 2 3 4 5 6 
#
# 1 0.017146 -0.007938 0.003172 0.000000 0.011018 0.000000
# 2 -0.007938 0.021343 -0.006115 0.000000 -0.001534 0.000000
# 3 0.003172 -0.006115 0.020416 0.000000 0.012074 0.000000
# 4 0.000000 0.000000 0.000000 0.069113 0.000000 0.020690
# 5 0.011018 -0.001534 0.012074 0.000000 0.048313 0.000000
# 6 0.000000 0.000000 0.000000 0.020690 0.000000 0.238132
#
#
# Mechanical properties :
#
#
# Convention : Reuss Voigt Hill
#
# Bulk Modulus (GPa) = 26.92148 37.37187 32.14668
# Shear Modulus (GPa) = 11.14564 19.80004 15.47284
#
# Velocity S-wave (km/s) = 2.31498 3.08551 2.72759
# Velocity P-wave (km/s) = 4.48220 5.53744 5.03753
#
# Compressibility (1/GPa) = 0.03714506
#
# Stress axis : x y z
#
# Youngs Moduli (GPa) = 58.32175 46.85380 48.98050
#
# Poissons Ratio (x) = 0.37190 -0.15536
# Poissons Ratio (y) = 0.46293 0.29949
# Poissons Ratio (z) = -0.18498 0.28649
#
# Static dielectric constant tensor:
#      x y z
#    x 1.771850 0.000000 -0.020800 
#    y 0.000000 1.742780 0.000000 
#    z -0.020800 0.000000 1.774350 
# 
# From -- ./inp_files/113346.got.cif
#   From: 2010.05.17/outbox.cif.g08.bks.cpg/sg12_57_cif.got.tgz:113346.got - 2010.06.03 13:09:07.
