data_PCOD9175290
_publ_section_title
;
Structure prediction by ZEFSAII (Michael W. Deem and Ramdas Pophale) SiO2 
 PCOD9175290
Probable space group: C 2/M
;
_chemical_formula_sum "Si O2"
_cell_formula_units_Z 64
_cell_length_a 20.353609
_cell_length_b 7.422416
_cell_length_c 21.248217
_cell_angle_alpha 90.000000
_cell_angle_beta 58.560669
_cell_angle_gamma 90.000000
_cell_volume 2738.775713
_symmetry_space_group_name_H-M "C 2/M"
_symmetry_group_IT_number 12
_symmetry_cell_setting 'monoclinic'
loop_
_space_group_symop_operation_xyz
x,y,z
-x,y,-z
-x,-y,-z
x,-y,z
1/2+x,1/2+y,z
1/2-x,1/2+y,-z
1/2-x,1/2-y,-z
1/2+x,1/2-y,z
loop_
_atom_site_type_symbol
_atom_site_label
_atom_site_fract_x
_atom_site_fract_y
_atom_site_fract_z
Si Si1 0.370900 0.218027 0.221849
Si Si2 0.583602 0.295806 0.306894
Si Si3 0.184983 0.714843 0.981411
Si Si4 0.639926 0.210490 0.415032
Si Si5 0.420732 0.718931 0.422987
Si Si6 0.800981 0.792236 0.385593
Si Si7 0.255697 0.279205 0.815034
Si Si8 0.986061 0.719724 0.934246
O O1 0.360292 0.284778 0.297753
O O2 0.296119 0.273611 0.218599
O O3 0.446550 0.278991 0.146304
O O4 0.371863 0.000000 0.223414
O O5 0.575091 0.500000 0.287382
O O6 0.610257 0.300410 0.366561
O O7 0.498668 0.214109 0.350871
O O8 0.656524 0.214725 0.234337
O O9 0.177525 0.500000 0.978413
O O10 0.213751 0.781424 0.899303
O O11 0.250000 0.750000 0.000000
O O12 0.099701 0.780404 0.041119
O O13 0.583213 0.227277 0.502470
O O14 0.721250 0.287688 0.399872
O O15 0.650107 0.000000 0.394237
O O16 0.421686 0.500000 0.420281
O O17 0.344920 0.784239 0.423954
O O18 0.783435 0.000000 0.409122
O O19 0.257587 0.500000 0.813826
O O20 0.988954 0.500000 0.931928
O O21 0.000000 0.772310 0.000000
#
# Coordination Sequence:
#
# PCOD9175290 Si02
#       8
#     8   8   8   8   8   8   8   8
#     4  10  18  32  58  84 103 136 186 229 263 309
#     4  10  20  36  58  81 104 139 186 224 259 316
#     4  10  20  35  55  82 114 144 178 220 268 318
#     4  11  22  36  56  81 109 140 176 222 273 320
#     4  10  22  38  55  76 107 144 180 219 265 321
#     4  10  22  38  54  79 112 143 174 219 276 321
#     4   9  17  32  56  80 103 138 182 220 257 312
#     4   9  16  30  55  82 105 136 181 226 260 301
#
# _framework density 23.368106000000001
#
# number of rings (size 3 to 8) (size 9 to 14) (size 15 to 20)
#    0.000    2.125    2.500    1.125    0.000    4.000 
#    0.000    3.125    0.000    0.750    0.000    0.000 
#    0.000    0.000    0.000    0.000    0.000    0.000 
#
# Total GULP energy -178881.307991 kJ/mol
# GULP energy per Si atom -5590.040875 kJ/mol
# Density = 2.331492 g / cm^3
# Si number density = 23.368106 Si / 1000 Ang^3
#
#
#
# Elastic Constant Matrix: (Units=GPa)
#
#
# Indices 1 2 3 4 5 6 
#
# 1 84.9613 -0.9401 -5.5147 0.0008 -18.4782 0.0040
# 2 -0.9401 83.4358 -5.4787 0.0019 -5.0234 0.0069
# 3 -5.5147 -5.4787 76.8139 -0.0011 -21.1408 0.0008
# 4 0.0008 0.0019 -0.0011 -9.1181 -0.0005 8.7553
# 5 -18.4782 -5.0234 -21.1408 -0.0005 47.7064 0.0007
# 6 0.0040 0.0069 0.0008 8.7553 0.0007 7.8766
#
#
#
# Elastic Compliance Matrix: (Units=1/GPa)
#
#
# Indices 1 2 3 4 5 6 
#
# 1 0.013373 0.000726 0.002800 -0.000004 0.006497 -0.000004
# 2 0.000726 0.012231 0.001545 -0.000004 0.002253 -0.000007
# 3 0.002800 0.001545 0.015572 -0.000003 0.008148 -0.000002
# 4 -0.000004 -0.000004 -0.000003 -0.053050 -0.000005 0.058968
# 5 0.006497 0.002253 0.008148 -0.000005 0.027326 -0.000003
# 6 -0.000004 -0.000007 -0.000002 0.058968 -0.000003 0.061412
#
#
# Mechanical properties :
#
#
# Convention : Reuss Voigt Hill
#
# Bulk Modulus (GPa) = 19.48711 24.59375 22.04043
# Shear Modulus (GPa) = 59.64599 26.43595 43.04097
#
# Velocity S-wave (km/s) = 5.05766 3.36710 4.29636
# Velocity P-wave (km/s) = 6.51643 5.06595 5.83643
#
# Compressibility (1/GPa) = 0.05131597
#
# Stress axis : x y z
#
# Youngs Moduli (GPa) = 74.77836 81.76253 64.21739
#
# Poissons Ratio (x) = -0.05933 -0.17980
# Poissons Ratio (y) = -0.05427 -0.09919
# Poissons Ratio (z) = -0.20937 -0.12629
#
# Static dielectric constant tensor:
#      x y z
#    x 1.880660 0.000000 -0.041770 
#    y 0.000000 1.893670 0.000000 
#    z -0.041770 0.000000 1.846310 
# 
# From -- ./inp_files/319973.got.cif
#   From: 2010.05.17/outbox.cif.g08.bks.cpg/sg12_160_cif.got.tgz:319973.got - 2010.06.03 13:09:07.
