data_PCOD9175817
_publ_section_title
;
Structure prediction by ZEFSAII (Michael W. Deem and Ramdas Pophale) SiO2 
 PCOD9175817
Probable space group: C 2/M
;
_chemical_formula_sum "Si O2"
_cell_formula_units_Z 56
_cell_length_a 19.892348
_cell_length_b 7.703185
_cell_length_c 20.104118
_cell_angle_alpha 90.000000
_cell_angle_beta 64.465206
_cell_angle_gamma 90.000000
_cell_volume 2779.737312
_symmetry_space_group_name_H-M "C 2/M"
_symmetry_group_IT_number 12
_symmetry_cell_setting 'monoclinic'
loop_
_space_group_symop_operation_xyz
x,y,z
-x,y,-z
-x,-y,-z
x,-y,z
1/2+x,1/2+y,z
1/2-x,1/2+y,-z
1/2-x,1/2-y,-z
1/2+x,1/2-y,z
loop_
_atom_site_type_symbol
_atom_site_label
_atom_site_fract_x
_atom_site_fract_y
_atom_site_fract_z
Si Si1 0.372287 0.211890 0.758791
Si Si2 0.197770 0.206662 0.584028
Si Si3 0.037344 0.696084 0.047514
Si Si4 0.174690 0.290593 0.072394
Si Si5 0.592670 0.696251 0.812387
Si Si6 0.543388 0.796111 0.691622
Si Si7 0.750369 0.712084 0.707063
O O1 0.338790 0.268507 0.845217
O O2 0.459077 0.261535 0.712554
O O3 0.321976 0.270174 0.718012
O O4 0.369950 0.000000 0.760001
O O5 0.250000 0.250000 0.500000
O O6 0.113011 0.275135 0.612006
O O7 0.235080 0.271472 0.637798
O O8 0.192379 0.000000 0.591598
O O9 0.060374 0.500000 0.017554
O O10 0.106851 0.777269 0.055654
O O11 0.969671 0.689973 0.127460
O O12 0.000000 0.784225 0.000000
O O13 0.168426 0.500000 0.078417
O O14 0.250000 0.250000 0.000000
O O15 0.588888 0.500000 0.840311
O O16 0.572229 0.695174 0.743666
O O17 0.676878 0.761033 0.780499
O O18 0.538566 0.000000 0.710353
O O19 0.751567 0.500000 0.704457
#
# Coordination Sequence:
#
# PCOD9175817 Si02
#       7
#     8   8   8   8   8   8   8
#     4   9  17  33  55  76 104 139 179 221 265 317
#     4  10  20  36  58  84 113 141 175 216 260 313
#     4  10  21  36  51  70 102 138 178 224 274 325
#     4  10  21  36  52  74 104 142 180 223 275 321
#     4  10  19  32  52  76 102 134 178 224 264 311
#     4  10  18  33  58  81 105 140 175 212 265 317
#     4   8  17  32  52  79 105 132 173 221 259 305
#
# _framework density 20.145789000000001
#
# number of rings (size 3 to 8) (size 9 to 14) (size 15 to 20)
#    0.000    2.429    1.429    2.143    2.000    0.857 
#    0.000    0.714    0.000   15.429    0.000    0.000 
#    0.000    0.000    0.000    0.000    0.000    0.000 
#
# Total GULP energy -155998.929424 kJ/mol
# GULP energy per Si atom -5571.390337 kJ/mol
# Density = 2.009994 g / cm^3
# Si number density = 20.145789 Si / 1000 Ang^3
#
#
#
# Elastic Constant Matrix: (Units=GPa)
#
#
# Indices 1 2 3 4 5 6 
#
# 1 176.1369 6.4240 79.3790 0.0000 -16.9102 -0.0001
# 2 6.4240 44.6150 3.0724 -0.0001 0.1697 0.0000
# 3 79.3790 3.0724 125.2196 0.0000 -21.4499 0.0000
# 4 0.0000 -0.0001 0.0000 32.2481 0.0000 -29.8143
# 5 -16.9102 0.1697 -21.4499 0.0000 27.2590 0.0001
# 6 -0.0001 0.0000 0.0000 -29.8143 0.0001 63.0192
#
#
#
# Elastic Compliance Matrix: (Units=1/GPa)
#
#
# Indices 1 2 3 4 5 6 
#
# 1 0.008008 -0.000823 -0.004859 0.000000 0.001149 0.000000
# 2 -0.000823 0.022547 -0.000165 0.000000 -0.000781 0.000000
# 3 -0.004859 -0.000165 0.012198 0.000000 0.006585 0.000000
# 4 0.000000 0.000000 0.000000 0.055118 0.000000 0.026076
# 5 0.001149 -0.000781 0.006585 0.000000 0.042585 0.000000
# 6 0.000000 0.000000 0.000000 0.026076 0.000000 0.028205
#
#
# Mechanical properties :
#
#
# Convention : Reuss Voigt Hill
#
# Bulk Modulus (GPa) = 32.19764 58.19135 45.19449
# Shear Modulus (GPa) = 26.21816 41.64500 33.93158
#
# Velocity S-wave (km/s) = 3.61144 4.55156 4.10848
# Velocity P-wave (km/s) = 5.77988 7.52131 6.70735
#
# Compressibility (1/GPa) = 0.03105818
#
# Stress axis : x y z
#
# Youngs Moduli (GPa) = 124.88189 44.35219 81.97797
#
# Poissons Ratio (x) = 0.03649 0.39834
# Poissons Ratio (y) = 0.10275 0.01356
# Poissons Ratio (z) = 0.60682 0.00734
#
# Static dielectric constant tensor:
#      x y z
#    x 1.728170 0.000000 0.002610 
#    y 0.000000 1.809840 0.000000 
#    z 0.002610 0.000000 1.778640 
# 
# From -- ./inp_files/313685.got.cif
#   From: 2010.05.17/outbox.cif.g08.bks.cpg/sg12_157_cif.got.tgz:313685.got - 2010.06.03 13:09:07.
