data_PCOD9175667
_publ_section_title
;
Structure prediction by ZEFSAII (Michael W. Deem and Ramdas Pophale) SiO2 
 PCOD9175667
Probable space group: C 2/M
;
_chemical_formula_sum "Si O2"
_cell_formula_units_Z 56
_cell_length_a 30.963740
_cell_length_b 8.596936
_cell_length_c 12.865078
_cell_angle_alpha 90.000000
_cell_angle_beta 74.578712
_cell_angle_gamma 90.000000
_cell_volume 3301.300546
_symmetry_space_group_name_H-M "C 2/M"
_symmetry_group_IT_number 12
_symmetry_cell_setting 'monoclinic'
loop_
_space_group_symop_operation_xyz
x,y,z
-x,y,-z
-x,-y,-z
x,-y,z
1/2+x,1/2+y,z
1/2-x,1/2+y,-z
1/2-x,1/2-y,-z
1/2+x,1/2-y,z
loop_
_atom_site_type_symbol
_atom_site_label
_atom_site_fract_x
_atom_site_fract_y
_atom_site_fract_z
Si Si1 0.392101 0.185948 0.606458
Si Si2 0.295953 0.312534 0.348251
Si Si3 0.956251 0.186583 0.738419
Si Si4 0.199594 0.814490 0.411301
Si Si5 0.945953 0.313434 0.364838
Si Si6 0.047119 0.810579 0.020846
Si Si7 0.890677 0.188285 0.203754
O O1 0.416438 0.258668 0.689897
O O2 0.341020 0.238210 0.624550
O O3 0.419240 0.236131 0.485329
O O4 0.394576 0.000000 0.611386
O O5 0.292033 0.500000 0.346767
O O6 0.248883 0.239398 0.345426
O O7 0.304287 0.269054 0.463934
O O8 0.339399 0.263451 0.255306
O O9 0.003324 0.253225 0.667390
O O10 0.958985 0.000000 0.736244
O O11 0.949770 0.239961 0.861930
O O12 0.195992 0.000000 0.407398
O O13 0.946008 0.500000 0.361053
O O14 0.920735 0.248576 0.279696
O O15 0.086971 0.761139 0.918698
O O16 0.046932 0.000000 0.021740
O O17 0.000000 0.761182 0.000000
O O18 0.891849 0.000000 0.206787
#
# Coordination Sequence:
#
# PCOD9175667 Si02
#       7
#     8   8   8   8   8   8   8
#     4  11  23  37  52  74 109 143 174 216 264 310
#     4   9  18  31  51  79 108 137 169 210 262 312
#     4  11  22  36  55  76 103 141 182 217 256 311
#     4  10  19  32  53  79 106 136 174 212 257 317
#     4  11  22  34  50  76 109 142 173 212 262 308
#     4   9  17  32  55  79 103 134 175 222 260 295
#     4  10  18  33  56  79 106 139 176 213 256 311
#
# _framework density 16.963011999999999
#
# number of rings (size 3 to 8) (size 9 to 14) (size 15 to 20)
#    0.000    1.857    2.857    2.143    0.000    4.571 
#    0.000    2.143    0.000    0.857    0.000    0.000 
#    0.000    0.000    0.000    0.000    0.000    0.000 
#
# Total GULP energy -156321.502205 kJ/mol
# GULP energy per Si atom -5582.910793 kJ/mol
# Density = 1.692440 g / cm^3
# Si number density = 16.963012 Si / 1000 Ang^3
#
#
#
# Elastic Constant Matrix: (Units=GPa)
#
#
# Indices 1 2 3 4 5 6 
#
# 1 131.2723 16.9609 61.5063 0.0000 -7.9753 0.0000
# 2 16.9609 15.0842 13.0221 0.0000 -1.8209 0.0000
# 3 61.5063 13.0221 72.6407 0.0000 -1.9431 0.0000
# 4 0.0000 0.0000 0.0000 13.9151 0.0000 -1.4050
# 5 -7.9753 -1.8209 -1.9431 0.0000 30.0226 0.0000
# 6 0.0000 0.0000 0.0000 -1.4050 0.0000 29.3643
#
#
#
# Elastic Compliance Matrix: (Units=1/GPa)
#
#
# Indices 1 2 3 4 5 6 
#
# 1 0.013269 -0.005886 -0.010113 0.000000 0.002513 0.000000
# 2 -0.005886 0.081492 -0.009551 0.000000 0.002761 0.000000
# 3 -0.010113 -0.009551 0.023995 0.000000 -0.001713 0.000000
# 4 0.000000 0.000000 0.000000 0.072213 0.000000 0.003455
# 5 0.002513 0.002761 -0.001713 0.000000 0.034033 0.000000
# 6 0.000000 0.000000 0.000000 0.003455 0.000000 0.034220
#
#
# Mechanical properties :
#
#
# Convention : Reuss Voigt Hill
#
# Bulk Modulus (GPa) = 14.78055 44.66398 29.72227
# Shear Modulus (GPa) = 15.02065 23.16092 19.09078
#
# Velocity S-wave (km/s) = 2.97895 3.69911 3.35839
# Velocity P-wave (km/s) = 4.53481 6.68071 5.70949
#
# Compressibility (1/GPa) = 0.06765647
#
# Stress axis : x y z
#
# Youngs Moduli (GPa) = 75.36196 12.27116 41.67449
#
# Poissons Ratio (x) = 0.07223 0.42145
# Poissons Ratio (y) = 0.44361 0.39802
# Poissons Ratio (z) = 0.76213 0.11720
#
# Static dielectric constant tensor:
#      x y z
#    x 1.548950 0.000000 -0.014990 
#    y 0.000000 1.575310 0.000000 
#    z -0.014990 0.000000 1.570120 
# 
# From -- ./inp_files/186401.got.cif
#   From: 2010.05.17/outbox.cif.g08.bks.cpg/sg12_94_cif.got.tgz:186401.got - 2010.06.03 13:09:07.
