data_PCOD9175183
_publ_section_title
;
Structure prediction by ZEFSAII (Michael W. Deem and Ramdas Pophale) SiO2 
 PCOD9175183
Probable space group: C 2/M
;
_chemical_formula_sum "Si O2"
_cell_formula_units_Z 56
_cell_length_a 27.200283
_cell_length_b 16.349030
_cell_length_c 10.224055
_cell_angle_alpha 90.000000
_cell_angle_beta 136.983400
_cell_angle_gamma 90.000000
_cell_volume 3101.750160
_symmetry_space_group_name_H-M "C 2/M"
_symmetry_group_IT_number 12
_symmetry_cell_setting 'monoclinic'
loop_
_space_group_symop_operation_xyz
x,y,z
-x,y,-z
-x,-y,-z
x,-y,z
1/2+x,1/2+y,z
1/2-x,1/2+y,-z
1/2-x,1/2-y,-z
1/2+x,1/2-y,z
loop_
_atom_site_type_symbol
_atom_site_label
_atom_site_fract_x
_atom_site_fract_y
_atom_site_fract_z
Si Si1 0.384309 0.500000 0.337982
Si Si2 0.572873 0.669834 0.991908
Si Si3 0.034809 0.000000 0.783128
Si Si4 0.658990 0.772780 0.958966
Si Si5 0.538277 0.094051 0.707002
Si Si6 0.824366 0.822892 0.275678
Si Si7 0.413478 0.268733 0.700784
Si Si8 0.560660 0.910172 0.230374
O O1 0.452702 0.500000 0.570295
O O2 0.416782 0.500000 0.254349
O O3 0.339208 0.417667 0.272782
O O4 0.551762 0.580185 0.900995
O O5 0.633421 0.707738 0.016852
O O6 0.499174 0.723263 0.837695
O O7 0.596700 0.677306 0.188795
O O8 0.605478 0.849030 0.867018
O O9 0.650969 0.730651 0.801304
O O10 0.740720 0.801997 0.133862
O O11 0.500000 0.122873 0.500000
O O12 0.480689 0.094295 0.711902
O O13 0.561462 0.000000 0.732429
O O14 0.869505 0.798922 0.491254
O O15 0.395521 0.173807 0.696273
O O16 0.597000 0.000000 0.292361
O O17 0.500000 0.908129 0.000000
#
# Coordination Sequence:
#
# PCOD9175183 Si02
#       8
#     4   8   4   8   8   8   8   8
#     4  11  22  39  64  97 119 166 207 264 316 365
#     4  11  22  38  63  91 120 161 204 257 313 360
#     4  11  22  38  67  94 125 154 214 269 313 362
#     4  11  23  40  59  86 117 165 199 250 310 375
#     4  10  20  33  55  84 111 142 190 243 292 346
#     4  11  25  39  60  87 123 162 209 248 315 379
#     4  11  21  38  61  92 124 160 201 261 309 367
#     4  10  18  32  56  85 114 148 191 238 290 349
#
# _framework density 18.054324000000001
#
# number of rings (size 3 to 8) (size 9 to 14) (size 15 to 20)
#    0.000    1.286    5.714    0.857    1.000    2.286 
#    0.000    0.000    3.143    0.000    0.000    0.000 
#    0.000    0.000    0.000    0.000    0.000    0.000 
#
# Total GULP energy -156314.145986 kJ/mol
# GULP energy per Si atom -5582.648071 kJ/mol
# Density = 1.801323 g / cm^3
# Si number density = 18.054324 Si / 1000 Ang^3
#
#
#
# Elastic Constant Matrix: (Units=GPa)
#
#
# Indices 1 2 3 4 5 6 
#
# 1 66.4405 20.3728 37.6440 0.0000 -13.3732 0.0000
# 2 20.3728 119.3906 27.4938 0.0000 2.1224 0.0000
# 3 37.6440 27.4938 97.5219 0.0000 -25.2264 0.0000
# 4 0.0000 0.0000 0.0000 25.1527 0.0000 -4.9947
# 5 -13.3732 2.1224 -25.2264 0.0000 23.2649 0.0000
# 6 0.0000 0.0000 0.0000 -4.9947 0.0000 28.9932
#
#
#
# Elastic Compliance Matrix: (Units=1/GPa)
#
#
# Indices 1 2 3 4 5 6 
#
# 1 0.020072 -0.002217 -0.005679 0.000000 0.005582 0.000000
# 2 -0.002217 0.009630 -0.003358 0.000000 -0.005794 0.000000
# 3 -0.005679 -0.003358 0.017550 0.000000 0.016072 0.000000
# 4 0.000000 0.000000 0.000000 0.041165 0.000000 0.007092
# 5 0.005582 -0.005794 0.016072 0.000000 0.064148 0.000000
# 6 0.000000 0.000000 0.000000 0.007092 0.000000 0.035712
#
#
# Mechanical properties :
#
#
# Convention : Reuss Voigt Hill
#
# Bulk Modulus (GPa) = 40.41175 50.48602 45.44889
# Shear Modulus (GPa) = 22.82748 28.67167 25.74957
#
# Velocity S-wave (km/s) = 3.55967 3.98939 3.78064
# Velocity P-wave (km/s) = 6.27112 7.01744 6.65475
#
# Compressibility (1/GPa) = 0.02474528
#
# Stress axis : x y z
#
# Youngs Moduli (GPa) = 49.82081 103.83730 56.97863
#
# Poissons Ratio (x) = 0.23016 0.32358
# Poissons Ratio (y) = 0.11043 0.19135
# Poissons Ratio (z) = 0.28293 0.34871
#
# Static dielectric constant tensor:
#      x y z
#    x 1.606560 0.000000 -0.018670 
#    y 0.000000 1.636900 0.000000 
#    z -0.018670 0.000000 1.586470 
# 
# From -- ./inp_files/106062.got.cif
#   From: 2010.05.17/outbox.cif.g08.bks.cpg/sg12_54_cif.got.tgz:106062.got - 2010.06.03 13:09:07.
