data_PCOD9175744
_publ_section_title
;
Structure prediction by ZEFSAII (Michael W. Deem and Ramdas Pophale) SiO2 
 PCOD9175744
Probable space group: C 2/M
;
_chemical_formula_sum "Si O2"
_cell_formula_units_Z 56
_cell_length_a 25.445414
_cell_length_b 7.344989
_cell_length_c 11.725021
_cell_angle_alpha 90.000000
_cell_angle_beta 76.468838
_cell_angle_gamma 90.000000
_cell_volume 2130.536803
_symmetry_space_group_name_H-M "C 2/M"
_symmetry_group_IT_number 12
_symmetry_cell_setting 'monoclinic'
loop_
_space_group_symop_operation_xyz
x,y,z
-x,y,-z
-x,-y,-z
x,-y,z
1/2+x,1/2+y,z
1/2-x,1/2+y,-z
1/2-x,1/2-y,-z
1/2+x,1/2-y,z
loop_
_atom_site_type_symbol
_atom_site_label
_atom_site_fract_x
_atom_site_fract_y
_atom_site_fract_z
Si Si1 0.320809 0.782393 0.144061
Si Si2 0.216127 0.714841 0.320884
Si Si3 0.454906 0.202105 0.852435
Si Si4 0.072936 0.277960 0.789315
Si Si5 0.447126 0.711735 0.602782
Si Si6 0.861160 0.295124 0.462978
Si Si7 0.332701 0.222895 0.895680
O O1 0.279636 0.732654 0.264992
O O2 0.381353 0.726171 0.143888
O O3 0.320974 0.000000 0.139267
O O4 0.303356 0.717025 0.027447
O O5 0.204561 0.500000 0.331478
O O6 0.192173 0.790635 0.451612
O O7 0.189384 0.786357 0.215590
O O8 0.512983 0.287500 0.852614
O O9 0.459999 0.190688 0.713041
O O10 0.394682 0.280849 0.888196
O O11 0.451994 0.000000 0.907626
O O12 0.068095 0.500000 0.786058
O O13 0.100185 0.215948 0.655574
O O14 0.500000 0.719234 0.500000
O O15 0.434335 0.500000 0.631923
O O16 0.399156 0.797476 0.555403
O O17 0.848195 0.500000 0.429004
O O18 0.332385 0.000000 0.890323
#
# Coordination Sequence:
#
# PCOD9175744 Si02
#       7
#     8   8   8   8   8   8   8
#     4  10  21  37  53  76 110 141 177 224 266 309
#     4  10  20  35  55  79 102 136 185 225 262 312
#     4  10  18  33  57  80 104 141 179 213 260 318
#     4   9  19  33  54  81 106 140 179 213 259 318
#     4  11  21  31  48  81 116 139 167 216 271 316
#     4  10  19  34  56  78 105 139 180 219 256 316
#     4   9  18  33  56  82 105 133 177 227 266 305
#
# _framework density 26.284457
#
# number of rings (size 3 to 8) (size 9 to 14) (size 15 to 20)
#    0.000    2.143    2.857    0.857    0.000    2.286 
#    0.000    5.000    0.000    0.000    0.000    2.000 
#    0.000    0.000    0.000    0.000    0.000    0.000 
#
# Total GULP energy -156403.588099 kJ/mol
# GULP energy per Si atom -5585.842432 kJ/mol
# Density = 2.622463 g / cm^3
# Si number density = 26.284457 Si / 1000 Ang^3
#
#
#
# Elastic Constant Matrix: (Units=GPa)
#
#
# Indices 1 2 3 4 5 6 
#
# 1 92.5848 -9.2024 -22.1152 0.0000 8.0002 0.0000
# 2 -9.2024 105.3592 -0.3273 0.0000 -1.9390 0.0000
# 3 -22.1152 -0.3273 68.3944 0.0000 5.9157 0.0000
# 4 0.0000 0.0000 0.0000 -10.2146 0.0000 -13.7817
# 5 8.0002 -1.9390 5.9157 0.0000 26.7744 0.0000
# 6 0.0000 0.0000 0.0000 -13.7817 0.0000 -12.4174
#
#
#
# Elastic Compliance Matrix: (Units=1/GPa)
#
#
# Indices 1 2 3 4 5 6 
#
# 1 0.012347 0.001008 0.004394 0.000000 -0.004587 0.000000
# 2 0.001008 0.009586 0.000344 0.000000 0.000317 0.000000
# 3 0.004394 0.000344 0.016470 0.000000 -0.004927 0.000000
# 4 0.000000 0.000000 0.000000 0.196802 0.000000 -0.218425
# 5 -0.004587 0.000317 -0.004927 0.000000 0.039831 0.000000
# 6 0.000000 0.000000 0.000000 -0.218425 0.000000 0.161891
#
#
# Mechanical properties :
#
#
# Convention : Reuss Voigt Hill
#
# Bulk Modulus (GPa) = 20.04223 22.56097 21.30160
# Shear Modulus (GPa) = 11.31049 20.69404 16.00227
#
# Velocity S-wave (km/s) = 2.07664 2.80895 2.47009
# Velocity P-wave (km/s) = 3.65946 4.37290 4.03199
#
# Compressibility (1/GPa) = 0.04989465
#
# Stress axis : x y z
#
# Youngs Moduli (GPa) = 80.99137 104.31601 60.71779
#
# Poissons Ratio (x) = -0.10511 -0.26679
# Poissons Ratio (y) = -0.08161 -0.02090
# Poissons Ratio (z) = -0.35587 -0.03591
#
# Static dielectric constant tensor:
#      x y z
#    x 2.080330 0.000000 -0.048850 
#    y 0.000000 2.070720 0.000000 
#    z -0.048850 0.000000 2.080680 
# 
# From -- ./inp_files/180724.got.cif
#   From: 2010.05.17/outbox.cif.g08.bks.cpg/sg12_91_cif.got.tgz:180724.got - 2010.06.03 13:09:07.
