data_PCOD9175881
_publ_section_title
;
Structure prediction by ZEFSAII (Michael W. Deem and Ramdas Pophale) SiO2 
 PCOD9175881
Probable space group: C 2/M
;
_chemical_formula_sum "Si O2"
_cell_formula_units_Z 56
_cell_length_a 30.664048
_cell_length_b 7.538709
_cell_length_c 11.834886
_cell_angle_alpha 90.000000
_cell_angle_beta 66.736952
_cell_angle_gamma 90.000000
_cell_volume 2513.418870
_symmetry_space_group_name_H-M "C 2/M"
_symmetry_group_IT_number 12
_symmetry_cell_setting 'monoclinic'
loop_
_space_group_symop_operation_xyz
x,y,z
-x,y,-z
-x,-y,-z
x,-y,z
1/2+x,1/2+y,z
1/2-x,1/2+y,-z
1/2-x,1/2-y,-z
1/2+x,1/2-y,z
loop_
_atom_site_type_symbol
_atom_site_label
_atom_site_fract_x
_atom_site_fract_y
_atom_site_fract_z
Si Si1 0.573469 0.293813 0.166147
Si Si2 0.980670 0.295831 0.135164
Si Si3 0.554848 0.785593 0.436602
Si Si4 0.770261 0.285196 0.805990
Si Si5 0.824264 0.210729 0.981421
Si Si6 0.704885 0.787673 0.469331
Si Si7 0.898285 0.717340 0.375829
O O1 0.569099 0.500000 0.139447
O O2 0.524825 0.204847 0.176318
O O3 0.577035 0.280188 0.297590
O O4 0.622226 0.218528 0.064150
O O5 0.968118 0.500000 0.120949
O O6 0.934591 0.217689 0.243173
O O7 0.000000 0.212600 0.000000
O O8 0.500000 0.729092 0.500000
O O9 0.581941 0.730088 0.521545
O O10 0.555761 0.000000 0.431508
O O11 0.768724 0.500000 0.804627
O O12 0.804677 0.237104 0.874289
O O13 0.787258 0.220847 0.666554
O O14 0.717384 0.220641 0.894224
O O15 0.827663 0.000000 0.996757
O O16 0.750000 0.750000 0.500000
O O17 0.655996 0.723496 0.575154
O O18 0.700148 0.000000 0.464569
O O19 0.899952 0.500000 0.371068
#
# Coordination Sequence:
#
# PCOD9175881 Si02
#       7
#     8   8   8   8   8   8   8
#     4  11  22  34  51  80 116 143 169 213 271 330
#     4  10  21  38  57  75 101 141 187 224 258 312
#     4  10  18  33  59  82 105 139 180 222 262 312
#     4   9  18  35  56  77 102 138 181 222 266 316
#     4   9  19  34  53  79 110 140 170 216 270 320
#     4  10  21  36  55  77 105 139 178 222 267 315
#     4   9  18  35  56  80 106 134 173 227 274 306
#
# _framework density 22.280408999999999
#
# number of rings (size 3 to 8) (size 9 to 14) (size 15 to 20)
#    0.000    2.286    1.429    1.286    0.000    4.571 
#    0.000    1.429    0.000    0.000    0.000    0.000 
#    0.000    0.000    0.000    0.000    0.000    0.000 
#
# Total GULP energy -156411.127981 kJ/mol
# GULP energy per Si atom -5586.111714 kJ/mol
# Density = 2.222970 g / cm^3
# Si number density = 22.280409 Si / 1000 Ang^3
#
#
#
# Elastic Constant Matrix: (Units=GPa)
#
#
# Indices 1 2 3 4 5 6 
#
# 1 115.8223 -3.5176 70.4377 0.0000 -41.0599 0.0000
# 2 -3.5176 55.9990 2.8377 0.0000 -5.1656 0.0000
# 3 70.4377 2.8377 164.7834 0.0000 -27.3198 0.0000
# 4 0.0000 0.0000 0.0000 7.6945 0.0000 -9.0620
# 5 -41.0599 -5.1656 -27.3198 0.0000 40.1218 0.0000
# 6 0.0000 0.0000 0.0000 -9.0620 0.0000 -31.8959
#
#
#
# Elastic Compliance Matrix: (Units=1/GPa)
#
#
# Indices 1 2 3 4 5 6 
#
# 1 0.016634 0.002587 -0.004822 0.000000 0.014072 0.000000
# 2 0.002587 0.018476 -0.000666 0.000000 0.004573 0.000000
# 3 -0.004822 -0.000666 0.008239 0.000000 0.000590 0.000000
# 4 0.000000 0.000000 0.000000 0.097380 0.000000 -0.027667
# 5 0.014072 0.004573 0.000590 0.000000 0.040316 0.000000
# 6 0.000000 0.000000 0.000000 -0.027667 0.000000 -0.023492
#
#
# Mechanical properties :
#
#
# Convention : Reuss Voigt Hill
#
# Bulk Modulus (GPa) = 26.63293 52.90225 39.76759
# Shear Modulus (GPa) = 28.43037 20.97387 24.70212
#
# Velocity S-wave (km/s) = 3.57603 3.07149 3.33332
# Velocity P-wave (km/s) = 5.38796 6.03109 5.71857
#
# Compressibility (1/GPa) = 0.03754750
#
# Stress axis : x y z
#
# Youngs Moduli (GPa) = 60.11956 54.12555 121.37594
#
# Poissons Ratio (x) = -0.14004 0.58522
# Poissons Ratio (y) = -0.15555 0.08083
# Poissons Ratio (z) = 0.28987 0.03604
#
# Static dielectric constant tensor:
#      x y z
#    x 1.792950 0.000000 -0.036470 
#    y 0.000000 1.849850 0.000000 
#    z -0.036470 0.000000 1.825970 
# 
# From -- ./inp_files/181124.got.cif
#   From: 2010.05.17/outbox.cif.g08.bks.cpg/sg12_91_cif.got.tgz:181124.got - 2010.06.03 13:09:07.
