data_PCOD9175794
_publ_section_title
;
Structure prediction by ZEFSAII (Michael W. Deem and Ramdas Pophale) SiO2 
 PCOD9175794
Probable space group: C 2/M
;
_chemical_formula_sum "Si O2"
_cell_formula_units_Z 64
_cell_length_a 14.156527
_cell_length_b 30.224687
_cell_length_c 20.803602
_cell_angle_alpha 90.000000
_cell_angle_beta 157.913004
_cell_angle_gamma 90.000000
_cell_volume 3347.041107
_symmetry_space_group_name_H-M "C 2/M"
_symmetry_group_IT_number 12
_symmetry_cell_setting 'monoclinic'
loop_
_space_group_symop_operation_xyz
x,y,z
-x,y,-z
-x,-y,-z
x,-y,z
1/2+x,1/2+y,z
1/2-x,1/2+y,-z
1/2-x,1/2-y,-z
1/2+x,1/2-y,z
loop_
_atom_site_type_symbol
_atom_site_label
_atom_site_fract_x
_atom_site_fract_y
_atom_site_fract_z
Si Si1 0.269340 0.892982 0.201847
Si Si2 0.831241 0.877052 0.087623
Si Si3 0.740232 0.760901 0.810677
Si Si4 0.739998 0.448612 0.299570
Si Si5 0.263183 0.869846 0.690635
Si Si6 0.754345 0.682638 0.300759
Si Si7 0.371947 0.831588 0.631309
Si Si8 0.132658 0.840224 0.751952
O O1 0.294385 0.937007 0.259355
O O2 0.285755 0.853942 0.264764
O O3 0.469953 0.876996 0.276537
O O4 0.000000 0.893117 0.000000
O O5 0.800985 0.870168 0.145252
O O6 0.019316 0.916942 0.187000
O O7 0.990465 0.832718 0.166483
O O8 0.558792 0.884515 0.883173
O O9 0.739329 0.771270 0.734094
O O10 0.525315 0.787819 0.711686
O O11 0.727631 0.709663 0.819143
O O12 0.000000 0.780353 0.000000
O O13 0.677631 0.500000 0.268767
O O14 0.000000 0.438737 0.500000
O O15 0.274825 0.831779 0.643012
O O16 0.216448 0.857391 0.735121
O O17 0.000000 0.894201 0.500000
O O18 0.000000 0.680095 0.500000
O O19 0.164424 0.835808 0.445339
#
# Coordination Sequence:
#
# PCOD9175794 Si02
#       8
#     8   8   8   8   8   8   8   8
#     4  10  18  33  57  86 114 143 177 216 273 346
#     4  11  19  37  59  78 108 149 183 221 285 338
#     4  11  21  34  49  74 107 140 187 242 290 333
#     4  10  21  37  61  95 123 139 168 220 281 349
#     4  10  22  36  52  75 103 142 194 235 263 314
#     4  10  20  33  54  81 108 145 188 228 280 346
#     4  10  19  35  53  73 105 147 183 225 286 332
#     4  11  23  35  51  75 105 145 197 242 271 317
#
# _framework density 19.121366999999999
#
# number of rings (size 3 to 8) (size 9 to 14) (size 15 to 20)
#    0.000    1.625    0.000    9.000    0.000    2.750 
#    0.000    2.500    0.000    1.875    0.000    1.750 
#    0.000    0.000    0.000    0.000    0.000    0.000 
#
# Total GULP energy -178151.922062 kJ/mol
# GULP energy per Si atom -5567.247564 kJ/mol
# Density = 1.907785 g / cm^3
# Si number density = 19.121367 Si / 1000 Ang^3
#
#
#
# Elastic Constant Matrix: (Units=GPa)
#
#
# Indices 1 2 3 4 5 6 
#
# 1 101.4924 22.8038 33.6893 -0.0025 -11.9098 0.0014
# 2 22.8038 61.8427 30.5661 -0.0069 3.8940 -0.0006
# 3 33.6893 30.5661 148.5310 0.0094 4.8860 -0.0022
# 4 -0.0025 -0.0069 0.0094 8.5774 -0.0018 4.7361
# 5 -11.9098 3.8940 4.8860 -0.0018 33.4442 0.0016
# 6 0.0014 -0.0006 -0.0022 4.7361 0.0016 17.9180
#
#
#
# Elastic Compliance Matrix: (Units=1/GPa)
#
#
# Indices 1 2 3 4 5 6 
#
# 1 0.011971 -0.003680 -0.002122 0.000006 0.005002 -0.000003
# 2 -0.003680 0.019214 -0.003017 0.000019 -0.003107 -0.000004
# 3 -0.002122 -0.003017 0.007886 -0.000015 -0.001557 0.000005
# 4 0.000006 0.000019 -0.000015 0.136509 0.000011 -0.036083
# 5 0.005002 -0.003107 -0.001557 0.000011 0.032271 -0.000007
# 6 -0.000003 -0.000004 0.000005 -0.036083 -0.000007 0.065347
#
#
# Mechanical properties :
#
#
# Convention : Reuss Voigt Hill
#
# Bulk Modulus (GPa) = 46.65958 53.99830 50.32894
# Shear Modulus (GPa) = 16.77954 26.97504 21.87729
#
# Velocity S-wave (km/s) = 2.96552 3.76004 3.38617
# Velocity P-wave (km/s) = 6.01503 6.86670 6.45493
#
# Compressibility (1/GPa) = 0.02143183
#
# Stress axis : x y z
#
# Youngs Moduli (GPa) = 83.53313 52.04563 126.80524
#
# Poissons Ratio (x) = 0.19154 0.26914
# Poissons Ratio (y) = 0.30742 0.38258
# Poissons Ratio (z) = 0.17730 0.15703
#
# Static dielectric constant tensor:
#      x y z
#    x 1.470110 -0.000200 0.186790 
#    y -0.000200 1.664110 0.000100 
#    z 0.186790 0.000100 1.621850 
# 
# From -- ./inp_files/312931.got.cif
#   From: 2010.05.17/outbox.cif.g08.bks.cpg/sg12_157_cif.got.tgz:312931.got - 2010.06.03 13:09:07.
