data_PCOD9175995
_publ_section_title
;
Structure prediction by ZEFSAII (Michael W. Deem and Ramdas Pophale) SiO2 
 PCOD9175995
Probable space group: C 2/M
;
_chemical_formula_sum "Si O2"
_cell_formula_units_Z 32
_cell_length_a 20.629939
_cell_length_b 16.556422
_cell_length_c 10.392944
_cell_angle_alpha 90.000000
_cell_angle_beta 152.259721
_cell_angle_gamma 90.000000
_cell_volume 1652.302101
_symmetry_space_group_name_H-M "C 2/M"
_symmetry_group_IT_number 12
_symmetry_cell_setting 'monoclinic'
loop_
_space_group_symop_operation_xyz
x,y,z
-x,y,-z
-x,-y,-z
x,-y,z
1/2+x,1/2+y,z
1/2-x,1/2+y,-z
1/2-x,1/2-y,-z
1/2+x,1/2-y,z
loop_
_atom_site_type_symbol
_atom_site_label
_atom_site_fract_x
_atom_site_fract_y
_atom_site_fract_z
Si Si1 0.205476 0.847024 0.125858
Si Si2 0.597192 0.500000 0.047741
Si Si3 0.326430 0.090370 0.066291
Si Si4 0.096395 0.000000 0.543244
Si Si5 0.521836 0.757726 0.388086
O O1 0.260186 0.883777 0.086243
O O2 0.318746 0.778986 0.358639
O O3 0.189447 0.919575 0.197152
O O4 0.056714 0.806633 0.837033
O O5 0.500000 0.500000 0.000000
O O6 0.497846 0.500000 0.746776
O O7 0.437169 0.157774 0.225510
O O8 0.387903 0.000000 0.186974
O O9 0.200602 0.076244 0.744259
O O10 0.000000 0.000000 0.500000
O O11 0.500000 0.734192 0.500000
#
# Coordination Sequence:
#
# PCOD9175995 Si02
#       5
#     8   4   8   4   8
#     4  11  22  38  59  88 129 159 202 244 308 360
#     4  12  26  41  63  87 121 165 209 250 297 362
#     4   9  18  31  59  94 120 157 190 252 297 361
#     4  10  18  33  63  85 119 147 206 241 303 348
#     4  10  22  32  60  97 132 149 198 252 313 352
#
# _framework density 19.366918999999999
#
# number of rings (size 3 to 8) (size 9 to 14) (size 15 to 20)
#    0.750    1.000    3.750    3.000    8.750    1.500 
#    0.000    1.250    0.000    1.500    0.000    0.000 
#    0.000    0.000    0.000    0.000    0.000    0.000 
#
# Total GULP energy -89310.045117 kJ/mol
# GULP energy per Si atom -5581.877820 kJ/mol
# Density = 1.932284 g / cm^3
# Si number density = 19.366919 Si / 1000 Ang^3
#
#
#
# Elastic Constant Matrix: (Units=GPa)
#
#
# Indices 1 2 3 4 5 6 
#
# 1 51.6067 8.3004 11.9627 0.0000 2.9615 0.0000
# 2 8.3004 91.0371 8.5010 0.0000 6.8906 0.0000
# 3 11.9627 8.5010 73.4678 0.0000 12.5600 0.0000
# 4 0.0000 0.0000 0.0000 37.3083 0.0000 11.2986
# 5 2.9615 6.8906 12.5600 0.0000 14.1323 0.0000
# 6 0.0000 0.0000 0.0000 11.2986 0.0000 6.9875
#
#
#
# Elastic Compliance Matrix: (Units=1/GPa)
#
#
# Indices 1 2 3 4 5 6 
#
# 1 0.020364 -0.001511 -0.002992 0.000000 -0.000871 0.000000
# 2 -0.001511 0.011529 -0.000214 0.000000 -0.005115 0.000000
# 3 -0.002992 -0.000214 0.016506 0.000000 -0.013939 0.000000
# 4 0.000000 0.000000 0.000000 0.052524 0.000000 -0.084930
# 5 -0.000871 -0.005115 -0.013939 0.000000 0.085825 0.000000
# 6 0.000000 0.000000 0.000000 -0.084930 0.000000 0.280441
#
#
# Mechanical properties :
#
#
# Convention : Reuss Voigt Hill
#
# Bulk Modulus (GPa) = 25.66347 30.40441 28.03394
# Shear Modulus (GPa) = 10.21216 24.17546 17.19381
#
# Velocity S-wave (km/s) = 2.29879 3.53694 2.98282
# Velocity P-wave (km/s) = 4.50842 5.69326 5.13513
#
# Compressibility (1/GPa) = 0.03896590
#
# Stress axis : x y z
#
# Youngs Moduli (GPa) = 49.10630 86.73456 60.58317
#
# Poissons Ratio (x) = 0.13109 0.18126
# Poissons Ratio (y) = 0.07422 0.01294
# Poissons Ratio (z) = 0.14693 0.01852
#
# Static dielectric constant tensor:
#      x y z
#    x 1.612090 0.000000 0.016410 
#    y 0.000000 1.748890 0.000000 
#    z 0.016410 0.000000 1.745720 
# 
# From -- ./inp_files/77854.got.cif
#   From: 2010.05.17/outbox.cif.g08.bks.cpg/sg12_39_cif.got.tgz:77854.got - 2010.06.03 13:09:07.
