data_PCOD9175305
_publ_section_title
;
Structure prediction by ZEFSAII (Michael W. Deem and Ramdas Pophale) SiO2 
 PCOD9175305
Probable space group: C 2/M
;
_chemical_formula_sum "Si O2"
_cell_formula_units_Z 64
_cell_length_a 10.926668
_cell_length_b 13.867155
_cell_length_c 17.290266
_cell_angle_alpha 90.000000
_cell_angle_beta 84.364016
_cell_angle_gamma 90.000000
_cell_volume 2607.187625
_symmetry_space_group_name_H-M "C 2/M"
_symmetry_group_IT_number 12
_symmetry_cell_setting 'monoclinic'
loop_
_space_group_symop_operation_xyz
x,y,z
-x,y,-z
-x,-y,-z
x,-y,z
1/2+x,1/2+y,z
1/2-x,1/2+y,-z
1/2-x,1/2-y,-z
1/2+x,1/2-y,z
loop_
_atom_site_type_symbol
_atom_site_label
_atom_site_fract_x
_atom_site_fract_y
_atom_site_fract_z
Si Si1 0.151511 0.325106 0.575990
Si Si2 0.164955 0.140246 0.308749
Si Si3 0.081052 0.642478 0.304068
Si Si4 0.894267 0.141204 0.947885
Si Si5 0.629199 0.149853 0.981057
Si Si6 0.233796 0.107145 0.581349
Si Si7 0.040817 0.103738 0.783317
Si Si8 0.607654 0.178559 0.801700
O O1 0.275439 0.364904 0.610513
O O2 0.154098 0.207107 0.582067
O O3 0.162307 0.364188 0.488940
O O4 0.035833 0.363028 0.631023
O O5 0.128293 0.249685 0.297935
O O6 0.039168 0.093524 0.289573
O O7 0.279256 0.122457 0.244447
O O8 0.196888 0.597159 0.340653
O O9 0.017077 0.628881 0.224024
O O10 0.761565 0.102661 0.980547
O O11 0.942719 0.117168 0.859878
O O12 0.878145 0.256771 0.962209
O O13 0.000000 0.110736 0.000000
O O14 0.625929 0.180765 0.891492
O O15 0.500000 0.098138 0.000000
O O16 0.181930 0.000000 0.566699
O O17 0.108248 0.207459 0.777220
O O18 0.105180 0.000000 0.792843
#
# Coordination Sequence:
#
# PCOD9175305 Si02
#       8
#     8   8   8   8   8   8   8   8
#     4   9  19  36  57  86 120 156 198 245 301 356
#     4   9  19  36  56  77 110 156 197 236 291 360
#     4   9  19  33  56  83 109 155 195 246 289 352
#     4  10  19  32  51  85 112 146 193 251 299 366
#     4  10  18  32  58  87 108 151 209 252 293 376
#     4  10  20  36  60  89 121 155 197 247 299 360
#     4  11  21  34  54  84 116 146 190 252 310 355
#     4  10  18  36  55  77 112 152 198 241 294 363
#
# _framework density 24.547523999999999
#
# number of rings (size 3 to 8) (size 9 to 14) (size 15 to 20)
#    0.000    2.250    3.750    0.375    0.000    1.750 
#    0.000   11.875    0.000   10.125    0.000    0.000 
#    0.000    0.500    0.000    0.000    0.000    0.000 
#
# Total GULP energy -178304.376809 kJ/mol
# GULP energy per Si atom -5572.011775 kJ/mol
# Density = 2.449165 g / cm^3
# Si number density = 24.547524 Si / 1000 Ang^3
#
#
#
# Elastic Constant Matrix: (Units=GPa)
#
#
# Indices 1 2 3 4 5 6 
#
# 1 86.8397 -5.5585 15.9446 0.0000 6.9741 0.0000
# 2 -5.5585 133.5194 16.7568 0.0000 3.1957 0.0000
# 3 15.9446 16.7568 74.4159 0.0000 12.0632 0.0000
# 4 0.0000 0.0000 0.0000 375.2489 0.0000 -63.3425
# 5 6.9741 3.1957 12.0632 0.0000 43.8746 0.0000
# 6 0.0000 0.0000 0.0000 -63.3425 0.0000 -16.7488
#
#
#
# Elastic Compliance Matrix: (Units=1/GPa)
#
#
# Indices 1 2 3 4 5 6 
#
# 1 0.012149 0.000861 -0.002589 0.000000 -0.001282 0.000000
# 2 0.000861 0.007769 -0.001905 0.000000 -0.000179 0.000000
# 3 -0.002589 -0.001905 0.015001 0.000000 -0.003574 0.000000
# 4 0.000000 0.000000 0.000000 0.001627 0.000000 -0.006151
# 5 -0.001282 -0.000179 -0.003574 0.000000 0.023992 0.000000
# 6 0.000000 0.000000 0.000000 -0.006151 0.000000 -0.036442
#
#
# Mechanical properties :
#
#
# Convention : Reuss Voigt Hill
#
# Bulk Modulus (GPa) = 36.16196 38.78456 37.47326
# Shear Modulus (GPa) = 123.21721 98.31707 110.76714
#
# Velocity S-wave (km/s) = 7.09256 6.33551 6.72469
# Velocity P-wave (km/s) = 9.04632 8.32780 8.69449
#
# Compressibility (1/GPa) = 0.02765337
#
# Stress axis : x y z
#
# Youngs Moduli (GPa) = 82.31145 128.72069 66.66182
#
# Poissons Ratio (x) = -0.11088 0.17260
# Poissons Ratio (y) = -0.07090 0.12698
# Poissons Ratio (z) = 0.21312 0.24520
#
# Static dielectric constant tensor:
#      x y z
#    x 2.003770 0.000000 0.009370 
#    y 0.000000 2.037360 0.000000 
#    z 0.009370 0.000000 1.961360 
# 
# From -- ./inp_files/263330.got.cif
#   From: 2010.05.17/outbox.cif.g08.bks.cpg/sg12_132_cif.got.tgz:263330.got - 2010.06.03 13:09:07.
