data_PCOD9175851
_publ_section_title
;
Structure prediction by ZEFSAII (Michael W. Deem and Ramdas Pophale) SiO2 
 PCOD9175851
Probable space group: C 2/M
;
_chemical_formula_sum "Si O2"
_cell_formula_units_Z 48
_cell_length_a 26.100734
_cell_length_b 7.710686
_cell_length_c 20.870699
_cell_angle_alpha 90.000000
_cell_angle_beta 145.379862
_cell_angle_gamma 90.000000
_cell_volume 2386.342442
_symmetry_space_group_name_H-M "C 2/M"
_symmetry_group_IT_number 12
_symmetry_cell_setting 'monoclinic'
loop_
_space_group_symop_operation_xyz
x,y,z
-x,y,-z
-x,-y,-z
x,-y,z
1/2+x,1/2+y,z
1/2-x,1/2+y,-z
1/2-x,1/2-y,-z
1/2+x,1/2-y,z
loop_
_atom_site_type_symbol
_atom_site_label
_atom_site_fract_x
_atom_site_fract_y
_atom_site_fract_z
Si Si1 0.052105 0.297308 0.882608
Si Si2 0.431479 0.211723 0.872543
Si Si3 0.748760 0.287461 0.877680
Si Si4 0.735656 0.710025 0.715961
Si Si5 0.540317 0.796729 0.474615
Si Si6 0.571039 0.299311 0.762595
O O1 0.058907 0.500000 0.906603
O O2 0.033340 0.283616 0.788251
O O3 0.975858 0.227017 0.851769
O O4 0.152353 0.226227 0.999609
O O5 0.330354 0.270625 0.783762
O O6 0.426903 0.000000 0.867891
O O7 0.500000 0.260110 0.000000
O O8 0.746842 0.500000 0.877408
O O9 0.730949 0.236635 0.785781
O O10 0.667944 0.225729 0.840021
O O11 0.734527 0.500000 0.713894
O O12 0.647357 0.773289 0.588492
O O13 0.500000 0.725218 0.500000
O O14 0.494481 0.714443 0.365591
O O15 0.517841 0.000000 0.448745
O O16 0.584293 0.500000 0.792119
#
# Coordination Sequence:
#
# PCOD9175851 Si02
#       6
#     8   8   8   8   8   8
#     4  10  19  34  55  83 116 147 179 221 270 321
#     4   9  16  30  57  86 110 141 183 223 263 319
#     4   9  17  30  54  83 112 142 176 220 269 321
#     4  10  18  33  58  86 110 139 182 225 266 319
#     4  11  23  38  56  80 109 142 181 228 278 324
#     4  11  22  36  54  80 112 149 186 221 268 326
#
# _framework density 20.114464999999999
#
# number of rings (size 3 to 8) (size 9 to 14) (size 15 to 20)
#    0.000    2.000    3.333    1.500    0.000    0.667 
#    0.000    3.333    0.000    1.000    0.000    0.000 
#    0.000    0.000    0.000    0.000    0.000    0.000 
#
# Total GULP energy -134033.264096 kJ/mol
# GULP energy per Si atom -5584.719337 kJ/mol
# Density = 2.006868 g / cm^3
# Si number density = 20.114465 Si / 1000 Ang^3
#
#
#
# Elastic Constant Matrix: (Units=GPa)
#
#
# Indices 1 2 3 4 5 6 
#
# 1 157.2249 -3.0323 37.6571 0.0000 10.3023 0.0000
# 2 -3.0323 31.0126 -12.5438 0.0000 2.4221 0.0000
# 3 37.6571 -12.5438 69.1377 0.0000 12.6934 0.0000
# 4 0.0000 0.0000 0.0000 -50.8520 0.0000 12.4290
# 5 10.3023 2.4221 12.6934 0.0000 33.9964 0.0000
# 6 0.0000 0.0000 0.0000 12.4290 0.0000 5.2764
#
#
#
# Elastic Compliance Matrix: (Units=1/GPa)
#
#
# Indices 1 2 3 4 5 6 
#
# 1 0.007355 -0.000864 -0.004042 0.000000 -0.000658 0.000000
# 2 -0.000864 0.035776 0.007925 0.000000 -0.005246 0.000000
# 3 -0.004042 0.007925 0.019305 0.000000 -0.006548 0.000000
# 4 0.000000 0.000000 0.000000 -0.012480 0.000000 0.029397
# 5 -0.000658 -0.005246 -0.006548 0.000000 0.032433 0.000000
# 6 0.000000 0.000000 0.000000 0.029397 0.000000 0.120275
#
#
# Mechanical properties :
#
#
# Convention : Reuss Voigt Hill
#
# Bulk Modulus (GPa) = 14.60440 33.50416 24.05428
# Shear Modulus (GPa) = 22.78409 13.37045 18.07727
#
# Velocity S-wave (km/s) = 3.36924 2.58101 3.00112
# Velocity P-wave (km/s) = 4.73415 5.05718 4.89833
#
# Compressibility (1/GPa) = 0.06847249
#
# Stress axis : x y z
#
# Youngs Moduli (GPa) = 135.96453 27.95208 51.79911
#
# Poissons Ratio (x) = 0.02416 0.20937
# Poissons Ratio (y) = 0.11752 -0.41049
# Poissons Ratio (z) = 0.54956 -0.22151
#
# Static dielectric constant tensor:
#      x y z
#    x 1.716430 0.000000 0.013900 
#    y 0.000000 1.752170 0.000000 
#    z 0.013900 0.000000 1.672170 
# 
# From -- ./inp_files/327177.got.cif
#   From: 2010.05.17/outbox.cif.g08.bks.cpg/sg12_164_cif.got.tgz:327177.got - 2010.06.03 13:09:07.
