data_PCOD9175833
_publ_section_title
;
Structure prediction by ZEFSAII (Michael W. Deem and Ramdas Pophale) SiO2 
 PCOD9175833
Probable space group: C 2/M
;
_chemical_formula_sum "Si O2"
_cell_formula_units_Z 36
_cell_length_a 22.060543
_cell_length_b 9.891470
_cell_length_c 24.524891
_cell_angle_alpha 90.000000
_cell_angle_beta 159.084503
_cell_angle_gamma 90.000000
_cell_volume 1910.473335
_symmetry_space_group_name_H-M "C 2/M"
_symmetry_group_IT_number 12
_symmetry_cell_setting 'monoclinic'
loop_
_space_group_symop_operation_xyz
x,y,z
-x,y,-z
-x,-y,-z
x,-y,z
1/2+x,1/2+y,z
1/2-x,1/2+y,-z
1/2-x,1/2-y,-z
1/2+x,1/2-y,z
loop_
_atom_site_type_symbol
_atom_site_label
_atom_site_fract_x
_atom_site_fract_y
_atom_site_fract_z
Si Si1 0.917563 0.500000 0.663646
Si Si2 0.270917 0.706601 0.661237
Si Si3 0.498027 0.000000 0.611998
Si Si4 0.559652 0.278181 0.821680
Si Si5 0.394959 0.500000 0.469765
Si Si6 0.700228 0.000000 0.687107
Si Si7 0.984956 0.000000 0.670854
O O1 0.018204 0.500000 0.692313
O O2 0.716582 0.500000 0.486762
O O3 0.969744 0.635829 0.736312
O O4 0.115406 0.630542 0.499624
O O5 0.439118 0.667894 0.768857
O O6 0.218913 0.863241 0.623718
O O7 0.278467 0.632622 0.726000
O O8 0.676331 0.000000 0.730961
O O9 0.554316 0.370774 0.762945
O O10 0.750000 0.250000 0.000000
O O11 0.500000 0.500000 0.500000
O O12 0.497979 0.500000 0.615266
O O13 0.500000 0.000000 0.500000
#
# Coordination Sequence:
#
# PCOD9175833 Si02
#       7
#     4   8   4   8   4   4   4
#     4  12  21  37  61  86 117 150 199 254 292 345
#     4  10  18  34  54  81 116 147 192 239 292 346
#     4  10  18  33  58  83 109 141 193 248 294 333
#     4  12  24  38  59  89 123 160 193 242 308 360
#     4  12  22  33  58  90 117 150 200 251 295 340
#     4   8  17  31  53  81 110 144 182 240 290 341
#     4  12  22  40  62  87 122 155 204 258 291 342
#
# _framework density 18.843496999999999
#
# number of rings (size 3 to 8) (size 9 to 14) (size 15 to 20)
#    0.000    1.333    4.444    5.333    0.000    0.000 
#    0.000    0.000    0.000    8.000    0.000    0.000 
#    0.000    0.000    0.000    0.000    0.000    0.000 
#
# Total GULP energy -100292.089942 kJ/mol
# GULP energy per Si atom -5571.782775 kJ/mol
# Density = 1.880061 g / cm^3
# Si number density = 18.843497 Si / 1000 Ang^3
#
#
#
# Elastic Constant Matrix: (Units=GPa)
#
#
# Indices 1 2 3 4 5 6 
#
# 1 168.3819 20.0548 33.2241 -0.0002 14.8712 0.0000
# 2 20.0548 127.1869 30.5290 -0.0204 0.3557 0.0001
# 3 33.2241 30.5290 74.2515 -0.0425 -3.8899 0.0018
# 4 -0.0002 -0.0204 -0.0425 107.0433 -0.0061 -15.0967
# 5 14.8712 0.3557 -3.8899 -0.0061 15.0335 0.0005
# 6 0.0000 0.0001 0.0018 -15.0967 0.0005 30.0941
#
#
#
# Elastic Compliance Matrix: (Units=1/GPa)
#
#
# Indices 1 2 3 4 5 6 
#
# 1 0.007421 -0.000273 -0.003642 -0.000002 -0.008277 -0.000001
# 2 -0.000273 0.008753 -0.003521 0.000000 -0.000848 0.000000
# 3 -0.003642 -0.003521 0.016968 0.000007 0.008077 0.000002
# 4 -0.000002 0.000000 0.000007 0.010053 0.000008 0.005043
# 5 -0.008277 -0.000848 0.008077 0.000008 0.076816 0.000002
# 6 -0.000001 0.000000 0.000002 0.005043 0.000002 0.035759
#
#
# Mechanical properties :
#
#
# Convention : Reuss Voigt Hill
#
# Bulk Modulus (GPa) = 54.73390 59.71513 57.22451
# Shear Modulus (GPa) = 28.29137 49.50168 38.89652
#
# Velocity S-wave (km/s) = 3.87898 5.13098 4.54826
# Velocity P-wave (km/s) = 7.01224 8.17688 7.61686
#
# Compressibility (1/GPa) = 0.01827021
#
# Stress axis : x y z
#
# Youngs Moduli (GPa) = 134.75315 114.24591 58.93351
#
# Poissons Ratio (x) = 0.03117 0.21464
# Poissons Ratio (y) = 0.03676 0.20752
# Poissons Ratio (z) = 0.49077 0.40229
#
# Static dielectric constant tensor:
#      x y z
#    x 1.701340 -0.000020 -0.034860 
#    y -0.000020 1.589270 -0.000020 
#    z -0.034860 -0.000020 1.598960 
# 
# From -- ./inp_files/367486.got.cif
#   From: 2010.05.17/outbox.cif.g08.bks.cpg/sg12_184_cif.got.tgz:367486.got - 2010.06.03 13:09:07.
