data_PCOD9175115
_publ_section_title
;
Structure prediction by ZEFSAII (Michael W. Deem and Ramdas Pophale) SiO2 
 PCOD9175115
Probable space group: C 2/M
;
_chemical_formula_sum "Si O2"
_cell_formula_units_Z 56
_cell_length_a 32.146122
_cell_length_b 7.503756
_cell_length_c 12.399619
_cell_angle_alpha 90.000000
_cell_angle_beta 125.959449
_cell_angle_gamma 90.000000
_cell_volume 2421.009145
_symmetry_space_group_name_H-M "C 2/M"
_symmetry_group_IT_number 12
_symmetry_cell_setting 'monoclinic'
loop_
_space_group_symop_operation_xyz
x,y,z
-x,y,-z
-x,-y,-z
x,-y,z
1/2+x,1/2+y,z
1/2-x,1/2+y,-z
1/2-x,1/2-y,-z
1/2+x,1/2-y,z
loop_
_atom_site_type_symbol
_atom_site_label
_atom_site_fract_x
_atom_site_fract_y
_atom_site_fract_z
Si Si1 0.062551 0.215054 0.854026
Si Si2 0.244867 0.711745 0.866054
Si Si3 0.648861 0.297830 0.354647
Si Si4 0.532174 0.791607 0.151735
Si Si5 0.645584 0.293177 0.582717
Si Si6 0.441225 0.717949 0.393471
Si Si7 0.339569 0.281367 0.863079
O O1 0.075201 0.272780 0.751833
O O2 0.006152 0.272314 0.805980
O O3 0.062688 0.000000 0.854872
O O4 0.105802 0.276194 0.004142
O O5 0.242024 0.500000 0.848168
O O6 0.193358 0.788052 0.735892
O O7 0.294259 0.774490 0.873797
O O8 0.250000 0.750000 0.000000
O O9 0.669451 0.500000 0.387820
O O10 0.586761 0.299771 0.250102
O O11 0.659433 0.213044 0.487270
O O12 0.667753 0.217682 0.270542
O O13 0.542829 0.000000 0.149459
O O14 0.500000 0.721810 0.000000
O O15 0.632691 0.500000 0.540178
O O16 0.596771 0.216080 0.571466
O O17 0.500000 0.770662 0.500000
O O18 0.439462 0.500000 0.392882
O O19 0.340772 0.500000 0.862502
#
# Coordination Sequence:
#
# PCOD9175115 Si02
#       7
#     8   8   8   8   8   8   8
#     4  10  18  32  56  78 104 147 195 238 278 332
#     4  11  23  41  63  86 115 150 190 237 288 340
#     4  10  20  37  61  85 111 151 198 236 276 340
#     4  11  22  34  50  80 121 154 182 231 292 340
#     4  10  21  38  61  88 117 147 187 238 289 339
#     4   9  17  31  53  82 112 145 188 235 279 327
#     4   9  19  35  57  84 110 144 195 243 279 329
#
# _framework density 23.130849999999999
#
# number of rings (size 3 to 8) (size 9 to 14) (size 15 to 20)
#    0.000    2.000    1.429    2.571    0.000    6.286 
#    0.000    5.000    0.000    1.714    0.000    0.000 
#    0.000    0.000    0.000    0.000    0.000    0.000 
#
# Total GULP energy -156544.245091 kJ/mol
# GULP energy per Si atom -5590.865896 kJ/mol
# Density = 2.307820 g / cm^3
# Si number density = 23.130850 Si / 1000 Ang^3
#
#
#
# Elastic Constant Matrix: (Units=GPa)
#
#
# Indices 1 2 3 4 5 6 
#
# 1 147.1592 -7.3678 49.9162 0.0000 -34.4017 0.0000
# 2 -7.3678 68.8178 -6.0712 0.0000 -5.7178 0.0000
# 3 49.9162 -6.0712 137.8619 0.0000 -39.3201 0.0000
# 4 0.0000 0.0000 0.0000 3.9353 0.0000 5.9363
# 5 -34.4017 -5.7178 -39.3201 0.0000 46.4042 0.0000
# 6 0.0000 0.0000 0.0000 5.9363 0.0000 -29.5833
#
#
#
# Elastic Compliance Matrix: (Units=1/GPa)
#
#
# Indices 1 2 3 4 5 6 
#
# 1 0.008606 0.001213 -0.001583 0.000000 0.005188 0.000000
# 2 0.001213 0.015102 0.001336 0.000000 0.003892 0.000000
# 3 -0.001583 0.001336 0.010019 0.000000 0.007481 0.000000
# 4 0.000000 0.000000 0.000000 0.195066 0.000000 0.039143
# 5 0.005188 0.003892 0.007481 0.000000 0.032214 0.000000
# 6 0.000000 0.000000 0.000000 0.039143 0.000000 -0.025948
#
#
# Mechanical properties :
#
#
# Convention : Reuss Voigt Hill
#
# Bulk Modulus (GPa) = 28.04320 47.42147 37.73234
# Shear Modulus (GPa) = 20.40701 25.30867 22.85784
#
# Velocity S-wave (km/s) = 2.97348 3.31139 3.14697
# Velocity P-wave (km/s) = 4.89273 5.93012 5.43622
#
# Compressibility (1/GPa) = 0.03565927
#
# Stress axis : x y z
#
# Youngs Moduli (GPa) = 116.20043 66.21550 99.80830
#
# Poissons Ratio (x) = -0.08031 0.15797
# Poissons Ratio (y) = -0.14093 -0.13334
# Poissons Ratio (z) = 0.18392 -0.08846
#
# Static dielectric constant tensor:
#      x y z
#    x 1.865000 0.000000 -0.117080 
#    y 0.000000 1.908810 0.000000 
#    z -0.117080 0.000000 2.081760 
# 
# From -- ./inp_files/187771.got.cif
#   From: 2010.05.17/outbox.cif.g08.bks.cpg/sg12_94_cif.got.tgz:187771.got - 2010.06.03 13:09:07.
