data_PCOD9175618
_publ_section_title
;
Structure prediction by ZEFSAII (Michael W. Deem and Ramdas Pophale) SiO2 
 PCOD9175618
Probable space group: C 2/M
;
_chemical_formula_sum "Si O2"
_cell_formula_units_Z 56
_cell_length_a 25.426463
_cell_length_b 17.763055
_cell_length_c 9.270092
_cell_angle_alpha 90.000000
_cell_angle_beta 141.127263
_cell_angle_gamma 90.000000
_cell_volume 2627.637930
_symmetry_space_group_name_H-M "C 2/M"
_symmetry_group_IT_number 12
_symmetry_cell_setting 'monoclinic'
loop_
_space_group_symop_operation_xyz
x,y,z
-x,y,-z
-x,-y,-z
x,-y,z
1/2+x,1/2+y,z
1/2-x,1/2+y,-z
1/2-x,1/2-y,-z
1/2+x,1/2-y,z
loop_
_atom_site_type_symbol
_atom_site_label
_atom_site_fract_x
_atom_site_fract_y
_atom_site_fract_z
Si Si1 0.101431 0.083221 0.712097
Si Si2 0.831681 0.291854 0.500275
Si Si3 0.592142 0.753062 0.622259
Si Si4 0.685868 0.806630 0.080959
Si Si5 0.094202 0.080789 0.028673
Si Si6 0.265095 0.915011 0.568088
Si Si7 0.568215 0.260847 0.045936
O O1 0.121673 0.164446 0.684953
O O2 0.000000 0.081129 0.500000
O O3 0.128486 0.000000 0.711601
O O4 0.128055 0.086376 0.937111
O O5 0.901655 0.284711 0.526044
O O6 0.748047 0.262700 0.244853
O O7 0.815851 0.367923 0.554777
O O8 0.853674 0.234363 0.676757
O O9 0.500000 0.754287 0.500000
O O10 0.656776 0.803353 0.854561
O O11 0.724435 0.875938 0.252694
O O12 0.600632 0.785950 0.982948
O O13 0.170618 0.081220 0.303726
O O14 0.041028 0.155990 0.940008
O O15 0.049185 0.000000 0.943086
O O16 0.296426 0.000000 0.644412
O O17 0.500000 0.222644 0.000000
#
# Coordination Sequence:
#
# PCOD9175618 Si02
#       7
#     8   8   8   8   8   8   8
#     4   9  18  32  51  77 118 162 189 219 276 350
#     4  11  21  36  59  88 114 154 199 241 289 350
#     4  11  22  36  59  87 117 155 197 246 298 348
#     4  11  20  39  58  85 116 152 201 242 284 354
#     4  10  18  33  55  81 114 154 192 229 284 346
#     4  10  20  38  63  85 113 152 197 250 300 347
#     4  11  20  33  55  83 116 151 190 241 285 337
#
# _framework density 21.311916
#
# number of rings (size 3 to 8) (size 9 to 14) (size 15 to 20)
#    0.000    1.571    4.286    2.143    2.000    0.286 
#    0.000    2.143    0.000   16.286    0.000    0.000 
#    0.000    0.000    0.000    0.000    0.000    0.000 
#
# Total GULP energy -156059.529248 kJ/mol
# GULP energy per Si atom -5573.554616 kJ/mol
# Density = 2.126341 g / cm^3
# Si number density = 21.311916 Si / 1000 Ang^3
#
#
#
# Elastic Constant Matrix: (Units=GPa)
#
#
# Indices 1 2 3 4 5 6 
#
# 1 58.6836 8.0401 -3.9553 0.0000 -11.4558 0.0000
# 2 8.0401 108.9124 23.7368 0.0000 -15.1231 0.0000
# 3 -3.9553 23.7368 88.1332 0.0000 -24.9370 0.0000
# 4 0.0000 0.0000 0.0000 -1.1987 0.0000 -1.5599
# 5 -11.4558 -15.1231 -24.9370 0.0000 34.2314 0.0000
# 6 0.0000 0.0000 0.0000 -1.5599 0.0000 10.3776
#
#
#
# Elastic Compliance Matrix: (Units=1/GPa)
#
#
# Indices 1 2 3 4 5 6 
#
# 1 0.019078 -0.000996 0.003535 0.000000 0.008520 0.000000
# 2 -0.000996 0.010060 -0.002004 0.000000 0.002651 0.000000
# 3 0.003535 -0.002004 0.015278 0.000000 0.011428 0.000000
# 4 0.000000 0.000000 0.000000 -0.697736 0.000000 -0.104879
# 5 0.008520 0.002651 0.011428 0.000000 0.041561 0.000000
# 6 0.000000 0.000000 0.000000 -0.104879 0.000000 0.080596
#
#
# Mechanical properties :
#
#
# Convention : Reuss Voigt Hill
#
# Bulk Modulus (GPa) = 21.98398 34.59691 28.29045
# Shear Modulus (GPa) = -9.66987 23.87589 7.10301
#
# Velocity S-wave (km/s) = -2.13241 3.35073 1.82760
# Velocity P-wave (km/s) = 2.06758 5.58916 4.21388
#
# Compressibility (1/GPa) = 0.04548766
#
# Stress axis : x y z
#
# Youngs Moduli (GPa) = 52.41505 99.40245 65.45236
#
# Poissons Ratio (x) = 0.09899 -0.23139
# Poissons Ratio (y) = 0.05220 0.13117
# Poissons Ratio (z) = -0.18530 0.19920
#
# Static dielectric constant tensor:
#      x y z
#    x 1.806210 0.000000 0.030280 
#    y 0.000000 1.809830 0.000000 
#    z 0.030280 0.000000 1.848370 
# 
# From -- ./inp_files/98202.got.cif
#   From: 2010.05.17/outbox.cif.g08.bks.cpg/sg12_50_cif.got.tgz:98202.got - 2010.06.03 13:09:07.
