data_PCOD9175294
_publ_section_title
;
Structure prediction by ZEFSAII (Michael W. Deem and Ramdas Pophale) SiO2 
 PCOD9175294
Probable space group: C 2/M
;
_chemical_formula_sum "Si O2"
_cell_formula_units_Z 48
_cell_length_a 12.768257
_cell_length_b 21.961313
_cell_length_c 11.145253
_cell_angle_alpha 90.000000
_cell_angle_beta 45.026632
_cell_angle_gamma 90.000000
_cell_volume 2210.887398
_symmetry_space_group_name_H-M "C 2/M"
_symmetry_group_IT_number 12
_symmetry_cell_setting 'monoclinic'
loop_
_space_group_symop_operation_xyz
x,y,z
-x,y,-z
-x,-y,-z
x,-y,z
1/2+x,1/2+y,z
1/2-x,1/2+y,-z
1/2-x,1/2-y,-z
1/2+x,1/2-y,z
loop_
_atom_site_type_symbol
_atom_site_label
_atom_site_fract_x
_atom_site_fract_y
_atom_site_fract_z
Si Si1 0.394525 0.666812 0.469563
Si Si2 0.828590 0.685131 0.948564
Si Si3 0.186062 0.428970 0.531888
Si Si4 0.415318 0.932470 0.942765
Si Si5 0.391359 0.748508 0.254012
Si Si6 0.844603 0.665055 0.659961
O O1 0.500000 0.663324 0.500000
O O2 0.329404 0.602568 0.476866
O O3 0.459302 0.706839 0.306714
O O4 0.243608 0.706073 0.607635
O O5 0.793720 0.621902 0.043758
O O6 0.849826 0.659621 0.797090
O O7 0.979944 0.706994 0.887193
O O8 0.750000 0.750000 0.000000
O O9 0.208810 0.500000 0.488189
O O10 0.157092 0.391264 0.431845
O O11 0.045593 0.424518 0.736515
O O12 0.350039 0.000000 0.976445
O O13 0.500000 0.932237 0.000000
O O14 0.307595 0.701045 0.238382
O O15 0.000000 0.698379 0.500000
#
# Coordination Sequence:
#
# PCOD9175294 Si02
#       6
#     8   8   8   8   8   8
#     4  10  18  32  58  84 124 165 197 252 319 370
#     4  12  25  38  63  96 126 167 216 265 320 386
#     4  10  21  38  62  91 123 161 212 265 309 374
#     4  10  22  41  61  87 128 171 209 261 318 378
#     4  10  20  35  53  87 126 156 200 259 319 367
#     4  11  21  39  62  92 123 161 206 260 325 374
#
# _framework density 21.710737999999999
#
# number of rings (size 3 to 8) (size 9 to 14) (size 15 to 20)
#    0.000    1.500    3.333    3.500    2.333    2.667 
#    0.000    0.000    0.000    4.000    0.000    5.833 
#    0.000    0.667    0.000    0.000    0.000    0.000 
#
# Total GULP energy -133649.307954 kJ/mol
# GULP energy per Si atom -5568.721165 kJ/mol
# Density = 2.166132 g / cm^3
# Si number density = 21.710738 Si / 1000 Ang^3
#
#
#
# Elastic Constant Matrix: (Units=GPa)
#
#
# Indices 1 2 3 4 5 6 
#
# 1 137.9513 62.0976 26.1748 0.0000 15.7148 0.0000
# 2 62.0976 185.2143 28.3995 0.0000 2.7257 0.0000
# 3 26.1748 28.3995 26.0264 0.0000 12.8977 0.0000
# 4 0.0000 0.0000 0.0000 10.8197 0.0000 -8.4195
# 5 15.7148 2.7257 12.8977 0.0000 33.7281 0.0000
# 6 0.0000 0.0000 0.0000 -8.4195 0.0000 21.3083
#
#
#
# Elastic Compliance Matrix: (Units=1/GPa)
#
#
# Indices 1 2 3 4 5 6 
#
# 1 0.009680 -0.002245 -0.006342 0.000000 -0.001903 0.000000
# 2 -0.002245 0.007209 -0.007203 0.000000 0.003218 0.000000
# 3 -0.006342 -0.007203 0.062811 0.000000 -0.020482 0.000000
# 4 0.000000 0.000000 0.000000 0.133460 0.000000 0.052734
# 5 -0.001903 0.003218 -0.020482 0.000000 0.038108 0.000000
# 6 0.000000 0.000000 0.000000 0.052734 0.000000 0.067767
#
#
# Mechanical properties :
#
#
# Convention : Reuss Voigt Hill
#
# Bulk Modulus (GPa) = 20.78173 64.72621 42.75397
# Shear Modulus (GPa) = 13.63684 28.67256 21.15470
#
# Velocity S-wave (km/s) = 2.50894 3.63803 3.12491
# Velocity P-wave (km/s) = 4.24098 6.89382 5.72323
#
# Compressibility (1/GPa) = 0.04811919
#
# Stress axis : x y z
#
# Youngs Moduli (GPa) = 103.31002 138.71661 15.92080
#
# Poissons Ratio (x) = 0.31140 0.10097
# Poissons Ratio (y) = 0.23192 0.11468
# Poissons Ratio (z) = 0.65519 0.99921
#
# Static dielectric constant tensor:
#      x y z
#    x 1.784640 0.000000 0.029290 
#    y 0.000000 1.875250 0.000000 
#    z 0.029290 0.000000 1.866150 
# 
# From -- ./inp_files/133747.got.cif
#   From: 2010.05.17/outbox.cif.g08.bks.cpg/sg12_67_cif.got.tgz:133747.got - 2010.06.03 13:09:07.
