data_PCOD9175243
_publ_section_title
;
Structure prediction by ZEFSAII (Michael W. Deem and Ramdas Pophale) SiO2 
 PCOD9175243
Probable space group: C 2/M
;
_chemical_formula_sum "Si O2"
_cell_formula_units_Z 58
_cell_length_a 30.014696
_cell_length_b 7.636352
_cell_length_c 26.339280
_cell_angle_alpha 90.000000
_cell_angle_beta 149.727279
_cell_angle_gamma 90.000000
_cell_volume 3043.369591
_symmetry_space_group_name_H-M "C 2/M"
_symmetry_group_IT_number 12
_symmetry_cell_setting 'monoclinic'
loop_
_space_group_symop_operation_xyz
x,y,z
-x,y,-z
-x,-y,-z
x,-y,z
1/2+x,1/2+y,z
1/2-x,1/2+y,-z
1/2-x,1/2-y,-z
1/2+x,1/2-y,z
loop_
_atom_site_type_symbol
_atom_site_label
_atom_site_fract_x
_atom_site_fract_y
_atom_site_fract_z
Si Si1 0.569469 0.806057 0.992525
Si Si2 0.935518 0.793277 0.784808
Si Si3 0.224015 0.786200 0.300628
Si Si4 0.950786 0.286091 0.399717
Si Si5 0.096978 0.285802 0.465713
Si Si6 0.248554 0.212666 0.209066
Si Si7 0.853904 0.292023 0.597087
Si Si8 0.500000 0.500000 0.000000
O O1 0.525655 0.787673 0.894033
O O2 0.548677 0.000000 0.991306
O O3 0.674826 0.780466 0.098323
O O4 0.528912 0.653795 0.987568
O O5 0.856759 0.725600 0.744093
O O6 0.906445 0.766067 0.698494
O O7 0.941285 0.000000 0.798496
O O8 0.316603 0.734182 0.416911
O O9 0.219861 0.733306 0.237927
O O10 0.221425 0.000000 0.297975
O O11 0.950060 0.500000 0.399712
O O12 0.849030 0.230126 0.298783
O O13 0.000000 0.231744 0.500000
O O14 0.009736 0.230170 0.409957
O O15 0.096898 0.500000 0.465175
O O16 0.109062 0.223219 0.420050
O O17 0.246753 0.000000 0.206452
O O18 0.860657 0.500000 0.601553
O O19 0.750000 0.250000 0.500000
#
# Coordination Sequence:
#
# PCOD9175243 Si02
#       8
#     8   8   8   8   8   8   8   2
#     4  12  25  40  59  86 122 163 204 249 299 359
#     4  11  21  37  58  80 114 156 201 250 295 354
#     4   9  16  26  49  78 113 149 181 231 288 342
#     4   9  15  26  51  87 114 149 198 243 296 360
#     4   9  16  29  47  80 118 147 188 242 294 353
#     4  10  18  32  57  84 118 154 198 246 290 356
#     4  11  21  34  53  80 114 155 199 247 303 360
#     4  12  22  44  60  90 126 160 206 244 298 362
#
# _framework density 19.057824
#
# number of rings (size 3 to 8) (size 9 to 14) (size 15 to 20)
#    0.000    1.793    4.138    1.862    1.931    0.000 
#    0.000    0.690    0.000    2.897    0.000    0.000 
#    0.000    0.000    0.000    0.000    0.000    0.000 
#
# Total GULP energy -161702.827553 kJ/mol
# GULP energy per Si atom -5575.959571 kJ/mol
# Density = 1.901445 g / cm^3
# Si number density = 19.057824 Si / 1000 Ang^3
#
#
#
# Elastic Constant Matrix: (Units=GPa)
#
#
# Indices 1 2 3 4 5 6 
#
# 1 126.6155 8.4522 73.5052 0.0000 -10.0379 0.0000
# 2 8.4522 78.4526 17.1763 -0.0008 3.4372 -0.0004
# 3 73.5052 17.1763 164.7357 -0.0001 -27.7837 0.0000
# 4 0.0000 -0.0008 -0.0001 11.4126 0.0000 -10.1636
# 5 -10.0379 3.4372 -27.7837 0.0000 -12.2613 0.0000
# 6 0.0000 -0.0004 0.0000 -10.1636 0.0000 8.2937
#
#
#
# Elastic Compliance Matrix: (Units=1/GPa)
#
#
# Indices 1 2 3 4 5 6 
#
# 1 0.010626 -0.000225 -0.004483 0.000000 0.001395 0.000000
# 2 -0.000225 0.012658 -0.000427 -0.000015 0.004700 -0.000018
# 3 -0.004483 -0.000427 0.006304 0.000001 -0.010735 0.000001
# 4 0.000000 -0.000015 0.000001 -0.959352 -0.000002 -1.175638
# 5 0.001395 0.004700 -0.010735 -0.000002 -0.057056 -0.000003
# 6 0.000000 -0.000018 0.000001 -1.175638 -0.000003 -1.320112
#
#
# Mechanical properties :
#
#
# Convention : Reuss Voigt Hill
#
# Bulk Modulus (GPa) = 51.75868 63.11901 57.43885
# Shear Modulus (GPa) = -2.18319 19.53367 8.67524
#
# Velocity S-wave (km/s) = -1.07147 3.20499 2.13587
# Velocity P-wave (km/s) = 5.06823 6.84745 6.02389
#
# Compressibility (1/GPa) = 0.01932043
#
# Stress axis : x y z
#
# Youngs Moduli (GPa) = 94.11052 78.99945 158.62073
#
# Poissons Ratio (x) = 0.01774 0.71102
# Poissons Ratio (y) = 0.02113 0.06773
# Poissons Ratio (z) = 0.42185 0.03373
#
# Static dielectric constant tensor:
#      x y z
#    x 1.641430 0.000000 0.006740 
#    y 0.000000 1.715160 0.000000 
#    z 0.006740 0.000000 1.670170 
# 
# From -- ./inp_files/370445.got.cif
#   From: 2010.05.17/outbox.cif.g08.bks.cpg/sg12_186_cif.got.tgz:370445.got - 2010.06.03 13:09:07.
