data_PCOD9175270
_publ_section_title
;
Structure prediction by ZEFSAII (Michael W. Deem and Ramdas Pophale) SiO2 
 PCOD9175270
Probable space group: C 2/M
;
_chemical_formula_sum "Si O2"
_cell_formula_units_Z 48
_cell_length_a 23.471994
_cell_length_b 12.697984
_cell_length_c 6.996216
_cell_angle_alpha 90.000000
_cell_angle_beta 88.024616
_cell_angle_gamma 90.000000
_cell_volume 2083.962045
_symmetry_space_group_name_H-M "C 2/M"
_symmetry_group_IT_number 12
_symmetry_cell_setting 'monoclinic'
loop_
_space_group_symop_operation_xyz
x,y,z
-x,y,-z
-x,-y,-z
x,-y,z
1/2+x,1/2+y,z
1/2-x,1/2+y,-z
1/2-x,1/2-y,-z
1/2+x,1/2-y,z
loop_
_atom_site_type_symbol
_atom_site_label
_atom_site_fract_x
_atom_site_fract_y
_atom_site_fract_z
Si Si1 0.165103 0.377726 0.449632
Si Si2 0.988671 0.120979 0.772702
Si Si3 0.789300 0.883388 0.447045
Si Si4 0.602440 0.259550 0.691600
Si Si5 0.264367 0.619690 0.000331
Si Si6 0.870434 0.219149 0.862476
O O1 0.169251 0.500000 0.410850
O O2 0.227294 0.348718 0.536933
O O3 0.113040 0.353983 0.598930
O O4 0.153217 0.318170 0.252204
O O5 0.042049 0.183723 0.679315
O O6 0.928985 0.180120 0.762801
O O7 0.985940 0.000000 0.709018
O O8 0.000000 0.117663 0.000000
O O9 0.848082 0.819715 0.434838
O O10 0.801172 0.000000 0.515225
O O11 0.775906 0.890513 0.223021
O O12 0.617246 0.256846 0.915062
O O13 0.238278 0.500000 0.952872
O O14 0.322684 0.628624 0.872725
O O15 0.250000 0.750000 0.000000
#
# Coordination Sequence:
#
# PCOD9175270 Si02
#       6
#     8   8   8   8   8   8
#     4  11  23  39  59  85 122 159 201 252 301 356
#     4   9  18  37  63  90 118 152 192 246 307 361
#     4   9  18  35  58  85 120 157 193 249 307 355
#     4  10  21  37  62  86 117 153 200 241 301 367
#     4  10  18  32  57  88 121 157 197 245 300 362
#     4  10  21  38  61  87 121 155 196 248 303 362
#
# _framework density 23.033048999999998
#
# number of rings (size 3 to 8) (size 9 to 14) (size 15 to 20)
#    0.000    2.167    1.667    1.500    0.000    5.333 
#    0.000    8.333    0.000    3.000    0.000    0.000 
#    0.000    0.000    0.000    0.000    0.000    0.000 
#
# Total GULP energy -133704.069426 kJ/mol
# GULP energy per Si atom -5571.002893 kJ/mol
# Density = 2.298062 g / cm^3
# Si number density = 23.033049 Si / 1000 Ang^3
#
#
#
# Elastic Constant Matrix: (Units=GPa)
#
#
# Indices 1 2 3 4 5 6 
#
# 1 122.5398 64.3004 24.2771 0.0000 -29.4029 0.0000
# 2 64.3004 148.0048 38.0029 0.0000 -7.1506 0.0000
# 3 24.2771 38.0029 94.8302 0.0000 -16.6432 0.0000
# 4 0.0000 0.0000 0.0000 37.8322 0.0000 -2.1298
# 5 -29.4029 -7.1506 -16.6432 0.0000 47.2366 0.0000
# 6 0.0000 0.0000 0.0000 -2.1298 0.0000 25.9103
#
#
#
# Elastic Compliance Matrix: (Units=1/GPa)
#
#
# Indices 1 2 3 4 5 6 
#
# 1 0.012523 -0.005121 0.000084 0.000000 0.007049 0.000000
# 2 -0.005121 0.009626 -0.003038 0.000000 -0.002801 0.000000
# 3 0.000084 -0.003038 0.012439 0.000000 0.003975 0.000000
# 4 0.000000 0.000000 0.000000 0.026555 0.000000 0.002183
# 5 0.007049 -0.002801 0.003975 0.000000 0.026534 0.000000
# 6 0.000000 0.000000 0.000000 0.002183 0.000000 0.038774
#
#
# Mechanical properties :
#
#
# Convention : Reuss Voigt Hill
#
# Bulk Modulus (GPa) = 54.24153 68.72616 61.48385
# Shear Modulus (GPa) = 33.61365 38.11547 35.86456
#
# Velocity S-wave (km/s) = 3.82431 4.07236 3.95028
# Velocity P-wave (km/s) = 6.56514 7.21214 6.89623
#
# Compressibility (1/GPa) = 0.01843606
#
# Stress axis : x y z
#
# Youngs Moduli (GPa) = 79.85414 103.88187 80.39289
#
# Poissons Ratio (x) = 0.53202 -0.00672
# Poissons Ratio (y) = 0.40897 0.24425
# Poissons Ratio (z) = -0.00668 0.31562
#
# Static dielectric constant tensor:
#      x y z
#    x 1.896740 0.000000 0.010610 
#    y 0.000000 2.006780 0.000000 
#    z 0.010610 0.000000 1.916490 
# 
# From -- ./inp_files/94922.got.cif
#   From: 2010.05.17/outbox.cif.g08.bks.cpg/sg12_48_cif.got.tgz:94922.got - 2010.06.03 13:09:07.
