data_PCOD9175940
_publ_section_title
;
Structure prediction by ZEFSAII (Michael W. Deem and Ramdas Pophale) SiO2 
 PCOD9175940
Probable space group: C 2/M
;
_chemical_formula_sum "Si O2"
_cell_formula_units_Z 40
_cell_length_a 17.825398
_cell_length_b 15.059905
_cell_length_c 13.697606
_cell_angle_alpha 90.000000
_cell_angle_beta 152.216503
_cell_angle_gamma 90.000000
_cell_volume 1714.016116
_symmetry_space_group_name_H-M "C 2/M"
_symmetry_group_IT_number 12
_symmetry_cell_setting 'monoclinic'
loop_
_space_group_symop_operation_xyz
x,y,z
-x,y,-z
-x,-y,-z
x,-y,z
1/2+x,1/2+y,z
1/2-x,1/2+y,-z
1/2-x,1/2-y,-z
1/2+x,1/2-y,z
loop_
_atom_site_type_symbol
_atom_site_label
_atom_site_fract_x
_atom_site_fract_y
_atom_site_fract_z
Si Si1 0.757403 0.096483 0.133009
Si Si2 0.933211 0.758197 0.026243
Si Si3 0.684712 0.401819 0.386493
Si Si4 0.606848 0.360177 0.498450
Si Si5 0.133967 0.343781 0.582659
O O1 0.639878 0.180706 0.991057
O O2 0.821698 0.101715 0.319171
O O3 0.925875 0.105991 0.268996
O O4 0.684738 0.000000 0.029978
O O5 0.792291 0.825145 0.829919
O O6 0.000000 0.719961 0.000000
O O7 0.069267 0.818980 0.229426
O O8 0.610481 0.500000 0.291816
O O9 0.723207 0.385517 0.543860
O O10 0.823346 0.396097 0.465577
O O11 0.587040 0.255472 0.493763
O O12 0.000000 0.381221 0.500000
#
# Coordination Sequence:
#
# PCOD9175940 Si02
#       5
#     8   8   8   8   8
#     4  10  18  33  60  86 115 152 189 234 291 351
#     4   9  20  36  55  82 116 154 189 233 290 340
#     4  11  23  36  58  89 118 154 195 236 284 339
#     4  10  18  36  60  86 115 146 191 242 291 346
#     4  10  19  39  61  83 111 155 198 234 288 339
#
# _framework density 23.337004
#
# number of rings (size 3 to 8) (size 9 to 14) (size 15 to 20)
#    0.000    2.000    4.000    3.000    0.000    5.200 
#    0.000    0.000    0.000    1.200    0.000    0.000 
#    0.000    0.000    0.000    0.000    0.000    0.000 
#
# Total GULP energy -111760.351256 kJ/mol
# GULP energy per Si atom -5588.017563 kJ/mol
# Density = 2.328389 g / cm^3
# Si number density = 23.337004 Si / 1000 Ang^3
#
#
#
# Elastic Constant Matrix: (Units=GPa)
#
#
# Indices 1 2 3 4 5 6 
#
# 1 145.2959 16.5385 16.9322 0.0000 15.3545 0.0000
# 2 16.5385 114.3328 1.7035 0.0000 -3.4789 0.0000
# 3 16.9322 1.7035 29.2903 0.0000 10.1932 0.0000
# 4 0.0000 0.0000 0.0000 -10.1044 0.0000 18.0707
# 5 15.3545 -3.4789 10.1932 0.0000 22.1411 0.0000
# 6 0.0000 0.0000 0.0000 18.0707 0.0000 10.9730
#
#
#
# Elastic Compliance Matrix: (Units=1/GPa)
#
#
# Indices 1 2 3 4 5 6 
#
# 1 0.007815 -0.001215 -0.002971 0.000000 -0.004243 0.000000
# 2 -0.001215 0.009012 -0.000724 0.000000 0.002592 0.000000
# 3 -0.002971 -0.000724 0.041943 0.000000 -0.017363 0.000000
# 4 0.000000 0.000000 0.000000 -0.025085 0.000000 0.041311
# 5 -0.004243 0.002592 -0.017363 0.000000 0.056508 0.000000
# 6 0.000000 0.000000 0.000000 0.041311 0.000000 0.023100
#
#
# Mechanical properties :
#
#
# Convention : Reuss Voigt Hill
#
# Bulk Modulus (GPa) = 20.42856 39.91858 30.17357
# Shear Modulus (GPa) = 35.86065 21.51827 28.68946
#
# Velocity S-wave (km/s) = 3.92426 3.03985 3.51002
# Velocity P-wave (km/s) = 5.41348 5.42801 5.42075
#
# Compressibility (1/GPa) = 0.04895109
#
# Stress axis : x y z
#
# Youngs Moduli (GPa) = 127.95175 110.96499 23.84200
#
# Poissons Ratio (x) = 0.13486 0.07082
# Poissons Ratio (y) = 0.15551 0.01725
# Poissons Ratio (z) = 0.38009 0.08029
#
# Static dielectric constant tensor:
#      x y z
#    x 1.919090 0.000000 0.036240 
#    y 0.000000 1.880380 0.000000 
#    z 0.036240 0.000000 1.918470 
# 
# From -- ./inp_files/59198.got.cif
#   From: 2010.05.17/outbox.cif.g08.bks.cpg/sg12_30_cif.got.tgz:59198.got - 2010.06.03 13:09:07.
