data_PCOD9175958
_publ_section_title
;
Structure prediction by ZEFSAII (Michael W. Deem and Ramdas Pophale) SiO2 
 PCOD9175958
Probable space group: C 2/M
;
_chemical_formula_sum "Si O2"
_cell_formula_units_Z 48
_cell_length_a 15.379851
_cell_length_b 14.289231
_cell_length_c 24.756653
_cell_angle_alpha 90.000000
_cell_angle_beta 151.663917
_cell_angle_gamma 90.000000
_cell_volume 2582.376963
_symmetry_space_group_name_H-M "C 2/M"
_symmetry_group_IT_number 12
_symmetry_cell_setting 'monoclinic'
loop_
_space_group_symop_operation_xyz
x,y,z
-x,y,-z
-x,-y,-z
x,-y,z
1/2+x,1/2+y,z
1/2-x,1/2+y,-z
1/2-x,1/2-y,-z
1/2+x,1/2-y,z
loop_
_atom_site_type_symbol
_atom_site_label
_atom_site_fract_x
_atom_site_fract_y
_atom_site_fract_z
Si Si1 0.025915 0.000000 0.949671
Si Si2 0.803969 0.299513 0.369670
Si Si3 0.559181 0.302225 0.761179
Si Si4 0.230621 0.000000 0.282411
Si Si5 0.671313 0.702965 0.011782
Si Si6 0.541522 0.000000 0.088131
Si Si7 0.794271 0.697347 0.792637
Si Si8 0.646215 0.500000 0.859125
O O1 0.133652 0.906973 0.990561
O O2 0.825525 0.000000 0.811063
O O3 0.000000 0.000000 0.000000
O O4 0.648310 0.299206 0.331041
O O5 0.819857 0.403965 0.352063
O O6 0.736328 0.231925 0.284783
O O7 0.000000 0.272050 0.500000
O O8 0.683648 0.231513 0.863681
O O9 0.611939 0.285207 0.728134
O O10 0.632250 0.405875 0.816613
O O11 0.030500 0.000000 0.200285
O O12 0.750000 0.750000 0.000000
O O13 0.470281 0.746739 0.911756
O O14 0.645878 0.090563 0.166340
O O15 0.500000 0.000000 0.000000
O O16 0.332936 0.000000 0.994432
#
# Coordination Sequence:
#
# PCOD9175958 Si02
#       8
#     4   8   8   4   8   4   8   4
#     4  12  24  37  61 100 139 163 200 265 342 407
#     4  11  25  43  62  86 118 166 223 265 306 367
#     4  11  21  38  61  92 126 159 203 259 321 383
#     4  10  21  40  63  85 116 165 205 261 318 377
#     4  12  22  38  59  96 132 169 196 252 327 406
#     4  12  20  34  61  97 126 157 194 248 316 398
#     4  12  22  37  63  91 127 161 204 259 321 379
#     4  10  18  33  60  94 124 149 205 245 305 391
#
# _framework density 18.587526
#
# number of rings (size 3 to 8) (size 9 to 14) (size 15 to 20)
#    0.000    0.667    6.667    2.750    0.000    0.667 
#    0.000    0.417    0.000    0.000    0.000    0.000 
#    0.000    0.000    0.000    0.000    0.000    0.000 
#
# Total GULP energy -134022.970126 kJ/mol
# GULP energy per Si atom -5584.290422 kJ/mol
# Density = 1.854522 g / cm^3
# Si number density = 18.587526 Si / 1000 Ang^3
#
#
#
# Elastic Constant Matrix: (Units=GPa)
#
#
# Indices 1 2 3 4 5 6 
#
# 1 98.0974 18.3943 11.4778 0.0002 15.8040 -0.0003
# 2 18.3943 133.9455 15.2748 0.0006 6.6144 0.0005
# 3 11.4778 15.2748 78.8118 0.0021 20.6899 0.0015
# 4 0.0002 0.0006 0.0021 13.2828 0.0002 13.3776
# 5 15.8040 6.6144 20.6899 0.0002 22.1186 0.0002
# 6 -0.0003 0.0005 0.0015 13.3776 0.0002 104.7853
#
#
#
# Elastic Compliance Matrix: (Units=1/GPa)
#
#
# Indices 1 2 3 4 5 6 
#
# 1 0.011753 -0.001276 0.000848 0.000000 -0.008810 0.000000
# 2 -0.001276 0.007797 -0.001263 0.000000 -0.000239 0.000000
# 3 0.000848 -0.001263 0.017059 -0.000003 -0.016186 0.000000
# 4 0.000000 0.000000 -0.000003 0.086393 0.000002 -0.011030
# 5 -0.008810 -0.000239 -0.016186 0.000002 0.066717 0.000000
# 6 0.000000 0.000000 0.000000 -0.011030 0.000000 0.010951
#
#
# Mechanical properties :
#
#
# Convention : Reuss Voigt Hill
#
# Bulk Modulus (GPa) = 30.09441 44.57204 37.33323
# Shear Modulus (GPa) = 23.24209 45.75119 34.49664
#
# Velocity S-wave (km/s) = 3.53995 4.96662 4.31269
# Velocity P-wave (km/s) = 5.73883 7.54463 6.70282
#
# Compressibility (1/GPa) = 0.03322876
#
# Stress axis : x y z
#
# Youngs Moduli (GPa) = 85.08299 128.25947 58.62117
#
# Poissons Ratio (x) = 0.16363 -0.04973
# Poissons Ratio (y) = 0.10854 0.07401
# Poissons Ratio (z) = -0.07218 0.16194
#
# Static dielectric constant tensor:
#      x y z
#    x 1.729210 0.000000 0.002050 
#    y 0.000000 1.635510 0.000000 
#    z 0.002050 0.000000 1.608040 
# 
# From -- ./inp_files/340250.got.cif
#   From: 2010.05.17/outbox.cif.g08.bks.cpg/sg12_171_cif.got.tgz:340250.got - 2010.06.03 13:09:07.
