data_PCOD9175526
_publ_section_title
;
Structure prediction by ZEFSAII (Michael W. Deem and Ramdas Pophale) SiO2 
 PCOD9175526
Probable space group: C 2/M
;
_chemical_formula_sum "Si O2"
_cell_formula_units_Z 36
_cell_length_a 12.898202
_cell_length_b 18.760752
_cell_length_c 14.022290
_cell_angle_alpha 90.000000
_cell_angle_beta 149.847382
_cell_angle_gamma 90.000000
_cell_volume 1704.377924
_symmetry_space_group_name_H-M "C 2/M"
_symmetry_group_IT_number 12
_symmetry_cell_setting 'monoclinic'
loop_
_space_group_symop_operation_xyz
x,y,z
-x,y,-z
-x,-y,-z
x,-y,z
1/2+x,1/2+y,z
1/2-x,1/2+y,-z
1/2-x,1/2-y,-z
1/2+x,1/2-y,z
loop_
_atom_site_type_symbol
_atom_site_label
_atom_site_fract_x
_atom_site_fract_y
_atom_site_fract_z
Si Si1 0.642519 0.137918 0.375566
Si Si2 0.815800 0.212894 0.677760
Si Si3 0.199863 0.500000 0.299974
Si Si4 0.234114 0.148772 0.942886
Si Si5 0.000000 0.266205 0.000000
Si Si6 0.283540 0.500000 0.150533
O O1 0.683034 0.153015 0.519073
O O2 0.742755 0.208043 0.405147
O O3 0.727813 0.068972 0.388696
O O4 0.399355 0.137592 0.158305
O O5 0.843575 0.219123 0.812719
O O6 0.048624 0.198633 0.826346
O O7 0.313578 0.500000 0.288377
O O8 0.960359 0.500000 0.072906
O O9 0.141246 0.073537 0.835116
O O10 0.366983 0.182791 0.962884
#
# Coordination Sequence:
#
# PCOD9175526 Si02
#       6
#     8   8   4   8   4   4
#     4   9  18  33  51  74 105 133 165 205 254 304
#     4  10  20  34  51  76 104 136 171 207 251 300
#     4   9  16  31  53  77 105 132 161 211 261 304
#     4  10  19  34  53  77 107 133 163 210 257 304
#     4  10  18  33  54  73 102 136 172 210 248 297
#     4   9  16  29  53  79 103 132 163 201 265 314
#
# _framework density 21.122077000000001
#
# number of rings (size 3 to 8) (size 9 to 14) (size 15 to 20)
#    0.000    2.444    0.000    6.667    0.000    0.889 
#    0.000   26.667    0.000    2.667    0.000   12.444 
#    0.000    0.000    0.000    0.000    0.000    0.000 
#
# Total GULP energy -100458.639076 kJ/mol
# GULP energy per Si atom -5581.035504 kJ/mol
# Density = 2.107400 g / cm^3
# Si number density = 21.122077 Si / 1000 Ang^3
#
#
#
# Elastic Constant Matrix: (Units=GPa)
#
#
# Indices 1 2 3 4 5 6 
#
# 1 31.0740 31.2182 17.7604 -0.0001 -7.1406 0.0000
# 2 31.2182 143.6379 30.4725 0.0000 -23.7928 0.0000
# 3 17.7604 30.4725 130.3868 -0.0001 -35.7495 -0.0001
# 4 -0.0001 0.0000 -0.0001 26.4706 -0.0001 -8.2412
# 5 -7.1406 -23.7928 -35.7495 -0.0001 40.6838 0.0000
# 6 0.0000 0.0000 -0.0001 -8.2412 0.0000 17.5143
#
#
#
# Elastic Compliance Matrix: (Units=1/GPa)
#
#
# Indices 1 2 3 4 5 6 
#
# 1 0.042980 -0.008653 -0.004151 0.000000 -0.001165 0.000000
# 2 -0.008653 0.009506 0.000085 0.000000 0.004116 0.000000
# 3 -0.004151 0.000085 0.010577 0.000000 0.008616 0.000000
# 4 0.000000 0.000000 0.000000 0.044262 0.000000 0.020827
# 5 -0.001165 0.004116 0.008616 0.000000 0.034353 0.000000
# 6 0.000000 0.000000 0.000000 0.020827 0.000000 0.066896
#
#
# Mechanical properties :
#
#
# Convention : Reuss Voigt Hill
#
# Bulk Modulus (GPa) = 26.57842 51.55565 39.06704
# Shear Modulus (GPa) = 20.27943 31.97692 26.12817
#
# Velocity S-wave (km/s) = 3.10192 3.89512 3.52093
# Velocity P-wave (km/s) = 5.04378 6.68511 5.92159
#
# Compressibility (1/GPa) = 0.03762451
#
# Stress axis : x y z
#
# Youngs Moduli (GPa) = 23.26669 105.19319 94.54248
#
# Poissons Ratio (x) = 0.91029 0.39249
# Poissons Ratio (y) = 0.20134 -0.00808
# Poissons Ratio (z) = 0.09659 -0.00899
#
# Static dielectric constant tensor:
#      x y z
#    x 1.736540 0.000000 -0.012720 
#    y 0.000000 1.767860 0.000000 
#    z -0.012720 0.000000 1.867150 
# 
# From -- ./inp_files/216594.got.cif
#   From: 2010.05.17/outbox.cif.g08.bks.cpg/sg12_109_cif.got.tgz:216594.got - 2010.06.03 13:09:07.
