data_PCOD9175253
_publ_section_title
;
Structure prediction by ZEFSAII (Michael W. Deem and Ramdas Pophale) SiO2 
 PCOD9175253
Probable space group: C 2/M
;
_chemical_formula_sum "Si O2"
_cell_formula_units_Z 40
_cell_length_a 14.160182
_cell_length_b 14.651783
_cell_length_c 9.486532
_cell_angle_alpha 90.000000
_cell_angle_beta 70.614442
_cell_angle_gamma 90.000000
_cell_volume 1856.605140
_symmetry_space_group_name_H-M "C 2/M"
_symmetry_group_IT_number 12
_symmetry_cell_setting 'monoclinic'
loop_
_space_group_symop_operation_xyz
x,y,z
-x,y,-z
-x,-y,-z
x,-y,z
1/2+x,1/2+y,z
1/2-x,1/2+y,-z
1/2-x,1/2-y,-z
1/2+x,1/2-y,z
loop_
_atom_site_type_symbol
_atom_site_label
_atom_site_fract_x
_atom_site_fract_y
_atom_site_fract_z
Si Si1 0.240436 0.665677 0.398407
Si Si2 0.575690 0.107869 0.267234
Si Si3 0.226510 0.393012 0.939426
Si Si4 0.641018 0.101506 0.698899
Si Si5 0.385688 0.611404 0.083198
O O1 0.250000 0.750000 0.500000
O O2 0.144966 0.663084 0.341029
O O3 0.214179 0.592557 0.531249
O O4 0.335137 0.645042 0.252976
O O5 0.463211 0.143165 0.303328
O O6 0.574583 0.000000 0.313686
O O7 0.631618 0.110071 0.089795
O O8 0.252840 0.500000 0.901615
O O9 0.195695 0.352395 0.804499
O O10 0.318065 0.354344 0.985333
O O11 0.610015 0.000000 0.764437
O O12 0.378943 0.500000 0.090028
O O13 0.500000 0.637386 0.000000
#
# Coordination Sequence:
#
# PCOD9175253 Si02
#       5
#     8   8   8   8   8
#     4  11  22  35  50  79 116 148 182 229 288 341
#     4   9  17  33  58  83 110 146 184 224 279 346
#     4   8  15  29  53  85 111 133 176 234 281 325
#     4  10  18  32  57  86 111 138 181 238 291 336
#     4   9  18  37  61  79 105 153 203 234 265 327
#
# _framework density 21.544698
#
# number of rings (size 3 to 8) (size 9 to 14) (size 15 to 20)
#    0.000    2.600    0.000    4.200    0.000    4.000 
#    0.000   11.000    0.000    4.800    0.000    0.000 
#    0.000    0.000    0.000    0.000    0.000    0.000 
#
# Total GULP energy -111524.225942 kJ/mol
# GULP energy per Si atom -5576.211297 kJ/mol
# Density = 2.149566 g / cm^3
# Si number density = 21.544698 Si / 1000 Ang^3
#
#
#
# Elastic Constant Matrix: (Units=GPa)
#
#
# Indices 1 2 3 4 5 6 
#
# 1 157.1186 40.8169 117.9933 0.0000 -11.4666 0.0000
# 2 40.8169 50.7108 19.4256 0.0000 6.6721 0.0000
# 3 117.9933 19.4256 174.5108 0.0000 12.6518 0.0000
# 4 0.0000 0.0000 0.0000 22.8126 0.0000 8.9073
# 5 -11.4666 6.6721 12.6518 0.0000 31.8857 0.0000
# 6 0.0000 0.0000 0.0000 8.9073 0.0000 16.1757
#
#
#
# Elastic Compliance Matrix: (Units=1/GPa)
#
#
# Indices 1 2 3 4 5 6 
#
# 1 0.022667 -0.014786 -0.014925 0.000000 0.017167 0.000000
# 2 -0.014786 0.030630 0.007658 0.000000 -0.014765 0.000000
# 3 -0.014925 0.007658 0.015932 0.000000 -0.013291 0.000000
# 4 0.000000 0.000000 0.000000 0.055842 0.000000 -0.030750
# 5 0.017167 -0.014765 -0.013291 0.000000 0.045899 0.000000
# 6 0.000000 0.000000 0.000000 -0.030750 0.000000 0.078754
#
#
# Mechanical properties :
#
#
# Convention : Reuss Voigt Hill
#
# Bulk Modulus (GPa) = 39.80158 82.09021 60.94589
# Shear Modulus (GPa) = 16.54516 27.78174 22.16345
#
# Velocity S-wave (km/s) = 2.77419 3.59485 3.21085
# Velocity P-wave (km/s) = 5.36429 7.44416 6.48811
#
# Compressibility (1/GPa) = 0.02512463
#
# Stress axis : x y z
#
# Youngs Moduli (GPa) = 44.11758 32.64781 62.76493
#
# Poissons Ratio (x) = 0.48273 0.93674
# Poissons Ratio (y) = 0.65232 -0.48067
# Poissons Ratio (z) = 0.65843 -0.25003
#
# Static dielectric constant tensor:
#      x y z
#    x 1.789620 0.000000 0.023840 
#    y 0.000000 1.906410 0.000000 
#    z 0.023840 0.000000 1.770810 
# 
# From -- ./inp_files/58990.got.cif
#   From: 2010.05.17/outbox.cif.g08.bks.cpg/sg12_30_cif.got.tgz:58990.got - 2010.06.03 13:09:07.
