data_PCOD9175892
_publ_section_title
;
Structure prediction by ZEFSAII (Michael W. Deem and Ramdas Pophale) SiO2 
 PCOD9175892
Probable space group: C 2/M
;
_chemical_formula_sum "Si O2"
_cell_formula_units_Z 54
_cell_length_a 22.001697
_cell_length_b 22.408588
_cell_length_c 5.502445
_cell_angle_alpha 90.000000
_cell_angle_beta 69.273525
_cell_angle_gamma 90.000000
_cell_volume 2537.279479
_symmetry_space_group_name_H-M "C 2/M"
_symmetry_group_IT_number 12
_symmetry_cell_setting 'monoclinic'
loop_
_space_group_symop_operation_xyz
x,y,z
-x,y,-z
-x,-y,-z
x,-y,z
1/2+x,1/2+y,z
1/2-x,1/2+y,-z
1/2-x,1/2-y,-z
1/2+x,1/2-y,z
loop_
_atom_site_type_symbol
_atom_site_label
_atom_site_fract_x
_atom_site_fract_y
_atom_site_fract_z
Si Si1 0.943293 0.104664 0.386267
Si Si2 0.500000 0.708218 0.000000
Si Si3 0.105341 0.707419 0.075584
Si Si4 0.230918 0.429491 0.372650
Si Si5 0.808494 0.929258 0.769070
Si Si6 0.506077 0.895744 0.241845
Si Si7 0.500000 0.500000 0.000000
Si Si8 0.871437 0.326356 0.457473
O O1 0.875944 0.103468 0.623492
O O2 0.000000 0.091742 0.500000
O O3 0.957030 0.166395 0.233060
O O4 0.950708 0.052364 0.176820
O O5 0.547670 0.746824 0.100344
O O6 0.146756 0.704926 0.770766
O O7 0.136884 0.714809 0.293817
O O8 0.072682 0.641454 0.142754
O O9 0.214872 0.500000 0.374824
O O10 0.265659 0.420817 0.585265
O O11 0.169184 0.386564 0.455823
O O12 0.274291 0.413680 0.073208
O O13 0.823346 0.000000 0.764071
O O14 0.500000 0.929955 0.500000
O O15 0.447639 0.846245 0.328896
O O16 0.500000 0.929655 0.000000
#
# Coordination Sequence:
#
# PCOD9175892 Si02
#       8
#     8   4   8   8   8   8   2   8
#     4  11  25  37  65  93 129 157 196 256 306 376
#     4  11  24  37  58 100 119 154 207 250 308 360
#     4  10  19  34  58  86 117 159 205 246 307 363
#     4  10  22  38  62  91 116 161 214 253 292 359
#     4  10  22  40  62  85 125 161 198 246 304 366
#     4   8  14  25  47  76 101 141 189 234 282 352
#     4  10  22  40  60  98 120 160 200 224 336 374
#     4  10  18  33  59  84 116 158 207 246 297 366
#
# _framework density 21.282637999999999
#
# number of rings (size 3 to 8) (size 9 to 14) (size 15 to 20)
#    0.000    2.074    2.963    1.111    6.222    0.000 
#    0.000    0.000    0.000   13.333    0.000    0.000 
#    0.000    0.000    0.000    0.000    0.000    0.000 
#
# Total GULP energy -150345.947816 kJ/mol
# GULP energy per Si atom -5568.368438 kJ/mol
# Density = 2.123420 g / cm^3
# Si number density = 21.282638 Si / 1000 Ang^3
#
#
#
# Elastic Constant Matrix: (Units=GPa)
#
#
# Indices 1 2 3 4 5 6 
#
# 1 40.9615 17.0776 24.8919 0.0000 4.5892 0.0000
# 2 17.0776 62.6989 24.1249 0.0000 1.1087 0.0000
# 3 24.8919 24.1249 157.9173 0.0000 32.8350 0.0000
# 4 0.0000 0.0000 0.0000 8.2955 0.0000 -3.2795
# 5 4.5892 1.1087 32.8350 0.0000 38.4553 0.0000
# 6 0.0000 0.0000 0.0000 -3.2795 0.0000 15.8575
#
#
#
# Elastic Compliance Matrix: (Units=1/GPa)
#
#
# Indices 1 2 3 4 5 6 
#
# 1 0.029369 -0.006625 -0.003560 0.000000 -0.000274 0.000000
# 2 -0.006625 0.018579 -0.002246 0.000000 0.002173 0.000000
# 3 -0.003560 -0.002246 0.008675 0.000000 -0.006918 0.000000
# 4 0.000000 0.000000 0.000000 0.131280 0.000000 0.027150
# 5 -0.000274 0.002173 -0.006918 0.000000 0.031881 0.000000
# 6 0.000000 0.000000 0.000000 0.027150 0.000000 0.068677
#
#
# Mechanical properties :
#
#
# Convention : Reuss Voigt Hill
#
# Bulk Modulus (GPa) = 31.48418 43.75183 37.61801
# Shear Modulus (GPa) = 15.43635 25.55387 20.49511
#
# Velocity S-wave (km/s) = 2.69607 3.46886 3.10659
# Velocity P-wave (km/s) = 4.95148 6.05360 5.53007
#
# Compressibility (1/GPa) = 0.03176198
#
# Stress axis : x y z
#
# Youngs Moduli (GPa) = 34.04898 53.82316 115.27279
#
# Poissons Ratio (x) = 0.35656 0.41042
# Poissons Ratio (y) = 0.22556 0.25889
# Poissons Ratio (z) = 0.12123 0.12088
#
# Static dielectric constant tensor:
#      x y z
#    x 1.786220 0.000000 0.068870 
#    y 0.000000 1.719310 0.000000 
#    z 0.068870 0.000000 1.882360 
# 
# From -- ./inp_files/26017.got.cif
#   From: 2010.05.17/outbox.cif.g08.bks.cpg/sg12_14_cif.got.tgz:26017.got - 2010.06.03 13:09:07.
