data_PCOD9175841
_publ_section_title
;
Structure prediction by ZEFSAII (Michael W. Deem and Ramdas Pophale) SiO2 
 PCOD9175841
Probable space group: C 2/M
;
_chemical_formula_sum "Si O2"
_cell_formula_units_Z 36
_cell_length_a 27.358010
_cell_length_b 8.204671
_cell_length_c 10.846737
_cell_angle_alpha 90.000000
_cell_angle_beta 37.208401
_cell_angle_gamma 90.000000
_cell_volume 1472.299526
_symmetry_space_group_name_H-M "C 2/M"
_symmetry_group_IT_number 12
_symmetry_cell_setting 'monoclinic'
loop_
_space_group_symop_operation_xyz
x,y,z
-x,y,-z
-x,-y,-z
x,-y,z
1/2+x,1/2+y,z
1/2-x,1/2+y,-z
1/2-x,1/2-y,-z
1/2+x,1/2-y,z
loop_
_atom_site_type_symbol
_atom_site_label
_atom_site_fract_x
_atom_site_fract_y
_atom_site_fract_z
Si Si1 0.095568 0.500000 0.283404
Si Si2 0.188344 0.196635 0.733778
Si Si3 0.566302 0.000000 0.976952
Si Si4 0.669438 0.315029 0.410670
Si Si5 0.415448 0.000000 0.412913
Si Si6 0.402546 0.333375 0.719046
O O1 0.121367 0.666084 0.171659
O O2 0.000000 0.500000 0.500000
O O3 0.122470 0.500000 0.373502
O O4 0.250000 0.250000 0.500000
O O5 0.117325 0.331976 0.870736
O O6 0.242936 0.239688 0.743247
O O7 0.170616 0.000000 0.763517
O O8 0.500000 0.000000 0.000000
O O9 0.511375 0.000000 0.210451
O O10 0.664297 0.500000 0.472712
O O11 0.640280 0.333129 0.327994
O O12 0.612865 0.173853 0.583043
O O13 0.500000 0.330989 0.500000
O O14 0.383715 0.500000 0.824716
#
# Coordination Sequence:
#
# PCOD9175841 Si02
#       6
#     4   8   4   8   4   8
#     4   8  14  26  46  76 110 144 179 225 277 327
#     4  12  23  40  62  82 111 155 199 237 286 354
#     4  12  26  40  58  86 119 150 188 247 301 342
#     4  10  18  33  58  84 115 150 193 236 282 347
#     4  10  20  34  56  88 120 144 188 248 287 337
#     4   8  14  24  43  77 114 135 175 232 278 314
#
# _framework density 24.451544999999999
#
# number of rings (size 3 to 8) (size 9 to 14) (size 15 to 20)
#    0.000    2.000    3.333    1.333    0.000    1.333 
#    0.000    0.000    0.000    0.000    0.000   24.889 
#    0.000    0.000    0.000    0.000    0.000    0.000 
#
# Total GULP energy -100296.015830 kJ/mol
# GULP energy per Si atom -5572.000879 kJ/mol
# Density = 2.439589 g / cm^3
# Si number density = 24.451545 Si / 1000 Ang^3
#
#
#
# Elastic Constant Matrix: (Units=GPa)
#
#
# Indices 1 2 3 4 5 6 
#
# 1 111.1402 21.8960 33.3830 0.0000 -33.3483 0.0000
# 2 21.8960 376.8655 72.8029 0.0000 -17.9770 0.0000
# 3 33.3830 72.8029 112.6831 0.0000 -2.7185 0.0000
# 4 0.0000 0.0000 0.0000 33.1135 0.0000 -20.5387
# 5 -33.3483 -17.9770 -2.7185 0.0000 39.2479 0.0000
# 6 0.0000 0.0000 0.0000 -20.5387 0.0000 28.1984
#
#
#
# Elastic Compliance Matrix: (Units=1/GPa)
#
#
# Indices 1 2 3 4 5 6 
#
# 1 0.013571 0.000552 -0.004100 0.000000 0.011500 0.000000
# 2 0.000552 0.003117 -0.002135 0.000000 0.001749 0.000000
# 3 -0.004100 -0.002135 0.011380 0.000000 -0.003673 0.000000
# 4 0.000000 0.000000 0.000000 0.055084 0.000000 0.040121
# 5 0.011500 0.001749 -0.003673 0.000000 0.035797 0.000000
# 6 0.000000 0.000000 0.000000 0.040121 0.000000 0.064686
#
#
# Mechanical properties :
#
#
# Convention : Reuss Voigt Hill
#
# Bulk Modulus (GPa) = 59.87239 95.20586 77.53913
# Shear Modulus (GPa) = 24.92907 51.61909 38.27408
#
# Velocity S-wave (km/s) = 3.19647 4.59963 3.96068
# Velocity P-wave (km/s) = 6.17758 8.19938 7.25921
#
# Compressibility (1/GPa) = 0.01670219
#
# Stress axis : x y z
#
# Youngs Moduli (GPa) = 73.68694 320.78578 87.87302
#
# Poissons Ratio (x) = -0.17710 0.36025
# Poissons Ratio (y) = -0.04068 0.18765
# Poissons Ratio (z) = 0.30209 0.68502
#
# Static dielectric constant tensor:
#      x y z
#    x 2.016280 0.000000 -0.019230 
#    y 0.000000 2.034150 0.000000 
#    z -0.019230 0.000000 1.869970 
# 
# From -- ./inp_files/248757.got.cif
#   From: 2010.05.17/outbox.cif.g08.bks.cpg/sg12_125_cif.got.tgz:248757.got - 2010.06.03 13:09:07.
