data_PCOD9175523
_publ_section_title
;
Structure prediction by ZEFSAII (Michael W. Deem and Ramdas Pophale) SiO2 
 PCOD9175523
Probable space group: C 2/M
;
_chemical_formula_sum "Si O2"
_cell_formula_units_Z 48
_cell_length_a 5.159964
_cell_length_b 24.239071
_cell_length_c 23.320503
_cell_angle_alpha 90.000000
_cell_angle_beta 61.127584
_cell_angle_gamma 90.000000
_cell_volume 2554.197432
_symmetry_space_group_name_H-M "C 2/M"
_symmetry_group_IT_number 12
_symmetry_cell_setting 'monoclinic'
loop_
_space_group_symop_operation_xyz
x,y,z
-x,y,-z
-x,-y,-z
x,-y,z
1/2+x,1/2+y,z
1/2-x,1/2+y,-z
1/2-x,1/2-y,-z
1/2+x,1/2-y,z
loop_
_atom_site_type_symbol
_atom_site_label
_atom_site_fract_x
_atom_site_fract_y
_atom_site_fract_z
Si Si1 0.312377 0.062254 0.738428
Si Si2 0.714799 0.285495 0.931034
Si Si3 0.143252 0.063687 0.405869
Si Si4 0.607323 0.166483 0.209060
Si Si5 0.928409 0.165945 0.287892
Si Si6 0.585789 0.136348 0.430453
O O1 0.623454 0.062797 0.671560
O O2 0.349548 0.100410 0.789872
O O3 0.099348 0.099747 0.721623
O O4 0.215085 0.000000 0.757216
O O5 0.510778 0.234196 0.931514
O O6 0.798215 0.315178 0.863508
O O7 0.500000 0.315112 0.000000
O O8 0.309691 0.102118 0.434391
O O9 0.840561 0.091941 0.418891
O O10 0.102660 0.000000 0.427724
O O11 0.799335 0.189755 0.241983
O O12 0.267767 0.180220 0.258725
O O13 0.724227 0.174454 0.365458
O O14 0.500000 0.163965 0.500000
#
# Coordination Sequence:
#
# PCOD9175523 Si02
#       6
#     8   8   8   8   8   8
#     4   8  17  29  47  68  96 135 178 214 243 279
#     4  10  21  37  59  88 114 131 151 188 252 322
#     4  10  19  29  39  57  87 128 173 220 263 296
#     4  10  18  33  54  72 103 136 165 206 243 303
#     4   9  18  31  44  71  95 135 177 212 246 291
#     4  11  19  29  40  58  92 130 172 218 259 293
#
# _framework density 18.792594999999999
#
# number of rings (size 3 to 8) (size 9 to 14) (size 15 to 20)
#    1.000    1.333    1.667    2.000    0.000    3.333 
#    0.000    0.000    0.000    0.500    0.000    1.167 
#    0.000   13.333    0.000    0.000    0.000    0.000 
#
# Total GULP energy -133675.405938 kJ/mol
# GULP energy per Si atom -5569.808581 kJ/mol
# Density = 1.874982 g / cm^3
# Si number density = 18.792595 Si / 1000 Ang^3
#
#
#
# Elastic Constant Matrix: (Units=GPa)
#
#
# Indices 1 2 3 4 5 6 
#
# 1 86.1810 -8.3639 -1.9094 0.0000 9.2238 0.0000
# 2 -8.3639 33.2773 12.7381 0.0000 2.7922 0.0000
# 3 -1.9094 12.7381 123.3928 0.0000 22.7225 0.0000
# 4 0.0000 0.0000 0.0000 5.4725 0.0000 4.2086
# 5 9.2238 2.7922 22.7225 0.0000 26.4680 0.0000
# 6 0.0000 0.0000 0.0000 4.2086 0.0000 1.4307
#
#
#
# Elastic Compliance Matrix: (Units=1/GPa)
#
#
# Indices 1 2 3 4 5 6 
#
# 1 0.012523 0.003276 0.000859 0.000000 -0.005447 0.000000
# 2 0.003276 0.032153 -0.002891 0.000000 -0.002052 0.000000
# 3 0.000859 -0.002891 0.009995 0.000000 -0.008575 0.000000
# 4 0.000000 0.000000 0.000000 -0.144769 0.000000 0.425859
# 5 -0.005447 -0.002052 -0.008575 0.000000 0.047258 0.000000
# 6 0.000000 0.000000 0.000000 0.425859 0.000000 -0.553761
#
#
# Mechanical properties :
#
#
# Convention : Reuss Voigt Hill
#
# Bulk Modulus (GPa) = 17.49507 27.53119 22.51313
# Shear Modulus (GPa) = -8.62015 22.69999 7.03992
#
# Velocity S-wave (km/s) = -2.14405 3.47929 1.93759
# Velocity P-wave (km/s) = 1.78899 5.55179 4.12449
#
# Compressibility (1/GPa) = 0.05715897
#
# Stress axis : x y z
#
# Youngs Moduli (GPa) = 79.85035 31.10168 100.05075
#
# Poissons Ratio (x) = -0.10189 -0.08591
# Poissons Ratio (y) = -0.26159 0.28921
# Poissons Ratio (z) = -0.06856 0.08990
#
# Static dielectric constant tensor:
#      x y z
#    x 1.662360 0.000000 0.016520 
#    y 0.000000 1.667410 0.000000 
#    z 0.016520 0.000000 1.685930 
# 
# From -- ./inp_files/355003.got.cif
#   From: 2010.05.17/outbox.cif.g08.bks.cpg/sg12_178_cif.got.tgz:355003.got - 2010.06.03 13:09:07.
