data_PCOD9175104
_publ_section_title
;
Structure prediction by ZEFSAII (Michael W. Deem and Ramdas Pophale) SiO2 
 PCOD9175104
Probable space group: C 2/M
;
_chemical_formula_sum "Si O2"
_cell_formula_units_Z 56
_cell_length_a 27.294312
_cell_length_b 13.568984
_cell_length_c 11.898882
_cell_angle_alpha 90.000000
_cell_angle_beta 149.577632
_cell_angle_gamma 90.000000
_cell_volume 2231.485097
_symmetry_space_group_name_H-M "C 2/M"
_symmetry_group_IT_number 12
_symmetry_cell_setting 'monoclinic'
loop_
_space_group_symop_operation_xyz
x,y,z
-x,y,-z
-x,-y,-z
x,-y,z
1/2+x,1/2+y,z
1/2-x,1/2+y,-z
1/2-x,1/2-y,-z
1/2+x,1/2-y,z
loop_
_atom_site_type_symbol
_atom_site_label
_atom_site_fract_x
_atom_site_fract_y
_atom_site_fract_z
Si Si1 0.783066 0.203689 0.923006
Si Si2 0.873381 0.889710 0.880615
Si Si3 0.108920 0.324448 0.437734
Si Si4 0.886588 0.386740 0.025918
Si Si5 0.101682 0.112176 0.663189
Si Si6 0.381865 0.812685 0.774825
Si Si7 0.902450 0.104682 0.614099
O O1 0.839363 0.139530 0.938636
O O2 0.673921 0.173635 0.676305
O O3 0.818570 0.313740 0.962069
O O4 0.683522 0.328155 0.888408
O O5 0.848478 0.798007 0.749911
O O6 0.842086 0.000000 0.788353
O O7 0.989802 0.894743 0.122631
O O8 0.142127 0.374380 0.386886
O O9 0.130432 0.215066 0.430157
O O10 0.998523 0.348447 0.249473
O O11 0.880808 0.500000 0.050589
O O12 0.857721 0.375252 0.838369
O O13 0.000000 0.157134 0.500000
O O14 0.098916 0.106016 0.524334
O O15 0.106780 0.000000 0.716727
O O16 0.500000 0.805536 0.000000
O O17 0.856673 0.000000 0.556898
#
# Coordination Sequence:
#
# PCOD9175104 Si02
#       7
#     8   8   8   8   8   8   8
#     4  11  22  37  59  85 116 151 195 243 289 344
#     4  10  18  32  55  86 114 141 182 240 290 339
#     4  11  22  38  58  85 117 155 197 238 286 343
#     4  10  22  41  59  81 117 159 198 238 285 348
#     4  10  18  33  60  87 112 145 186 236 296 350
#     4   9  18  35  55  83 112 155 194 232 282 348
#     4  10  19  34  58  86 113 143 186 236 292 345
#
# _framework density 25.095393000000001
#
# number of rings (size 3 to 8) (size 9 to 14) (size 15 to 20)
#    0.000    1.857    5.714    0.429    0.000    8.000 
#    0.000    1.429    0.000    3.857    0.000    0.000 
#    0.000    0.000    0.000    0.000    0.000    0.000 
#
# Total GULP energy -156340.593205 kJ/mol
# GULP energy per Si atom -5583.592614 kJ/mol
# Density = 2.503827 g / cm^3
# Si number density = 25.095393 Si / 1000 Ang^3
#
#
#
# Elastic Constant Matrix: (Units=GPa)
#
#
# Indices 1 2 3 4 5 6 
#
# 1 98.1609 28.0654 21.9189 0.0000 -11.3241 0.0000
# 2 28.0654 117.6956 36.7668 0.0000 -12.3864 0.0000
# 3 21.9189 36.7668 104.9397 0.0000 -4.0639 0.0000
# 4 0.0000 0.0000 0.0000 12.8709 0.0000 10.2709
# 5 -11.3241 -12.3864 -4.0639 0.0000 30.9302 0.0000
# 6 0.0000 0.0000 0.0000 10.2709 0.0000 -16.5301
#
#
#
# Elastic Compliance Matrix: (Units=1/GPa)
#
#
# Indices 1 2 3 4 5 6 
#
# 1 0.011459 -0.001891 -0.001606 0.000000 0.003227 0.000000
# 2 -0.001891 0.010222 -0.003070 0.000000 0.002998 0.000000
# 3 -0.001606 -0.003070 0.010926 0.000000 -0.000382 0.000000
# 4 0.000000 0.000000 0.000000 0.051941 0.000000 0.032273
# 5 0.003227 0.002998 -0.000382 0.000000 0.034663 0.000000
# 6 0.000000 0.000000 0.000000 0.032273 0.000000 -0.040443
#
#
# Mechanical properties :
#
#
# Convention : Reuss Voigt Hill
#
# Bulk Modulus (GPa) = 51.35615 54.92205 53.13910
# Shear Modulus (GPa) = 50.81694 21.05722 35.93708
#
# Velocity S-wave (km/s) = 4.50483 2.89984 3.78831
# Velocity P-wave (km/s) = 6.89687 5.75716 6.35263
#
# Compressibility (1/GPa) = 0.01947186
#
# Stress axis : x y z
#
# Youngs Moduli (GPa) = 87.26823 97.82737 91.52795
#
# Poissons Ratio (x) = 0.18501 0.14698
# Poissons Ratio (y) = 0.16504 0.28102
# Poissons Ratio (z) = 0.14014 0.30036
#
# Static dielectric constant tensor:
#      x y z
#    x 2.040320 0.000000 -0.040160 
#    y 0.000000 2.096290 0.000000 
#    z -0.040160 0.000000 2.192690 
# 
# From -- ./inp_files/246618.got.cif
#   From: 2010.05.17/outbox.cif.g08.bks.cpg/sg12_124_cif.got.tgz:246618.got - 2010.06.03 13:09:07.
