data_PCOD9175718
_publ_section_title
;
Structure prediction by ZEFSAII (Michael W. Deem and Ramdas Pophale) SiO2 
 PCOD9175718
Probable space group: C 2/M
;
_chemical_formula_sum "Si O2"
_cell_formula_units_Z 56
_cell_length_a 9.115150
_cell_length_b 15.465882
_cell_length_c 27.289132
_cell_angle_alpha 90.000000
_cell_angle_beta 39.580324
_cell_angle_gamma 90.000000
_cell_volume 2451.186152
_symmetry_space_group_name_H-M "C 2/M"
_symmetry_group_IT_number 12
_symmetry_cell_setting 'monoclinic'
loop_
_space_group_symop_operation_xyz
x,y,z
-x,y,-z
-x,-y,-z
x,-y,z
1/2+x,1/2+y,z
1/2-x,1/2+y,-z
1/2-x,1/2-y,-z
1/2+x,1/2-y,z
loop_
_atom_site_type_symbol
_atom_site_label
_atom_site_fract_x
_atom_site_fract_y
_atom_site_fract_z
Si Si1 0.944665 0.760091 0.291382
Si Si2 0.948241 0.091659 0.660034
Si Si3 0.102890 0.404176 0.202455
Si Si4 0.096754 0.643927 0.092989
Si Si5 0.764161 0.159533 0.949580
Si Si6 0.038212 0.184965 0.547059
Si Si7 0.914271 0.095486 0.810983
O O1 0.116010 0.680868 0.233608
O O2 0.696683 0.726944 0.371964
O O3 0.014801 0.824828 0.316403
O O4 0.938726 0.824171 0.246343
O O5 0.673976 0.086789 0.726399
O O6 0.065981 0.105568 0.577102
O O7 0.029657 0.000000 0.660142
O O8 0.191413 0.500000 0.193527
O O9 0.170417 0.381745 0.128793
O O10 0.110810 0.747788 0.083221
O O11 0.839069 0.609383 0.148839
O O12 0.251617 0.616751 0.006395
O O13 0.875583 0.103102 0.878738
O O14 0.500000 0.175206 0.000000
O O15 0.250000 0.250000 0.500000
O O16 0.000000 0.163849 0.500000
O O17 0.000421 0.000000 0.776922
#
# Coordination Sequence:
#
# PCOD9175718 Si02
#       7
#     8   8   8   8   8   8   8
#     4  11  21  37  63  91 129 163 209 262 323 378
#     4  10  21  39  66  97 125 165 211 258 316 387
#     4  10  20  34  59  90 117 159 215 261 319 386
#     4  10  18  33  56  85 119 161 211 264 318 375
#     4   9  20  34  53  86 119 166 212 261 322 375
#     4  11  23  43  67  97 132 173 213 258 323 390
#     4  11  21  35  59  90 120 160 213 262 317 381
#
# _framework density 22.846083
#
# number of rings (size 3 to 8) (size 9 to 14) (size 15 to 20)
#    0.000    1.714    4.286    0.857    0.000    3.429 
#    0.000    2.143    0.000   12.857    0.000    0.000 
#    0.000    0.000    0.000    0.000    0.000    0.000 
#
# Total GULP energy -156334.786860 kJ/mol
# GULP energy per Si atom -5583.385245 kJ/mol
# Density = 2.279408 g / cm^3
# Si number density = 22.846083 Si / 1000 Ang^3
#
#
#
# Elastic Constant Matrix: (Units=GPa)
#
#
# Indices 1 2 3 4 5 6 
#
# 1 67.7579 37.2735 44.2328 -0.0044 21.1382 -0.0048
# 2 37.2735 156.1727 52.3947 -0.0045 21.2934 -0.0041
# 3 44.2328 52.3947 141.6794 -0.0239 38.3486 -0.0335
# 4 -0.0044 -0.0045 -0.0239 -4.5726 0.0038 3.7367
# 5 21.1382 21.2934 38.3486 0.0038 48.1968 0.0054
# 6 -0.0048 -0.0041 -0.0335 3.7367 0.0054 38.7525
#
#
#
# Elastic Compliance Matrix: (Units=1/GPa)
#
#
# Indices 1 2 3 4 5 6 
#
# 1 0.020405 -0.002891 -0.004110 0.000000 -0.004402 -0.000001
# 2 -0.002891 0.007792 -0.001772 0.000003 -0.000765 -0.000001
# 3 -0.004110 -0.001772 0.010574 -0.000043 -0.005828 0.000013
# 4 0.000000 0.000003 -0.000043 -0.202719 0.000047 0.019547
# 5 -0.004402 -0.000765 -0.005828 0.000047 0.027654 -0.000014
# 6 -0.000001 -0.000001 0.000013 0.019547 -0.000014 0.023920
#
#
# Mechanical properties :
#
#
# Convention : Reuss Voigt Hill
#
# Bulk Modulus (GPa) = 47.11391 70.37911 58.74651
# Shear Modulus (GPa) = -56.97766 31.92261 -12.52753
#
# Velocity S-wave (km/s) = -4.99939 3.74209 -2.34422
# Velocity P-wave (km/s) = 3.55783 7.03872 4.29450
#
# Compressibility (1/GPa) = 0.02122515
#
# Stress axis : x y z
#
# Youngs Moduli (GPa) = 49.00768 128.33836 94.57055
#
# Poissons Ratio (x) = 0.37103 0.38868
# Poissons Ratio (y) = 0.14168 0.16758
# Poissons Ratio (z) = 0.20142 0.22742
#
# Static dielectric constant tensor:
#      x y z
#    x 1.925400 0.000000 0.040250 
#    y 0.000000 1.901310 0.000000 
#    z 0.040250 0.000000 1.852310 
# 
# From -- ./inp_files/373963.got.cif
#   From: 2010.05.17/outbox.cif.g08.bks.cpg/sg12_187_cif.got.tgz:373963.got - 2010.06.03 13:09:07.
