data_PCOD9175081
_publ_section_title
;
Structure prediction by ZEFSAII (Michael W. Deem and Ramdas Pophale) SiO2 
 PCOD9175081
Probable space group: C 2/M
;
_chemical_formula_sum "Si O2"
_cell_formula_units_Z 32
_cell_length_a 10.012441
_cell_length_b 15.184411
_cell_length_c 16.720960
_cell_angle_alpha 90.000000
_cell_angle_beta 37.784429
_cell_angle_gamma 90.000000
_cell_volume 1557.548384
_symmetry_space_group_name_H-M "C 2/M"
_symmetry_group_IT_number 12
_symmetry_cell_setting 'monoclinic'
loop_
_space_group_symop_operation_xyz
x,y,z
-x,y,-z
-x,-y,-z
x,-y,z
1/2+x,1/2+y,z
1/2-x,1/2+y,-z
1/2-x,1/2-y,-z
1/2+x,1/2-y,z
loop_
_atom_site_type_symbol
_atom_site_label
_atom_site_fract_x
_atom_site_fract_y
_atom_site_fract_z
Si Si1 0.809231 0.600917 0.819599
Si Si2 0.778508 0.892469 0.646902
Si Si3 0.903042 0.835436 0.926373
Si Si4 0.729436 0.894323 0.852472
O O1 0.795694 0.500000 0.795839
O O2 0.643987 0.663489 0.849969
O O3 0.057494 0.632640 0.705432
O O4 0.725535 0.600444 0.951309
O O5 0.762790 0.863137 0.746456
O O6 0.000000 0.863065 0.500000
O O7 0.777727 0.000000 0.647523
O O8 0.907616 0.866712 0.833124
O O9 0.750000 0.750000 0.000000
O O10 0.723507 0.000000 0.852075
O O11 0.500000 0.864875 0.000000
#
# Coordination Sequence:
#
# PCOD9175081 Si02
#       4
#     8   8   8   8
#     4  10  20  36  56  79 112 150 187 227 284 336
#     4   9  18  33  56  84 113 146 186 231 278 332
#     4  11  22  32  53  83 115 142 183 236 282 329
#     4  10  18  32  55  83 110 141 185 232 277 327
#
# _framework density 20.545107000000002
#
# number of rings (size 3 to 8) (size 9 to 14) (size 15 to 20)
#    0.000    2.000    2.500    3.000    3.500    0.000 
#    0.000    1.250    0.000   12.000    0.000    0.000 
#    0.000    0.000    0.000    0.000    0.000    1.000 
#
# Total GULP energy -89303.356139 kJ/mol
# GULP energy per Si atom -5581.459759 kJ/mol
# Density = 2.049835 g / cm^3
# Si number density = 20.545107 Si / 1000 Ang^3
#
#
#
# Elastic Constant Matrix: (Units=GPa)
#
#
# Indices 1 2 3 4 5 6 
#
# 1 185.3461 43.8355 91.3899 0.0003 -16.8050 -0.0008
# 2 43.8355 65.2595 21.8857 -0.0001 -2.0593 -0.0005
# 3 91.3899 21.8857 135.4673 0.0006 -16.4415 -0.0010
# 4 0.0003 -0.0001 0.0006 9.9971 -0.0004 -5.0068
# 5 -16.8050 -2.0593 -16.4415 -0.0004 33.8138 0.0008
# 6 -0.0008 -0.0005 -0.0010 -5.0068 0.0008 17.6774
#
#
#
# Elastic Compliance Matrix: (Units=1/GPa)
#
#
# Indices 1 2 3 4 5 6 
#
# 1 0.009185 -0.004343 -0.005285 0.000000 0.001731 0.000000
# 2 -0.004343 0.018257 -0.000156 0.000000 -0.001122 0.000000
# 3 -0.005285 -0.000156 0.011321 0.000000 0.002868 0.000000
# 4 0.000000 0.000000 0.000000 0.116563 0.000000 0.033015
# 5 0.001731 -0.001122 0.002868 0.000000 0.031760 -0.000001
# 6 0.000000 0.000000 0.000000 0.033015 -0.000001 0.065920
#
#
# Mechanical properties :
#
#
# Convention : Reuss Voigt Hill
#
# Bulk Modulus (GPa) = 52.09513 77.81056 64.95285
# Shear Modulus (GPa) = 17.92285 27.56178 22.74232
#
# Velocity S-wave (km/s) = 2.95679 3.66666 3.33069
# Velocity P-wave (km/s) = 6.08838 7.47537 6.81724
#
# Compressibility (1/GPa) = 0.01919565
#
# Stress axis : x y z
#
# Youngs Moduli (GPa) = 108.87079 54.77206 88.33494
#
# Poissons Ratio (x) = 0.23786 0.46684
# Poissons Ratio (y) = 0.47281 0.01379
# Poissons Ratio (z) = 0.57537 0.00855
#
# Static dielectric constant tensor:
#      x y z
#    x 1.784850 0.000000 -0.009650 
#    y 0.000000 1.779690 0.000000 
#    z -0.009650 0.000000 1.707940 
# 
# From -- ./inp_files/45238.got.cif
#   From: 2010.05.17/outbox.cif.g08.bks.cpg/sg12_23_cif.got.tgz:45238.got - 2010.06.03 13:09:07.
