data_PCOD9175174
_publ_section_title
;
Structure prediction by ZEFSAII (Michael W. Deem and Ramdas Pophale) SiO2 
 PCOD9175174
Probable space group: C 2/M
;
_chemical_formula_sum "Si O2"
_cell_formula_units_Z 56
_cell_length_a 21.081069
_cell_length_b 14.681926
_cell_length_c 12.036261
_cell_angle_alpha 90.000000
_cell_angle_beta 60.167544
_cell_angle_gamma 90.000000
_cell_volume 3231.682069
_symmetry_space_group_name_H-M "C 2/M"
_symmetry_group_IT_number 12
_symmetry_cell_setting 'monoclinic'
loop_
_space_group_symop_operation_xyz
x,y,z
-x,y,-z
-x,-y,-z
x,-y,z
1/2+x,1/2+y,z
1/2-x,1/2+y,-z
1/2-x,1/2-y,-z
1/2+x,1/2-y,z
loop_
_atom_site_type_symbol
_atom_site_label
_atom_site_fract_x
_atom_site_fract_y
_atom_site_fract_z
Si Si1 0.198458 0.831169 0.496927
Si Si2 0.555132 0.739457 0.207995
Si Si3 0.083903 0.243042 0.419528
Si Si4 0.583614 0.244152 0.938112
Si Si5 0.072857 0.107289 0.768187
Si Si6 0.840152 0.598962 0.280285
Si Si7 0.949169 0.604935 0.391248
O O1 0.250000 0.750000 0.500000
O O2 0.140435 0.798639 0.455912
O O3 0.148209 0.874792 0.636067
O O4 0.255927 0.895832 0.386541
O O5 0.603778 0.724554 0.274824
O O6 0.493088 0.662574 0.236101
O O7 0.510782 0.830588 0.282631
O O8 0.598141 0.750574 0.055928
O O9 0.076006 0.346814 0.472414
O O10 0.000000 0.206491 0.500000
O O11 0.581736 0.341893 0.878634
O O12 0.635938 0.178693 0.823013
O O13 0.500000 0.207910 0.000000
O O14 0.058051 0.000000 0.788937
O O15 0.859280 0.500000 0.216179
O O16 0.884446 0.609423 0.357021
O O17 0.970080 0.500000 0.387538
#
# Coordination Sequence:
#
# PCOD9175174 Si02
#       7
#     8   8   8   8   8   8   8
#     4  12  19  38  61  84 112 148 185 240 288 341
#     4  10  20  36  54  84 115 149 188 229 282 338
#     4  10  19  36  58  82 118 147 183 234 284 342
#     4  10  19  36  55  83 116 151 190 232 276 339
#     4  11  21  36  59  85 113 148 195 242 283 329
#     4  11  21  34  57  86 112 145 187 234 284 334
#     4  10  18  32  56  84 113 144 181 229 284 334
#
# _framework density 17.328437999999998
#
# number of rings (size 3 to 8) (size 9 to 14) (size 15 to 20)
#    0.000    1.429    8.571    0.429    0.000    6.000 
#    0.000    2.857    0.000    0.000    0.000    0.000 
#    0.000    0.000    0.000    0.000    0.000    0.000 
#
# Total GULP energy -155962.498764 kJ/mol
# GULP energy per Si atom -5570.089242 kJ/mol
# Density = 1.728900 g / cm^3
# Si number density = 17.328438 Si / 1000 Ang^3
#
#
#
# Elastic Constant Matrix: (Units=GPa)
#
#
# Indices 1 2 3 4 5 6 
#
# 1 69.3401 20.0478 23.3801 0.0000 12.3888 0.0000
# 2 20.0478 106.8190 43.5866 0.0000 8.7954 0.0000
# 3 23.3801 43.5866 121.3772 0.0000 21.5758 0.0000
# 4 0.0000 0.0000 0.0000 7.5835 0.0000 -1.7404
# 5 12.3888 8.7954 21.5758 0.0000 35.2904 0.0000
# 6 0.0000 0.0000 0.0000 -1.7404 0.0000 9.2437
#
#
#
# Elastic Compliance Matrix: (Units=1/GPa)
#
#
# Indices 1 2 3 4 5 6 
#
# 1 0.016324 -0.002038 -0.001665 0.000000 -0.004204 0.000000
# 2 -0.002038 0.011228 -0.003668 0.000000 0.000160 0.000000
# 3 -0.001665 -0.003668 0.010782 0.000000 -0.005093 0.000000
# 4 0.000000 0.000000 0.000000 0.137820 0.000000 0.025949
# 5 -0.004204 0.000160 -0.005093 0.000000 0.032886 0.000000
# 6 0.000000 0.000000 0.000000 0.025949 0.000000 0.113068
#
#
# Mechanical properties :
#
#
# Convention : Reuss Voigt Hill
#
# Bulk Modulus (GPa) = 42.38787 52.39613 47.39200
# Shear Modulus (GPa) = 14.50486 24.45833 19.48159
#
# Velocity S-wave (km/s) = 2.89633 3.76101 3.35663
# Velocity P-wave (km/s) = 5.97491 7.01163 6.51393
#
# Compressibility (1/GPa) = 0.02359166
#
# Stress axis : x y z
#
# Youngs Moduli (GPa) = 61.26130 89.06688 92.74800
#
# Poissons Ratio (x) = 0.18152 0.15443
# Poissons Ratio (y) = 0.12485 0.34016
# Poissons Ratio (z) = 0.10200 0.32666
#
# Static dielectric constant tensor:
#      x y z
#    x 1.612230 0.000000 0.020200 
#    y 0.000000 1.621480 0.000000 
#    z 0.020200 0.000000 1.623450 
# 
# From -- ./inp_files/166665.got.cif
#   From: 2010.05.17/outbox.cif.g08.bks.cpg/sg12_84_cif.got.tgz:166665.got - 2010.06.03 13:09:07.
