data_PCOD9175648
_publ_section_title
;
Structure prediction by ZEFSAII (Michael W. Deem and Ramdas Pophale) SiO2 
 PCOD9175648
Probable space group: C 2/M
;
_chemical_formula_sum "Si O2"
_cell_formula_units_Z 48
_cell_length_a 23.746320
_cell_length_b 7.432743
_cell_length_c 12.511295
_cell_angle_alpha 90.000000
_cell_angle_beta 110.975936
_cell_angle_gamma 90.000000
_cell_volume 2061.908591
_symmetry_space_group_name_H-M "C 2/M"
_symmetry_group_IT_number 12
_symmetry_cell_setting 'monoclinic'
loop_
_space_group_symop_operation_xyz
x,y,z
-x,y,-z
-x,-y,-z
x,-y,z
1/2+x,1/2+y,z
1/2-x,1/2+y,-z
1/2-x,1/2-y,-z
1/2+x,1/2-y,z
loop_
_atom_site_type_symbol
_atom_site_label
_atom_site_fract_x
_atom_site_fract_y
_atom_site_fract_z
Si Si1 0.594264 0.209355 0.828874
Si Si2 0.652070 0.217428 0.475925
Si Si3 0.430285 0.780547 0.954527
Si Si4 0.200416 0.794466 0.743104
Si Si5 0.514153 0.219534 0.389132
Si Si6 0.322331 0.220696 0.736992
O O1 0.653298 0.216838 0.795346
O O2 0.537482 0.286857 0.725289
O O3 0.579575 0.000000 0.833436
O O4 0.598317 0.278930 0.951921
O O5 0.673132 0.287537 0.604702
O O6 0.582378 0.268390 0.409557
O O7 0.686233 0.276778 0.391899
O O8 0.655168 0.000000 0.485429
O O9 0.386370 0.723268 0.829142
O O10 0.430921 0.000000 0.948217
O O11 0.500000 0.723072 0.000000
O O12 0.267185 0.716317 0.773314
O O13 0.207582 0.000000 0.781510
O O14 0.500000 0.276780 0.500000
O O15 0.511901 0.000000 0.387004
O O16 0.320832 0.000000 0.735197
#
# Coordination Sequence:
#
# PCOD9175648 Si02
#       6
#     8   8   8   8   8   8
#     4  10  19  33  55  80 104 134 172 212 256 308
#     4  10  18  33  56  76 101 135 174 215 260 306
#     4   9  17  32  56  83 104 125 168 222 263 302
#     4  11  22  34  48  73 111 143 171 207 254 305
#     4   9  15  26  48  77 101 121 159 214 259 291
#     4   9  19  33  50  75 105 137 168 212 264 303
#
# _framework density 23.279402000000001
#
# number of rings (size 3 to 8) (size 9 to 14) (size 15 to 20)
#    0.000    2.333    1.667    2.000    0.000    4.667 
#    0.000    2.500    0.000    2.500    0.000    0.000 
#    0.000    0.000    0.000    0.000    0.000    0.000 
#
# Total GULP energy -134073.926345 kJ/mol
# GULP energy per Si atom -5586.413598 kJ/mol
# Density = 2.322642 g / cm^3
# Si number density = 23.279402 Si / 1000 Ang^3
#
#
#
# Elastic Constant Matrix: (Units=GPa)
#
#
# Indices 1 2 3 4 5 6 
#
# 1 107.5644 -11.2748 35.8163 0.0000 3.5726 0.0000
# 2 -11.2748 67.1225 -9.1213 0.0000 2.0633 0.0000
# 3 35.8163 -9.1213 108.2256 0.0000 -10.0355 0.0000
# 4 0.0000 0.0000 0.0000 -9.1409 0.0000 -1.0832
# 5 3.5726 2.0633 -10.0355 0.0000 32.1932 0.0000
# 6 0.0000 0.0000 0.0000 -1.0832 0.0000 8.7771
#
#
#
# Elastic Compliance Matrix: (Units=1/GPa)
#
#
# Indices 1 2 3 4 5 6 
#
# 1 0.010742 0.001381 -0.003663 0.000000 -0.002422 0.000000
# 2 0.001381 0.015259 0.000746 0.000000 -0.000899 0.000000
# 3 -0.003663 0.000746 0.010862 0.000000 0.003745 0.000000
# 4 0.000000 0.000000 0.000000 -0.107822 0.000000 -0.013307
# 5 -0.002422 -0.000899 0.003745 0.000000 0.032556 0.000000
# 6 0.000000 0.000000 0.000000 -0.013307 0.000000 0.112291
#
#
# Mechanical properties :
#
#
# Convention : Reuss Voigt Hill
#
# Bulk Modulus (GPa) = 29.59437 34.86144 32.22790
# Shear Modulus (GPa) = 56.67372 24.19872 40.43622
#
# Velocity S-wave (km/s) = 4.93942 3.22761 4.17225
# Velocity P-wave (km/s) = 6.72835 5.37566 6.08968
#
# Compressibility (1/GPa) = 0.03379021
#
# Stress axis : x y z
#
# Youngs Moduli (GPa) = 93.09522 65.53484 92.06142
#
# Poissons Ratio (x) = -0.09050 0.33723
# Poissons Ratio (y) = -0.12856 -0.06865
# Poissons Ratio (z) = 0.34102 -0.04887
#
# Static dielectric constant tensor:
#      x y z
#    x 1.859240 0.000000 0.003560 
#    y 0.000000 1.913350 0.000000 
#    z 0.003560 0.000000 1.843450 
# 
# From -- ./inp_files/172858.got.cif
#   From: 2010.05.17/outbox.cif.g08.bks.cpg/sg12_87_cif.got.tgz:172858.got - 2010.06.03 13:09:07.
