data_PCOD9175110
_publ_section_title
;
Structure prediction by ZEFSAII (Michael W. Deem and Ramdas Pophale) SiO2 
 PCOD9175110
Probable space group: C 2/M
;
_chemical_formula_sum "Si O2"
_cell_formula_units_Z 56
_cell_length_a 10.140726
_cell_length_b 26.109698
_cell_length_c 14.732220
_cell_angle_alpha 90.000000
_cell_angle_beta 121.633234
_cell_angle_gamma 90.000000
_cell_volume 3321.118695
_symmetry_space_group_name_H-M "C 2/M"
_symmetry_group_IT_number 12
_symmetry_cell_setting 'monoclinic'
loop_
_space_group_symop_operation_xyz
x,y,z
-x,y,-z
-x,-y,-z
x,-y,z
1/2+x,1/2+y,z
1/2-x,1/2+y,-z
1/2-x,1/2-y,-z
1/2+x,1/2-y,z
loop_
_atom_site_type_symbol
_atom_site_label
_atom_site_fract_x
_atom_site_fract_y
_atom_site_fract_z
Si Si1 0.073279 0.500000 0.929186
Si Si2 0.673574 0.705954 0.257980
Si Si3 0.998103 0.702007 0.726190
Si Si4 0.417196 0.396876 0.872943
Si Si5 0.166673 0.334057 0.509747
Si Si6 0.374157 0.055525 0.535451
Si Si7 0.439641 0.500000 0.082412
Si Si8 0.942356 0.413346 0.218128
O O1 0.027987 0.450001 0.855338
O O2 0.256914 0.500000 0.009839
O O3 0.000000 0.500000 0.000000
O O4 0.833684 0.714240 0.258723
O O5 0.563500 0.755052 0.227655
O O6 0.591561 0.655760 0.186267
O O7 0.723107 0.693088 0.379175
O O8 0.013606 0.646062 0.777088
O O9 0.874360 0.693659 0.599245
O O10 0.498779 0.446156 0.856248
O O11 0.240337 0.413707 0.826401
O O12 0.500000 0.387675 0.000000
O O13 0.221545 0.392481 0.513556
O O14 0.000000 0.337816 0.500000
O O15 0.500000 0.053656 0.500000
O O16 0.467719 0.064952 0.662117
O O17 0.294808 0.000000 0.508890
O O18 0.500000 0.500000 0.000000
#
# Coordination Sequence:
#
# PCOD9175110 Si02
#       8
#     4   8   8   8   8   8   4   8
#     4  12  22  36  55  80 104 140 177 214 258 312
#     4  10  19  34  50  76 103 135 171 212 254 303
#     4   9  19  33  54  74 102 132 173 209 263 305
#     4  10  18  32  56  74 101 131 174 211 261 297
#     4   8  15  29  46  72 101 131 165 208 248 313
#     4   9  15  23  44  78 108 128 163 210 268 310
#     4  10  18  36  58  74  97 137 175 209 260 306
#     4  10  18  34  52  77 106 139 167 220 263 305
#
# _framework density 16.861788000000001
#
# number of rings (size 3 to 8) (size 9 to 14) (size 15 to 20)
#    0.000    2.429    3.571    3.000    0.000    0.000 
#    3.857    3.571    0.000    0.000    0.000    0.000 
#    0.000    8.000    0.000    0.000    0.000    0.000 
#
# Total GULP energy -155900.705733 kJ/mol
# GULP energy per Si atom -5567.882348 kJ/mol
# Density = 1.682341 g / cm^3
# Si number density = 16.861788 Si / 1000 Ang^3
#
#
#
# Elastic Constant Matrix: (Units=GPa)
#
#
# Indices 1 2 3 4 5 6 
#
# 1 53.0318 52.8314 26.6568 0.0000 -12.0453 0.0000
# 2 52.8314 156.0237 44.4406 0.0000 -11.3169 0.0000
# 3 26.6568 44.4406 49.0769 0.0000 -4.7147 0.0000
# 4 0.0000 0.0000 0.0000 44.1034 0.0000 -9.1014
# 5 -12.0453 -11.3169 -4.7147 0.0000 19.1893 0.0000
# 6 0.0000 0.0000 0.0000 -9.1014 0.0000 24.9135
#
#
#
# Elastic Compliance Matrix: (Units=1/GPa)
#
#
# Indices 1 2 3 4 5 6 
#
# 1 0.035497 -0.007884 -0.010700 0.000000 0.015003 0.000000
# 2 -0.007884 0.010590 -0.005308 0.000000 -0.000007 0.000000
# 3 -0.010700 -0.005308 0.030776 0.000000 -0.002286 0.000000
# 4 0.000000 0.000000 0.000000 0.024523 0.000000 0.008959
# 5 0.015003 -0.000007 -0.002286 0.000000 0.060964 0.000000
# 6 0.000000 0.000000 0.000000 0.008959 0.000000 0.043412
#
#
# Mechanical properties :
#
#
# Convention : Reuss Voigt Hill
#
# Bulk Modulus (GPa) = 34.39050 56.22111 45.30580
# Shear Modulus (GPa) = 18.99420 26.58816 22.79118
#
# Velocity S-wave (km/s) = 3.35993 3.97524 3.68046
# Velocity P-wave (km/s) = 5.95751 7.38138 6.70733
#
# Compressibility (1/GPa) = 0.02907780
#
# Stress axis : x y z
#
# Youngs Moduli (GPa) = 28.17160 94.42671 32.49335
#
# Poissons Ratio (x) = 0.74442 0.34769
# Poissons Ratio (y) = 0.22209 0.17249
# Poissons Ratio (z) = 0.30145 0.50125
#
# Static dielectric constant tensor:
#      x y z
#    x 1.535000 0.000000 -0.004930 
#    y 0.000000 1.621530 0.000000 
#    z -0.004930 0.000000 1.581230 
# 
# From -- ./inp_files/199950.got.cif
#   From: 2010.05.17/outbox.cif.g08.bks.cpg/sg12_100_cif.got.tgz:199950.got - 2010.06.03 13:09:07.
