data_PCOD9175928
_publ_section_title
;
Structure prediction by ZEFSAII (Michael W. Deem and Ramdas Pophale) SiO2 
 PCOD9175928
Probable space group: C 2/M
;
_chemical_formula_sum "Si O2"
_cell_formula_units_Z 40
_cell_length_a 20.078867
_cell_length_b 13.232466
_cell_length_c 11.726029
_cell_angle_alpha 90.000000
_cell_angle_beta 34.586369
_cell_angle_gamma 90.000000
_cell_volume 1768.520056
_symmetry_space_group_name_H-M "C 2/M"
_symmetry_group_IT_number 12
_symmetry_cell_setting 'monoclinic'
loop_
_space_group_symop_operation_xyz
x,y,z
-x,y,-z
-x,-y,-z
x,-y,z
1/2+x,1/2+y,z
1/2-x,1/2+y,-z
1/2-x,1/2-y,-z
1/2+x,1/2-y,z
loop_
_atom_site_type_symbol
_atom_site_label
_atom_site_fract_x
_atom_site_fract_y
_atom_site_fract_z
Si Si1 0.334361 0.119401 0.278433
Si Si2 0.419555 0.618615 0.727186
Si Si3 0.820036 0.382980 0.036714
Si Si4 0.598775 0.722992 0.632101
Si Si5 0.049800 0.387184 0.554381
O O1 0.343617 0.148180 0.132738
O O2 0.401984 0.202553 0.258605
O O3 0.198162 0.138171 0.503854
O O4 0.367384 0.000000 0.249470
O O5 0.500000 0.627355 0.500000
O O6 0.411975 0.500000 0.766976
O O7 0.292670 0.660543 0.869583
O O8 0.481401 0.673588 0.746325
O O9 0.783946 0.500000 0.104277
O O10 0.936305 0.383725 0.796810
O O11 0.635186 0.801705 0.479900
O O12 0.100357 0.500000 0.486538
O O13 0.000000 0.367627 0.500000
#
# Coordination Sequence:
#
# PCOD9175928 Si02
#       5
#     8   8   8   8   8
#     4  10  21  38  60  88 119 156 202 247 294 353
#     4  10  18  33  59  91 123 153 195 250 296 347
#     4   9  19  37  62  88 117 154 198 251 298 343
#     4  11  21  34  57  90 119 159 194 241 298 353
#     4  10  22  39  58  86 123 158 195 245 304 358
#
# _framework density 22.617782999999999
#
# number of rings (size 3 to 8) (size 9 to 14) (size 15 to 20)
#    0.000    2.000    2.000    1.800    0.000    1.600 
#    0.000    3.000    0.000    0.000    0.000    7.000 
#    0.000    0.000    0.000    0.000    0.000    0.000 
#
# Total GULP energy -111649.351447 kJ/mol
# GULP energy per Si atom -5582.467572 kJ/mol
# Density = 2.256630 g / cm^3
# Si number density = 22.617783 Si / 1000 Ang^3
#
#
#
# Elastic Constant Matrix: (Units=GPa)
#
#
# Indices 1 2 3 4 5 6 
#
# 1 171.4102 50.1486 43.1944 0.0000 23.8344 0.0000
# 2 50.1486 113.7686 11.8351 0.0000 15.9425 0.0000
# 3 43.1944 11.8351 44.1504 0.0000 9.3961 0.0000
# 4 0.0000 0.0000 0.0000 4.9251 0.0000 5.9050
# 5 23.8344 15.9425 9.3961 0.0000 26.2204 0.0000
# 6 0.0000 0.0000 0.0000 5.9050 0.0000 47.7034
#
#
#
# Elastic Compliance Matrix: (Units=1/GPa)
#
#
# Indices 1 2 3 4 5 6 
#
# 1 0.008984 -0.002652 -0.007236 0.000000 -0.003961 0.000000
# 2 -0.002652 0.010477 0.000681 0.000000 -0.004203 0.000000
# 3 -0.007236 0.000681 0.030566 0.000000 -0.004790 0.000000
# 4 0.000000 0.000000 0.000000 0.238430 0.000000 -0.029514
# 5 -0.003961 -0.004203 -0.004790 0.000000 0.046011 0.000000
# 6 0.000000 0.000000 0.000000 -0.029514 0.000000 0.024616
#
#
# Mechanical properties :
#
#
# Convention : Reuss Voigt Hill
#
# Bulk Modulus (GPa) = 31.63264 59.96503 45.79884
# Shear Modulus (GPa) = 12.88541 30.71319 21.79930
#
# Velocity S-wave (km/s) = 2.38943 3.68900 3.10790
# Velocity P-wave (km/s) = 4.65066 6.68692 5.75949
#
# Compressibility (1/GPa) = 0.03161291
#
# Stress axis : x y z
#
# Youngs Moduli (GPa) = 111.30864 95.44633 32.71646
#
# Poissons Ratio (x) = 0.25316 0.23672
# Poissons Ratio (y) = 0.29523 -0.02228
# Poissons Ratio (z) = 0.80538 -0.06500
#
# Static dielectric constant tensor:
#      x y z
#    x 1.893180 0.000000 -0.030020 
#    y 0.000000 1.923590 0.000000 
#    z -0.030020 0.000000 1.827430 
# 
# From -- ./inp_files/155758.got.cif
#   From: 2010.05.17/outbox.cif.g08.bks.cpg/sg12_78_cif.got.tgz:155758.got - 2010.06.03 13:09:07.
