data_PCOD9175714
_publ_section_title
;
Structure prediction by ZEFSAII (Michael W. Deem and Ramdas Pophale) SiO2 
 PCOD9175714
Probable space group: C 2/M
;
_chemical_formula_sum "Si O2"
_cell_formula_units_Z 64
_cell_length_a 14.580666
_cell_length_b 23.872853
_cell_length_c 8.956143
_cell_angle_alpha 90.000000
_cell_angle_beta 101.137342
_cell_angle_gamma 90.000000
_cell_volume 3058.761600
_symmetry_space_group_name_H-M "C 2/M"
_symmetry_group_IT_number 12
_symmetry_cell_setting 'monoclinic'
loop_
_space_group_symop_operation_xyz
x,y,z
-x,y,-z
-x,-y,-z
x,-y,z
1/2+x,1/2+y,z
1/2-x,1/2+y,-z
1/2-x,1/2-y,-z
1/2+x,1/2-y,z
loop_
_atom_site_type_symbol
_atom_site_label
_atom_site_fract_x
_atom_site_fract_y
_atom_site_fract_z
Si Si1 0.407329 0.271675 0.716268
Si Si2 0.709871 0.375155 0.849156
Si Si3 0.617582 0.742597 0.740552
Si Si4 0.951069 0.061993 0.627343
Si Si5 0.768234 0.664082 0.391421
Si Si6 0.876712 0.875982 0.874080
Si Si7 0.254225 0.061797 0.574152
Si Si8 0.109101 0.687134 0.041854
O O1 0.507803 0.265472 0.676654
O O2 0.326875 0.301585 0.593334
O O3 0.416864 0.313923 0.860677
O O4 0.376156 0.215830 0.790793
O O5 0.667600 0.317683 0.765545
O O6 0.724149 0.422473 0.731322
O O7 0.812502 0.359896 0.942875
O O8 0.642211 0.391633 0.963496
O O9 0.661051 0.788709 0.642612
O O10 0.626730 0.770705 0.908851
O O11 0.943260 0.088296 0.787839
O O12 0.843331 0.058589 0.545068
O O13 0.000000 0.091531 0.500000
O O14 0.993393 0.000000 0.651871
O O15 0.725617 0.630059 0.236622
O O16 0.802363 0.617340 0.518447
O O17 0.299343 0.000000 0.578472
O O18 0.000000 0.670347 0.000000
#
# Coordination Sequence:
#
# PCOD9175714 Si02
#       8
#     8   8   8   8   8   8   8   8
#     4   9  18  31  53  85 120 154 191 227 292 370
#     4  12  20  33  59  89 122 152 195 246 302 359
#     4  11  18  31  59  88 120 156 193 240 303 362
#     4   9  19  38  56  73 107 159 207 242 277 333
#     4   9  18  38  57  80 124 162 197 240 295 365
#     4   9  18  32  54  82 115 154 194 230 286 351
#     4  10  24  39  56  81 120 164 200 252 304 339
#     4  10  18  33  56  84 123 152 179 237 311 369
#
# _framework density 20.923501999999999
#
# number of rings (size 3 to 8) (size 9 to 14) (size 15 to 20)
#    0.750    1.375    3.750    0.375    1.750    1.000 
#    0.000    0.000    2.750    2.625    0.000    6.125 
#    0.000    0.000    0.000    0.000    0.000    0.000 
#
# Total GULP energy -178302.065672 kJ/mol
# GULP energy per Si atom -5571.939552 kJ/mol
# Density = 2.087588 g / cm^3
# Si number density = 20.923502 Si / 1000 Ang^3
#
#
#
# Elastic Constant Matrix: (Units=GPa)
#
#
# Indices 1 2 3 4 5 6 
#
# 1 73.9287 39.7775 22.6998 0.0000 -16.4953 0.0000
# 2 39.7775 81.5884 55.5175 0.0000 -18.4092 0.0000
# 3 22.6998 55.5175 98.1162 0.0000 -22.6261 0.0000
# 4 0.0000 0.0000 0.0000 12.0447 0.0000 -12.0070
# 5 -16.4953 -18.4092 -22.6261 0.0000 24.1948 0.0000
# 6 0.0000 0.0000 0.0000 -12.0070 0.0000 16.1472
#
#
#
# Elastic Compliance Matrix: (Units=1/GPa)
#
#
# Indices 1 2 3 4 5 6 
#
# 1 0.019798 -0.009633 0.002923 0.000000 0.008902 0.000000
# 2 -0.009633 0.025298 -0.011680 0.000000 0.001758 0.000000
# 3 0.002923 -0.011680 0.018531 0.000000 0.010435 0.000000
# 4 0.000000 0.000000 0.000000 0.320894 0.000000 0.238616
# 5 0.008902 0.001758 0.010435 0.000000 0.058497 0.000000
# 6 0.000000 0.000000 0.000000 0.238616 0.000000 0.239365
#
#
# Mechanical properties :
#
#
# Convention : Reuss Voigt Hill
#
# Bulk Modulus (GPa) = 37.24813 54.40255 45.82534
# Shear Modulus (GPa) = 6.86708 19.51992 13.19350
#
# Velocity S-wave (km/s) = 1.81359 3.05769 2.51382
# Velocity P-wave (km/s) = 4.71447 6.20669 5.51132
#
# Compressibility (1/GPa) = 0.02684699
#
# Stress axis : x y z
#
# Youngs Moduli (GPa) = 50.50954 39.52957 53.96286
#
# Poissons Ratio (x) = 0.38078 -0.15773
# Poissons Ratio (y) = 0.48655 0.63030
# Poissons Ratio (z) = -0.14764 0.46171
#
# Static dielectric constant tensor:
#      x y z
#    x 1.768610 0.000000 0.008590 
#    y 0.000000 1.804490 0.000000 
#    z 0.008590 0.000000 1.854900 
# 
# From -- ./inp_files/65865.got.cif
#   From: 2010.05.17/outbox.cif.g08.bks.cpg/sg12_33_cif.got.tgz:65865.got - 2010.06.03 13:09:07.
