data_PCOD9175975
_publ_section_title
;
Structure prediction by ZEFSAII (Michael W. Deem and Ramdas Pophale) SiO2 
 PCOD9175975
Probable space group: C 2/M
;
_chemical_formula_sum "Si O2"
_cell_formula_units_Z 44
_cell_length_a 7.638743
_cell_length_b 19.784375
_cell_length_c 12.400319
_cell_angle_alpha 90.000000
_cell_angle_beta 74.997753
_cell_angle_gamma 90.000000
_cell_volume 1810.157256
_symmetry_space_group_name_H-M "C 2/M"
_symmetry_group_IT_number 12
_symmetry_cell_setting 'monoclinic'
loop_
_space_group_symop_operation_xyz
x,y,z
-x,y,-z
-x,-y,-z
x,-y,z
1/2+x,1/2+y,z
1/2-x,1/2+y,-z
1/2-x,1/2-y,-z
1/2+x,1/2-y,z
loop_
_atom_site_type_symbol
_atom_site_label
_atom_site_fract_x
_atom_site_fract_y
_atom_site_fract_z
Si Si1 0.737322 0.500000 0.301847
Si Si2 0.130341 0.283400 0.684846
Si Si3 0.709874 0.077920 0.082018
Si Si4 0.710580 0.392355 0.475552
Si Si5 0.714156 0.116254 0.850548
Si Si6 0.747261 0.857162 0.299727
O O1 0.807347 0.441125 0.375656
O O2 0.669133 0.560767 0.231112
O O3 0.259023 0.316349 0.572814
O O4 0.195393 0.314368 0.788868
O O5 0.115419 0.203311 0.694144
O O6 0.937533 0.315772 0.688662
O O7 0.489122 0.082672 0.123080
O O8 0.783393 0.104489 0.183389
O O9 0.757333 0.000000 0.056423
O O10 0.763475 0.120469 0.967949
O O11 0.500000 0.412616 0.500000
O O12 0.768017 0.400283 0.589419
#
# Coordination Sequence:
#
# PCOD9175975 Si02
#       6
#     4   8   8   8   8   8
#     4  10  19  35  59  85 117 160 193 237 300 357
#     4  10  22  39  59  88 119 160 199 242 294 348
#     4  10  18  33  61  91 123 152 195 248 289 351
#     4  11  23  39  60  84 121 161 197 244 296 359
#     4   9  17  35  60  87 120 158 197 239 295 351
#     4  11  23  38  61  91 121 156 199 247 291 348
#
# _framework density 24.307279000000001
#
# number of rings (size 3 to 8) (size 9 to 14) (size 15 to 20)
#    0.000    1.818    1.818    3.000    1.273    0.727 
#    0.000    2.727    0.000    9.818    0.000    0.000 
#    0.000    0.000    0.000    0.000    0.000    0.000 
#
# Total GULP energy -122566.180764 kJ/mol
# GULP energy per Si atom -5571.190035 kJ/mol
# Density = 2.425195 g / cm^3
# Si number density = 24.307279 Si / 1000 Ang^3
#
#
#
# Elastic Constant Matrix: (Units=GPa)
#
#
# Indices 1 2 3 4 5 6 
#
# 1 67.8143 -5.7271 18.9565 0.0000 11.8647 0.0000
# 2 -5.7271 37.1639 6.9382 0.0000 9.1440 0.0000
# 3 18.9565 6.9382 186.8795 0.0000 49.7089 0.0000
# 4 0.0000 0.0000 0.0000 40.1374 0.0000 -3.8036
# 5 11.8647 9.1440 49.7089 0.0000 29.8440 0.0000
# 6 0.0000 0.0000 0.0000 -3.8036 0.0000 13.3686
#
#
#
# Elastic Compliance Matrix: (Units=1/GPa)
#
#
# Indices 1 2 3 4 5 6 
#
# 1 0.016541 0.004627 0.000497 0.000000 -0.008821 0.000000
# 2 0.004627 0.030966 0.002503 0.000000 -0.015496 0.000000
# 3 0.000497 0.002503 0.009811 0.000000 -0.017306 0.000000
# 4 0.000000 0.000000 0.000000 0.025605 0.000000 0.007285
# 5 -0.008821 -0.015496 -0.017306 0.000000 0.070587 0.000000
# 6 0.000000 0.000000 0.000000 0.007285 0.000000 0.076875
#
#
# Mechanical properties :
#
#
# Convention : Reuss Voigt Hill
#
# Bulk Modulus (GPa) = 13.77953 36.91031 25.34492
# Shear Modulus (GPa) = 20.89224 34.78266 27.83745
#
# Velocity S-wave (km/s) = 2.93491 3.78690 3.38780
# Velocity P-wave (km/s) = 4.14321 5.85992 5.07468
#
# Compressibility (1/GPa) = 0.07257140
#
# Stress axis : x y z
#
# Youngs Moduli (GPa) = 60.45441 32.29307 101.92687
#
# Poissons Ratio (x) = -0.14941 -0.05062
# Poissons Ratio (y) = -0.27971 -0.25511
# Poissons Ratio (z) = -0.03003 -0.08083
#
# Static dielectric constant tensor:
#      x y z
#    x 2.049750 0.000000 -0.089300 
#    y 0.000000 1.943490 0.000000 
#    z -0.089300 0.000000 1.990000 
# 
# From -- ./inp_files/120701.got.cif
#   From: 2010.05.17/outbox.cif.g08.bks.cpg/sg12_61_cif.got.tgz:120701.got - 2010.06.03 13:09:07.
