data_PCOD9175106
_publ_section_title
;
Structure prediction by ZEFSAII (Michael W. Deem and Ramdas Pophale) SiO2 
 PCOD9175106
Probable space group: C 2/M
;
_chemical_formula_sum "Si O2"
_cell_formula_units_Z 64
_cell_length_a 19.813009
_cell_length_b 18.604030
_cell_length_c 12.062039
_cell_angle_alpha 90.000000
_cell_angle_beta 129.054490
_cell_angle_gamma 90.000000
_cell_volume 3452.597905
_symmetry_space_group_name_H-M "C 2/M"
_symmetry_group_IT_number 12
_symmetry_cell_setting 'monoclinic'
loop_
_space_group_symop_operation_xyz
x,y,z
-x,y,-z
-x,-y,-z
x,-y,z
1/2+x,1/2+y,z
1/2-x,1/2+y,-z
1/2-x,1/2-y,-z
1/2+x,1/2-y,z
loop_
_atom_site_type_symbol
_atom_site_label
_atom_site_fract_x
_atom_site_fract_y
_atom_site_fract_z
Si Si1 0.838006 0.076826 0.943608
Si Si2 0.762961 0.082104 0.110408
Si Si3 0.599066 0.633511 0.563972
Si Si4 0.786506 0.420420 0.382377
Si Si5 0.399522 0.802464 0.407091
Si Si6 0.394198 0.416532 0.676800
Si Si7 0.968720 0.198484 0.082196
Si Si8 0.159210 0.294163 0.907105
O O1 0.751503 0.076236 0.781806
O O2 0.882089 0.000000 0.968265
O O3 0.816558 0.083204 0.050337
O O4 0.895208 0.142742 0.966483
O O5 0.829299 0.108205 0.273269
O O6 0.736213 0.000000 0.103678
O O7 0.683106 0.135564 0.003874
O O8 0.500000 0.618757 0.500000
O O9 0.607915 0.719695 0.562984
O O10 0.612310 0.594862 0.461151
O O11 0.821943 0.500000 0.446593
O O12 0.853237 0.355439 0.445684
O O13 0.701114 0.407490 0.368100
O O14 0.500000 0.821578 0.500000
O O15 0.361982 0.807660 0.243336
O O16 0.421092 0.500000 0.727629
O O17 0.459620 0.354481 0.788436
O O18 0.920076 0.250257 0.118870
O O19 0.000000 0.234789 0.000000
O O20 0.250000 0.250000 0.000000
#
# Coordination Sequence:
#
# PCOD9175106 Si02
#       8
#     8   8   8   8   8   8   8   8
#     4  10  18  32  55  86 119 151 193 244 300 361
#     4  11  22  37  64  89 115 163 212 255 307 359
#     4  11  23  39  57  87 126 164 209 254 301 367
#     4  10  21  38  59  90 126 159 198 252 313 368
#     4  11  22  39  65  91 124 163 206 257 307 358
#     4  11  24  39  58  90 131 162 197 251 313 381
#     4  12  22  34  58  90 124 161 200 246 315 370
#     4  12  22  41  62  89 127 161 208 262 297 359
#
# _framework density 18.536766
#
# number of rings (size 3 to 8) (size 9 to 14) (size 15 to 20)
#    0.000    1.000    5.000    3.000    0.000    3.250 
#    0.000    1.250    0.000    0.375    0.000    0.000 
#    0.000    0.000    0.000    0.000    0.000    0.000 
#
# Total GULP energy -178544.774438 kJ/mol
# GULP energy per Si atom -5579.524201 kJ/mol
# Density = 1.849458 g / cm^3
# Si number density = 18.536766 Si / 1000 Ang^3
#
#
#
# Elastic Constant Matrix: (Units=GPa)
#
#
# Indices 1 2 3 4 5 6 
#
# 1 99.7958 65.7919 26.8709 0.0000 -8.2915 0.0000
# 2 65.7919 110.7086 18.3559 0.0000 11.2661 0.0000
# 3 26.8709 18.3559 67.0660 0.0000 -2.0302 0.0000
# 4 0.0000 0.0000 0.0000 11.7557 0.0000 -4.5401
# 5 -8.2915 11.2661 -2.0302 0.0000 27.0652 0.0000
# 6 0.0000 0.0000 0.0000 -4.5401 0.0000 19.1395
#
#
#
# Elastic Compliance Matrix: (Units=1/GPa)
#
#
# Indices 1 2 3 4 5 6 
#
# 1 0.020379 -0.012513 -0.004404 0.000000 0.011121 0.000000
# 2 -0.012513 0.017632 -0.000151 0.000000 -0.011184 0.000000
# 3 -0.004404 -0.000151 0.016716 0.000000 -0.000032 0.000000
# 4 0.000000 0.000000 0.000000 0.093644 0.000000 0.022213
# 5 0.011121 -0.011184 -0.000032 0.000000 0.045008 0.000000
# 6 0.000000 0.000000 0.000000 0.022213 0.000000 0.057517
#
#
# Mechanical properties :
#
#
# Convention : Reuss Voigt Hill
#
# Bulk Modulus (GPa) = 48.56338 55.51197 52.03767
# Shear Modulus (GPa) = 17.12945 22.69555 19.91250
#
# Velocity S-wave (km/s) = 3.04317 3.50287 3.28108
# Velocity P-wave (km/s) = 6.21314 6.80971 6.51825
#
# Compressibility (1/GPa) = 0.02059165
#
# Stress axis : x y z
#
# Youngs Moduli (GPa) = 49.06907 56.71528 59.82463
#
# Poissons Ratio (x) = 0.70966 0.26346
# Poissons Ratio (y) = 0.61399 0.00904
# Poissons Ratio (z) = 0.21610 0.00857
#
# Static dielectric constant tensor:
#      x y z
#    x 1.646520 0.000000 -0.017490 
#    y 0.000000 1.736300 0.000000 
#    z -0.017490 0.000000 1.666180 
# 
# From -- ./inp_files/168823.got.cif
#   From: 2010.05.17/outbox.cif.g08.bks.cpg/sg12_85_cif.got.tgz:168823.got - 2010.06.03 13:09:07.
