data_PCOD9175090
_publ_section_title
;
Structure prediction by ZEFSAII (Michael W. Deem and Ramdas Pophale) SiO2 
 PCOD9175090
Probable space group: C 2/M
;
_chemical_formula_sum "Si O2"
_cell_formula_units_Z 48
_cell_length_a 29.766520
_cell_length_b 8.282191
_cell_length_c 15.424024
_cell_angle_alpha 90.000000
_cell_angle_beta 31.289349
_cell_angle_gamma 90.000000
_cell_volume 1974.875476
_symmetry_space_group_name_H-M "C 2/M"
_symmetry_group_IT_number 12
_symmetry_cell_setting 'monoclinic'
loop_
_space_group_symop_operation_xyz
x,y,z
-x,y,-z
-x,-y,-z
x,-y,z
1/2+x,1/2+y,z
1/2-x,1/2+y,-z
1/2-x,1/2-y,-z
1/2+x,1/2-y,z
loop_
_atom_site_type_symbol
_atom_site_label
_atom_site_fract_x
_atom_site_fract_y
_atom_site_fract_z
Si Si1 0.902202 0.809671 0.420436
Si Si2 0.065011 0.694698 0.814070
Si Si3 0.668145 0.309829 0.943867
Si Si4 0.811258 0.809616 0.819991
Si Si5 0.953794 0.311697 0.700094
Si Si6 0.212656 0.693231 0.689736
O O1 0.954196 0.777576 0.245473
O O2 0.807926 0.739592 0.552023
O O3 0.952782 0.740131 0.419064
O O4 0.893958 0.000000 0.449234
O O5 0.934542 0.500000 0.199453
O O6 0.158229 0.752635 0.697395
O O7 0.000000 0.729127 0.000000
O O8 0.650867 0.500000 0.971217
O O9 0.767247 0.278573 0.811707
O O10 0.659072 0.231732 0.864986
O O11 0.607757 0.228420 0.115725
O O12 0.907490 0.772912 0.694935
O O13 0.801489 0.000000 0.823251
O O14 0.750000 0.750000 0.000000
O O15 0.952567 0.500000 0.684154
O O16 0.219062 0.500000 0.669916
#
# Coordination Sequence:
#
# PCOD9175090 Si02
#       6
#     8   8   8   8   8   8
#     4  11  23  38  57  83 116 152 191 234 282 337
#     4  10  21  38  61  86 112 147 190 234 282 337
#     4  11  21  35  58  87 116 148 191 236 281 336
#     4  10  18  32  55  83 115 148 187 234 284 334
#     4  11  21  36  58  83 114 150 192 239 286 335
#     4  10  22  39  57  82 118 155 188 229 284 339
#
# _framework density 24.305332
#
# number of rings (size 3 to 8) (size 9 to 14) (size 15 to 20)
#    0.000    1.500    0.000    8.500    0.000    3.667 
#    0.000    0.833    0.000    5.000    0.000    0.000 
#    0.000    0.000    0.000    0.000    0.000    0.000 
#
# Total GULP energy -134326.179397 kJ/mol
# GULP energy per Si atom -5596.924142 kJ/mol
# Density = 2.425001 g / cm^3
# Si number density = 24.305332 Si / 1000 Ang^3
#
#
#
# Elastic Constant Matrix: (Units=GPa)
#
#
# Indices 1 2 3 4 5 6 
#
# 1 143.8948 -10.8007 14.7963 0.0000 -16.8102 0.0000
# 2 -10.8007 29.0965 -4.5710 -0.0003 -17.3632 0.0000
# 3 14.7963 -4.5710 80.1605 -0.0001 -17.9269 0.0000
# 4 0.0000 -0.0003 -0.0001 10.6079 0.0000 -10.1920
# 5 -16.8102 -17.3632 -17.9269 0.0000 41.4305 0.0000
# 6 0.0000 0.0000 0.0000 -10.1920 0.0000 31.1833
#
#
#
# Elastic Compliance Matrix: (Units=1/GPa)
#
#
# Indices 1 2 3 4 5 6 
#
# 1 0.008170 0.006845 0.000294 0.000000 0.006311 0.000000
# 2 0.006845 0.056232 0.008674 0.000003 0.030097 0.000001
# 3 0.000294 0.008674 0.015229 0.000001 0.010344 0.000000
# 4 0.000000 0.000003 0.000001 0.137424 0.000002 0.044916
# 5 0.006311 0.030097 0.010344 0.000002 0.043786 0.000000
# 6 0.000000 0.000001 0.000000 0.044916 0.000000 0.046749
#
#
# Mechanical properties :
#
#
# Convention : Reuss Voigt Hill
#
# Bulk Modulus (GPa) = 8.98833 28.00012 18.49423
# Shear Modulus (GPa) = 15.97182 33.55949 24.76565
#
# Velocity S-wave (km/s) = 2.56624 3.71987 3.19555
# Velocity P-wave (km/s) = 3.53368 5.47678 4.60880
#
# Compressibility (1/GPa) = 0.11125533
#
# Stress axis : x y z
#
# Youngs Moduli (GPa) = 122.39387 17.78348 65.66577
#
# Poissons Ratio (x) = -0.12173 -0.01927
# Poissons Ratio (y) = -0.83777 -0.56957
# Poissons Ratio (z) = -0.03592 -0.15425
#
# Static dielectric constant tensor:
#      x y z
#    x 1.889690 0.000000 -0.115190 
#    y 0.000000 1.806850 0.000000 
#    z -0.115190 0.000000 1.855930 
# 
# From -- ./inp_files/274015.got.cif
#   From: 2010.05.17/outbox.cif.g08.bks.cpg/sg12_138_cif.got.tgz:274015.got - 2010.06.03 13:09:07.
