data_PCOD9175746
_publ_section_title
;
Structure prediction by ZEFSAII (Michael W. Deem and Ramdas Pophale) SiO2 
 PCOD9175746
Probable space group: C 2/M
;
_chemical_formula_sum "Si O2"
_cell_formula_units_Z 56
_cell_length_a 16.684862
_cell_length_b 7.558250
_cell_length_c 23.714129
_cell_angle_alpha 90.000000
_cell_angle_beta 122.235308
_cell_angle_gamma 90.000000
_cell_volume 2529.600349
_symmetry_space_group_name_H-M "C 2/M"
_symmetry_group_IT_number 12
_symmetry_cell_setting 'monoclinic'
loop_
_space_group_symop_operation_xyz
x,y,z
-x,y,-z
-x,-y,-z
x,-y,z
1/2+x,1/2+y,z
1/2-x,1/2+y,-z
1/2-x,1/2-y,-z
1/2+x,1/2-y,z
loop_
_atom_site_type_symbol
_atom_site_label
_atom_site_fract_x
_atom_site_fract_y
_atom_site_fract_z
Si Si1 0.727820 0.711602 0.926895
Si Si2 0.912329 0.283228 0.929109
Si Si3 0.529097 0.709764 0.656554
Si Si4 0.631774 0.207804 0.210805
Si Si5 0.199593 0.782847 0.650171
Si Si6 0.693190 0.790587 0.421953
Si Si7 0.448816 0.714516 0.210433
O O1 0.724484 0.500000 0.920526
O O2 0.815608 0.773065 0.922470
O O3 0.630058 0.779113 0.863473
O O4 0.750000 0.750000 0.000000
O O5 0.916642 0.500000 0.930615
O O6 0.908186 0.220267 0.863096
O O7 0.000000 0.222774 0.000000
O O8 0.545449 0.500000 0.663828
O O9 0.594036 0.774946 0.629019
O O10 0.415984 0.732606 0.612643
O O11 0.565134 0.777972 0.730861
O O12 0.729854 0.275144 0.273035
O O13 0.551682 0.229944 0.227710
O O14 0.647955 0.000000 0.206865
O O15 0.247639 0.720268 0.609884
O O16 0.200175 0.000000 0.647485
O O17 0.750000 0.750000 0.500000
O O18 0.688318 0.000000 0.412635
O O19 0.446677 0.500000 0.210047
#
# Coordination Sequence:
#
# PCOD9175746 Si02
#       7
#     8   8   8   8   8   8   8
#     4  10  20  34  50  74 106 142 185 233 285 339
#     4   9  17  29  48  74 101 135 183 232 274 324
#     4  10  20  38  62  87 116 154 193 236 290 344
#     4  10  18  33  57  80 106 144 190 234 275 332
#     4   9  19  36  60  86 113 150 196 236 277 340
#     4  11  23  41  62  89 121 153 192 239 288 344
#     4  10  20  33  53  81 113 143 179 233 294 340
#
# _framework density 22.137885000000001
#
# number of rings (size 3 to 8) (size 9 to 14) (size 15 to 20)
#    0.000    2.143    1.429    2.143    0.000    5.714 
#    0.000    5.714    0.000    4.286    0.000    0.000 
#    0.000    0.000    0.000    0.000    0.000    0.000 
#
# Total GULP energy -156326.655263 kJ/mol
# GULP energy per Si atom -5583.094831 kJ/mol
# Density = 2.208750 g / cm^3
# Si number density = 22.137885 Si / 1000 Ang^3
#
#
#
# Elastic Constant Matrix: (Units=GPa)
#
#
# Indices 1 2 3 4 5 6 
#
# 1 167.9922 -7.2233 69.1646 0.0000 -8.2001 0.0000
# 2 -7.2233 42.3667 -4.2679 0.0000 -4.6182 0.0000
# 3 69.1646 -4.2679 134.0316 0.0000 -6.8645 0.0000
# 4 0.0000 0.0000 0.0000 9.1183 0.0000 7.8637
# 5 -8.2001 -4.6182 -6.8645 0.0000 30.4646 0.0000
# 6 0.0000 0.0000 0.0000 7.8637 0.0000 6.4671
#
#
#
# Elastic Compliance Matrix: (Units=1/GPa)
#
#
# Indices 1 2 3 4 5 6 
#
# 1 0.007647 0.001064 -0.003843 0.000000 0.001354 0.000000
# 2 0.001064 0.024271 0.000432 0.000000 0.004063 0.000000
# 3 -0.003843 0.000432 0.009518 0.000000 0.001176 0.000000
# 4 0.000000 0.000000 0.000000 -2.253863 0.000000 2.740608
# 5 0.001354 0.004063 0.001176 0.000000 0.034070 0.000000
# 6 0.000000 0.000000 0.000000 2.740608 0.000000 -3.177843
#
#
# Mechanical properties :
#
#
# Convention : Reuss Voigt Hill
#
# Bulk Modulus (GPa) = 27.21661 51.08193 39.14927
# Shear Modulus (GPa) = -0.93646 28.32447 13.69400
#
# Velocity S-wave (km/s) = -0.65110 3.58083 2.48982
# Velocity P-wave (km/s) = 3.42864 6.34200 5.09787
#
# Compressibility (1/GPa) = 0.03674227
#
# Stress axis : x y z
#
# Youngs Moduli (GPa) = 130.77777 41.20100 105.06601
#
# Poissons Ratio (x) = -0.04384 0.40373
# Poissons Ratio (y) = -0.13917 -0.04537
# Poissons Ratio (z) = 0.50253 -0.01779
#
# Static dielectric constant tensor:
#      x y z
#    x 1.812170 0.000000 -0.017830 
#    y 0.000000 1.864670 0.000000 
#    z -0.017830 0.000000 1.811610 
# 
# From -- ./inp_files/308899.got.cif
#   From: 2010.05.17/outbox.cif.g08.bks.cpg/sg12_155_cif.got.tgz:308899.got - 2010.06.03 13:09:07.
