data_PCOD9175384
_publ_section_title
;
Structure prediction by ZEFSAII (Michael W. Deem and Ramdas Pophale) SiO2 
 PCOD9175384
Probable space group: C 2/M
;
_chemical_formula_sum "Si O2"
_cell_formula_units_Z 48
_cell_length_a 20.028483
_cell_length_b 15.564630
_cell_length_c 13.111744
_cell_angle_alpha 90.000000
_cell_angle_beta 32.131538
_cell_angle_gamma 90.000000
_cell_volume 2173.945035
_symmetry_space_group_name_H-M "C 2/M"
_symmetry_group_IT_number 12
_symmetry_cell_setting 'monoclinic'
loop_
_space_group_symop_operation_xyz
x,y,z
-x,y,-z
-x,-y,-z
x,-y,z
1/2+x,1/2+y,z
1/2-x,1/2+y,-z
1/2-x,1/2-y,-z
1/2+x,1/2-y,z
loop_
_atom_site_type_symbol
_atom_site_label
_atom_site_fract_x
_atom_site_fract_y
_atom_site_fract_z
Si Si1 0.889925 0.672953 0.226231
Si Si2 0.748367 0.000000 0.082927
Si Si3 0.020888 0.175252 0.760707
Si Si4 0.145468 0.827827 0.399680
Si Si5 0.294238 0.500000 0.794581
Si Si6 0.267383 0.805922 0.874115
Si Si7 0.497785 0.000000 0.126311
Si Si8 0.500153 0.500000 0.879043
O O1 0.897844 0.751462 0.292682
O O2 0.764099 0.667517 0.323508
O O3 0.923981 0.586994 0.245403
O O4 0.000000 0.684650 0.000000
O O5 0.685233 0.095347 0.170034
O O6 0.855450 0.000000 0.029809
O O7 0.818121 0.000000 0.883652
O O8 0.030543 0.177746 0.626243
O O9 0.876342 0.187416 0.979108
O O10 0.062348 0.083825 0.750302
O O11 0.151830 0.915301 0.327667
O O12 0.158298 0.748099 0.306623
O O13 0.141292 0.500000 0.979007
O O14 0.250000 0.750000 0.000000
O O15 0.500000 0.000000 0.000000
O O16 0.500000 0.500000 0.000000
#
# Coordination Sequence:
#
# PCOD9175384 Si02
#       8
#     8   4   8   8   4   8   4   4
#     4  11  19  38  61  92 127 163 211 258 316 375
#     4  10  24  40  64  93 120 163 216 249 326 391
#     4  11  24  40  62  97 124 165 219 257 321 384
#     4  12  23  38  66  94 128 164 210 275 314 374
#     4  12  19  38  63  94 124 164 212 272 318 373
#     4  11  23  43  64  89 124 167 208 260 326 388
#     4  10  18  32  63  90 121 162 209 256 311 370
#     4  10  23  44  65  88 131 169 203 266 326 392
#
# _framework density 22.079675999999999
#
# number of rings (size 3 to 8) (size 9 to 14) (size 15 to 20)
#    0.000    1.000    6.667    1.500    2.333    0.667 
#    0.000    2.500    0.000    1.000    0.000    0.000 
#    0.000    0.000    0.000    0.000    0.000    0.000 
#
# Total GULP energy -134175.406992 kJ/mol
# GULP energy per Si atom -5590.641958 kJ/mol
# Density = 2.202942 g / cm^3
# Si number density = 22.079676 Si / 1000 Ang^3
#
#
#
# Elastic Constant Matrix: (Units=GPa)
#
#
# Indices 1 2 3 4 5 6 
#
# 1 85.7291 29.9007 15.8899 0.0000 12.2454 0.0000
# 2 29.9007 235.3638 52.5072 0.0000 34.9988 0.0000
# 3 15.8899 52.5072 84.7689 0.0000 27.6249 0.0000
# 4 0.0000 0.0000 0.0000 5.0539 0.0000 19.5319
# 5 12.2454 34.9988 27.6249 0.0000 43.7364 0.0000
# 6 0.0000 0.0000 0.0000 19.5319 0.0000 30.4772
#
#
#
# Elastic Compliance Matrix: (Units=1/GPa)
#
#
# Indices 1 2 3 4 5 6 
#
# 1 0.012512 -0.001061 -0.001037 0.000000 -0.001999 0.000000
# 2 -0.001061 0.005255 -0.002244 0.000000 -0.002490 0.000000
# 3 -0.001037 -0.002244 0.015993 0.000000 -0.008016 0.000000
# 4 0.000000 0.000000 0.000000 -0.133985 0.000000 0.085867
# 5 -0.001999 -0.002490 -0.008016 0.000000 0.030480 0.000000
# 6 0.000000 0.000000 0.000000 0.085867 0.000000 -0.022218
#
#
# Mechanical properties :
#
#
# Convention : Reuss Voigt Hill
#
# Bulk Modulus (GPa) = 39.87812 66.93971 53.40892
# Shear Modulus (GPa) = -66.73794 36.35775 -15.19009
#
# Velocity S-wave (km/s) = -5.50378 4.06231 -2.62576
# Velocity P-wave (km/s) = 4.72108 7.23784 3.87929
#
# Compressibility (1/GPa) = 0.02507641
#
# Stress axis : x y z
#
# Youngs Moduli (GPa) = 79.92039 190.31286 62.52555
#
# Poissons Ratio (x) = 0.20192 0.06482
# Poissons Ratio (y) = 0.08480 0.14033
# Poissons Ratio (z) = 0.08285 0.42713
#
# Static dielectric constant tensor:
#      x y z
#    x 1.813400 0.000000 -0.048270 
#    y 0.000000 1.903580 0.000000 
#    z -0.048270 0.000000 1.805400 
# 
# From -- ./inp_files/167618.got.cif
#   From: 2010.05.17/outbox.cif.g08.bks.cpg/sg12_84_cif.got.tgz:167618.got - 2010.06.03 13:09:07.
