data_PCOD9175360
_publ_section_title
;
Structure prediction by ZEFSAII (Michael W. Deem and Ramdas Pophale) SiO2 
 PCOD9175360
Probable space group: C 2/M
;
_chemical_formula_sum "Si O2"
_cell_formula_units_Z 46
_cell_length_a 21.728521
_cell_length_b 19.910564
_cell_length_c 7.827023
_cell_angle_alpha 90.000000
_cell_angle_beta 143.606135
_cell_angle_gamma 90.000000
_cell_volume 2009.132696
_symmetry_space_group_name_H-M "C 2/M"
_symmetry_group_IT_number 12
_symmetry_cell_setting 'monoclinic'
loop_
_space_group_symop_operation_xyz
x,y,z
-x,y,-z
-x,-y,-z
x,-y,z
1/2+x,1/2+y,z
1/2-x,1/2+y,-z
1/2-x,1/2-y,-z
1/2+x,1/2-y,z
loop_
_atom_site_type_symbol
_atom_site_label
_atom_site_fract_x
_atom_site_fract_y
_atom_site_fract_z
Si Si1 0.273701 0.500000 0.200480
Si Si2 0.500000 0.500000 0.000000
Si Si3 0.441044 0.132965 0.191793
Si Si4 0.602469 0.000000 0.099102
Si Si5 0.646589 0.389269 0.153064
Si Si6 0.506762 0.725482 0.312035
Si Si7 0.202199 0.140831 0.649664
Si Si8 0.213830 0.500000 0.697893
O O1 0.198688 0.500000 0.868683
O O2 0.212022 0.500000 0.240872
O O3 0.335881 0.569431 0.352828
O O4 0.436599 0.441937 0.962986
O O5 0.500000 0.118192 0.500000
O O6 0.487368 0.199001 0.206553
O O7 0.320883 0.149016 0.971943
O O8 0.445534 0.068475 0.080247
O O9 0.627501 0.000000 0.355821
O O10 0.708025 0.365693 0.458302
O O11 0.719762 0.432132 0.191260
O O12 0.583578 0.325908 0.942930
O O13 0.500000 0.730328 0.500000
O O14 0.617980 0.696294 0.506857
#
# Coordination Sequence:
#
# PCOD9175360 Si02
#       8
#     4   2   8   4   8   8   8   4
#     4  10  20  36  69 103 129 175 216 277 344 390
#     4  10  18  32  60  84 128 164 214 256 332 396
#     4  10  23  42  70  95 127 182 227 276 340 397
#     4  10  20  45  70  95 134 176 225 285 329 396
#     4  11  20  37  62  96 136 174 214 273 333 408
#     4  11  24  38  61 102 134 174 228 272 335 410
#     4  11  21  42  65  92 137 178 219 275 340 395
#     4  11  20  36  67 106 131 175 226 271 341 405
#
# _framework density 22.895451000000001
#
# number of rings (size 3 to 8) (size 9 to 14) (size 15 to 20)
#    0.000    1.391    5.217    1.826    0.000    3.478 
#    0.000    2.174   15.304    4.174    0.000    1.217 
#    0.000    0.000    0.000    0.000    0.000    0.000 
#
# Total GULP energy -128328.651514 kJ/mol
# GULP energy per Si atom -5579.506588 kJ/mol
# Density = 2.284334 g / cm^3
# Si number density = 22.895451 Si / 1000 Ang^3
#
#
#
# Elastic Constant Matrix: (Units=GPa)
#
#
# Indices 1 2 3 4 5 6 
#
# 1 48.4693 19.8621 18.3315 0.0000 10.7598 0.0000
# 2 19.8621 169.9622 59.3850 0.0000 19.9630 0.0000
# 3 18.3315 59.3850 146.1719 0.0000 -2.0551 0.0000
# 4 0.0000 0.0000 0.0000 111.8884 0.0000 -19.0634
# 5 10.7598 19.9630 -2.0551 0.0000 33.7996 0.0000
# 6 0.0000 0.0000 0.0000 -19.0634 0.0000 38.3276
#
#
#
# Elastic Compliance Matrix: (Units=1/GPa)
#
#
# Indices 1 2 3 4 5 6 
#
# 1 0.023620 -0.001000 -0.002656 0.000000 -0.007090 0.000000
# 2 -0.001000 0.007560 -0.003007 0.000000 -0.004330 0.000000
# 3 -0.002656 -0.003007 0.008440 0.000000 0.003134 0.000000
# 4 0.000000 0.000000 0.000000 0.009765 0.000000 0.004857
# 5 -0.007090 -0.004330 0.003134 0.000000 0.034591 0.000000
# 6 0.000000 0.000000 0.000000 0.004857 0.000000 0.028507
#
#
# Mechanical properties :
#
#
# Convention : Reuss Voigt Hill
#
# Bulk Modulus (GPa) = 38.02992 62.19561 50.11277
# Shear Modulus (GPa) = 37.15518 54.60477 45.87998
#
# Velocity S-wave (km/s) = 4.03279 4.88891 4.48134
# Velocity P-wave (km/s) = 6.19119 7.68717 6.97938
#
# Compressibility (1/GPa) = 0.02629509
#
# Stress axis : x y z
#
# Youngs Moduli (GPa) = 42.33767 132.28312 118.48442
#
# Poissons Ratio (x) = 0.13222 0.31467
# Poissons Ratio (y) = 0.04232 0.35625
# Poissons Ratio (z) = 0.11244 0.39774
#
# Static dielectric constant tensor:
#      x y z
#    x 1.825650 0.000000 0.032570 
#    y 0.000000 1.889900 0.000000 
#    z 0.032570 0.000000 1.941230 
# 
# From -- ./inp_files/106624.got.cif
#   From: 2010.05.17/outbox.cif.g08.bks.cpg/sg12_54_cif.got.tgz:106624.got - 2010.06.03 13:09:07.
