data_PCOD9175758
_publ_section_title
;
Structure prediction by ZEFSAII (Michael W. Deem and Ramdas Pophale) SiO2 
 PCOD9175758
Probable space group: C 2/M
;
_chemical_formula_sum "Si O2"
_cell_formula_units_Z 56
_cell_length_a 9.623123
_cell_length_b 18.685288
_cell_length_c 20.686786
_cell_angle_alpha 90.000000
_cell_angle_beta 124.105509
_cell_angle_gamma 90.000000
_cell_volume 3079.942167
_symmetry_space_group_name_H-M "C 2/M"
_symmetry_group_IT_number 12
_symmetry_cell_setting 'monoclinic'
loop_
_space_group_symop_operation_xyz
x,y,z
-x,y,-z
-x,-y,-z
x,-y,z
1/2+x,1/2+y,z
1/2-x,1/2+y,-z
1/2-x,1/2-y,-z
1/2+x,1/2-y,z
loop_
_atom_site_type_symbol
_atom_site_label
_atom_site_fract_x
_atom_site_fract_y
_atom_site_fract_z
Si Si1 0.847194 0.859031 0.771299
Si Si2 0.146662 0.321668 0.986394
Si Si3 0.853220 0.916130 0.409014
Si Si4 0.456583 0.583535 0.061055
Si Si5 0.916760 0.693414 0.811598
Si Si6 0.543251 0.657623 0.697762
Si Si7 0.531941 0.177392 0.324329
O O1 0.900543 0.904636 0.847497
O O2 0.912781 0.779662 0.808861
O O3 0.649734 0.853005 0.704838
O O4 0.935239 0.877861 0.726401
O O5 0.048922 0.338681 0.895062
O O6 0.250000 0.250000 0.000000
O O7 0.285743 0.379563 0.040533
O O8 0.000000 0.311135 0.000000
O O9 0.924616 0.886340 0.359304
O O10 0.694180 0.867248 0.388795
O O11 0.000000 0.910803 0.500000
O O12 0.805207 0.000000 0.389872
O O13 0.426261 0.500000 0.045900
O O14 0.500000 0.612509 0.000000
O O15 0.726701 0.671210 0.776295
O O16 0.960337 0.670839 0.750968
O O17 0.468217 0.736952 0.661595
#
# Coordination Sequence:
#
# PCOD9175758 Si02
#       7
#     8   8   8   8   8   8   8
#     4  10  18  33  57  81 109 143 189 240 282 329
#     4  12  23  34  56  81 107 147 194 242 288 344
#     4  10  22  41  61  85 120 156 186 224 288 363
#     4  11  24  38  51  76 115 155 193 240 293 342
#     4   9  18  32  54  81 110 144 192 235 280 336
#     4   9  19  36  59  89 113 146 191 239 283 337
#     4   9  19  35  60  87 115 146 191 236 280 341
#
# _framework density 18.18216
#
# number of rings (size 3 to 8) (size 9 to 14) (size 15 to 20)
#    0.000    2.000    1.429    3.000    4.000    2.000 
#    0.000    5.000    0.000    1.714    0.000    0.000 
#    0.000    0.000    0.000    0.000    0.000    0.000 
#
# Total GULP energy -156112.339851 kJ/mol
# GULP energy per Si atom -5575.440709 kJ/mol
# Density = 1.814078 g / cm^3
# Si number density = 18.182160 Si / 1000 Ang^3
#
#
#
# Elastic Constant Matrix: (Units=GPa)
#
#
# Indices 1 2 3 4 5 6 
#
# 1 99.1186 15.3279 10.3619 0.0000 -1.7917 0.0000
# 2 15.3279 50.2296 25.0537 0.0000 4.3701 0.0000
# 3 10.3619 25.0537 62.4955 0.0000 9.2565 0.0000
# 4 0.0000 0.0000 0.0000 24.3598 0.0000 0.1838
# 5 -1.7917 4.3701 9.2565 0.0000 18.7350 0.0000
# 6 0.0000 0.0000 0.0000 0.1838 0.0000 14.0837
#
#
#
# Elastic Compliance Matrix: (Units=1/GPa)
#
#
# Indices 1 2 3 4 5 6 
#
# 1 0.010686 -0.003007 -0.000886 0.000000 0.002161 0.000000
# 2 -0.003007 0.025746 -0.009593 0.000000 -0.001553 0.000000
# 3 -0.000886 -0.009593 0.021228 0.000000 -0.008336 0.000000
# 4 0.000000 0.000000 0.000000 0.041055 0.000000 -0.000536
# 5 0.002161 -0.001553 -0.008336 0.000000 0.058064 0.000000
# 6 0.000000 0.000000 0.000000 -0.000536 0.000000 0.071011
#
#
# Mechanical properties :
#
#
# Convention : Reuss Voigt Hill
#
# Bulk Modulus (GPa) = 32.58567 34.81451 33.70009
# Shear Modulus (GPa) = 18.86857 22.17570 20.52213
#
# Velocity S-wave (km/s) = 3.22491 3.49612 3.36325
# Velocity P-wave (km/s) = 5.64158 5.95704 5.80146
#
# Compressibility (1/GPa) = 0.03068833
#
# Stress axis : x y z
#
# Youngs Moduli (GPa) = 93.58372 38.84122 47.10684
#
# Poissons Ratio (x) = 0.11678 0.04176
# Poissons Ratio (y) = 0.28137 0.45188
# Poissons Ratio (z) = 0.08296 0.37259
#
# Static dielectric constant tensor:
#      x y z
#    x 1.720580 0.000000 0.022190 
#    y 0.000000 1.641870 0.000000 
#    z 0.022190 0.000000 1.624230 
# 
# From -- ./inp_files/300900.got.cif
#   From: 2010.05.17/outbox.cif.g08.bks.cpg/sg12_151_cif.got.tgz:300900.got - 2010.06.03 13:09:07.
