data_PCOD9175469
_publ_section_title
;
Structure prediction by ZEFSAII (Michael W. Deem and Ramdas Pophale) SiO2 
 PCOD9175469
Probable space group: C 2/M
;
_chemical_formula_sum "Si O2"
_cell_formula_units_Z 48
_cell_length_a 11.793115
_cell_length_b 18.377368
_cell_length_c 13.743846
_cell_angle_alpha 90.000000
_cell_angle_beta 139.828864
_cell_angle_gamma 90.000000
_cell_volume 1921.449054
_symmetry_space_group_name_H-M "C 2/M"
_symmetry_group_IT_number 12
_symmetry_cell_setting 'monoclinic'
loop_
_space_group_symop_operation_xyz
x,y,z
-x,y,-z
-x,-y,-z
x,-y,z
1/2+x,1/2+y,z
1/2-x,1/2+y,-z
1/2-x,1/2-y,-z
1/2+x,1/2-y,z
loop_
_atom_site_type_symbol
_atom_site_label
_atom_site_fract_x
_atom_site_fract_y
_atom_site_fract_z
Si Si1 0.561023 0.330650 0.151351
Si Si2 0.151505 0.213917 0.682438
Si Si3 0.353221 0.913336 0.771219
Si Si4 0.876543 0.580671 0.306667
Si Si5 0.743844 0.917288 0.001073
Si Si6 0.101266 0.691311 0.382173
O O1 0.676958 0.258525 0.244303
O O2 0.702235 0.395302 0.247259
O O3 0.500000 0.322614 0.000000
O O4 0.394647 0.356994 0.103711
O O5 0.214579 0.131853 0.744399
O O6 0.000000 0.213475 0.500000
O O7 0.075748 0.258164 0.725995
O O8 0.558681 0.904989 0.933678
O O9 0.341451 0.866254 0.663149
O O10 0.319400 0.000000 0.740147
O O11 0.931514 0.500000 0.361560
O O12 0.817057 0.583173 0.153140
O O13 0.039343 0.634819 0.424393
O O14 0.804288 0.000000 0.062511
O O15 0.250000 0.750000 0.500000
#
# Coordination Sequence:
#
# PCOD9175469 Si02
#       6
#     8   8   8   8   8   8
#     4   9  17  30  53  83 116 151 194 242 302 353
#     4  11  22  36  56  88 124 157 196 252 300 354
#     4  10  21  38  61  88 117 156 208 250 289 354
#     4   8  14  25  46  74 103 138 186 233 279 335
#     4   8  14  27  49  77 106 140 187 240 280 333
#     4  10  18  33  52  78 114 154 189 242 296 341
#
# _framework density 24.981145000000001
#
# number of rings (size 3 to 8) (size 9 to 14) (size 15 to 20)
#    0.000    2.667    1.667    3.000    0.000    3.000 
#    0.000    0.000    0.000   18.500    0.000    2.333 
#    0.000    0.000    0.000    0.000    0.000    0.000 
#
# Total GULP energy -133829.894442 kJ/mol
# GULP energy per Si atom -5576.245602 kJ/mol
# Density = 2.492429 g / cm^3
# Si number density = 24.981145 Si / 1000 Ang^3
#
#
#
# Elastic Constant Matrix: (Units=GPa)
#
#
# Indices 1 2 3 4 5 6 
#
# 1 73.8267 48.9304 33.0265 0.0000 2.6913 0.0000
# 2 48.9304 238.6083 78.1109 0.0000 31.0888 0.0000
# 3 33.0265 78.1109 106.5797 -0.0001 12.3570 0.0000
# 4 0.0000 0.0000 -0.0001 14.7088 0.0000 7.5267
# 5 2.6913 31.0888 12.3570 0.0000 33.9470 0.0000
# 6 0.0000 0.0000 0.0000 7.5267 0.0000 34.4764
#
#
#
# Elastic Compliance Matrix: (Units=1/GPa)
#
#
# Indices 1 2 3 4 5 6 
#
# 1 0.016765 -0.002568 -0.003583 0.000000 0.002327 0.000000
# 2 -0.002568 0.006402 -0.003383 0.000000 -0.004428 0.000000
# 3 -0.003583 -0.003383 0.013134 0.000000 -0.001399 0.000000
# 4 0.000000 0.000000 0.000000 0.076537 0.000000 -0.016709
# 5 0.002327 -0.004428 -0.001399 0.000000 0.033838 0.000000
# 6 0.000000 0.000000 0.000000 -0.016709 0.000000 0.032653
#
#
# Mechanical properties :
#
#
# Convention : Reuss Voigt Hill
#
# Bulk Modulus (GPa) = 58.02457 82.12783 70.07620
# Shear Modulus (GPa) = 24.49285 33.88956 29.19121
#
# Velocity S-wave (km/s) = 3.13462 3.68721 3.42208
# Velocity P-wave (km/s) = 6.03149 7.14665 6.61262
#
# Compressibility (1/GPa) = 0.01723408
#
# Stress axis : x y z
#
# Youngs Moduli (GPa) = 59.64677 156.20308 76.13757
#
# Poissons Ratio (x) = 0.40119 0.27278
# Poissons Ratio (y) = 0.15320 0.25754
# Poissons Ratio (z) = 0.21369 0.52838
#
# Static dielectric constant tensor:
#      x y z
#    x 2.164230 0.000000 -0.063580 
#    y 0.000000 1.959140 0.000000 
#    z -0.063580 0.000000 2.005610 
# 
# From -- ./inp_files/311397.got.cif
#   From: 2010.05.17/outbox.cif.g08.bks.cpg/sg12_156_cif.got.tgz:311397.got - 2010.06.03 13:09:07.
