data_PCOD9175368
_publ_section_title
;
Structure prediction by ZEFSAII (Michael W. Deem and Ramdas Pophale) SiO2 
 PCOD9175368
Probable space group: C 2/M
;
_chemical_formula_sum "Si O2"
_cell_formula_units_Z 60
_cell_length_a 12.654655
_cell_length_b 28.055370
_cell_length_c 10.985888
_cell_angle_alpha 90.000000
_cell_angle_beta 133.516357
_cell_angle_gamma 90.000000
_cell_volume 2828.433643
_symmetry_space_group_name_H-M "C 2/M"
_symmetry_group_IT_number 12
_symmetry_cell_setting 'monoclinic'
loop_
_space_group_symop_operation_xyz
x,y,z
-x,y,-z
-x,-y,-z
x,-y,z
1/2+x,1/2+y,z
1/2-x,1/2+y,-z
1/2-x,1/2-y,-z
1/2+x,1/2-y,z
loop_
_atom_site_type_symbol
_atom_site_label
_atom_site_fract_x
_atom_site_fract_y
_atom_site_fract_z
Si Si1 0.289742 0.190280 0.788056
Si Si2 0.161271 0.368337 0.934373
Si Si3 0.866008 0.292673 0.584020
Si Si4 0.408352 0.892753 0.547047
Si Si5 0.295639 0.221527 0.156606
Si Si6 0.166631 0.445740 0.107858
Si Si7 0.000000 0.131944 0.500000
Si Si8 0.831404 0.945126 0.497607
O O1 0.363609 0.184696 0.717108
O O2 0.278497 0.247116 0.799111
O O3 0.131892 0.165681 0.646693
O O4 0.358337 0.165289 0.960773
O O5 0.240068 0.333251 0.900760
O O6 0.025697 0.388557 0.749919
O O7 0.233982 0.413549 0.055876
O O8 0.750000 0.250000 0.500000
O O9 0.841983 0.338918 0.479733
O O10 0.029749 0.275336 0.687620
O O11 0.500000 0.905550 0.500000
O O12 0.282392 0.928642 0.489679
O O13 0.250000 0.250000 0.000000
O O14 0.160368 0.500000 0.062115
O O15 0.248143 0.443567 0.300887
O O16 0.000000 0.429653 0.000000
O O17 0.948898 0.096474 0.567762
O O18 0.882929 0.000000 0.554979
#
# Coordination Sequence:
#
# PCOD9175368 Si02
#       8
#     8   8   8   8   8   8   4   8
#     4  11  22  39  61  90 124 166 213 260 328 370
#     4  10  20  37  59  84 124 159 206 263 315 374
#     4  11  23  37  60  85 125 164 209 266 312 388
#     4  11  24  40  62  90 124 166 209 261 325 385
#     4   9  22  35  54  86 117 159 208 253 311 378
#     4  10  18  32  60  92 120 149 202 264 319 372
#     4  12  21  38  64  96 130 158 207 270 316 380
#     4  11  23  39  61  97 128 163 206 261 327 383
#
# _framework density 21.213155
#
# number of rings (size 3 to 8) (size 9 to 14) (size 15 to 20)
#    0.000    1.467    4.000    1.000    5.600    2.933 
#    0.000    0.000    0.000    0.800    0.000    0.933 
#    0.000    0.000    0.000    0.000    0.000    0.000 
#
# Total GULP energy -167289.659399 kJ/mol
# GULP energy per Si atom -5576.321980 kJ/mol
# Density = 2.116487 g / cm^3
# Si number density = 21.213155 Si / 1000 Ang^3
#
#
#
# Elastic Constant Matrix: (Units=GPa)
#
#
# Indices 1 2 3 4 5 6 
#
# 1 87.9000 22.1649 9.6374 0.0000 -24.3637 0.0000
# 2 22.1649 112.7896 7.1384 0.0000 -6.3344 0.0000
# 3 9.6374 7.1384 68.0535 0.0000 -1.9675 0.0000
# 4 0.0000 0.0000 0.0000 20.8503 0.0000 -3.7496
# 5 -24.3637 -6.3344 -1.9675 0.0000 23.9034 0.0000
# 6 0.0000 0.0000 0.0000 -3.7496 0.0000 36.3074
#
#
#
# Elastic Compliance Matrix: (Units=1/GPa)
#
#
# Indices 1 2 3 4 5 6 
#
# 1 0.016616 -0.002251 -0.001649 0.000000 0.016204 0.000000
# 2 -0.002251 0.009357 -0.000659 0.000000 0.000131 0.000000
# 3 -0.001649 -0.000659 0.014979 0.000000 -0.000622 0.000000
# 4 0.000000 0.000000 0.000000 0.048869 0.000000 0.005047
# 5 0.016204 0.000131 -0.000622 0.000000 0.058335 0.000000
# 6 0.000000 0.000000 0.000000 0.005047 0.000000 0.028064
#
#
# Mechanical properties :
#
#
# Convention : Reuss Voigt Hill
#
# Bulk Modulus (GPa) = 31.41125 38.51384 34.96254
# Shear Modulus (GPa) = 25.51688 31.53238 28.52463
#
# Velocity S-wave (km/s) = 3.47202 3.85964 3.67095
# Velocity P-wave (km/s) = 5.55993 6.16907 5.87240
#
# Compressibility (1/GPa) = 0.03183573
#
# Stress axis : x y z
#
# Youngs Moduli (GPa) = 60.18184 106.86624 66.76053
#
# Poissons Ratio (x) = 0.24055 0.11006
# Poissons Ratio (y) = 0.13547 0.04399
# Poissons Ratio (z) = 0.09921 0.07042
#
# Static dielectric constant tensor:
#      x y z
#    x 1.783810 0.000000 0.011240 
#    y 0.000000 1.841960 0.000000 
#    z 0.011240 0.000000 1.778900 
# 
# From -- ./inp_files/137623.got.cif
#   From: 2010.05.17/outbox.cif.g08.bks.cpg/sg12_69_cif.got.tgz:137623.got - 2010.06.03 13:09:07.
