data_PCOD9175672
_publ_section_title
;
Structure prediction by ZEFSAII (Michael W. Deem and Ramdas Pophale) SiO2 
 PCOD9175672
Probable space group: C 2/M
;
_chemical_formula_sum "Si O2"
_cell_formula_units_Z 56
_cell_length_a 21.510239
_cell_length_b 7.666621
_cell_length_c 31.937606
_cell_angle_alpha 90.000000
_cell_angle_beta 150.082860
_cell_angle_gamma 90.000000
_cell_volume 2626.829763
_symmetry_space_group_name_H-M "C 2/M"
_symmetry_group_IT_number 12
_symmetry_cell_setting 'monoclinic'
loop_
_space_group_symop_operation_xyz
x,y,z
-x,y,-z
-x,-y,-z
x,-y,z
1/2+x,1/2+y,z
1/2-x,1/2+y,-z
1/2-x,1/2-y,-z
1/2+x,1/2-y,z
loop_
_atom_site_type_symbol
_atom_site_label
_atom_site_fract_x
_atom_site_fract_y
_atom_site_fract_z
Si Si1 0.391203 0.303700 0.094154
Si Si2 0.597100 0.286153 0.278413
Si Si3 0.805506 0.712465 0.882508
Si Si4 0.527833 0.290867 0.710153
Si Si5 0.626945 0.785957 0.551351
Si Si6 0.369000 0.204806 0.541266
Si Si7 0.010025 0.711518 0.936410
O O1 0.374144 0.500000 0.099452
O O2 0.483450 0.220985 0.182717
O O3 0.467535 0.291303 0.095550
O O4 0.250000 0.250000 0.000000
O O5 0.597035 0.500000 0.276459
O O6 0.565703 0.233272 0.307814
O O7 0.738977 0.232738 0.350912
O O8 0.805440 0.500000 0.882672
O O9 0.665552 0.776601 0.799730
O O10 0.885234 0.762986 0.888308
O O11 0.878825 0.763543 0.967140
O O12 0.531123 0.500000 0.715097
O O13 0.484617 0.247668 0.638451
O O14 0.500000 0.729506 0.500000
O O15 0.626618 0.722028 0.502942
O O16 0.625925 0.000000 0.551407
O O17 0.250000 0.250000 0.500000
O O18 0.363509 0.000000 0.531930
O O19 0.011892 0.500000 0.933335
#
# Coordination Sequence:
#
# PCOD9175672 Si02
#       7
#     8   8   8   8   8   8   8
#     4  11  22  35  54  78 107 143 184 227 276 328
#     4   9  18  33  53  76 104 144 183 218 265 331
#     4   8  16  31  55  79 103 144 184 218 263 330
#     4  10  18  33  56  80 106 139 183 224 267 323
#     4   9  18  34  56  81 108 141 182 223 266 324
#     4  11  21  35  57  82 107 139 178 226 276 325
#     4   9  17  34  55  76 105 142 186 223 264 321
#
# _framework density 21.318473999999998
#
# number of rings (size 3 to 8) (size 9 to 14) (size 15 to 20)
#    0.000    2.429    1.429    2.571    0.000    3.429 
#    0.000    7.143    0.000    1.714    0.000    0.000 
#    0.000    0.000    0.000    0.000    0.000    0.000 
#
# Total GULP energy -156178.098642 kJ/mol
# GULP energy per Si atom -5577.789237 kJ/mol
# Density = 2.126995 g / cm^3
# Si number density = 21.318474 Si / 1000 Ang^3
#
#
#
# Elastic Constant Matrix: (Units=GPa)
#
#
# Indices 1 2 3 4 5 6 
#
# 1 99.3407 -0.5674 70.2521 0.0002 1.1758 -0.0006
# 2 -0.5674 31.9143 11.0828 0.0009 6.1343 0.0007
# 3 70.2521 11.0828 136.0440 0.0000 14.4087 0.0002
# 4 0.0002 0.0009 0.0000 14.5733 -0.0002 -3.4246
# 5 1.1758 6.1343 14.4087 -0.0002 35.3090 0.0002
# 6 -0.0006 0.0007 0.0002 -3.4246 0.0002 16.3852
#
#
#
# Elastic Compliance Matrix: (Units=1/GPa)
#
#
# Indices 1 2 3 4 5 6 
#
# 1 0.016407 0.002910 -0.008987 0.000000 0.002615 0.000000
# 2 0.002910 0.033538 -0.003770 -0.000003 -0.004385 -0.000002
# 3 -0.008987 -0.003770 0.012748 0.000000 -0.004248 0.000000
# 4 0.000000 -0.000003 0.000000 0.072163 0.000001 0.015083
# 5 0.002615 -0.004385 -0.004248 0.000001 0.030730 0.000000
# 6 0.000000 -0.000002 0.000000 0.015083 0.000000 0.064183
#
#
# Mechanical properties :
#
#
# Convention : Reuss Voigt Hill
#
# Bulk Modulus (GPa) = 23.25637 47.64821 35.45229
# Shear Modulus (GPa) = 18.95402 25.68893 22.32147
#
# Velocity S-wave (km/s) = 2.98499 3.47509 3.23932
# Velocity P-wave (km/s) = 4.77629 6.20490 5.53687
#
# Compressibility (1/GPa) = 0.04299897
#
# Stress axis : x y z
#
# Youngs Moduli (GPa) = 60.94881 29.81706 78.44224
#
# Poissons Ratio (x) = -0.08676 0.70493
# Poissons Ratio (y) = -0.17735 0.29575
# Poissons Ratio (z) = 0.54772 0.11242
#
# Static dielectric constant tensor:
#      x y z
#    x 1.749800 0.000000 0.003180 
#    y 0.000000 1.805220 0.000000 
#    z 0.003180 0.000000 1.794430 
# 
# From -- ./inp_files/380774.got.cif
#   From: 2010.05.17/outbox.cif.g08.bks.cpg/sg12_191_cif.got.tgz:380774.got - 2010.06.03 13:09:07.
