data_PCOD9175583
_publ_section_title
;
Structure prediction by ZEFSAII (Michael W. Deem and Ramdas Pophale) SiO2 
 PCOD9175583
Probable space group: C 2/M
;
_chemical_formula_sum "Si O2"
_cell_formula_units_Z 56
_cell_length_a 21.996150
_cell_length_b 8.573540
_cell_length_c 28.653846
_cell_angle_alpha 90.000000
_cell_angle_beta 149.435497
_cell_angle_gamma 90.000000
_cell_volume 2747.815758
_symmetry_space_group_name_H-M "C 2/M"
_symmetry_group_IT_number 12
_symmetry_cell_setting 'monoclinic'
loop_
_space_group_symop_operation_xyz
x,y,z
-x,y,-z
-x,-y,-z
x,-y,z
1/2+x,1/2+y,z
1/2-x,1/2+y,-z
1/2-x,1/2-y,-z
1/2+x,1/2-y,z
loop_
_atom_site_type_symbol
_atom_site_label
_atom_site_fract_x
_atom_site_fract_y
_atom_site_fract_z
Si Si1 0.627045 0.311311 0.784223
Si Si2 0.738951 0.185646 0.769977
Si Si3 0.015427 0.815508 0.564750
Si Si4 0.633920 0.688882 0.896900
Si Si5 0.868585 0.822305 0.599175
Si Si6 0.889480 0.190483 0.785558
Si Si7 0.271924 0.820185 0.403056
O O1 0.621321 0.500000 0.780480
O O2 0.725597 0.258861 0.812279
O O3 0.638397 0.260954 0.845493
O O4 0.499041 0.250036 0.680163
O O5 0.620964 0.230911 0.661939
O O6 0.852083 0.236687 0.813061
O O7 0.743156 0.000000 0.777439
O O8 0.883863 0.773832 0.496948
O O9 0.000000 0.769277 0.500000
O O10 0.037072 0.000000 0.581566
O O11 0.632909 0.500000 0.896368
O O12 0.514894 0.741180 0.846282
O O13 0.750000 0.750000 0.000000
O O14 0.750000 0.750000 0.500000
O O15 0.839133 0.822907 0.634948
O O16 0.874922 0.000000 0.586906
O O17 0.781872 0.243818 0.680441
O O18 0.887920 0.000000 0.782631
O O19 0.311432 0.000000 0.423199
#
# Coordination Sequence:
#
# PCOD9175583 Si02
#       7
#     8   8   8   8   8   8   8
#     4  10  21  39  60  84 121 157 187 237 304 355
#     4  11  22  36  58  85 115 156 201 242 284 341
#     4  11  22  33  47  76 119 161 198 241 291 341
#     4  10  21  42  69  93 116 149 191 243 302 358
#     4  10  20  33  52  77 109 152 195 235 282 336
#     4   9  18  36  61  84 110 147 192 239 287 339
#     4  10  18  33  55  76 102 147 203 244 277 331
#
# _framework density 20.379823999999999
#
# number of rings (size 3 to 8) (size 9 to 14) (size 15 to 20)
#    0.000    1.857    2.857    1.714    0.000    4.571 
#    0.000    2.857    0.000    4.286    0.000    0.000 
#    0.000    0.000    0.000    0.000    0.000    0.000 
#
# Total GULP energy -156240.049419 kJ/mol
# GULP energy per Si atom -5580.001765 kJ/mol
# Density = 2.033344 g / cm^3
# Si number density = 20.379824 Si / 1000 Ang^3
#
#
#
# Elastic Constant Matrix: (Units=GPa)
#
#
# Indices 1 2 3 4 5 6 
#
# 1 168.5275 20.2054 57.8034 0.0000 3.4944 0.0001
# 2 20.2054 14.8195 9.8031 0.0001 -5.2217 0.0002
# 3 57.8034 9.8031 88.4635 0.0000 -1.7811 0.0000
# 4 0.0000 0.0001 0.0000 25.1217 -0.0001 -1.7017
# 5 3.4944 -5.2217 -1.7811 -0.0001 21.4112 0.0000
# 6 0.0001 0.0002 0.0000 -1.7017 0.0000 28.9129
#
#
#
# Elastic Compliance Matrix: (Units=1/GPa)
#
#
# Indices 1 2 3 4 5 6 
#
# 1 0.008923 -0.010588 -0.004746 0.000000 -0.004433 0.000000
# 2 -0.010588 0.092232 -0.002819 0.000000 0.023987 -0.000001
# 3 -0.004746 -0.002819 0.014744 0.000000 0.001314 0.000000
# 4 0.000000 0.000000 0.000000 0.039966 0.000000 0.002352
# 5 -0.004433 0.023987 0.001314 0.000000 0.053387 0.000000
# 6 0.000000 -0.000001 0.000000 0.002352 0.000000 0.034725
#
#
# Mechanical properties :
#
#
# Convention : Reuss Voigt Hill
#
# Bulk Modulus (GPa) = 12.56416 49.71492 31.13954
# Shear Modulus (GPa) = 16.29644 27.35573 21.82609
#
# Velocity S-wave (km/s) = 2.83085 3.66771 3.27611
# Velocity P-wave (km/s) = 4.10650 6.51024 5.44273
#
# Compressibility (1/GPa) = 0.07959145
#
# Stress axis : x y z
#
# Youngs Moduli (GPa) = 112.06810 10.84223 67.82273
#
# Poissons Ratio (x) = 0.11480 0.32191
# Poissons Ratio (y) = 1.18663 0.19120
# Poissons Ratio (z) = 0.53192 0.03056
#
# Static dielectric constant tensor:
#      x y z
#    x 1.848030 0.000000 -0.002880 
#    y 0.000000 1.704450 0.000000 
#    z -0.002880 0.000000 1.697350 
# 
# From -- ./inp_files/380779.got.cif
#   From: 2010.05.17/outbox.cif.g08.bks.cpg/sg12_191_cif.got.tgz:380779.got - 2010.06.03 13:09:07.
