data_PCOD9175855
_publ_section_title
;
Structure prediction by ZEFSAII (Michael W. Deem and Ramdas Pophale) SiO2 
 PCOD9175855
Probable space group: C 2/M
;
_chemical_formula_sum "Si O2"
_cell_formula_units_Z 48
_cell_length_a 19.065428
_cell_length_b 15.258427
_cell_length_c 10.707824
_cell_angle_alpha 90.000000
_cell_angle_beta 138.901566
_cell_angle_gamma 90.000000
_cell_volume 2047.657360
_symmetry_space_group_name_H-M "C 2/M"
_symmetry_group_IT_number 12
_symmetry_cell_setting 'monoclinic'
loop_
_space_group_symop_operation_xyz
x,y,z
-x,y,-z
-x,-y,-z
x,-y,z
1/2+x,1/2+y,z
1/2-x,1/2+y,-z
1/2-x,1/2-y,-z
1/2+x,1/2-y,z
loop_
_atom_site_type_symbol
_atom_site_label
_atom_site_fract_x
_atom_site_fract_y
_atom_site_fract_z
Si Si1 0.230387 0.652380 0.196277
Si Si2 0.418097 0.904508 0.222178
Si Si3 0.095314 0.206250 0.766505
Si Si4 0.584055 0.598547 0.383187
Si Si5 0.330820 0.708375 0.707606
Si Si6 0.771807 0.901488 0.852096
O O1 0.320795 0.704063 0.235478
O O2 0.301593 0.602581 0.394119
O O3 0.150669 0.714245 0.168381
O O4 0.163209 0.598673 0.005216
O O5 0.456104 0.802616 0.278221
O O6 0.346551 0.906476 0.251007
O O7 0.475883 0.000000 0.292832
O O8 0.000928 0.136671 0.634509
O O9 0.163536 0.165505 0.972699
O O10 0.561646 0.500000 0.316463
O O11 0.580877 0.661879 0.258182
O O12 0.250000 0.750000 0.500000
O O13 0.276751 0.633084 0.718628
O O14 0.816249 0.000000 0.921525
#
# Coordination Sequence:
#
# PCOD9175855 Si02
#       6
#     8   8   8   8   8   8
#     4  10  19  39  60  83 117 157 200 239 285 346
#     4  10  19  34  63  88 107 149 205 249 282 335
#     4  11  20  36  58  89 121 152 189 246 305 341
#     4  11  24  36  56  92 128 155 185 238 303 356
#     4  10  20  36  56  79 119 162 192 226 286 354
#     4  10  18  33  58  86 115 149 196 242 288 349
#
# _framework density 23.441420999999998
#
# number of rings (size 3 to 8) (size 9 to 14) (size 15 to 20)
#    0.000    1.667    3.333    3.000    0.000    3.333 
#    0.000    1.667    0.000   17.000    0.000    0.000 
#    0.000    0.000    0.000    0.000    0.000    0.000 
#
# Total GULP energy -133789.009875 kJ/mol
# GULP energy per Si atom -5574.542078 kJ/mol
# Density = 2.338807 g / cm^3
# Si number density = 23.441421 Si / 1000 Ang^3
#
#
#
# Elastic Constant Matrix: (Units=GPa)
#
#
# Indices 1 2 3 4 5 6 
#
# 1 100.0651 41.4674 15.4004 0.0000 -29.5522 0.0000
# 2 41.4674 156.3695 4.7261 0.0000 -4.0475 0.0000
# 3 15.4004 4.7261 34.8390 0.0000 -17.2474 0.0000
# 4 0.0000 0.0000 0.0000 6.8617 0.0000 1.8009
# 5 -29.5522 -4.0475 -17.2474 0.0000 30.5712 0.0000
# 6 0.0000 0.0000 0.0000 1.8009 0.0000 20.7009
#
#
#
# Elastic Compliance Matrix: (Units=1/GPa)
#
#
# Indices 1 2 3 4 5 6 
#
# 1 0.016049 -0.003886 0.001191 0.000000 0.015671 0.000000
# 2 -0.003886 0.007368 -0.000914 0.000000 -0.003297 0.000000
# 3 0.001191 -0.000914 0.039976 0.000000 0.023584 0.000000
# 4 0.000000 0.000000 0.000000 0.149142 0.000000 -0.012975
# 5 0.015671 -0.003297 0.023584 0.000000 0.060729 0.000000
# 6 0.000000 0.000000 0.000000 -0.012975 0.000000 0.049436
#
#
# Mechanical properties :
#
#
# Convention : Reuss Voigt Hill
#
# Bulk Modulus (GPa) = 17.80127 46.05125 31.92626
# Shear Modulus (GPa) = 14.34132 26.93874 20.64003
#
# Velocity S-wave (km/s) = 2.47613 3.39365 2.97053
# Velocity P-wave (km/s) = 3.97308 5.91978 5.04129
#
# Compressibility (1/GPa) = 0.05617576
#
# Stress axis : x y z
#
# Youngs Moduli (GPa) = 62.30939 135.72200 25.01474
#
# Poissons Ratio (x) = 0.52746 -0.02980
# Poissons Ratio (y) = 0.24216 0.02286
# Poissons Ratio (z) = -0.07422 0.12401
#
# Static dielectric constant tensor:
#      x y z
#    x 1.861500 0.000000 0.009950 
#    y 0.000000 1.930770 0.000000 
#    z 0.009950 0.000000 1.984900 
# 
# From -- ./inp_files/166866.got.cif
#   From: 2010.05.17/outbox.cif.g08.bks.cpg/sg12_84_cif.got.tgz:166866.got - 2010.06.03 13:09:07.
