data_PCOD9175269
_publ_section_title
;
Structure prediction by ZEFSAII (Michael W. Deem and Ramdas Pophale) SiO2 
 PCOD9175269
Probable space group: C 2/M
;
_chemical_formula_sum "Si O2"
_cell_formula_units_Z 64
_cell_length_a 32.261461
_cell_length_b 14.384617
_cell_length_c 22.221151
_cell_angle_alpha 90.000000
_cell_angle_beta 163.235343
_cell_angle_gamma 90.000000
_cell_volume 2974.446796
_symmetry_space_group_name_H-M "C 2/M"
_symmetry_group_IT_number 12
_symmetry_cell_setting 'monoclinic'
loop_
_space_group_symop_operation_xyz
x,y,z
-x,y,-z
-x,-y,-z
x,-y,z
1/2+x,1/2+y,z
1/2-x,1/2+y,-z
1/2-x,1/2-y,-z
1/2+x,1/2-y,z
loop_
_atom_site_type_symbol
_atom_site_label
_atom_site_fract_x
_atom_site_fract_y
_atom_site_fract_z
Si Si1 0.104659 0.889266 0.592658
Si Si2 0.070860 0.609140 0.768961
Si Si3 0.527757 0.609479 0.128208
Si Si4 0.262852 0.395926 0.920814
Si Si5 0.421769 0.391943 0.580547
Si Si6 0.739716 0.613292 0.317240
Si Si7 0.631323 0.287172 0.380001
Si Si8 0.163028 0.297853 0.013089
O O1 0.082220 0.856047 0.493372
O O2 0.000000 0.852331 0.500000
O O3 0.081825 0.000000 0.558123
O O4 0.261256 0.864857 0.834922
O O5 0.075367 0.500000 0.793113
O O6 0.169212 0.664298 0.953331
O O7 0.905015 0.641511 0.540255
O O8 0.136608 0.614525 0.794016
O O9 0.520835 0.500000 0.109829
O O10 0.659453 0.640410 0.267951
O O11 0.558232 0.630720 0.239265
O O12 0.374766 0.647016 0.891946
O O13 0.253434 0.500000 0.880051
O O14 0.413592 0.390873 0.167100
O O15 0.266856 0.304586 0.885556
O O16 0.373802 0.500000 0.514936
O O17 0.334995 0.330319 0.508223
O O18 0.744559 0.500000 0.321887
O O19 0.750000 0.250000 0.500000
O O20 0.506361 0.211237 0.211492
#
# Coordination Sequence:
#
# PCOD9175269 Si02
#       8
#     8   8   8   8   8   8   8   8
#     4  10  21  41  67  95 126 163 209 261 320 381
#     4  10  18  32  57  88 121 154 194 255 315 366
#     4   9  17  35  56  77 109 154 204 247 298 368
#     4   9  19  36  60  88 120 160 202 247 305 374
#     4   9  19  39  65  87 117 165 212 256 309 376
#     4   8  16  31  55  84 110 146 197 249 306 366
#     4  11  23  39  56  86 120 158 207 256 317 369
#     4  11  22  37  56  91 121 159 207 253 308 371
#
# _framework density 21.516607
#
# number of rings (size 3 to 8) (size 9 to 14) (size 15 to 20)
#    0.000    2.375    0.000    3.375    0.000    3.500 
#   11.250    1.875    0.000    1.875    0.000    0.000 
#    0.000    0.000    0.000    0.000    0.000    0.000 
#
# Total GULP energy -178598.698330 kJ/mol
# GULP energy per Si atom -5581.209323 kJ/mol
# Density = 2.146763 g / cm^3
# Si number density = 21.516607 Si / 1000 Ang^3
#
#
#
# Elastic Constant Matrix: (Units=GPa)
#
#
# Indices 1 2 3 4 5 6 
#
# 1 127.8819 31.0219 32.8288 0.0000 -0.7339 0.0000
# 2 31.0219 42.3455 6.7795 0.0000 6.5310 0.0000
# 3 32.8288 6.7795 46.1742 -0.0001 9.8454 0.0000
# 4 0.0000 0.0000 -0.0001 21.3942 -0.0001 3.5737
# 5 -0.7339 6.5310 9.8454 -0.0001 28.4000 0.0000
# 6 0.0000 0.0000 0.0000 3.5737 0.0000 33.2834
#
#
#
# Elastic Compliance Matrix: (Units=1/GPa)
#
#
# Indices 1 2 3 4 5 6 
#
# 1 0.012010 -0.008241 -0.008422 0.000000 0.005125 0.000000
# 2 -0.008241 0.030427 0.003163 0.000000 -0.008307 0.000000
# 3 -0.008422 0.003163 0.029567 0.000000 -0.011195 0.000000
# 4 0.000000 0.000000 0.000000 0.047595 0.000000 -0.005110
# 5 0.005125 -0.008307 -0.011195 0.000000 0.041135 0.000000
# 6 0.000000 0.000000 0.000000 -0.005110 0.000000 0.030594
#
#
# Mechanical properties :
#
#
# Convention : Reuss Voigt Hill
#
# Bulk Modulus (GPa) = 22.21968 39.74021 30.97995
# Shear Modulus (GPa) = 21.42890 26.33363 23.88126
#
# Velocity S-wave (km/s) = 3.15925 3.50219 3.33513
# Velocity P-wave (km/s) = 4.86384 5.90452 5.40927
#
# Compressibility (1/GPa) = 0.04500514
#
# Stress axis : x y z
#
# Youngs Moduli (GPa) = 83.26305 32.86545 33.82094
#
# Poissons Ratio (x) = 0.27083 0.28483
# Poissons Ratio (y) = 0.68614 -0.10696
# Poissons Ratio (z) = 0.70122 -0.10394
#
# Static dielectric constant tensor:
#      x y z
#    x 1.822640 0.000000 0.019680 
#    y 0.000000 1.831530 0.000000 
#    z 0.019680 0.000000 1.805620 
# 
# From -- ./inp_files/330400.got.cif
#   From: 2010.05.17/outbox.cif.g08.bks.cpg/sg12_166_cif.got.tgz:330400.got - 2010.06.03 13:09:07.
