data_PCOD9175003
_publ_section_title
;
Structure prediction by ZEFSAII (Michael W. Deem and Ramdas Pophale) SiO2 
 PCOD9175003
Probable space group: C 2/M
;
_chemical_formula_sum "Si O2"
_cell_formula_units_Z 64
_cell_length_a 14.888218
_cell_length_b 8.532378
_cell_length_c 27.931925
_cell_angle_alpha 90.000000
_cell_angle_beta 110.114807
_cell_angle_gamma 90.000000
_cell_volume 3331.821816
_symmetry_space_group_name_H-M "C 2/M"
_symmetry_group_IT_number 12
_symmetry_cell_setting 'monoclinic'
loop_
_space_group_symop_operation_xyz
x,y,z
-x,y,-z
-x,-y,-z
x,-y,z
1/2+x,1/2+y,z
1/2-x,1/2+y,-z
1/2-x,1/2-y,-z
1/2+x,1/2-y,z
loop_
_atom_site_type_symbol
_atom_site_label
_atom_site_fract_x
_atom_site_fract_y
_atom_site_fract_z
Si Si1 0.338928 0.309243 0.903490
Si Si2 0.144065 0.313264 0.824442
Si Si3 0.367483 0.688608 0.283192
Si Si4 0.230671 0.811754 0.637453
Si Si5 0.931265 0.811901 0.633154
Si Si6 0.643137 0.689512 0.987690
Si Si7 0.533179 0.188147 0.559203
Si Si8 0.010870 0.811156 0.875159
O O1 0.338004 0.500000 0.904451
O O2 0.231870 0.254383 0.873659
O O3 0.405492 0.262178 0.871744
O O4 0.381478 0.260424 0.962538
O O5 0.145568 0.500000 0.825170
O O6 0.155860 0.255708 0.772787
O O7 0.048541 0.254448 0.832479
O O8 0.365204 0.500000 0.280562
O O9 0.295740 0.737769 0.312780
O O10 0.475817 0.734863 0.318103
O O11 0.331095 0.748663 0.635861
O O12 0.138386 0.754865 0.590470
O O13 0.233217 0.000000 0.636746
O O14 0.958710 0.749172 0.585503
O O15 0.928298 0.000000 0.630979
O O16 0.640699 0.500000 0.986447
O O17 0.577475 0.742821 0.931856
O O18 0.750000 0.750000 0.000000
O O19 0.500000 0.233472 0.500000
O O20 0.537254 0.000000 0.562839
O O21 0.014939 0.000000 0.873869
#
# Coordination Sequence:
#
# PCOD9175003 Si02
#       8
#     8   8   8   8   8   8   8   8
#     4   9  19  35  53  76 105 136 174 213 259 325
#     4  11  22  36  55  79 108 138 172 225 278 322
#     4   9  21  40  58  79 109 144 185 230 277 335
#     4  10  21  38  61  87 116 152 193 239 288 341
#     4  10  21  38  61  86 114 152 195 241 288 337
#     4  10  18  32  55  77 102 135 172 214 262 319
#     4  10  21  37  58  87 123 160 198 240 283 331
#     4  10  20  35  56  77 101 140 178 213 263 325
#
# _framework density 19.20871
#
# number of rings (size 3 to 8) (size 9 to 14) (size 15 to 20)
#    0.000    2.125    1.250    2.625    0.000    7.000 
#    0.000    5.625    0.000    1.500    0.000    0.000 
#    0.000    0.000    0.000    0.000    0.000    0.000 
#
# Total GULP energy -178555.772416 kJ/mol
# GULP energy per Si atom -5579.867888 kJ/mol
# Density = 1.916499 g / cm^3
# Si number density = 19.208710 Si / 1000 Ang^3
#
#
#
# Elastic Constant Matrix: (Units=GPa)
#
#
# Indices 1 2 3 4 5 6 
#
# 1 120.7375 20.6883 32.2256 0.0000 -26.0112 0.0000
# 2 20.6883 24.7844 23.2236 0.0000 -5.7348 0.0000
# 3 32.2256 23.2236 98.1690 0.0000 -19.2737 0.0000
# 4 0.0000 0.0000 0.0000 26.3338 0.0000 -0.8387
# 5 -26.0112 -5.7348 -19.2737 0.0000 18.1927 0.0000
# 6 0.0000 0.0000 0.0000 -0.8387 0.0000 24.8184
#
#
#
# Elastic Compliance Matrix: (Units=1/GPa)
#
#
# Indices 1 2 3 4 5 6 
#
# 1 0.013084 -0.007811 0.000937 0.000000 0.017238 0.000000
# 2 -0.007811 0.056762 -0.012050 0.000000 -0.006042 0.000000
# 3 0.000937 -0.012050 0.015463 0.000000 0.013923 0.000000
# 4 0.000000 0.000000 0.000000 0.038015 0.000000 0.001285
# 5 0.017238 -0.006042 0.013923 0.000000 0.092459 0.000000
# 6 0.000000 0.000000 0.000000 0.001285 0.000000 0.040336
#
#
# Mechanical properties :
#
#
# Convention : Reuss Voigt Hill
#
# Bulk Modulus (GPa) = 21.07004 43.99620 32.53312
# Shear Modulus (GPa) = 16.14006 25.03921 20.58963
#
# Velocity S-wave (km/s) = 2.90185 3.61437 3.27753
# Velocity P-wave (km/s) = 4.71385 6.35391 5.59431
#
# Compressibility (1/GPa) = 0.04746075
#
# Stress axis : x y z
#
# Youngs Moduli (GPa) = 76.42639 17.61755 64.67008
#
# Poissons Ratio (x) = 0.13762 -0.06060
# Poissons Ratio (y) = 0.59700 0.77927
# Poissons Ratio (z) = -0.07162 0.21229
#
# Static dielectric constant tensor:
#      x y z
#    x 1.669910 0.000000 -0.007300 
#    y 0.000000 1.656840 0.000000 
#    z -0.007300 0.000000 1.671430 
# 
# From -- ./inp_files/359805.got.cif
#   From: 2010.05.17/outbox.cif.g08.bks.cpg/sg12_180_cif.got.tgz:359805.got - 2010.06.03 13:09:07.
