data_PCOD9175711
_publ_section_title
;
Structure prediction by ZEFSAII (Michael W. Deem and Ramdas Pophale) SiO2 
 PCOD9175711
Probable space group: C 2/M
;
_chemical_formula_sum "Si O2"
_cell_formula_units_Z 48
_cell_length_a 23.693352
_cell_length_b 8.567662
_cell_length_c 12.458279
_cell_angle_alpha 90.000000
_cell_angle_beta 111.168676
_cell_angle_gamma 90.000000
_cell_volume 2358.335968
_symmetry_space_group_name_H-M "C 2/M"
_symmetry_group_IT_number 12
_symmetry_cell_setting 'monoclinic'
loop_
_space_group_symop_operation_xyz
x,y,z
-x,y,-z
-x,-y,-z
x,-y,z
1/2+x,1/2+y,z
1/2-x,1/2+y,-z
1/2-x,1/2-y,-z
1/2+x,1/2-y,z
loop_
_atom_site_type_symbol
_atom_site_label
_atom_site_fract_x
_atom_site_fract_y
_atom_site_fract_z
Si Si1 0.850798 0.809672 0.327092
Si Si2 0.737003 0.187549 0.109341
Si Si3 0.047285 0.186419 0.768510
Si Si4 0.097762 0.688164 0.027323
Si Si5 0.924299 0.686460 0.752716
Si Si6 0.681787 0.312732 0.458087
O O1 0.789061 0.757137 0.225890
O O2 0.908044 0.757944 0.295588
O O3 0.847853 0.762271 0.448691
O O4 0.851207 0.000000 0.325781
O O5 0.668500 0.227905 0.092124
O O6 0.740397 0.000000 0.109308
O O7 0.750000 0.250000 0.000000
O O8 0.979940 0.254042 0.720025
O O9 0.043989 0.000000 0.760588
O O10 0.075281 0.235386 0.902430
O O11 0.091724 0.500000 0.011098
O O12 0.065579 0.734929 0.116098
O O13 0.922374 0.500000 0.750287
O O14 0.861117 0.750059 0.665034
O O15 0.683412 0.500000 0.455886
O O16 0.750000 0.250000 0.500000
#
# Coordination Sequence:
#
# PCOD9175711 Si02
#       6
#     8   8   8   8   8   8
#     4   9  20  38  60  86 122 160 193 240 301 355
#     4  10  18  33  56  84 114 149 190 234 287 347
#     4  11  22  38  61  89 120 156 202 249 295 354
#     4  10  21  37  59  85 121 162 198 243 303 357
#     4  11  24  42  61  85 121 162 201 244 298 354
#     4  11  23  43  67  90 118 155 199 244 296 355
#
# _framework density 20.353335000000001
#
# number of rings (size 3 to 8) (size 9 to 14) (size 15 to 20)
#    0.000    1.667    1.667    3.000    0.000    6.667 
#    0.000   10.000    0.000    0.000    0.000    0.000 
#    0.000    0.000    0.000    0.000    0.000    0.000 
#
# Total GULP energy -134122.660569 kJ/mol
# GULP energy per Si atom -5588.444190 kJ/mol
# Density = 2.030701 g / cm^3
# Si number density = 20.353335 Si / 1000 Ang^3
#
#
#
# Elastic Constant Matrix: (Units=GPa)
#
#
# Indices 1 2 3 4 5 6 
#
# 1 123.3466 30.9336 32.9753 0.0000 -6.4444 0.0000
# 2 30.9336 32.8026 19.4042 0.0000 -0.7757 0.0000
# 3 32.9753 19.4042 92.3207 0.0000 -10.9089 0.0000
# 4 0.0000 0.0000 0.0000 27.1089 0.0000 3.7655
# 5 -6.4444 -0.7757 -10.9089 0.0000 34.3449 0.0000
# 6 0.0000 0.0000 0.0000 3.7655 0.0000 32.6488
#
#
#
# Elastic Compliance Matrix: (Units=1/GPa)
#
#
# Indices 1 2 3 4 5 6 
#
# 1 0.010981 -0.009243 -0.001829 0.000000 0.001271 0.000000
# 2 -0.009243 0.042679 -0.005985 0.000000 -0.002671 0.000000
# 3 -0.001829 -0.005985 0.013181 0.000000 0.003708 0.000000
# 4 0.000000 0.000000 0.000000 0.037489 0.000000 -0.004324
# 5 0.001271 -0.002671 0.003708 0.000000 0.030472 0.000000
# 6 0.000000 0.000000 0.000000 -0.004324 0.000000 0.031128
#
#
# Mechanical properties :
#
#
# Convention : Reuss Voigt Hill
#
# Bulk Modulus (GPa) = 30.55570 46.12179 38.33875
# Shear Modulus (GPa) = 23.70211 29.83098 26.76655
#
# Velocity S-wave (km/s) = 3.41623 3.83254 3.63036
# Velocity P-wave (km/s) = 5.53227 6.50340 6.03739
#
# Compressibility (1/GPa) = 0.03272712
#
# Stress axis : x y z
#
# Youngs Moduli (GPa) = 91.06945 23.43093 75.86549
#
# Poissons Ratio (x) = 0.21657 0.13878
# Poissons Ratio (y) = 0.84174 0.45402
# Poissons Ratio (z) = 0.16659 0.14022
#
# Static dielectric constant tensor:
#      x y z
#    x 1.729230 0.000000 0.002740 
#    y 0.000000 1.697650 0.000000 
#    z 0.002740 0.000000 1.694610 
# 
# From -- ./inp_files/173060.got.cif
#   From: 2010.05.17/outbox.cif.g08.bks.cpg/sg12_87_cif.got.tgz:173060.got - 2010.06.03 13:09:07.
