data_PCOD9175139
_publ_section_title
;
Structure prediction by ZEFSAII (Michael W. Deem and Ramdas Pophale) SiO2 
 PCOD9175139
Probable space group: C 2/M
;
_chemical_formula_sum "Si O2"
_cell_formula_units_Z 56
_cell_length_a 30.100796
_cell_length_b 12.792231
_cell_length_c 14.865218
_cell_angle_alpha 90.000000
_cell_angle_beta 142.158992
_cell_angle_gamma 90.000000
_cell_volume 3511.483291
_symmetry_space_group_name_H-M "C 2/M"
_symmetry_group_IT_number 12
_symmetry_cell_setting 'monoclinic'
loop_
_space_group_symop_operation_xyz
x,y,z
-x,y,-z
-x,-y,-z
x,-y,z
1/2+x,1/2+y,z
1/2-x,1/2+y,-z
1/2-x,1/2-y,-z
1/2+x,1/2-y,z
loop_
_atom_site_type_symbol
_atom_site_label
_atom_site_fract_x
_atom_site_fract_y
_atom_site_fract_z
Si Si1 0.076677 0.376686 0.366474
Si Si2 0.332263 0.278869 0.156646
Si Si3 0.564892 0.500000 0.479655
Si Si4 0.591667 0.877993 0.851643
Si Si5 0.578232 0.127103 0.161825
Si Si6 0.099973 0.000000 0.749761
Si Si7 0.312032 0.125585 0.817213
Si Si8 0.654247 0.294230 0.606857
O O1 0.094020 0.500000 0.401868
O O2 0.088361 0.343219 0.281598
O O3 0.122620 0.305904 0.506457
O O4 0.991812 0.364814 0.254520
O O5 0.384315 0.196804 0.190236
O O6 0.354571 0.395173 0.160121
O O7 0.342510 0.277185 0.280464
O O8 0.250000 0.250000 0.000000
O O9 0.581222 0.500000 0.613132
O O10 0.478453 0.500000 0.328027
O O11 0.602999 0.394673 0.505929
O O12 0.603128 0.000000 0.846317
O O13 0.640977 0.854995 0.017779
O O14 0.641312 0.159597 0.194503
O O15 0.576608 0.000000 0.157253
O O16 0.500000 0.162306 0.000000
O O17 0.234750 0.179089 0.702597
O O18 0.301345 0.000000 0.795130
#
# Coordination Sequence:
#
# PCOD9175139 Si02
#       8
#     8   8   4   8   8   4   8   8
#     4  10  21  36  53  82 112 140 167 215 274 330
#     4  11  22  34  52  78 106 144 183 218 258 310
#     4   9  18  36  54  72  97 136 184 226 259 289
#     4  10  20  34  56  78 106 138 179 218 265 315
#     4   9  16  31  56  82 105 133 175 221 266 315
#     4   9  20  34  52  72  99 136 186 228 250 298
#     4  10  18  32  56  82 101 133 183 230 262 298
#     4  11  21  34  54  77 111 138 177 222 263 311
#
# _framework density 15.947676
#
# number of rings (size 3 to 8) (size 9 to 14) (size 15 to 20)
#    0.000    2.000    3.571    0.857    1.000    2.857 
#    0.000    1.429    0.000    0.000    0.000    0.500 
#    0.000    0.000    0.000    0.000    0.000    0.000 
#
# Total GULP energy -156176.210595 kJ/mol
# GULP energy per Si atom -5577.721807 kJ/mol
# Density = 1.591138 g / cm^3
# Si number density = 15.947676 Si / 1000 Ang^3
#
#
#
# Elastic Constant Matrix: (Units=GPa)
#
#
# Indices 1 2 3 4 5 6 
#
# 1 131.5378 65.1847 54.0283 0.0000 7.6160 0.0000
# 2 65.1847 85.4813 63.6627 0.0000 6.6811 0.0000
# 3 54.0283 63.6627 98.9079 0.0000 11.9795 0.0000
# 4 0.0000 0.0000 0.0000 23.5738 0.0000 3.6777
# 5 7.6160 6.6811 11.9795 0.0000 25.3191 0.0000
# 6 0.0000 0.0000 0.0000 3.6777 0.0000 23.1913
#
#
#
# Elastic Compliance Matrix: (Units=1/GPa)
#
#
# Indices 1 2 3 4 5 6 
#
# 1 0.012328 -0.008445 -0.001187 0.000000 -0.000918 0.000000
# 2 -0.008445 0.028277 -0.013781 0.000000 0.001599 0.000000
# 3 -0.001187 -0.013781 0.020310 0.000000 -0.005616 0.000000
# 4 0.000000 0.000000 0.000000 0.043496 0.000000 -0.006898
# 5 -0.000918 0.001599 -0.005616 0.000000 0.042007 0.000000
# 6 0.000000 0.000000 0.000000 -0.006898 0.000000 0.044213
#
#
# Mechanical properties :
#
#
# Convention : Reuss Voigt Hill
#
# Bulk Modulus (GPa) = 70.98508 75.74205 73.36357
# Shear Modulus (GPa) = 20.64799 23.28694 21.96746
#
# Velocity S-wave (km/s) = 3.60214 3.82541 3.71546
# Velocity P-wave (km/s) = 7.86819 8.19200 8.03173
#
# Compressibility (1/GPa) = 0.01408747
#
# Stress axis : x y z
#
# Youngs Moduli (GPa) = 81.11465 35.36452 49.23775
#
# Poissons Ratio (x) = 0.29865 0.05847
# Poissons Ratio (y) = 0.68501 0.67856
# Poissons Ratio (z) = 0.09632 0.48737
#
# Static dielectric constant tensor:
#      x y z
#    x 1.533850 0.000000 0.005720 
#    y 0.000000 1.518940 0.000000 
#    z 0.005720 0.000000 1.515410 
# 
# From -- ./inp_files/250608.got.cif
#   From: 2010.05.17/outbox.cif.g08.bks.cpg/sg12_126_cif.got.tgz:250608.got - 2010.06.03 13:09:07.
