data_PCOD9175961
_publ_section_title
;
Structure prediction by ZEFSAII (Michael W. Deem and Ramdas Pophale) SiO2 
 PCOD9175961
Probable space group: C 2/M
;
_chemical_formula_sum "Si O2"
_cell_formula_units_Z 52
_cell_length_a 14.959712
_cell_length_b 18.362448
_cell_length_c 11.497329
_cell_angle_alpha 90.000000
_cell_angle_beta 128.313328
_cell_angle_gamma 90.000000
_cell_volume 2478.088917
_symmetry_space_group_name_H-M "C 2/M"
_symmetry_group_IT_number 12
_symmetry_cell_setting 'monoclinic'
loop_
_space_group_symop_operation_xyz
x,y,z
-x,y,-z
-x,-y,-z
x,-y,z
1/2+x,1/2+y,z
1/2-x,1/2+y,-z
1/2-x,1/2-y,-z
1/2+x,1/2-y,z
loop_
_atom_site_type_symbol
_atom_site_label
_atom_site_fract_x
_atom_site_fract_y
_atom_site_fract_z
Si Si1 0.655006 0.587059 0.817531
Si Si2 0.500000 0.351577 0.500000
Si Si3 0.640391 0.912123 0.867115
Si Si4 0.210025 0.798182 0.576099
Si Si5 0.121211 0.587644 0.379408
Si Si6 0.458150 0.417101 0.834141
Si Si7 0.279779 0.845879 0.312152
O O1 0.659817 0.500000 0.822936
O O2 0.599741 0.608269 0.650560
O O3 0.562146 0.609505 0.839655
O O4 0.779140 0.612313 0.960876
O O5 0.574781 0.310520 0.464720
O O6 0.506350 0.896178 0.768091
O O7 0.689307 0.878526 0.787493
O O8 0.650083 0.000000 0.864238
O O9 0.250000 0.750000 0.500000
O O10 0.285928 0.870495 0.625083
O O11 0.222586 0.741806 0.692908
O O12 0.138324 0.500000 0.395540
O O13 0.135418 0.620953 0.521161
O O14 0.430215 0.500000 0.773373
O O15 0.343321 0.371720 0.741660
O O16 0.500000 0.419791 0.000000
#
# Coordination Sequence:
#
# PCOD9175961 Si02
#       7
#     8   4   8   8   8   8   8
#     4  10  21  38  63  96 128 164 215 271 326 385
#     4  12  25  44  66  88 121 178 220 266 326 388
#     4  10  20  36  63  98 131 162 210 273 326 381
#     4  10  25  42  64  91 130 172 219 269 318 389
#     4  10  21  38  62  92 129 172 218 262 318 391
#     4  10  18  33  60  95 134 166 207 270 326 379
#     4  11  20  35  61  93 128 172 211 265 332 388
#
# _framework density 20.983912
#
# number of rings (size 3 to 8) (size 9 to 14) (size 15 to 20)
#    0.000    1.692    1.538    3.923    4.308    3.692 
#    0.000    3.077    0.000    2.769    0.000    0.000 
#    0.000    0.000    0.000    0.000    0.000    0.000 
#
# Total GULP energy -145002.476672 kJ/mol
# GULP energy per Si atom -5577.018334 kJ/mol
# Density = 2.093615 g / cm^3
# Si number density = 20.983912 Si / 1000 Ang^3
#
#
#
# Elastic Constant Matrix: (Units=GPa)
#
#
# Indices 1 2 3 4 5 6 
#
# 1 96.2545 29.1579 34.2233 0.0000 15.3485 0.0000
# 2 29.1579 59.1484 34.9556 0.0000 19.6043 0.0000
# 3 34.2233 34.9556 133.3386 0.0000 19.5731 0.0000
# 4 0.0000 0.0000 0.0000 3.1985 0.0000 -12.0941
# 5 15.3485 19.6043 19.5731 0.0000 30.3717 0.0000
# 6 0.0000 0.0000 0.0000 -12.0941 0.0000 21.5291
#
#
#
# Elastic Compliance Matrix: (Units=1/GPa)
#
#
# Indices 1 2 3 4 5 6 
#
# 1 0.012746 -0.004438 -0.001748 0.000000 -0.002450 0.000000
# 2 -0.004438 0.025149 -0.003755 0.000000 -0.011570 0.000000
# 3 -0.001748 -0.003755 0.009330 0.000000 -0.002705 0.000000
# 4 0.000000 0.000000 0.000000 -0.278130 0.000000 -0.156241
# 5 -0.002450 -0.011570 -0.002705 0.000000 0.043375 0.000000
# 6 0.000000 0.000000 0.000000 -0.156241 0.000000 -0.041321
#
#
# Mechanical properties :
#
#
# Convention : Reuss Voigt Hill
#
# Bulk Modulus (GPa) = 36.57523 53.93500 45.25511
# Shear Modulus (GPa) = -25.01817 23.71350 -0.65234
#
# Velocity S-wave (km/s) = -3.45665 3.36531 -0.55817
# Velocity P-wave (km/s) = 1.23965 6.39213 4.60413
#
# Compressibility (1/GPa) = 0.02734091
#
# Stress axis : x y z
#
# Youngs Moduli (GPa) = 78.45746 39.76378 107.18062
#
# Poissons Ratio (x) = 0.17647 0.18739
# Poissons Ratio (y) = 0.34819 0.40251
# Poissons Ratio (z) = 0.13717 0.14933
#
# Static dielectric constant tensor:
#      x y z
#    x 1.793660 0.000000 -0.028460 
#    y 0.000000 1.813100 0.000000 
#    z -0.028460 0.000000 1.818340 
# 
# From -- ./inp_files/147744.got.cif
#   From: 2010.05.17/outbox.cif.g08.bks.cpg/sg12_74_cif.got.tgz:147744.got - 2010.06.03 13:09:07.
