data_PCOD9175642
_publ_section_title
;
Structure prediction by ZEFSAII (Michael W. Deem and Ramdas Pophale) SiO2 
 PCOD9175642
Probable space group: C 2/M
;
_chemical_formula_sum "Si O2"
_cell_formula_units_Z 64
_cell_length_a 13.756044
_cell_length_b 29.849192
_cell_length_c 11.709901
_cell_angle_alpha 90.000000
_cell_angle_beta 140.014451
_cell_angle_gamma 90.000000
_cell_volume 3089.699779
_symmetry_space_group_name_H-M "C 2/M"
_symmetry_group_IT_number 12
_symmetry_cell_setting 'monoclinic'
loop_
_space_group_symop_operation_xyz
x,y,z
-x,y,-z
-x,-y,-z
x,-y,z
1/2+x,1/2+y,z
1/2-x,1/2+y,-z
1/2-x,1/2-y,-z
1/2+x,1/2-y,z
loop_
_atom_site_type_symbol
_atom_site_label
_atom_site_fract_x
_atom_site_fract_y
_atom_site_fract_z
Si Si1 0.181767 0.848847 0.183925
Si Si2 0.354371 0.631031 0.444872
Si Si3 0.815492 0.049717 0.825875
Si Si4 0.681374 0.951342 0.959425
Si Si5 0.174011 0.203167 0.402507
Si Si6 0.509411 0.547210 0.370693
Si Si7 0.138153 0.632331 0.055715
Si Si8 0.690287 0.699436 0.953959
O O1 0.224719 0.900292 0.253736
O O2 0.226606 0.817426 0.329582
O O3 0.233545 0.826238 0.111102
O O4 0.000000 0.849661 0.000000
O O5 0.500000 0.644942 0.500000
O O6 0.288600 0.671083 0.457915
O O7 0.404208 0.592552 0.578236
O O8 0.238295 0.612307 0.248407
O O9 0.776681 0.000000 0.740482
O O10 0.732144 0.050799 0.873832
O O11 0.000000 0.049404 0.000000
O O12 0.596392 0.908130 0.932386
O O13 0.843891 0.950864 0.169057
O O14 0.608363 0.000000 0.915951
O O15 0.250000 0.250000 0.500000
O O16 0.990831 0.202593 0.226459
O O17 0.500000 0.547029 0.500000
O O18 0.579960 0.500000 0.397419
O O19 0.235739 0.668830 0.077280
O O20 0.000000 0.653420 0.000000
O O21 0.750000 0.750000 0.000000
#
# Coordination Sequence:
#
# PCOD9175642 Si02
#       8
#     8   8   8   8   8   8   8   8
#     4   9  20  37  60  88 123 155 197 253 310 368
#     4  11  21  38  61  85 122 160 198 250 305 360
#     4   9  17  29  54  88 124 159 201 249 308 369
#     4  10  18  33  55  88 126 162 200 253 307 367
#     4  11  25  41  63  90 120 155 201 256 316 372
#     4   9  16  28  53  83 115 153 192 233 295 354
#     4  12  25  39  61  88 125 166 208 252 308 374
#     4  11  24  42  64  86 119 158 203 254 313 371
#
# _framework density 20.713988000000001
#
# number of rings (size 3 to 8) (size 9 to 14) (size 15 to 20)
#    0.000    1.750    5.000    0.000    7.000    0.750 
#    0.000    0.000    0.000    0.000    0.000    0.000 
#    0.000    3.000    0.000    0.000    0.000    0.000 
#
# Total GULP energy -178284.999037 kJ/mol
# GULP energy per Si atom -5571.406220 kJ/mol
# Density = 2.066684 g / cm^3
# Si number density = 20.713988 Si / 1000 Ang^3
#
#
#
# Elastic Constant Matrix: (Units=GPa)
#
#
# Indices 1 2 3 4 5 6 
#
# 1 88.2205 48.0553 20.2490 0.0000 -10.0422 0.0000
# 2 48.0553 188.3751 17.8287 0.0000 -12.3738 0.0000
# 3 20.2490 17.8287 23.8060 0.0000 -13.0300 0.0000
# 4 0.0000 0.0000 0.0000 30.1350 0.0000 -2.7754
# 5 -10.0422 -12.3738 -13.0300 0.0000 16.0475 0.0000
# 6 0.0000 0.0000 0.0000 -2.7754 0.0000 29.0163
#
#
#
# Elastic Compliance Matrix: (Units=1/GPa)
#
#
# Indices 1 2 3 4 5 6 
#
# 1 0.015491 -0.002951 -0.012430 0.000000 -0.002674 0.000000
# 2 -0.002951 0.006301 -0.001008 0.000000 0.002193 0.000000
# 3 -0.012430 -0.001008 0.087569 0.000000 0.062547 0.000000
# 4 0.000000 0.000000 0.000000 0.033479 0.000000 0.003202
# 5 -0.002674 0.002193 0.062547 0.000000 0.113118 0.000000
# 6 0.000000 0.000000 0.000000 0.003202 0.000000 0.034770
#
#
# Mechanical properties :
#
#
# Convention : Reuss Voigt Hill
#
# Bulk Modulus (GPa) = 13.05795 52.51861 32.78828
# Shear Modulus (GPa) = 14.32520 29.32435 21.82477
#
# Velocity S-wave (km/s) = 2.63263 3.76663 3.24948
# Velocity P-wave (km/s) = 3.94444 6.65777 5.47195
#
# Compressibility (1/GPa) = 0.07658170
#
# Stress axis : x y z
#
# Youngs Moduli (GPa) = 64.55175 158.70783 11.41954
#
# Poissons Ratio (x) = 0.46837 0.14195
# Poissons Ratio (y) = 0.19050 0.01152
# Poissons Ratio (z) = 0.80240 0.16004
#
# Static dielectric constant tensor:
#      x y z
#    x 1.845180 0.000000 0.014340 
#    y 0.000000 1.815070 0.000000 
#    z 0.014340 0.000000 1.765570 
# 
# From -- ./inp_files/150293.got.cif
#   From: 2010.05.17/outbox.cif.g08.bks.cpg/sg12_76_cif.got.tgz:150293.got - 2010.06.03 13:09:07.
