data_PCOD9175707
_publ_section_title
;
Structure prediction by ZEFSAII (Michael W. Deem and Ramdas Pophale) SiO2 
 PCOD9175707
Probable space group: C 2/M
;
_chemical_formula_sum "Si O2"
_cell_formula_units_Z 56
_cell_length_a 31.843283
_cell_length_b 8.040835
_cell_length_c 12.290066
_cell_angle_alpha 90.000000
_cell_angle_beta 123.574467
_cell_angle_gamma 90.000000
_cell_volume 2621.836848
_symmetry_space_group_name_H-M "C 2/M"
_symmetry_group_IT_number 12
_symmetry_cell_setting 'monoclinic'
loop_
_space_group_symop_operation_xyz
x,y,z
-x,y,-z
-x,-y,-z
x,-y,z
1/2+x,1/2+y,z
1/2-x,1/2+y,-z
1/2-x,1/2-y,-z
1/2+x,1/2-y,z
loop_
_atom_site_type_symbol
_atom_site_label
_atom_site_fract_x
_atom_site_fract_y
_atom_site_fract_z
Si Si1 0.079028 0.195086 0.864130
Si Si2 0.237820 0.692533 0.861544
Si Si3 0.633451 0.203267 0.326506
Si Si4 0.517017 0.799779 0.147410
Si Si5 0.649697 0.200158 0.586769
Si Si6 0.442281 0.701133 0.406774
Si Si7 0.331334 0.195106 0.856890
O O1 0.080407 0.256773 0.741944
O O2 0.022426 0.218813 0.826959
O O3 0.092002 0.000000 0.883880
O O4 0.117536 0.284719 0.000112
O O5 0.225959 0.500000 0.855942
O O6 0.190107 0.770760 0.730461
O O7 0.286456 0.716531 0.855772
O O8 0.250000 0.750000 0.000000
O O9 0.574707 0.252736 0.243983
O O10 0.657627 0.259359 0.474556
O O11 0.658974 0.259822 0.251198
O O12 0.633921 0.000000 0.323564
O O13 0.514156 0.000000 0.157091
O O14 0.500000 0.761377 0.000000
O O15 0.593923 0.240452 0.549162
O O16 0.654379 0.000000 0.589679
O O17 0.500000 0.758641 0.500000
O O18 0.442942 0.500000 0.406872
O O19 0.318985 0.000000 0.833581
#
# Coordination Sequence:
#
# PCOD9175707 Si02
#       7
#     8   8   8   8   8   8   8
#     4  11  22  35  55  85 119 154 195 245 292 341
#     4  11  24  42  63  89 117 148 193 243 292 344
#     4   9  19  37  59  85 118 153 192 237 287 345
#     4  10  18  33  56  83 116 157 196 233 282 343
#     4  10  22  40  62  86 114 151 194 240 285 342
#     4  10  22  39  57  82 119 155 190 236 289 341
#     4  11  22  39  62  86 115 153 193 237 292 348
#
# _framework density 21.359072000000001
#
# number of rings (size 3 to 8) (size 9 to 14) (size 15 to 20)
#    0.000    1.714    1.429    3.000    0.000    5.714 
#    0.000    1.429    0.000    0.000    0.000    0.000 
#    0.000    0.000    0.000    0.000    0.000    0.000 
#
# Total GULP energy -156509.536639 kJ/mol
# GULP energy per Si atom -5589.626309 kJ/mol
# Density = 2.131046 g / cm^3
# Si number density = 21.359072 Si / 1000 Ang^3
#
#
#
# Elastic Constant Matrix: (Units=GPa)
#
#
# Indices 1 2 3 4 5 6 
#
# 1 85.2918 -18.1170 54.7107 0.0000 -10.8360 0.0000
# 2 -18.1170 11.4160 12.8145 0.0000 -2.5186 0.0000
# 3 54.7107 12.8145 156.6682 0.0000 -18.3199 0.0000
# 4 0.0000 0.0000 0.0000 1.0818 0.0000 22.6701
# 5 -10.8360 -2.5186 -18.3199 0.0000 37.5839 0.0000
# 6 0.0000 0.0000 0.0000 22.6701 0.0000 -7.8552
#
#
#
# Elastic Compliance Matrix: (Units=1/GPa)
#
#
# Indices 1 2 3 4 5 6 
#
# 1 0.063689 0.139962 -0.032285 0.000000 0.012004 0.000000
# 2 0.139962 0.404305 -0.078536 0.000000 0.029165 0.000000
# 3 -0.032285 -0.078536 0.023730 0.000000 -0.003004 0.000000
# 4 0.000000 0.000000 0.000000 0.015036 0.000000 0.043393
# 5 0.012004 0.029165 -0.003004 0.000000 0.030558 0.000000
# 6 0.000000 0.000000 0.000000 0.043393 0.000000 -0.002071
#
#
# Mechanical properties :
#
#
# Convention : Reuss Voigt Hill
#
# Bulk Modulus (GPa) = 1.81817 39.13248 20.47532
# Shear Modulus (GPa) = 7.57232 19.75997 13.66614
#
# Velocity S-wave (km/s) = 1.88493 3.04490 2.53223
# Velocity P-wave (km/s) = 2.36439 5.54282 4.26106
#
# Compressibility (1/GPa) = 0.55000441
#
# Stress axis : x y z
#
# Youngs Moduli (GPa) = 15.70141 2.47338 42.14121
#
# Poissons Ratio (x) = -0.34618 1.36054
# Poissons Ratio (y) = -2.19759 3.30959
# Poissons Ratio (z) = 0.50692 0.19425
#
# Static dielectric constant tensor:
#      x y z
#    x 1.732780 0.000000 0.005240 
#    y 0.000000 1.772360 0.000000 
#    z 0.005240 0.000000 1.819820 
# 
# From -- ./inp_files/187769.got.cif
#   From: 2010.05.17/outbox.cif.g08.bks.cpg/sg12_94_cif.got.tgz:187769.got - 2010.06.03 13:09:07.
