data_PCOD9175319
_publ_section_title
;
Structure prediction by ZEFSAII (Michael W. Deem and Ramdas Pophale) SiO2 
 PCOD9175319
Probable space group: C 2/M
;
_chemical_formula_sum "Si O2"
_cell_formula_units_Z 40
_cell_length_a 18.975528
_cell_length_b 20.976372
_cell_length_c 9.191929
_cell_angle_alpha 90.000000
_cell_angle_beta 33.398887
_cell_angle_gamma 90.000000
_cell_volume 2014.003591
_symmetry_space_group_name_H-M "C 2/M"
_symmetry_group_IT_number 12
_symmetry_cell_setting 'monoclinic'
loop_
_space_group_symop_operation_xyz
x,y,z
-x,y,-z
-x,-y,-z
x,-y,z
1/2+x,1/2+y,z
1/2-x,1/2+y,-z
1/2-x,1/2-y,-z
1/2+x,1/2-y,z
loop_
_atom_site_type_symbol
_atom_site_label
_atom_site_fract_x
_atom_site_fract_y
_atom_site_fract_z
Si Si1 0.858395 0.429698 0.812910
Si Si2 0.401452 0.884142 0.057334
Si Si3 0.812649 0.179635 0.390950
Si Si4 0.751429 0.313251 0.825164
Si Si5 0.002652 0.253990 0.741475
O O1 0.806769 0.500000 0.866445
O O2 0.779362 0.371284 0.883752
O O3 0.000000 0.424741 0.500000
O O4 0.873801 0.421763 0.958675
O O5 0.271774 0.866101 0.363634
O O6 0.500000 0.915447 0.000000
O O7 0.469248 0.817637 0.890292
O O8 0.750000 0.250000 0.500000
O O9 0.794341 0.160443 0.254809
O O10 0.943705 0.197532 0.247070
O O11 0.882906 0.274424 0.563974
O O12 0.634339 0.269398 0.081059
#
# Coordination Sequence:
#
# PCOD9175319 Si02
#       5
#     8   8   8   8   8
#     4  11  25  42  58  82 121 167 211 246 282 345
#     4  12  19  36  59  87 121 150 194 248 303 357
#     4  10  18  32  58  90 125 152 181 241 310 367
#     4  11  21  38  60  92 128 154 191 245 304 359
#     4  11  19  34  61  97 125 149 185 243 313 368
#
# _framework density 19.860937
#
# number of rings (size 3 to 8) (size 9 to 14) (size 15 to 20)
#    0.000    1.000   10.000    0.600    0.000    1.200 
#    3.600    1.000    0.000    4.800    0.000    0.000 
#    0.000    0.000    0.000    0.000    0.000    0.000 
#
# Total GULP energy -111631.948117 kJ/mol
# GULP energy per Si atom -5581.597406 kJ/mol
# Density = 1.981573 g / cm^3
# Si number density = 19.860937 Si / 1000 Ang^3
#
#
#
# Elastic Constant Matrix: (Units=GPa)
#
#
# Indices 1 2 3 4 5 6 
#
# 1 105.1870 49.8976 47.8195 -0.0003 6.2707 0.0001
# 2 49.8976 69.8566 31.2650 -0.0001 -3.8284 0.0000
# 3 47.8195 31.2650 107.0325 -0.0004 -10.8208 0.0001
# 4 -0.0003 -0.0001 -0.0004 0.1826 0.0002 -2.5099
# 5 6.2707 -3.8284 -10.8208 0.0002 39.4556 -0.0001
# 6 0.0001 0.0000 0.0001 -2.5099 -0.0001 3.1608
#
#
#
# Elastic Compliance Matrix: (Units=1/GPa)
#
#
# Indices 1 2 3 4 5 6 
#
# 1 0.016916 -0.010065 -0.005130 -0.000001 -0.005072 -0.000001
# 2 -0.010065 0.022459 -0.001730 0.000001 0.003304 0.000001
# 3 -0.005130 -0.001730 0.012554 -0.000001 0.004091 -0.000001
# 4 -0.000001 0.000001 -0.000001 -0.552340 0.000002 -0.438604
# 5 -0.005072 0.003304 0.004091 0.000002 0.027593 0.000003
# 6 -0.000001 0.000001 -0.000001 -0.438604 0.000003 -0.031911
#
#
# Mechanical properties :
#
#
# Convention : Reuss Voigt Hill
#
# Bulk Modulus (GPa) = 55.31152 60.00447 57.65799
# Shear Modulus (GPa) = -10.75612 18.76609 4.00498
#
# Velocity S-wave (km/s) = -2.32969 3.07722 1.42158
# Velocity P-wave (km/s) = 4.54678 6.55008 5.63812
#
# Compressibility (1/GPa) = 0.01807942
#
# Stress axis : x y z
#
# Youngs Moduli (GPa) = 59.11571 44.52491 79.65610
#
# Poissons Ratio (x) = 0.44813 0.40867
# Poissons Ratio (y) = 0.59498 0.13779
# Poissons Ratio (z) = 0.30329 0.07702
#
# Static dielectric constant tensor:
#      x y z
#    x 1.883100 0.000000 0.082050 
#    y 0.000000 1.655510 0.000000 
#    z 0.082050 0.000000 1.835650 
# 
# From -- ./inp_files/77183.got.cif
#   From: 2010.05.17/outbox.cif.g08.bks.cpg/sg12_39_cif.got.tgz:77183.got - 2010.06.03 13:09:07.
