data_PCOD9175604
_publ_section_title
;
Structure prediction by ZEFSAII (Michael W. Deem and Ramdas Pophale) SiO2 
 PCOD9175604
Probable space group: C 2/M
;
_chemical_formula_sum "Si O2"
_cell_formula_units_Z 56
_cell_length_a 30.128717
_cell_length_b 8.668951
_cell_length_c 22.408930
_cell_angle_alpha 90.000000
_cell_angle_beta 30.609404
_cell_angle_gamma 90.000000
_cell_volume 2980.176127
_symmetry_space_group_name_H-M "C 2/M"
_symmetry_group_IT_number 12
_symmetry_cell_setting 'monoclinic'
loop_
_space_group_symop_operation_xyz
x,y,z
-x,y,-z
-x,-y,-z
x,-y,z
1/2+x,1/2+y,z
1/2-x,1/2+y,-z
1/2-x,1/2-y,-z
1/2+x,1/2-y,z
loop_
_atom_site_type_symbol
_atom_site_label
_atom_site_fract_x
_atom_site_fract_y
_atom_site_fract_z
Si Si1 0.734692 0.316144 0.795240
Si Si2 0.082564 0.315965 0.633237
Si Si3 0.541726 0.183935 0.017080
Si Si4 0.376616 0.187890 0.283732
Si Si5 0.223334 0.685937 0.121880
Si Si6 0.285272 0.684420 0.610509
Si Si7 0.608901 0.316659 0.149959
O O1 0.740341 0.500000 0.784834
O O2 0.778683 0.267839 0.806738
O O3 0.775807 0.244438 0.688450
O O4 0.633483 0.267718 0.915405
O O5 0.090113 0.500000 0.620515
O O6 0.128625 0.262824 0.641562
O O7 0.129413 0.240997 0.522566
O O8 0.981790 0.269302 0.753909
O O9 0.469238 0.235612 0.148519
O O10 0.556389 0.000000 0.007190
O O11 0.500000 0.206925 0.000000
O O12 0.297819 0.240125 0.332741
O O13 0.376057 0.000000 0.283323
O O14 0.212633 0.500000 0.129667
O O15 0.152879 0.767097 0.161493
O O16 0.318649 0.722831 0.983947
O O17 0.282773 0.500000 0.614367
O O18 0.594609 0.500000 0.165007
#
# Coordination Sequence:
#
# PCOD9175604 Si02
#       7
#     8   8   8   8   8   8   8
#     4  11  22  36  55  84 117 149 185 228 282 332
#     4  11  22  37  57  82 112 147 189 233 281 329
#     4  10  18  33  55  79 112 150 185 224 271 325
#     4   9  19  35  56  81 110 149 191 230 275 328
#     4   9  20  38  60  86 117 146 178 226 281 334
#     4  11  22  39  57  77 111 152 194 234 273 327
#     4  10  20  37  61  88 114 143 183 227 277 333
#
# _framework density 18.790835000000001
#
# number of rings (size 3 to 8) (size 9 to 14) (size 15 to 20)
#    0.000    1.857    1.429    3.000    0.000    2.000 
#    0.000    3.571    0.000    4.286    0.000    0.000 
#    0.000    0.000    0.000    0.000    0.000    0.000 
#
# Total GULP energy -156424.900093 kJ/mol
# GULP energy per Si atom -5586.603575 kJ/mol
# Density = 1.874807 g / cm^3
# Si number density = 18.790835 Si / 1000 Ang^3
#
#
#
# Elastic Constant Matrix: (Units=GPa)
#
#
# Indices 1 2 3 4 5 6 
#
# 1 100.4821 28.3184 35.5306 0.0006 28.8137 0.0004
# 2 28.3184 31.5279 11.7832 -0.0056 11.0707 0.0066
# 3 35.5306 11.7832 55.2874 -0.0049 19.6563 0.0021
# 4 0.0006 -0.0056 -0.0049 24.3896 0.0005 2.6483
# 5 28.8137 11.0707 19.6563 0.0005 22.9982 0.0005
# 6 0.0004 0.0066 0.0021 2.6483 0.0005 20.6611
#
#
#
# Elastic Compliance Matrix: (Units=1/GPa)
#
#
# Indices 1 2 3 4 5 6 
#
# 1 0.018520 -0.009801 -0.004656 -0.000004 -0.014506 0.000004
# 2 -0.009801 0.043562 0.000150 0.000012 -0.008818 -0.000015
# 3 -0.004656 0.000150 0.027293 0.000006 -0.017566 -0.000003
# 4 -0.000004 0.000012 0.000006 0.041580 -0.000007 -0.005330
# 5 -0.014506 -0.008818 -0.017566 -0.000007 0.080913 0.000004
# 6 0.000004 -0.000015 -0.000003 -0.005330 0.000004 0.049083
#
#
# Mechanical properties :
#
#
# Convention : Reuss Voigt Hill
#
# Bulk Modulus (GPa) = 16.45832 37.61798 27.03815
# Shear Modulus (GPa) = 16.13844 21.05413 18.59629
#
# Velocity S-wave (km/s) = 2.93379 3.35094 3.14928
# Velocity P-wave (km/s) = 4.50043 5.91900 5.25777
#
# Compressibility (1/GPa) = 0.06075954
#
# Stress axis : x y z
#
# Youngs Moduli (GPa) = 53.99497 22.95592 36.63995
#
# Poissons Ratio (x) = 0.22500 0.17059
# Poissons Ratio (y) = 0.52922 -0.00548
# Poissons Ratio (z) = 0.25139 -0.00343
#
# Static dielectric constant tensor:
#      x y z
#    x 1.646490 0.000000 0.012690 
#    y 0.000000 1.635470 0.000000 
#    z 0.012690 0.000000 1.629970 
# 
# From -- ./inp_files/329446.got.cif
#   From: 2010.05.17/outbox.cif.g08.bks.cpg/sg12_165_cif.got.tgz:329446.got - 2010.06.03 13:09:07.
