data_PCOD9175901
_publ_section_title
;
Structure prediction by ZEFSAII (Michael W. Deem and Ramdas Pophale) SiO2 
 PCOD9175901
Probable space group: C 2/M
;
_chemical_formula_sum "Si O2"
_cell_formula_units_Z 64
_cell_length_a 15.215203
_cell_length_b 7.501176
_cell_length_c 22.831529
_cell_angle_alpha 90.000000
_cell_angle_beta 78.461549
_cell_angle_gamma 90.000000
_cell_volume 2553.144593
_symmetry_space_group_name_H-M "C 2/M"
_symmetry_group_IT_number 12
_symmetry_cell_setting 'monoclinic'
loop_
_space_group_symop_operation_xyz
x,y,z
-x,y,-z
-x,-y,-z
x,-y,z
1/2+x,1/2+y,z
1/2-x,1/2+y,-z
1/2-x,1/2-y,-z
1/2+x,1/2-y,z
loop_
_atom_site_type_symbol
_atom_site_label
_atom_site_fract_x
_atom_site_fract_y
_atom_site_fract_z
Si Si1 0.702052 0.211989 0.445255
Si Si2 0.124342 0.790985 0.149346
Si Si3 0.708675 0.785949 0.942505
Si Si4 0.157613 0.283250 0.762355
Si Si5 0.867829 0.215414 0.724992
Si Si6 0.032863 0.296868 0.407574
Si Si7 0.623725 0.209119 0.642573
Si Si8 0.049652 0.715089 0.892107
O O1 0.750000 0.250000 0.500000
O O2 0.602320 0.282958 0.445161
O O3 0.772450 0.278648 0.387847
O O4 0.695594 0.000000 0.440159
O O5 0.218349 0.715810 0.113874
O O6 0.093152 0.722962 0.217084
O O7 0.050606 0.774262 0.108559
O O8 0.140262 0.000000 0.157595
O O9 0.608399 0.723957 0.939839
O O10 0.705819 0.000000 0.936839
O O11 0.750000 0.750000 0.000000
O O12 0.154648 0.500000 0.762590
O O13 0.262583 0.238119 0.744754
O O14 0.111536 0.215357 0.708934
O O15 0.107571 0.227389 0.827618
O O16 0.913037 0.296361 0.661524
O O17 0.876199 0.000000 0.716992
O O18 0.013714 0.500000 0.429363
O O19 0.938660 0.212768 0.400283
O O20 0.600893 0.000000 0.648370
O O21 0.044784 0.500000 0.894311
#
# Coordination Sequence:
#
# PCOD9175901 Si02
#       8
#     8   8   8   8   8   8   8   8
#     4  11  24  41  59  82 113 148 190 237 280 326
#     4  10  21  37  57  84 116 147 182 230 284 332
#     4  10  22  40  59  79 110 150 192 237 283 334
#     4   9  16  31  58  85 110 145 182 218 270 336
#     4  10  18  33  59  86 114 149 184 221 275 340
#     4  10  22  38  58  87 118 146 183 233 282 328
#     4  10  20  37  61  85 112 148 184 223 278 337
#     4  10  20  37  60  84 112 149 191 230 275 337
#
# _framework density 25.067128
#
# number of rings (size 3 to 8) (size 9 to 14) (size 15 to 20)
#    0.000    2.000    2.500    1.125    0.000    4.500 
#    0.000    6.250    0.000    0.000    0.000    0.000 
#    0.000    0.000    0.000    0.000    0.000    0.000 
#
# Total GULP energy -178849.986482 kJ/mol
# GULP energy per Si atom -5589.062078 kJ/mol
# Density = 2.501007 g / cm^3
# Si number density = 25.067128 Si / 1000 Ang^3
#
#
#
# Elastic Constant Matrix: (Units=GPa)
#
#
# Indices 1 2 3 4 5 6 
#
# 1 117.1895 -2.8860 5.3967 0.0000 39.9430 0.0000
# 2 -2.8860 73.8088 -1.6799 0.0000 1.4815 0.0000
# 3 5.3967 -1.6799 81.3579 0.0000 38.0449 0.0000
# 4 0.0000 0.0000 0.0000 14.6831 0.0000 -0.8219
# 5 39.9430 1.4815 38.0449 0.0000 49.1844 0.0000
# 6 0.0000 0.0000 0.0000 -0.8219 0.0000 10.9754
#
#
#
# Elastic Compliance Matrix: (Units=1/GPa)
#
#
# Indices 1 2 3 4 5 6 
#
# 1 0.013923 0.001036 0.006893 0.000000 -0.016670 0.000000
# 2 0.001036 0.013662 0.001252 0.000000 -0.002221 0.000000
# 3 0.006893 0.001252 0.022710 0.000000 -0.023202 0.000000
# 4 0.000000 0.000000 0.000000 0.068392 0.000000 0.005122
# 5 -0.016670 -0.002221 -0.023202 0.000000 0.051884 0.000000
# 6 0.000000 0.000000 0.000000 0.005122 0.000000 0.091496
#
#
# Mechanical properties :
#
#
# Convention : Reuss Voigt Hill
#
# Bulk Modulus (GPa) = 14.56498 30.44642 22.50570
# Shear Modulus (GPa) = 18.75534 33.07028 25.91281
#
# Velocity S-wave (km/s) = 2.73830 3.63611 3.21867
# Velocity P-wave (km/s) = 3.97753 5.45901 4.77606
#
# Compressibility (1/GPa) = 0.06865785
#
# Stress axis : x y z
#
# Youngs Moduli (GPa) = 71.82259 73.19508 44.03370
#
# Poissons Ratio (x) = -0.07582 -0.30354
# Poissons Ratio (y) = -0.07440 -0.05514
# Poissons Ratio (z) = -0.49509 -0.09165
#
# Static dielectric constant tensor:
#      x y z
#    x 1.996420 0.000000 0.056470 
#    y 0.000000 2.143550 0.000000 
#    z 0.056470 0.000000 1.998830 
# 
# From -- ./inp_files/338668.got.cif
#   From: 2010.05.17/outbox.cif.g08.bks.cpg/sg12_170_cif.got.tgz:338668.got - 2010.06.03 13:09:07.
