data_PCOD9175916
_publ_section_title
;
Structure prediction by ZEFSAII (Michael W. Deem and Ramdas Pophale) SiO2 
 PCOD9175916
Probable space group: C 2/M
;
_chemical_formula_sum "Si O2"
_cell_formula_units_Z 44
_cell_length_a 11.496219
_cell_length_b 23.112568
_cell_length_c 9.869025
_cell_angle_alpha 90.000000
_cell_angle_beta 68.584329
_cell_angle_gamma 90.000000
_cell_volume 2441.218357
_symmetry_space_group_name_H-M "C 2/M"
_symmetry_group_IT_number 12
_symmetry_cell_setting 'monoclinic'
loop_
_space_group_symop_operation_xyz
x,y,z
-x,y,-z
-x,-y,-z
x,-y,z
1/2+x,1/2+y,z
1/2-x,1/2+y,-z
1/2-x,1/2-y,-z
1/2+x,1/2-y,z
loop_
_atom_site_type_symbol
_atom_site_label
_atom_site_fract_x
_atom_site_fract_y
_atom_site_fract_z
Si Si1 0.194917 0.144394 0.949597
Si Si2 0.824720 0.567981 0.385831
Si Si3 0.012113 0.645781 0.145974
Si Si4 0.000000 0.755803 0.000000
Si Si5 0.124593 0.066530 0.233843
Si Si6 0.655231 0.567750 0.704991
O O1 0.343354 0.151273 0.878218
O O2 0.151567 0.106881 0.839180
O O3 0.116755 0.203518 0.983410
O O4 0.166145 0.109517 0.098498
O O5 0.861979 0.500000 0.368941
O O6 0.709951 0.574394 0.328909
O O7 0.769337 0.582166 0.556748
O O8 0.933825 0.609170 0.285876
O O9 0.965483 0.711131 0.135441
O O10 0.000000 0.617309 0.000000
O O11 0.976442 0.074113 0.317533
O O12 0.142707 0.000000 0.180071
O O13 0.666407 0.500000 0.738045
#
# Coordination Sequence:
#
# PCOD9175916 Si02
#       6
#     8   8   8   4   8   8
#     4  12  20  37  63  85 111 150 188 241 285 324
#     4  10  21  38  58  84 122 155 179 228 290 342
#     4  10  23  38  58  84 111 145 198 231 276 344
#     4  10  22  40  60  84 110 146 194 246 278 320
#     4  10  18  33  59  88 116 151 192 227 274 342
#     4  10  21  35  57  91 121 147 185 230 285 340
#
# _framework density 18.023786999999999
#
# number of rings (size 3 to 8) (size 9 to 14) (size 15 to 20)
#    0.545    1.091    3.636    1.636    0.000    6.182 
#    0.000    2.727    0.000    0.000    0.000    0.000 
#    0.000    0.000    0.000    0.000    0.000    0.000 
#
# Total GULP energy -122704.755882 kJ/mol
# GULP energy per Si atom -5577.488904 kJ/mol
# Density = 1.798276 g / cm^3
# Si number density = 18.023787 Si / 1000 Ang^3
#
#
#
# Elastic Constant Matrix: (Units=GPa)
#
#
# Indices 1 2 3 4 5 6 
#
# 1 45.7668 6.9049 -14.7409 0.0000 -9.6280 0.0000
# 2 6.9049 69.3240 37.4370 0.0000 -10.1175 0.0000
# 3 -14.7409 37.4370 61.2748 0.0000 -8.9918 0.0000
# 4 0.0000 0.0000 0.0000 9.2288 0.0000 -11.4561
# 5 -9.6280 -10.1175 -8.9918 0.0000 21.5785 0.0000
# 6 0.0000 0.0000 0.0000 -11.4561 0.0000 30.0770
#
#
#
# Elastic Compliance Matrix: (Units=1/GPa)
#
#
# Indices 1 2 3 4 5 6 
#
# 1 0.031738 -0.009243 0.015683 0.000000 0.016363 0.000000
# 2 -0.009243 0.024720 -0.017288 0.000000 0.000263 0.000000
# 3 0.015683 -0.017288 0.032479 0.000000 0.012426 0.000000
# 4 0.000000 0.000000 0.000000 0.205539 0.000000 0.078288
# 5 0.016363 0.000263 0.012426 0.000000 0.058944 0.000000
# 6 0.000000 0.000000 0.000000 0.078288 0.000000 0.063067
#
#
# Mechanical properties :
#
#
# Convention : Reuss Voigt Hill
#
# Bulk Modulus (GPa) = 14.87167 26.17418 20.52292
# Shear Modulus (GPa) = 10.85550 21.96116 16.40833
#
# Velocity S-wave (km/s) = 2.45682 3.49442 3.02051
# Velocity P-wave (km/s) = 4.03943 5.55292 4.85550
#
# Compressibility (1/GPa) = 0.06724196
#
# Stress axis : x y z
#
# Youngs Moduli (GPa) = 31.50802 40.45312 30.78939
#
# Poissons Ratio (x) = 0.37389 -0.48288
# Poissons Ratio (y) = 0.29121 0.53229
# Poissons Ratio (z) = -0.49415 0.69936
#
# Static dielectric constant tensor:
#      x y z
#    x 1.645510 0.000000 0.003350 
#    y 0.000000 1.600310 0.000000 
#    z 0.003350 0.000000 1.593770 
# 
# From -- ./inp_files/51186.got.cif
#   From: 2010.05.17/outbox.cif.g08.bks.cpg/sg12_26_cif.got.tgz:51186.got - 2010.06.03 13:09:07.
