data_PCOD9175908
_publ_section_title
;
Structure prediction by ZEFSAII (Michael W. Deem and Ramdas Pophale) SiO2 
 PCOD9175908
Probable space group: C 2/M
;
_chemical_formula_sum "Si O2"
_cell_formula_units_Z 60
_cell_length_a 12.608910
_cell_length_b 18.768351
_cell_length_c 14.339714
_cell_angle_alpha 90.000000
_cell_angle_beta 109.560293
_cell_angle_gamma 90.000000
_cell_volume 3197.632840
_symmetry_space_group_name_H-M "C 2/M"
_symmetry_group_IT_number 12
_symmetry_cell_setting 'monoclinic'
loop_
_space_group_symop_operation_xyz
x,y,z
-x,y,-z
-x,-y,-z
x,-y,z
1/2+x,1/2+y,z
1/2-x,1/2+y,-z
1/2-x,1/2-y,-z
1/2+x,1/2-y,z
loop_
_atom_site_type_symbol
_atom_site_label
_atom_site_fract_x
_atom_site_fract_y
_atom_site_fract_z
Si Si1 0.133632 0.579199 0.636167
Si Si2 0.845069 0.268984 0.603367
Si Si3 0.845538 0.157592 0.772727
Si Si4 0.444183 0.580868 0.086869
Si Si5 0.746479 0.324732 0.050147
Si Si6 0.037748 0.581715 0.905302
Si Si7 0.596569 0.920569 0.311952
Si Si8 0.000000 0.694289 0.500000
O O1 0.137218 0.500000 0.595632
O O2 0.251025 0.598967 0.718084
O O3 0.027506 0.580610 0.675626
O O4 0.101748 0.640747 0.554455
O O5 0.750000 0.250000 0.500000
O O6 0.844053 0.217757 0.692618
O O7 0.837741 0.351391 0.633825
O O8 0.962032 0.262758 0.579330
O O9 0.808174 0.184760 0.863813
O O10 0.967597 0.122121 0.821908
O O11 0.426012 0.500000 0.113274
O O12 0.500000 0.577936 0.000000
O O13 0.329788 0.622991 0.035132
O O14 0.867699 0.361738 0.094598
O O15 0.750000 0.250000 0.000000
O O16 0.081109 0.500000 0.907617
O O17 0.931899 0.587616 0.805267
O O18 0.000000 0.592443 0.000000
O O19 0.643928 0.000000 0.343797
#
# Coordination Sequence:
#
# PCOD9175908 Si02
#       8
#     8   8   8   8   8   8   8   4
#     4  10  18  33  59  87 113 141 189 247 299 348
#     4  11  23  40  59  88 122 154 195 245 306 356
#     4  11  22  37  59  89 117 157 197 237 295 353
#     4   9  20  38  58  83 119 155 191 238 289 349
#     4  11  24  36  58  87 121 159 197 241 290 346
#     4  10  21  37  59  87 119 158 197 242 299 354
#     4   9  20  37  60  85 117 154 195 247 296 350
#     4  10  21  38  56  86 119 150 188 240 311 344
#
# _framework density 18.76388
#
# number of rings (size 3 to 8) (size 9 to 14) (size 15 to 20)
#    0.000    1.867    2.667    1.000    3.733    2.133 
#    0.000    0.000    0.000    0.000    0.000    2.333 
#    0.000    0.000    0.000    0.000    0.000    0.000 
#
# Total GULP energy -167360.094772 kJ/mol
# GULP energy per Si atom -5578.669826 kJ/mol
# Density = 1.872117 g / cm^3
# Si number density = 18.763880 Si / 1000 Ang^3
#
#
#
# Elastic Constant Matrix: (Units=GPa)
#
#
# Indices 1 2 3 4 5 6 
#
# 1 28.7665 41.5993 25.5502 0.0000 -1.3858 0.0000
# 2 41.5993 143.0127 65.3404 0.0000 -0.7261 0.0000
# 3 25.5502 65.3404 114.3466 0.0000 -0.7298 0.0000
# 4 0.0000 0.0000 0.0000 31.1362 0.0000 2.8795
# 5 -1.3858 -0.7261 -0.7298 0.0000 33.8286 0.0000
# 6 0.0000 0.0000 0.0000 2.8795 0.0000 16.6817
#
#
#
# Elastic Compliance Matrix: (Units=1/GPa)
#
#
# Indices 1 2 3 4 5 6 
#
# 1 0.062032 -0.015843 -0.004795 0.000000 0.002098 0.000000
# 2 -0.015843 0.013509 -0.004182 0.000000 -0.000449 0.000000
# 3 -0.004795 -0.004182 0.012206 0.000000 -0.000023 0.000000
# 4 0.000000 0.000000 0.000000 0.032638 0.000000 -0.005634
# 5 0.002098 -0.000449 -0.000023 0.000000 0.029637 0.000000
# 6 0.000000 0.000000 0.000000 -0.005634 0.000000 0.060918
#
#
# Mechanical properties :
#
#
# Convention : Reuss Voigt Hill
#
# Bulk Modulus (GPa) = 26.24072 61.23396 43.73734
# Shear Modulus (GPa) = 18.29606 26.57169 22.43388
#
# Velocity S-wave (km/s) = 3.12600 3.76720 3.46148
# Velocity P-wave (km/s) = 5.20040 7.18521 6.27182
#
# Compressibility (1/GPa) = 0.03810871
#
# Stress axis : x y z
#
# Youngs Moduli (GPa) = 16.12067 74.02328 81.92380
#
# Poissons Ratio (x) = 1.17272 0.39279
# Poissons Ratio (y) = 0.25539 0.34264
# Poissons Ratio (z) = 0.07729 0.30960
#
# Static dielectric constant tensor:
#      x y z
#    x 1.670600 0.000000 -0.006960 
#    y 0.000000 1.632200 0.000000 
#    z -0.006960 0.000000 1.686020 
# 
# From -- ./inp_files/206732.got.cif
#   From: 2010.05.17/outbox.cif.g08.bks.cpg/sg12_104_cif.got.tgz:206732.got - 2010.06.03 13:09:07.
