data_PCOD9175457
_publ_section_title
;
Structure prediction by ZEFSAII (Michael W. Deem and Ramdas Pophale) SiO2 
 PCOD9175457
Probable space group: C 2/M
;
_chemical_formula_sum "Si O2"
_cell_formula_units_Z 64
_cell_length_a 22.894847
_cell_length_b 18.355403
_cell_length_c 8.815245
_cell_angle_alpha 90.000000
_cell_angle_beta 85.651615
_cell_angle_gamma 90.000000
_cell_volume 3693.891374
_symmetry_space_group_name_H-M "C 2/M"
_symmetry_group_IT_number 12
_symmetry_cell_setting 'monoclinic'
loop_
_space_group_symop_operation_xyz
x,y,z
-x,y,-z
-x,-y,-z
x,-y,z
1/2+x,1/2+y,z
1/2-x,1/2+y,-z
1/2-x,1/2-y,-z
1/2+x,1/2-y,z
loop_
_atom_site_type_symbol
_atom_site_label
_atom_site_fract_x
_atom_site_fract_y
_atom_site_fract_z
Si Si1 0.167913 0.222814 0.155034
Si Si2 0.634759 0.080865 0.882373
Si Si3 0.455499 0.083345 0.648002
Si Si4 0.347264 0.118474 0.465877
Si Si5 0.277755 0.580832 0.365642
Si Si6 0.242577 0.365843 0.053323
Si Si7 0.056280 0.694397 0.077173
Si Si8 0.183416 0.220832 0.500666
O O1 0.206956 0.296479 0.128537
O O2 0.102673 0.244844 0.120021
O O3 0.170775 0.201030 0.329600
O O4 0.200506 0.164471 0.043780
O O5 0.638074 0.086681 0.700865
O O6 0.615727 0.000000 0.930781
O O7 0.698227 0.096830 0.944224
O O8 0.591409 0.140653 0.957865
O O9 0.500000 0.095526 0.500000
O O10 0.391099 0.091447 0.587274
O O11 0.461675 0.143355 0.777139
O O12 0.463946 0.000000 0.700934
O O13 0.281869 0.095442 0.527256
O O14 0.352516 0.206444 0.452257
O O15 0.300042 0.500000 0.396536
O O16 0.260011 0.586263 0.193207
O O17 0.319814 0.648916 0.396439
O O18 0.000000 0.723189 0.000000
O O19 0.250000 0.250000 0.500000
#
# Coordination Sequence:
#
# PCOD9175457 Si02
#       8
#     8   8   8   8   8   8   8   8
#     4  10  19  34  53  77 102 143 183 230 272 317
#     4  11  22  33  52  79 113 151 186 227 275 326
#     4  11  22  36  53  74 106 145 186 229 266 303
#     4  11  20  34  51  75 106 148 186 218 259 320
#     4  11  21  32  52  79 111 141 172 217 273 338
#     4  10  19  32  52  76 109 138 181 225 280 328
#     4  11  23  38  53  74 111 149 194 232 267 316
#     4  10  18  33  52  75 101 139 176 218 268 320
#
# _framework density 17.325901999999999
#
# number of rings (size 3 to 8) (size 9 to 14) (size 15 to 20)
#    0.000    1.375    3.750    4.875    3.500    2.000 
#    0.000    0.625    0.000    0.000    0.000    0.000 
#    0.000    8.000    0.000    0.000    0.000    0.000 
#
# Total GULP energy -178679.351950 kJ/mol
# GULP energy per Si atom -5583.729748 kJ/mol
# Density = 1.728647 g / cm^3
# Si number density = 17.325902 Si / 1000 Ang^3
#
#
#
# Elastic Constant Matrix: (Units=GPa)
#
#
# Indices 1 2 3 4 5 6 
#
# 1 64.3942 9.7834 18.8326 0.0000 10.5246 0.0000
# 2 9.7834 66.2567 6.9668 0.0000 3.2812 0.0000
# 3 18.8326 6.9668 70.9093 0.0000 12.8608 0.0000
# 4 0.0000 0.0000 0.0000 13.8826 0.0000 -6.0372
# 5 10.5246 3.2812 12.8608 0.0000 23.1012 0.0000
# 6 0.0000 0.0000 0.0000 -6.0372 0.0000 9.6654
#
#
#
# Elastic Compliance Matrix: (Units=1/GPa)
#
#
# Indices 1 2 3 4 5 6 
#
# 1 0.017807 -0.001973 -0.003465 0.000000 -0.005904 0.000000
# 2 -0.001973 0.015515 -0.000849 0.000000 -0.000832 0.000000
# 3 -0.003465 -0.000849 0.016460 0.000000 -0.007464 0.000000
# 4 0.000000 0.000000 0.000000 0.098896 0.000000 0.061772
# 5 -0.005904 -0.000832 -0.007464 0.000000 0.050251 0.000000
# 6 0.000000 0.000000 0.000000 0.061772 0.000000 0.142046
#
#
# Mechanical properties :
#
#
# Convention : Reuss Voigt Hill
#
# Bulk Modulus (GPa) = 26.87605 30.30285 28.58945
# Shear Modulus (GPa) = 13.66303 20.39500 17.02902
#
# Velocity S-wave (km/s) = 2.81123 3.43467 3.13847
# Velocity P-wave (km/s) = 5.10716 5.76690 5.44703
#
# Compressibility (1/GPa) = 0.03720785
#
# Stress axis : x y z
#
# Youngs Moduli (GPa) = 56.15686 64.45528 60.75334
#
# Poissons Ratio (x) = 0.12715 0.21050
# Poissons Ratio (y) = 0.11078 0.05161
# Poissons Ratio (z) = 0.19457 0.05475
#
# Static dielectric constant tensor:
#      x y z
#    x 1.584740 0.000000 0.005580 
#    y 0.000000 1.606190 0.000000 
#    z 0.005580 0.000000 1.589450 
# 
# From -- ./inp_files/87982.got.cif
#   From: 2010.05.17/outbox.cif.g08.bks.cpg/sg12_44_cif.got.tgz:87982.got - 2010.06.03 13:09:07.
