data_PCOD9175287
_publ_section_title
;
Structure prediction by ZEFSAII (Michael W. Deem and Ramdas Pophale) SiO2 
 PCOD9175287
Probable space group: C 2/M
;
_chemical_formula_sum "Si O2"
_cell_formula_units_Z 56
_cell_length_a 22.252773
_cell_length_b 15.514159
_cell_length_c 12.589317
_cell_angle_alpha 90.000000
_cell_angle_beta 138.350349
_cell_angle_gamma 90.000000
_cell_volume 2888.403628
_symmetry_space_group_name_H-M "C 2/M"
_symmetry_group_IT_number 12
_symmetry_cell_setting 'monoclinic'
loop_
_space_group_symop_operation_xyz
x,y,z
-x,y,-z
-x,-y,-z
x,-y,z
1/2+x,1/2+y,z
1/2-x,1/2+y,-z
1/2-x,1/2-y,-z
1/2+x,1/2-y,z
loop_
_atom_site_type_symbol
_atom_site_label
_atom_site_fract_x
_atom_site_fract_y
_atom_site_fract_z
Si Si1 0.595154 0.605302 0.370483
Si Si2 0.099146 0.142642 0.615189
Si Si3 0.591371 0.175315 0.725279
Si Si4 0.597349 0.100640 0.505925
Si Si5 0.396828 0.395958 0.029616
Si Si6 0.743743 0.402311 0.968703
Si Si7 0.291871 0.394921 0.683659
O O1 0.594651 0.500000 0.382551
O O2 0.613238 0.646596 0.508447
O O3 0.668128 0.628339 0.377416
O O4 0.496094 0.632484 0.196794
O O5 0.092590 0.232755 0.669665
O O6 0.183280 0.098626 0.783610
O O7 0.000000 0.100407 0.500000
O O8 0.608721 0.111062 0.648374
O O9 0.492956 0.153250 0.640295
O O10 0.671091 0.160708 0.913749
O O11 0.689437 0.132012 0.573008
O O12 0.583689 0.000000 0.463200
O O13 0.403214 0.500000 0.030189
O O14 0.358245 0.364704 0.866134
O O15 0.323981 0.378028 0.024891
O O16 0.775954 0.500000 0.028839
O O17 0.291556 0.500000 0.688454
#
# Coordination Sequence:
#
# PCOD9175287 Si02
#       7
#     8   8   8   8   8   8   8
#     4  10  20  34  53  79 116 154 188 226 273 338
#     4  12  23  36  53  81 120 155 183 219 285 346
#     4  11  21  36  54  80 115 143 183 235 286 327
#     4  10  18  32  58  83 105 138 189 242 284 323
#     4   9  16  27  50  80 108 138 177 230 281 319
#     4  11  21  35  58  82 109 146 191 236 279 331
#     4   9  17  31  53  84 113 141 188 241 279 318
#
# _framework density 19.387872000000002
#
# number of rings (size 3 to 8) (size 9 to 14) (size 15 to 20)
#    0.000    1.714    4.286    3.000    0.000    2.286 
#    0.000    0.714    0.000    0.857    0.000    4.000 
#    0.000    0.000    0.000    0.000    0.000    1.143 
#
# Total GULP energy -156330.625491 kJ/mol
# GULP energy per Si atom -5583.236625 kJ/mol
# Density = 1.934374 g / cm^3
# Si number density = 19.387872 Si / 1000 Ang^3
#
#
#
# Elastic Constant Matrix: (Units=GPa)
#
#
# Indices 1 2 3 4 5 6 
#
# 1 95.7425 11.2855 70.4489 0.0000 -8.1548 0.0000
# 2 11.2855 61.1671 30.6263 0.0000 4.4702 0.0000
# 3 70.4489 30.6263 144.8904 0.0000 7.6804 0.0000
# 4 0.0000 0.0000 0.0000 3.3320 0.0000 9.1807
# 5 -8.1548 4.4702 7.6804 0.0000 28.3081 0.0000
# 6 0.0000 0.0000 0.0000 9.1807 0.0000 0.9083
#
#
#
# Elastic Compliance Matrix: (Units=1/GPa)
#
#
# Indices 1 2 3 4 5 6 
#
# 1 0.017757 0.000781 -0.009196 0.000000 0.007487 0.000000
# 2 0.000781 0.018416 -0.004190 0.000000 -0.001546 0.000000
# 3 -0.009196 -0.004190 0.012544 0.000000 -0.005391 0.000000
# 4 0.000000 0.000000 0.000000 -0.011178 0.000000 0.112981
# 5 0.007487 -0.001546 -0.005391 0.000000 0.039189 0.000000
# 6 0.000000 0.000000 0.000000 0.112981 0.000000 -0.041004
#
#
# Mechanical properties :
#
#
# Convention : Reuss Voigt Hill
#
# Bulk Modulus (GPa) = 42.54130 58.50239 50.52184
# Shear Modulus (GPa) = 72.70738 19.13897 45.92317
#
# Velocity S-wave (km/s) = 6.13049 3.14532 4.87216
# Velocity P-wave (km/s) = 8.49119 6.59022 7.60037
#
# Compressibility (1/GPa) = 0.02350657
#
# Stress axis : x y z
#
# Youngs Moduli (GPa) = 56.31723 54.30159 79.71724
#
# Poissons Ratio (x) = -0.04240 0.73304
# Poissons Ratio (y) = -0.04398 0.33404
# Poissons Ratio (z) = 0.51787 0.22754
#
# Static dielectric constant tensor:
#      x y z
#    x 1.653520 0.000000 0.011140 
#    y 0.000000 1.731460 0.000000 
#    z 0.011140 0.000000 1.708030 
# 
# From -- ./inp_files/240467.got.cif
#   From: 2010.05.17/outbox.cif.g08.bks.cpg/sg12_121_cif.got.tgz:240467.got - 2010.06.03 13:09:07.
