data_PCOD9175686
_publ_section_title
;
Structure prediction by ZEFSAII (Michael W. Deem and Ramdas Pophale) SiO2 
 PCOD9175686
Probable space group: C 2/M
;
_chemical_formula_sum "Si O2"
_cell_formula_units_Z 64
_cell_length_a 16.889464
_cell_length_b 18.710737
_cell_length_c 11.546793
_cell_angle_alpha 90.000000
_cell_angle_beta 92.841054
_cell_angle_gamma 90.000000
_cell_volume 3644.466922
_symmetry_space_group_name_H-M "C 2/M"
_symmetry_group_IT_number 12
_symmetry_cell_setting 'monoclinic'
loop_
_space_group_symop_operation_xyz
x,y,z
-x,y,-z
-x,-y,-z
x,-y,z
1/2+x,1/2+y,z
1/2-x,1/2+y,-z
1/2-x,1/2-y,-z
1/2+x,1/2-y,z
loop_
_atom_site_type_symbol
_atom_site_label
_atom_site_fract_x
_atom_site_fract_y
_atom_site_fract_z
Si Si1 0.813882 0.583843 0.298523
Si Si2 0.901412 0.180327 0.434290
Si Si3 0.769120 0.665835 0.528871
Si Si4 0.153533 0.137918 0.182203
Si Si5 0.575526 0.794113 0.761625
Si Si6 0.415889 0.676969 0.058408
Si Si7 0.485268 0.583557 0.264222
Si Si8 0.898187 0.732930 0.672504
O O1 0.829836 0.500000 0.309564
O O2 0.796747 0.620464 0.421488
O O3 0.733483 0.597907 0.220653
O O4 0.885418 0.628877 0.247322
O O5 0.817234 0.140056 0.438283
O O6 0.893327 0.244816 0.341665
O O7 0.961792 0.124928 0.379492
O O8 0.917813 0.220394 0.557661
O O9 0.750000 0.750000 0.500000
O O10 0.839859 0.670505 0.626371
O O11 0.149285 0.214769 0.245407
O O12 0.075518 0.098859 0.229333
O O13 0.143004 0.150583 0.044910
O O14 0.600676 0.751613 0.878800
O O15 0.480263 0.791005 0.737282
O O16 0.430890 0.619093 0.160365
O O17 0.500000 0.685329 0.000000
O O18 0.472972 0.500000 0.274062
#
# Coordination Sequence:
#
# PCOD9175686 Si02
#       8
#     8   8   8   8   8   8   8   8
#     4  12  25  37  54  87 124 155 187 235 299 348
#     4  10  18  33  56  82 110 148 190 233 280 334
#     4  10  19  35  57  80 112 152 189 230 279 337
#     4  11  20  37  57  84 114 148 195 233 285 338
#     4  11  20  36  59  84 118 142 195 245 278 334
#     4   9  19  36  60  84 106 143 196 240 277 340
#     4  10  21  33  52  81 117 152 181 228 289 347
#     4  11  18  33  62  83 105 146 192 245 279 325
#
# _framework density 17.560866000000001
#
# number of rings (size 3 to 8) (size 9 to 14) (size 15 to 20)
#    0.000    1.500    8.750    0.750    0.000    3.750 
#    0.000    1.875    0.000    0.375    0.000    0.000 
#    0.000    0.000    0.000    0.000    0.000    0.000 
#
# Total GULP energy -178403.144779 kJ/mol
# GULP energy per Si atom -5575.098274 kJ/mol
# Density = 1.752090 g / cm^3
# Si number density = 17.560866 Si / 1000 Ang^3
#
#
#
# Elastic Constant Matrix: (Units=GPa)
#
#
# Indices 1 2 3 4 5 6 
#
# 1 53.9899 33.9647 10.4358 0.0000 3.7965 0.0000
# 2 33.9647 116.3274 28.5669 0.0000 4.5015 0.0000
# 3 10.4358 28.5669 66.9960 0.0000 7.9501 0.0000
# 4 0.0000 0.0000 0.0000 11.8815 0.0000 -1.3164
# 5 3.7965 4.5015 7.9501 0.0000 16.6641 0.0000
# 6 0.0000 0.0000 0.0000 -1.3164 0.0000 19.9041
#
#
#
# Elastic Compliance Matrix: (Units=1/GPa)
#
#
# Indices 1 2 3 4 5 6 
#
# 1 0.022894 -0.006453 -0.000427 0.000000 -0.003269 0.000000
# 2 -0.006453 0.011428 -0.003896 0.000000 0.000242 0.000000
# 3 -0.000427 -0.003896 0.017509 0.000000 -0.007203 0.000000
# 4 0.000000 0.000000 0.000000 0.084786 0.000000 0.005608
# 5 -0.003269 0.000242 -0.007203 0.000000 0.064125 0.000000
# 6 0.000000 0.000000 0.000000 0.005608 0.000000 0.050612
#
#
# Mechanical properties :
#
#
# Convention : Reuss Voigt Hill
#
# Bulk Modulus (GPa) = 33.02665 42.58313 37.80489
# Shear Modulus (GPa) = 17.66790 20.64633 19.15711
#
# Velocity S-wave (km/s) = 3.17534 3.43257 3.30646
# Velocity P-wave (km/s) = 5.68256 6.32547 6.01261
#
# Compressibility (1/GPa) = 0.03027858
#
# Stress axis : x y z
#
# Youngs Moduli (GPa) = 43.67958 87.50367 57.11366
#
# Poissons Ratio (x) = 0.56468 0.02436
# Poissons Ratio (y) = 0.28187 0.22254
# Poissons Ratio (z) = 0.01863 0.34095
#
# Static dielectric constant tensor:
#      x y z
#    x 1.678540 0.000000 0.019740 
#    y 0.000000 1.579440 0.000000 
#    z 0.019740 0.000000 1.634740 
# 
# From -- ./inp_files/157879.got.cif
#   From: 2010.05.17/outbox.cif.g08.bks.cpg/sg12_79_cif.got.tgz:157879.got - 2010.06.03 13:09:07.
