data_PCOD9175013
_publ_section_title
;
Structure prediction by ZEFSAII (Michael W. Deem and Ramdas Pophale) SiO2 
 PCOD9175013
Probable space group: C 2/M
;
_chemical_formula_sum "Si O2"
_cell_formula_units_Z 64
_cell_length_a 18.517952
_cell_length_b 13.607737
_cell_length_c 15.763290
_cell_angle_alpha 90.000000
_cell_angle_beta 89.092870
_cell_angle_gamma 90.000000
_cell_volume 3971.652958
_symmetry_space_group_name_H-M "C 2/M"
_symmetry_group_IT_number 12
_symmetry_cell_setting 'monoclinic'
loop_
_space_group_symop_operation_xyz
x,y,z
-x,y,-z
-x,-y,-z
x,-y,z
1/2+x,1/2+y,z
1/2-x,1/2+y,-z
1/2-x,1/2-y,-z
1/2+x,1/2-y,z
loop_
_atom_site_type_symbol
_atom_site_label
_atom_site_fract_x
_atom_site_fract_y
_atom_site_fract_z
Si Si1 0.149839 0.385446 0.653793
Si Si2 0.658276 0.614093 0.912459
Si Si3 0.235680 0.751548 0.781948
Si Si4 0.979987 0.610424 0.217917
Si Si5 0.636012 0.883429 0.293061
Si Si6 0.930066 0.288990 0.054723
Si Si7 0.276322 0.885463 0.058252
Si Si8 0.417629 0.880901 0.517729
O O1 0.174919 0.500000 0.655640
O O2 0.199260 0.314113 0.709069
O O3 0.070487 0.385576 0.698620
O O4 0.135657 0.352212 0.557829
O O5 0.644050 0.500000 0.900326
O O6 0.682328 0.668432 0.825838
O O7 0.591607 0.675249 0.951114
O O8 0.723809 0.625071 0.978822
O O9 0.303308 0.812355 0.745459
O O10 0.250608 0.678089 0.860948
O O11 0.971866 0.500000 0.182116
O O12 0.949555 0.685114 0.150610
O O13 0.062673 0.625725 0.240230
O O14 0.613885 0.855929 0.389679
O O15 0.656941 0.000000 0.290848
O O16 0.856793 0.347874 0.034384
O O17 0.000000 0.315688 0.000000
O O18 0.279742 0.000000 0.081741
O O19 0.500000 0.845597 0.500000
O O20 0.421217 0.000000 0.514871
#
# Coordination Sequence:
#
# PCOD9175013 Si02
#       8
#     8   8   8   8   8   8   8   8
#     4  10  18  32  55  78 102 134 168 207 256 305
#     4  10  22  38  52  68 100 144 176 203 247 302
#     4  11  20  33  52  76 105 134 171 210 250 300
#     4  10  19  32  51  77 104 130 164 208 257 301
#     4  10  21  33  51  79 107 133 166 209 254 305
#     4  11  22  33  53  78 105 128 166 218 259 299
#     4  10  21  37  54  73 101 137 172 208 255 303
#     4   9  16  30  51  77 107 133 159 202 262 309
#
# _framework density 16.114197000000001
#
# number of rings (size 3 to 8) (size 9 to 14) (size 15 to 20)
#    0.000    1.875    3.750    2.625    3.500    1.750 
#    0.000    0.000    0.000    0.000    0.000    0.000 
#    0.000    5.000    0.000    0.000    0.000    0.000 
#
# Total GULP energy -178390.267964 kJ/mol
# GULP energy per Si atom -5574.695874 kJ/mol
# Density = 1.607752 g / cm^3
# Si number density = 16.114197 Si / 1000 Ang^3
#
#
#
# Elastic Constant Matrix: (Units=GPa)
#
#
# Indices 1 2 3 4 5 6 
#
# 1 80.3449 42.3418 27.9105 0.0000 -6.6825 0.0000
# 2 42.3418 93.1665 34.3585 0.0000 4.2083 0.0000
# 3 27.9105 34.3585 49.9538 0.0000 3.9412 0.0000
# 4 0.0000 0.0000 0.0000 20.1563 0.0000 2.6332
# 5 -6.6825 4.2083 3.9412 0.0000 24.8976 0.0000
# 6 0.0000 0.0000 0.0000 2.6332 0.0000 17.3105
#
#
#
# Elastic Compliance Matrix: (Units=1/GPa)
#
#
# Indices 1 2 3 4 5 6 
#
# 1 0.018705 -0.006380 -0.006627 0.000000 0.007148 0.000000
# 2 -0.006380 0.016576 -0.007575 0.000000 -0.003315 0.000000
# 3 -0.006627 -0.007575 0.029337 0.000000 -0.005142 0.000000
# 4 0.000000 0.000000 0.000000 0.050618 0.000000 -0.007700
# 5 0.007148 -0.003315 -0.005142 0.000000 0.043457 0.000000
# 6 0.000000 0.000000 0.000000 -0.007700 0.000000 0.058940
#
#
# Mechanical properties :
#
#
# Convention : Reuss Voigt Hill
#
# Bulk Modulus (GPa) = 42.63539 48.07631 45.35585
# Shear Modulus (GPa) = 18.75359 20.39651 19.57505
#
# Velocity S-wave (km/s) = 3.41514 3.56160 3.48914
# Velocity P-wave (km/s) = 6.48588 6.84199 6.66631
#
# Compressibility (1/GPa) = 0.02345469
#
# Stress axis : x y z
#
# Youngs Moduli (GPa) = 53.46121 60.32688 34.08666
#
# Poissons Ratio (x) = 0.38489 0.22589
# Poissons Ratio (y) = 0.34108 0.25821
# Poissons Ratio (z) = 0.35428 0.45698
#
# Static dielectric constant tensor:
#      x y z
#    x 1.542040 0.000000 -0.009650 
#    y 0.000000 1.539500 0.000000 
#    z -0.009650 0.000000 1.565690 
# 
# From -- ./inp_files/224767.got.cif
#   From: 2010.05.17/outbox.cif.g08.bks.cpg/sg12_113_cif.got.tgz:224767.got - 2010.06.03 13:09:07.
