data_PCOD9175780
_publ_section_title
;
Structure prediction by ZEFSAII (Michael W. Deem and Ramdas Pophale) SiO2 
 PCOD9175780
Probable space group: C 2/M
;
_chemical_formula_sum "Si O2"
_cell_formula_units_Z 48
_cell_length_a 30.644591
_cell_length_b 7.562696
_cell_length_c 11.309031
_cell_angle_alpha 90.000000
_cell_angle_beta 126.085739
_cell_angle_gamma 90.000000
_cell_volume 2118.071397
_symmetry_space_group_name_H-M "C 2/M"
_symmetry_group_IT_number 12
_symmetry_cell_setting 'monoclinic'
loop_
_space_group_symop_operation_xyz
x,y,z
-x,y,-z
-x,-y,-z
x,-y,z
1/2+x,1/2+y,z
1/2-x,1/2+y,-z
1/2-x,1/2-y,-z
1/2+x,1/2-y,z
loop_
_atom_site_type_symbol
_atom_site_label
_atom_site_fract_x
_atom_site_fract_y
_atom_site_fract_z
Si Si1 0.437038 0.785891 0.913126
Si Si2 0.789439 0.212932 0.951339
Si Si3 0.517403 0.203791 0.406999
Si Si4 0.907879 0.798319 0.121665
Si Si5 0.262614 0.212311 0.380553
Si Si6 0.116113 0.716296 0.416111
O O1 0.403234 0.733668 0.744900
O O2 0.436548 0.000000 0.922415
O O3 0.500000 0.733288 0.000000
O O4 0.408622 0.706519 0.981487
O O5 0.770538 0.276014 0.789224
O O6 0.793105 0.000000 0.948875
O O7 0.750000 0.250000 0.000000
O O8 0.850738 0.277574 0.073502
O O9 0.500000 0.291682 0.500000
O O10 0.463528 0.203391 0.243288
O O11 0.569344 0.282124 0.427704
O O12 0.532611 0.000000 0.456445
O O13 0.912762 0.000000 0.171465
O O14 0.250000 0.250000 0.500000
O O15 0.324025 0.275067 0.459665
O O16 0.260921 0.000000 0.370410
O O17 0.116159 0.500000 0.418000
#
# Coordination Sequence:
#
# PCOD9175780 Si02
#       6
#     8   8   8   8   8   8
#     4  10  18  33  57  84 115 147 188 236 281 340
#     4  10  24  42  61  87 120 158 203 249 296 354
#     4  10  21  37  60  86 110 147 196 238 282 342
#     4  11  23  38  56  84 122 153 185 235 296 356
#     4  10  21  39  62  87 118 154 197 248 295 348
#     4   9  18  34  57  86 113 141 186 243 288 329
#
# _framework density 22.662123999999999
#
# number of rings (size 3 to 8) (size 9 to 14) (size 15 to 20)
#    0.000    2.000    1.667    1.500    2.333    2.667 
#    0.000    0.833    0.000    0.000    0.000    0.000 
#    0.000    0.000    0.000    0.000    0.000    0.000 
#
# Total GULP energy -133935.086301 kJ/mol
# GULP energy per Si atom -5580.628596 kJ/mol
# Density = 2.261054 g / cm^3
# Si number density = 22.662124 Si / 1000 Ang^3
#
#
#
# Elastic Constant Matrix: (Units=GPa)
#
#
# Indices 1 2 3 4 5 6 
#
# 1 163.0022 -4.9541 34.9964 0.0000 2.6945 0.0000
# 2 -4.9541 54.6353 -1.0492 0.0000 1.3592 0.0000
# 3 34.9964 -1.0492 62.4806 0.0000 -2.0800 0.0000
# 4 0.0000 0.0000 0.0000 35.7873 0.0000 -13.2274
# 5 2.6945 1.3592 -2.0800 0.0000 42.7798 0.0000
# 6 0.0000 0.0000 0.0000 -13.2274 0.0000 3.6233
#
#
#
# Elastic Compliance Matrix: (Units=1/GPa)
#
#
# Indices 1 2 3 4 5 6 
#
# 1 0.007009 0.000576 -0.003938 0.000000 -0.000651 0.000000
# 2 0.000576 0.018370 -0.000035 0.000000 -0.000622 0.000000
# 3 -0.003938 -0.000035 0.018248 0.000000 0.001136 0.000000
# 4 0.000000 0.000000 0.000000 -0.079994 0.000000 -0.292028
# 5 -0.000651 -0.000622 0.001136 0.000000 0.023492 0.000000
# 6 0.000000 0.000000 0.000000 -0.292028 0.000000 -0.790097
#
#
# Mechanical properties :
#
#
# Convention : Reuss Voigt Hill
#
# Bulk Modulus (GPa) = 27.14906 37.56713 32.35810
# Shear Modulus (GPa) = -6.37835 33.17976 13.40071
#
# Velocity S-wave (km/s) = -1.67948 3.83052 2.43436
# Velocity P-wave (km/s) = 2.87142 6.01472 4.71285
#
# Compressibility (1/GPa) = 0.03683369
#
# Stress axis : x y z
#
# Youngs Moduli (GPa) = 142.68263 54.43594 54.80136
#
# Poissons Ratio (x) = -0.03136 0.21579
# Poissons Ratio (y) = -0.08220 0.00191
# Poissons Ratio (z) = 0.56183 0.00190
#
# Static dielectric constant tensor:
#      x y z
#    x 1.975010 0.000000 -0.241430 
#    y 0.000000 1.856680 0.000000 
#    z -0.241430 0.000000 2.457490 
# 
# From -- ./inp_files/180239.got.cif
#   From: 2010.05.17/outbox.cif.g08.bks.cpg/sg12_91_cif.got.tgz:180239.got - 2010.06.03 13:09:07.
