data_PCOD9175239
_publ_section_title
;
Structure prediction by ZEFSAII (Michael W. Deem and Ramdas Pophale) SiO2 
 PCOD9175239
Probable space group: C 2/M
;
_chemical_formula_sum "Si O2"
_cell_formula_units_Z 64
_cell_length_a 26.329832
_cell_length_b 18.197148
_cell_length_c 15.365149
_cell_angle_alpha 90.000000
_cell_angle_beta 27.064881
_cell_angle_gamma 90.000000
_cell_volume 3349.645124
_symmetry_space_group_name_H-M "C 2/M"
_symmetry_group_IT_number 12
_symmetry_cell_setting 'monoclinic'
loop_
_space_group_symop_operation_xyz
x,y,z
-x,y,-z
-x,-y,-z
x,-y,z
1/2+x,1/2+y,z
1/2-x,1/2+y,-z
1/2-x,1/2-y,-z
1/2+x,1/2-y,z
loop_
_atom_site_type_symbol
_atom_site_label
_atom_site_fract_x
_atom_site_fract_y
_atom_site_fract_z
Si Si1 0.068099 0.307265 0.614422
Si Si2 0.382963 0.626423 0.131108
Si Si3 0.228287 0.726046 0.758249
Si Si4 0.350063 0.419972 0.983994
Si Si5 0.830818 0.762591 0.958305
Si Si6 0.870670 0.416395 0.169178
Si Si7 0.404065 0.083317 0.583334
Si Si8 0.175567 0.417198 0.566545
O O1 0.152300 0.239408 0.470495
O O2 0.105290 0.366006 0.485344
O O3 0.093076 0.351138 0.664881
O O4 0.940616 0.287595 0.793573
O O5 0.351869 0.711789 0.161765
O O6 0.382327 0.590119 0.036356
O O7 0.286188 0.593356 0.339946
O O8 0.500000 0.618306 0.000000
O O9 0.176671 0.646414 0.820582
O O10 0.233263 0.746143 0.853013
O O11 0.389797 0.500000 0.892626
O O12 0.215025 0.419624 0.188845
O O13 0.378038 0.346045 0.890122
O O14 0.750000 0.750000 0.000000
O O15 0.861947 0.500000 0.148281
O O16 0.803425 0.411740 0.362910
O O17 0.000000 0.405158 0.000000
O O18 0.500000 0.112026 0.500000
O O19 0.434391 0.000000 0.511532
O O20 0.130404 0.500000 0.619636
#
# Coordination Sequence:
#
# PCOD9175239 Si02
#       8
#     8   8   8   8   8   8   8   8
#     4  11  21  34  59  82 114 150 184 235 291 344
#     4  10  20  33  57  85 116 152 183 229 289 348
#     4  10  22  39  54  81 114 147 191 238 285 344
#     4  10  20  38  56  82 122 147 181 239 295 342
#     4  11  23  39  60  86 111 147 192 236 293 350
#     4  10  21  37  56  77 109 151 192 235 276 322
#     4  10  18  32  57  84 111 144 182 236 303 347
#     4  10  20  35  55  84 114 145 190 235 282 340
#
# _framework density 19.106501999999999
#
# number of rings (size 3 to 8) (size 9 to 14) (size 15 to 20)
#    0.000    1.750    3.750    2.625    0.000    6.000 
#    0.000    3.750    0.000    0.000    0.000    1.750 
#    0.000    0.000    0.000    0.000    0.000    0.000 
#
# Total GULP energy -178542.574880 kJ/mol
# GULP energy per Si atom -5579.455465 kJ/mol
# Density = 1.906301 g / cm^3
# Si number density = 19.106502 Si / 1000 Ang^3
#
#
#
# Elastic Constant Matrix: (Units=GPa)
#
#
# Indices 1 2 3 4 5 6 
#
# 1 84.7663 33.5637 23.1491 0.0000 -16.6207 0.0000
# 2 33.5637 106.0066 12.8538 -0.0001 4.4750 0.0000
# 3 23.1491 12.8538 47.4301 -0.0001 -12.2464 0.0000
# 4 0.0000 -0.0001 -0.0001 17.6947 0.0000 -5.5657
# 5 -16.6207 4.4750 -12.2464 0.0000 29.8857 0.0000
# 6 0.0000 0.0000 0.0000 -5.5657 0.0000 15.1982
#
#
#
# Elastic Compliance Matrix: (Units=1/GPa)
#
#
# Indices 1 2 3 4 5 6 
#
# 1 0.016663 -0.005052 -0.004670 0.000000 0.008110 0.000000
# 2 -0.005052 0.011507 -0.002039 0.000000 -0.005368 0.000000
# 3 -0.004670 -0.002039 0.026083 0.000000 0.008397 0.000000
# 4 0.000000 0.000000 0.000000 0.063871 0.000000 0.023390
# 5 0.008110 -0.005368 0.008397 0.000000 0.042216 0.000000
# 6 0.000000 0.000000 0.000000 0.023390 0.000000 0.074363
#
#
# Mechanical properties :
#
#
# Convention : Reuss Voigt Hill
#
# Bulk Modulus (GPa) = 32.53892 41.92625 37.23259
# Shear Modulus (GPa) = 18.62425 23.79814 21.21120
#
# Velocity S-wave (km/s) = 3.12550 3.53307 3.33551
# Velocity P-wave (km/s) = 5.48564 6.21567 5.86203
#
# Compressibility (1/GPa) = 0.03073242
#
# Stress axis : x y z
#
# Youngs Moduli (GPa) = 60.01376 86.90581 38.33890
#
# Poissons Ratio (x) = 0.43904 0.17902
# Poissons Ratio (y) = 0.30318 0.07816
# Poissons Ratio (z) = 0.28024 0.17718
#
# Static dielectric constant tensor:
#      x y z
#    x 1.708780 0.000000 0.015300 
#    y 0.000000 1.717880 0.000000 
#    z 0.015300 0.000000 1.686990 
# 
# From -- ./inp_files/241488.got.cif
#   From: 2010.05.17/outbox.cif.g08.bks.cpg/sg12_121_cif.got.tgz:241488.got - 2010.06.03 13:09:07.
