data_PCOD9175984
_publ_section_title
;
Structure prediction by ZEFSAII (Michael W. Deem and Ramdas Pophale) SiO2 
 PCOD9175984
Probable space group: C 2/M
;
_chemical_formula_sum "Si O2"
_cell_formula_units_Z 50
_cell_length_a 23.062963
_cell_length_b 19.804478
_cell_length_c 20.139815
_cell_angle_alpha 90.000000
_cell_angle_beta 161.510019
_cell_angle_gamma 90.000000
_cell_volume 2917.315434
_symmetry_space_group_name_H-M "C 2/M"
_symmetry_group_IT_number 12
_symmetry_cell_setting 'monoclinic'
loop_
_space_group_symop_operation_xyz
x,y,z
-x,y,-z
-x,-y,-z
x,-y,z
1/2+x,1/2+y,z
1/2-x,1/2+y,-z
1/2-x,1/2-y,-z
1/2+x,1/2-y,z
loop_
_atom_site_type_symbol
_atom_site_label
_atom_site_fract_x
_atom_site_fract_y
_atom_site_fract_z
Si Si1 0.398228 0.614874 0.997446
Si Si2 0.648363 0.153757 0.357620
Si Si3 0.000000 0.000000 0.000000
Si Si4 0.217414 0.215901 0.357389
Si Si5 0.989908 0.924764 0.731791
Si Si6 0.737890 0.312077 0.933994
Si Si7 0.067889 0.285351 0.646651
O O1 0.540475 0.676324 0.140028
O O2 0.453871 0.584596 0.129846
O O3 0.423425 0.559219 0.968373
O O4 0.199185 0.649230 0.786053
O O5 0.732673 0.186523 0.516052
O O6 0.681184 0.205459 0.332479
O O7 0.773202 0.087922 0.486127
O O8 0.432737 0.151899 0.136340
O O9 0.389336 0.202668 0.497485
O O10 0.093671 0.865748 0.804950
O O11 0.041101 0.000000 0.766261
O O12 0.676007 0.275354 0.799612
O O13 0.750000 0.250000 0.000000
O O14 0.000000 0.267916 0.500000
#
# Coordination Sequence:
#
# PCOD9175984 Si02
#       7
#     8   8   2   8   8   8   8
#     4  11  22  39  57  81 124 174 209 238 295 366
#     4  10  18  33  62  87 112 148 209 263 307 345
#     4  12  24  40  54  80 140 186 192 234 302 376
#     4  10  18  35  59  87 109 153 209 263 292 345
#     4  11  22  37  61  90 124 161 204 256 317 374
#     4  12  19  38  64  90 117 158 212 269 307 357
#     4  12  23  36  59  94 121 156 209 257 306 358
#
# _framework density 17.139043999999998
#
# number of rings (size 3 to 8) (size 9 to 14) (size 15 to 20)
#    0.000    0.960    7.200    1.920    0.000    0.640 
#    0.000    3.600    0.000    0.480    0.000    1.120 
#    0.000    0.000    0.000    0.000    0.000    0.000 
#
# Total GULP energy -139191.657599 kJ/mol
# GULP energy per Si atom -5567.666304 kJ/mol
# Density = 1.710003 g / cm^3
# Si number density = 17.139044 Si / 1000 Ang^3
#
#
#
# Elastic Constant Matrix: (Units=GPa)
#
#
# Indices 1 2 3 4 5 6 
#
# 1 84.6235 50.0414 34.6362 0.0064 10.1706 0.0135
# 2 50.0414 90.5957 22.5715 0.0061 -0.2063 0.0309
# 3 34.6362 22.5715 73.5554 -0.0022 14.9399 0.0205
# 4 0.0064 0.0061 -0.0022 11.3115 0.0007 10.3611
# 5 10.1706 -0.2063 14.9399 0.0007 32.3208 0.0114
# 6 0.0135 0.0309 0.0205 10.3611 0.0114 20.3537
#
#
#
# Elastic Compliance Matrix: (Units=1/GPa)
#
#
# Indices 1 2 3 4 5 6 
#
# 1 0.020515 -0.009882 -0.005853 -0.000030 -0.003813 0.000025
# 2 -0.009882 0.016825 -0.001284 0.000027 0.003810 -0.000033
# 3 -0.005853 -0.001284 0.018069 0.000030 -0.006519 -0.000024
# 4 -0.000030 0.000027 0.000030 0.165643 0.000022 -0.084321
# 5 -0.003813 0.003810 -0.006519 0.000022 0.035177 -0.000028
# 6 0.000025 -0.000033 -0.000024 -0.084321 -0.000028 0.092056
#
#
# Mechanical properties :
#
#
# Convention : Reuss Voigt Hill
#
# Bulk Modulus (GPa) = 46.79148 51.47475 49.13312
# Shear Modulus (GPa) = 12.83878 22.23223 17.53550
#
# Velocity S-wave (km/s) = 2.73993 3.60553 3.20211
# Velocity P-wave (km/s) = 6.11310 6.88709 6.51160
#
# Compressibility (1/GPa) = 0.02137141
#
# Stress axis : x y z
#
# Youngs Moduli (GPa) = 48.74592 59.43584 55.34245
#
# Poissons Ratio (x) = 0.58733 0.32393
# Poissons Ratio (y) = 0.48170 0.07104
# Poissons Ratio (z) = 0.28532 0.07629
#
# Static dielectric constant tensor:
#      x y z
#    x 1.589390 0.000000 0.011110 
#    y 0.000000 1.571630 0.000000 
#    z 0.011110 0.000000 1.607270 
# 
# From -- ./inp_files/325938.got.cif
#   From: 2010.05.17/outbox.cif.g08.bks.cpg/sg12_163_cif.got.tgz:325938.got - 2010.06.03 13:09:07.
