data_PCOD9175732
_publ_section_title
;
Structure prediction by ZEFSAII (Michael W. Deem and Ramdas Pophale) SiO2 
 PCOD9175732
Probable space group: C 2/M
;
_chemical_formula_sum "Si O2"
_cell_formula_units_Z 56
_cell_length_a 9.932317
_cell_length_b 14.897572
_cell_length_c 28.243437
_cell_angle_alpha 90.000000
_cell_angle_beta 140.042499
_cell_angle_gamma 90.000000
_cell_volume 2683.903586
_symmetry_space_group_name_H-M "C 2/M"
_symmetry_group_IT_number 12
_symmetry_cell_setting 'monoclinic'
loop_
_space_group_symop_operation_xyz
x,y,z
-x,y,-z
-x,-y,-z
x,-y,z
1/2+x,1/2+y,z
1/2-x,1/2+y,-z
1/2-x,1/2-y,-z
1/2+x,1/2-y,z
loop_
_atom_site_type_symbol
_atom_site_label
_atom_site_fract_x
_atom_site_fract_y
_atom_site_fract_z
Si Si1 0.624755 0.736198 0.692129
Si Si2 0.479107 0.600793 0.416804
Si Si3 0.342284 0.101323 0.582502
Si Si4 0.855674 0.598693 0.104902
Si Si5 0.907835 0.783437 0.150855
Si Si6 0.210303 0.604217 0.025269
Si Si7 0.652790 0.398448 0.775517
O O1 0.616852 0.668778 0.646078
O O2 0.502834 0.823826 0.642228
O O3 0.535180 0.674474 0.710999
O O4 0.852589 0.766297 0.770675
O O5 0.491107 0.500000 0.399719
O O6 0.708527 0.624955 0.499376
O O7 0.326133 0.597374 0.420478
O O8 0.428417 0.000000 0.599965
O O9 0.769114 0.500000 0.094911
O O10 0.791649 0.686953 0.116752
O O11 0.108206 0.594260 0.178636
O O12 0.817170 0.613385 0.038476
O O13 0.880927 0.828975 0.092642
O O14 0.828182 0.854358 0.167848
O O15 0.264118 0.500000 0.048713
O O16 0.000000 0.622380 0.000000
O O17 0.566331 0.500000 0.753289
#
# Coordination Sequence:
#
# PCOD9175732 Si02
#       7
#     8   8   8   8   8   8   8
#     4  11  21  33  52  82 111 137 170 222 271 307
#     4   9  18  36  59  77 100 142 184 213 251 312
#     4   9  19  35  55  79 107 139 176 215 258 316
#     4   9  19  35  55  77 100 134 181 224 260 309
#     4  11  21  32  53  81 107 138 172 220 270 313
#     4  10  18  33  57  78 100 138 183 223 259 308
#     4  10  20  35  52  76 106 139 180 217 257 313
#
# _framework density 20.865130000000001
#
# number of rings (size 3 to 8) (size 9 to 14) (size 15 to 20)
#    0.000    2.143    1.429    3.429    0.000    1.714 
#    0.000    0.714    0.000    2.143    0.000    9.000 
#    0.000    0.000    0.000    0.000    0.000    0.000 
#
# Total GULP energy -156145.262012 kJ/mol
# GULP energy per Si atom -5576.616500 kJ/mol
# Density = 2.081764 g / cm^3
# Si number density = 20.865130 Si / 1000 Ang^3
#
#
#
# Elastic Constant Matrix: (Units=GPa)
#
#
# Indices 1 2 3 4 5 6 
#
# 1 7.7130 8.3317 -9.0088 0.0000 9.6061 0.0000
# 2 8.3317 115.5080 52.1924 0.0001 33.2344 0.0000
# 3 -9.0088 52.1924 84.3224 0.0001 47.1017 0.0000
# 4 0.0000 0.0001 0.0001 -78.6697 0.0000 12.2006
# 5 9.6061 33.2344 47.1017 0.0000 -46.8936 0.0000
# 6 0.0000 0.0000 0.0000 12.2006 0.0000 25.9711
#
#
#
# Elastic Compliance Matrix: (Units=1/GPa)
#
#
# Indices 1 2 3 4 5 6 
#
# 1 0.141258 -0.024929 0.015520 0.000000 0.026857 0.000000
# 2 -0.024929 0.016386 -0.010531 0.000000 -0.004072 0.000000
# 3 0.015520 -0.010531 0.014368 0.000000 0.010147 0.000000
# 4 0.000000 0.000000 0.000000 -0.011848 0.000000 0.005566
# 5 0.026857 -0.004072 0.010147 0.000000 -0.008517 0.000000
# 6 0.000000 0.000000 0.000000 0.005566 0.000000 0.035890
#
#
# Mechanical properties :
#
#
# Convention : Reuss Voigt Hill
#
# Bulk Modulus (GPa) = 7.56828 34.50823 21.03826
# Shear Modulus (GPa) = 18.41888 -9.51659 4.45115
#
# Velocity S-wave (km/s) = 2.97435 -2.13797 1.46216
# Velocity P-wave (km/s) = 3.92820 3.23729 3.59937
#
# Compressibility (1/GPa) = 0.13213040
#
# Stress axis : x y z
#
# Youngs Moduli (GPa) = 7.07923 61.02948 69.60117
#
# Poissons Ratio (x) = 1.52141 -1.08018
# Poissons Ratio (y) = 0.17648 0.73297
# Poissons Ratio (z) = -0.10987 0.64270
#
# Static dielectric constant tensor:
#      x y z
#    x 1.772430 0.000000 0.004580 
#    y 0.000000 1.799330 0.000000 
#    z 0.004580 0.000000 1.765120 
# 
# From -- ./inp_files/373991.got.cif
#   From: 2010.05.17/outbox.cif.g08.bks.cpg/sg12_187_cif.got.tgz:373991.got - 2010.06.03 13:09:07.
