data_PCOD9175582
_publ_section_title
;
Structure prediction by ZEFSAII (Michael W. Deem and Ramdas Pophale) SiO2 
 PCOD9175582
Probable space group: C 2/M
;
_chemical_formula_sum "Si O2"
_cell_formula_units_Z 56
_cell_length_a 20.888169
_cell_length_b 13.761365
_cell_length_c 13.547133
_cell_angle_alpha 90.000000
_cell_angle_beta 136.877399
_cell_angle_gamma 90.000000
_cell_volume 2661.871147
_symmetry_space_group_name_H-M "C 2/M"
_symmetry_group_IT_number 12
_symmetry_cell_setting 'monoclinic'
loop_
_space_group_symop_operation_xyz
x,y,z
-x,y,-z
-x,-y,-z
x,-y,z
1/2+x,1/2+y,z
1/2-x,1/2+y,-z
1/2-x,1/2-y,-z
1/2+x,1/2-y,z
loop_
_atom_site_type_symbol
_atom_site_label
_atom_site_fract_x
_atom_site_fract_y
_atom_site_fract_z
Si Si1 0.786526 0.111871 0.711129
Si Si2 0.063806 0.891190 0.951285
Si Si3 0.895599 0.760403 0.693760
Si Si4 0.108420 0.610771 0.151256
Si Si5 0.140797 0.108621 0.831523
Si Si6 0.048881 0.808898 0.457220
Si Si7 0.274989 0.287513 0.241805
O O1 0.812676 0.167820 0.638982
O O2 0.720450 0.180385 0.704695
O O3 0.757430 0.000000 0.665208
O O4 0.881703 0.111004 0.884777
O O5 0.138664 0.881221 0.946777
O O6 0.988126 0.809203 0.846140
O O7 0.021915 0.000000 0.891972
O O8 0.879130 0.658691 0.727934
O O9 0.918148 0.753042 0.603893
O O10 0.138697 0.500000 0.182777
O O11 0.172745 0.673035 0.150649
O O12 0.000000 0.615966 0.000000
O O13 0.197651 0.191936 0.839466
O O14 0.032218 0.119822 0.673879
O O15 0.174557 0.000000 0.844421
O O16 0.145944 0.849466 0.609954
O O17 0.000000 0.760877 0.500000
#
# Coordination Sequence:
#
# PCOD9175582 Si02
#       7
#     8   8   8   8   8   8   8
#     4  10  20  32  49  76 106 136 171 208 253 312
#     4   9  17  31  53  80 105 129 166 217 266 310
#     4  10  18  33  55  76 102 136 169 212 268 308
#     4  10  21  35  52  78 109 140 176 211 247 304
#     4   9  18  33  56  82 104 130 169 218 268 309
#     4   9  20  36  55  78 104 129 169 220 263 306
#     4  10  20  35  54  75 104 140 173 214 259 298
#
# _framework density 21.037832999999999
#
# number of rings (size 3 to 8) (size 9 to 14) (size 15 to 20)
#    0.000    2.429    0.000    3.000    0.000    7.714 
#    0.000    3.571    0.000   15.429    0.000    0.000 
#    0.000    0.000    0.000    0.000    0.000    0.000 
#
# Total GULP energy -156046.096681 kJ/mol
# GULP energy per Si atom -5573.074881 kJ/mol
# Density = 2.098995 g / cm^3
# Si number density = 21.037833 Si / 1000 Ang^3
#
#
#
# Elastic Constant Matrix: (Units=GPa)
#
#
# Indices 1 2 3 4 5 6 
#
# 1 132.0393 36.3359 8.2256 0.0000 -22.1466 0.0000
# 2 36.3359 103.5276 -5.3775 0.0000 -4.2263 0.0000
# 3 8.2256 -5.3775 44.9665 0.0000 -4.5684 0.0000
# 4 0.0000 0.0000 0.0000 9.6509 0.0000 2.3512
# 5 -22.1466 -4.2263 -4.5684 0.0000 36.2723 0.0000
# 6 0.0000 0.0000 0.0000 2.3512 0.0000 25.2084
#
#
#
# Elastic Compliance Matrix: (Units=1/GPa)
#
#
# Indices 1 2 3 4 5 6 
#
# 1 0.009414 -0.003174 -0.001575 0.000000 0.005180 0.000000
# 2 -0.003174 0.010851 0.001833 0.000000 -0.000443 0.000000
# 3 -0.001575 0.001833 0.022964 0.000000 0.002144 0.000000
# 4 0.000000 0.000000 0.000000 0.106026 0.000000 -0.009889
# 5 0.005180 -0.000443 0.002144 0.000000 0.030950 0.000000
# 6 0.000000 0.000000 0.000000 -0.009889 0.000000 0.040592
#
#
# Mechanical properties :
#
#
# Convention : Reuss Voigt Hill
#
# Bulk Modulus (GPa) = 26.74138 39.87793 33.30965
# Shear Modulus (GPa) = 20.91217 30.31628 25.61422
#
# Velocity S-wave (km/s) = 3.15624 3.80022 3.49310
# Velocity P-wave (km/s) = 5.10109 6.18482 5.66891
#
# Compressibility (1/GPa) = 0.03739523
#
# Stress axis : x y z
#
# Youngs Moduli (GPa) = 106.22486 92.16097 43.54637
#
# Poissons Ratio (x) = 0.29256 0.06861
# Poissons Ratio (y) = 0.33721 -0.07983
# Poissons Ratio (z) = 0.16736 -0.16896
#
# Static dielectric constant tensor:
#      x y z
#    x 1.809920 0.000000 -0.002650 
#    y 0.000000 1.762470 0.000000 
#    z -0.002650 0.000000 1.812430 
# 
# From -- ./inp_files/233759.got.cif
#   From: 2010.05.17/outbox.cif.g08.bks.cpg/sg12_117_cif.got.tgz:233759.got - 2010.06.03 13:09:07.
