data_PCOD9175317
_publ_section_title
;
Structure prediction by ZEFSAII (Michael W. Deem and Ramdas Pophale) SiO2 
 PCOD9175317
Probable space group: C 2/M
;
_chemical_formula_sum "Si O2"
_cell_formula_units_Z 40
_cell_length_a 14.065340
_cell_length_b 18.305569
_cell_length_c 7.463868
_cell_angle_alpha 90.000000
_cell_angle_beta 71.878218
_cell_angle_gamma 90.000000
_cell_volume 1826.428720
_symmetry_space_group_name_H-M "C 2/M"
_symmetry_group_IT_number 12
_symmetry_cell_setting 'monoclinic'
loop_
_space_group_symop_operation_xyz
x,y,z
-x,y,-z
-x,-y,-z
x,-y,z
1/2+x,1/2+y,z
1/2-x,1/2+y,-z
1/2-x,1/2-y,-z
1/2+x,1/2-y,z
loop_
_atom_site_type_symbol
_atom_site_label
_atom_site_fract_x
_atom_site_fract_y
_atom_site_fract_z
Si Si1 0.382417 0.795244 0.451359
Si Si2 0.741235 0.583843 0.942612
Si Si3 0.396592 0.316144 0.154818
Si Si4 0.235367 0.205525 0.233104
Si Si5 0.479258 0.084612 0.801087
O O1 0.419286 0.721386 0.330321
O O2 0.282340 0.817702 0.398596
O O3 0.348623 0.764840 0.663720
O O4 0.458514 0.859266 0.356126
O O5 0.718048 0.500000 0.993694
O O6 0.675766 0.614702 0.817152
O O7 0.860253 0.588908 0.840831
O O8 0.713726 0.636083 0.126063
O O9 0.329942 0.251591 0.099537
O O10 0.500000 0.331307 0.000000
O O11 0.510082 0.000000 0.751092
O O12 0.500000 0.100784 0.000000
#
# Coordination Sequence:
#
# PCOD9175317 Si02
#       5
#     8   8   8   8   8
#     4   9  18  35  57  86 114 148 188 229 296 339
#     4  11  22  36  58  88 117 151 193 236 287 342
#     4  10  20  37  58  79 110 153 201 239 272 333
#     4   9  19  35  57  86 112 148 194 233 285 343
#     4  10  18  32  58  90 118 142 179 237 295 346
#
# _framework density 21.900662000000001
#
# number of rings (size 3 to 8) (size 9 to 14) (size 15 to 20)
#    1.200    1.000    2.000    2.400    0.000    0.400 
#    0.000    8.000    0.000    3.600    0.000    0.000 
#    0.000    0.000    0.000    0.000    0.000    0.000 
#
# Total GULP energy -111487.515555 kJ/mol
# GULP energy per Si atom -5574.375778 kJ/mol
# Density = 2.185082 g / cm^3
# Si number density = 21.900662 Si / 1000 Ang^3
#
#
#
# Elastic Constant Matrix: (Units=GPa)
#
#
# Indices 1 2 3 4 5 6 
#
# 1 81.0210 52.0067 38.8033 0.0000 -16.8271 0.0000
# 2 52.0067 180.3392 77.7239 0.0000 -4.4565 0.0000
# 3 38.8033 77.7239 99.4792 0.0000 -14.6711 0.0000
# 4 0.0000 0.0000 0.0000 30.2692 0.0000 -14.2926
# 5 -16.8271 -4.4565 -14.6711 0.0000 28.8049 0.0000
# 6 0.0000 0.0000 0.0000 -14.2926 0.0000 28.5174
#
#
#
# Elastic Compliance Matrix: (Units=1/GPa)
#
#
# Indices 1 2 3 4 5 6 
#
# 1 0.017821 -0.003724 -0.002802 0.000000 0.008407 0.000000
# 2 -0.003724 0.009269 -0.006378 0.000000 -0.003990 0.000000
# 3 -0.002802 -0.006378 0.017020 0.000000 0.006045 0.000000
# 4 0.000000 0.000000 0.000000 0.043279 0.000000 0.021691
# 5 0.008407 -0.003990 0.006045 0.000000 0.042089 0.000000
# 6 0.000000 0.000000 0.000000 0.021691 0.000000 0.045938
#
#
# Mechanical properties :
#
#
# Convention : Reuss Voigt Hill
#
# Bulk Modulus (GPa) = 54.63720 77.54523 66.09122
# Shear Modulus (GPa) = 24.11681 30.33866 27.22774
#
# Velocity S-wave (km/s) = 3.32202 3.72598 3.52978
# Velocity P-wave (km/s) = 6.30209 7.34814 6.84512
#
# Compressibility (1/GPa) = 0.01830255
#
# Stress axis : x y z
#
# Youngs Moduli (GPa) = 56.11418 107.88362 58.75453
#
# Poissons Ratio (x) = 0.40175 0.16462
# Poissons Ratio (y) = 0.20896 0.37474
# Poissons Ratio (z) = 0.15722 0.68808
#
# Static dielectric constant tensor:
#      x y z
#    x 1.952620 0.000000 0.044230 
#    y 0.000000 1.789740 0.000000 
#    z 0.044230 0.000000 1.873420 
# 
# From -- ./inp_files/63141.got.cif
#   From: 2010.05.17/outbox.cif.g08.bks.cpg/sg12_32_cif.got.tgz:63141.got - 2010.06.03 13:09:07.
