data_PCOD9175681
_publ_section_title
;
Structure prediction by ZEFSAII (Michael W. Deem and Ramdas Pophale) SiO2 
 PCOD9175681
Probable space group: C 2/M
;
_chemical_formula_sum "Si O2"
_cell_formula_units_Z 48
_cell_length_a 14.379405
_cell_length_b 8.439542
_cell_length_c 29.799016
_cell_angle_alpha 90.000000
_cell_angle_beta 138.759739
_cell_angle_gamma 90.000000
_cell_volume 2383.915085
_symmetry_space_group_name_H-M "C 2/M"
_symmetry_group_IT_number 12
_symmetry_cell_setting 'monoclinic'
loop_
_space_group_symop_operation_xyz
x,y,z
-x,y,-z
-x,-y,-z
x,-y,z
1/2+x,1/2+y,z
1/2-x,1/2+y,-z
1/2-x,1/2-y,-z
1/2+x,1/2-y,z
loop_
_atom_site_type_symbol
_atom_site_label
_atom_site_fract_x
_atom_site_fract_y
_atom_site_fract_z
Si Si1 0.909170 0.191173 0.009161
Si Si2 0.668095 0.310785 0.514830
Si Si3 0.929092 0.186088 0.653483
Si Si4 0.905562 0.312731 0.372123
Si Si5 0.916748 0.691057 0.108302
Si Si6 0.589028 0.189220 0.258050
O O1 0.746202 0.243404 0.945646
O O2 0.910190 0.000000 0.009460
O O3 0.965860 0.248092 0.077718
O O4 0.000000 0.247470 0.000000
O O5 0.674472 0.500000 0.520446
O O6 0.750000 0.250000 0.500000
O O7 0.764150 0.233938 0.588083
O O8 0.508568 0.257339 0.447950
O O9 0.972001 0.231177 0.719221
O O10 0.016577 0.278069 0.647171
O O11 0.944107 0.000000 0.650289
O O12 0.891776 0.500000 0.373750
O O13 0.753463 0.232889 0.315012
O O14 0.918689 0.500000 0.108191
O O15 0.009887 0.742971 0.184237
O O16 0.574008 0.000000 0.256815
#
# Coordination Sequence:
#
# PCOD9175681 Si02
#       6
#     8   8   8   8   8   8
#     4   9  18  35  60  87 113 145 183 221 267 326
#     4  10  18  33  56  81 109 145 188 238 290 338
#     4  11  22  38  58  83 113 149 192 237 288 343
#     4  11  22  38  58  82 111 148 193 241 292 341
#     4   9  20  37  56  82 116 147 180 227 274 323
#     4  11  23  39  56  81 117 154 192 234 282 336
#
# _framework density 20.134945999999999
#
# number of rings (size 3 to 8) (size 9 to 14) (size 15 to 20)
#    0.000    1.833    0.000    7.000    0.000    3.667 
#    0.000    5.000    0.000    0.000    0.000    0.000 
#    0.000    0.000    0.000    0.000    0.000    0.000 
#
# Total GULP energy -134118.061947 kJ/mol
# GULP energy per Si atom -5588.252581 kJ/mol
# Density = 2.008912 g / cm^3
# Si number density = 20.134946 Si / 1000 Ang^3
#
#
#
# Elastic Constant Matrix: (Units=GPa)
#
#
# Indices 1 2 3 4 5 6 
#
# 1 70.6850 -17.4669 23.3335 0.0000 -19.9286 0.0000
# 2 -17.4669 54.8588 6.7968 0.0000 -3.3943 0.0000
# 3 23.3335 6.7968 121.8353 0.0000 -28.8431 0.0000
# 4 0.0000 0.0000 0.0000 30.0876 0.0000 -3.3415
# 5 -19.9286 -3.3943 -28.8431 0.0000 27.3292 0.0000
# 6 0.0000 0.0000 0.0000 -3.3415 0.0000 24.4448
#
#
#
# Elastic Compliance Matrix: (Units=1/GPa)
#
#
# Indices 1 2 3 4 5 6 
#
# 1 0.020528 0.007566 -0.000783 0.000000 0.015082 0.000000
# 2 0.007566 0.021197 -0.000936 0.000000 0.007162 0.000000
# 3 -0.000783 -0.000936 0.010994 0.000000 0.010916 0.000000
# 4 0.000000 0.000000 0.000000 0.033749 0.000000 0.004613
# 5 0.015082 0.007162 0.010916 0.000000 0.059999 0.000000
# 6 0.000000 0.000000 0.000000 0.004613 0.000000 0.041539
#
#
# Mechanical properties :
#
#
# Convention : Reuss Voigt Hill
#
# Bulk Modulus (GPa) = 15.52479 30.30064 22.91272
# Shear Modulus (GPa) = 25.28031 32.02004 28.65018
#
# Velocity S-wave (km/s) = 3.54721 3.99215 3.77624
# Velocity P-wave (km/s) = 4.95016 6.02753 5.51521
#
# Compressibility (1/GPa) = 0.06441310
#
# Stress axis : x y z
#
# Youngs Moduli (GPa) = 48.71483 47.17699 90.95683
#
# Poissons Ratio (x) = -0.35695 0.07121
# Poissons Ratio (y) = -0.36858 0.08514
# Poissons Ratio (z) = 0.03814 0.04416
#
# Static dielectric constant tensor:
#      x y z
#    x 1.689500 0.000000 0.015110 
#    y 0.000000 1.674850 0.000000 
#    z 0.015110 0.000000 1.703970 
# 
# From -- ./inp_files/360322.got.cif
#   From: 2010.05.17/outbox.cif.g08.bks.cpg/sg12_181_cif.got.tgz:360322.got - 2010.06.03 13:09:07.
