data_PCOD9175049
_publ_section_title
;
Structure prediction by ZEFSAII (Michael W. Deem and Ramdas Pophale) SiO2 
 PCOD9175049
Probable space group: C 2/M
;
_chemical_formula_sum "Si O2"
_cell_formula_units_Z 56
_cell_length_a 29.368194
_cell_length_b 13.494322
_cell_length_c 15.429170
_cell_angle_alpha 90.000000
_cell_angle_beta 28.241781
_cell_angle_gamma 90.000000
_cell_volume 2893.406549
_symmetry_space_group_name_H-M "C 2/M"
_symmetry_group_IT_number 12
_symmetry_cell_setting 'monoclinic'
loop_
_space_group_symop_operation_xyz
x,y,z
-x,y,-z
-x,-y,-z
x,-y,z
1/2+x,1/2+y,z
1/2-x,1/2+y,-z
1/2-x,1/2-y,-z
1/2+x,1/2-y,z
loop_
_atom_site_type_symbol
_atom_site_label
_atom_site_fract_x
_atom_site_fract_y
_atom_site_fract_z
Si Si1 0.431049 0.826638 0.237704
Si Si2 0.193500 0.265657 0.405959
Si Si3 0.896228 0.885565 0.570473
Si Si4 0.373787 0.385708 0.796269
Si Si5 0.476665 0.608323 0.141750
Si Si6 0.361322 0.886408 0.169685
Si Si7 0.664538 0.382801 0.950160
O O1 0.366606 0.838597 0.430648
O O2 0.416717 0.708039 0.249808
O O3 0.393034 0.882022 0.216859
O O4 0.545200 0.852302 0.044234
O O5 0.125730 0.187785 0.470399
O O6 0.276801 0.194071 0.304679
O O7 0.249334 0.332135 0.243737
O O8 0.852296 0.847054 0.735690
O O9 0.010724 0.888798 0.389755
O O10 0.865175 0.000000 0.607169
O O11 0.340102 0.500000 0.850169
O O12 0.342754 0.340448 0.939923
O O13 0.434525 0.500000 0.235629
O O14 0.500000 0.604260 0.000000
O O15 0.568540 0.624624 0.050814
O O16 0.335859 0.000000 0.189708
O O17 0.679680 0.500000 0.932761
#
# Coordination Sequence:
#
# PCOD9175049 Si02
#       7
#     8   8   8   8   8   8   8
#     4  11  21  39  58  79 112 156 193 232 284 348
#     4  12  23  34  59  89 112 146 197 245 279 344
#     4   9  18  33  56  87 113 139 182 234 289 342
#     4   8  16  34  57  79 111 147 179 229 292 345
#     4  10  18  32  55  80 108 140 181 237 289 327
#     4  11  24  42  59  80 117 161 197 235 289 348
#     4  10  20  34  52  78 113 148 184 232 284 332
#
# _framework density 19.354348999999999
#
# number of rings (size 3 to 8) (size 9 to 14) (size 15 to 20)
#    0.000    1.857    2.857    3.429    0.000    4.000 
#    0.000    1.429    0.000    0.000    0.000    2.000 
#    0.000    0.000    0.000    0.000    0.000    0.000 
#
# Total GULP energy -155903.137362 kJ/mol
# GULP energy per Si atom -5567.969191 kJ/mol
# Density = 1.931030 g / cm^3
# Si number density = 19.354349 Si / 1000 Ang^3
#
#
#
# Elastic Constant Matrix: (Units=GPa)
#
#
# Indices 1 2 3 4 5 6 
#
# 1 29.9244 -8.5250 32.6475 0.0000 12.3074 0.0000
# 2 -8.5250 41.7367 15.1961 0.0000 6.6468 0.0000
# 3 32.6475 15.1961 105.6219 0.0000 31.5920 0.0000
# 4 0.0000 0.0000 0.0000 17.4816 0.0000 -0.5417
# 5 12.3074 6.6468 31.5920 0.0000 30.1609 0.0000
# 6 0.0000 0.0000 0.0000 -0.5417 0.0000 19.0335
#
#
#
# Elastic Compliance Matrix: (Units=1/GPa)
#
#
# Indices 1 2 3 4 5 6 
#
# 1 0.067106 0.022996 -0.020889 0.000000 -0.010571 0.000000
# 2 0.022996 0.033301 -0.010044 0.000000 -0.006202 0.000000
# 3 -0.020889 -0.010044 0.020617 0.000000 -0.010858 0.000000
# 4 0.000000 0.000000 0.000000 0.057254 0.000000 0.001629
# 5 -0.010571 -0.006202 -0.010858 0.000000 0.050209 0.000000
# 6 0.000000 0.000000 0.000000 0.001629 0.000000 0.052585
#
#
# Mechanical properties :
#
#
# Convention : Reuss Voigt Hill
#
# Bulk Modulus (GPa) = 9.51018 28.43556 18.97287
# Shear Modulus (GPa) = 15.06035 22.53282 18.79659
#
# Velocity S-wave (km/s) = 2.79254 3.41578 3.11976
# Velocity P-wave (km/s) = 3.91434 5.50279 4.77508
#
# Compressibility (1/GPa) = 0.10515051
#
# Stress axis : x y z
#
# Youngs Moduli (GPa) = 14.90176 30.02869 48.50312
#
# Poissons Ratio (x) = -0.69054 1.01318
# Poissons Ratio (y) = -0.34268 0.48717
# Poissons Ratio (z) = 0.31128 0.30161
#
# Static dielectric constant tensor:
#      x y z
#    x 1.725690 0.000000 0.042870 
#    y 0.000000 1.670470 0.000000 
#    z 0.042870 0.000000 1.739220 
# 
# From -- ./inp_files/251130.got.cif
#   From: 2010.05.17/outbox.cif.g08.bks.cpg/sg12_126_cif.got.tgz:251130.got - 2010.06.03 13:09:07.
