data_PCOD9175633
_publ_section_title
;
Structure prediction by ZEFSAII (Michael W. Deem and Ramdas Pophale) SiO2 
 PCOD9175633
Probable space group: C 2/M
;
_chemical_formula_sum "Si O2"
_cell_formula_units_Z 52
_cell_length_a 10.098837
_cell_length_b 17.035830
_cell_length_c 19.881975
_cell_angle_alpha 90.000000
_cell_angle_beta 46.956055
_cell_angle_gamma 90.000000
_cell_volume 2499.831810
_symmetry_space_group_name_H-M "C 2/M"
_symmetry_group_IT_number 12
_symmetry_cell_setting 'monoclinic'
loop_
_space_group_symop_operation_xyz
x,y,z
-x,y,-z
-x,-y,-z
x,-y,z
1/2+x,1/2+y,z
1/2-x,1/2+y,-z
1/2-x,1/2-y,-z
1/2+x,1/2-y,z
loop_
_atom_site_type_symbol
_atom_site_label
_atom_site_fract_x
_atom_site_fract_y
_atom_site_fract_z
Si Si1 0.937538 0.156284 0.318260
Si Si2 0.500000 0.779784 0.000000
Si Si3 0.875353 0.697480 0.680392
Si Si4 0.732252 0.909371 0.876907
Si Si5 0.325617 0.370340 0.996690
Si Si6 0.757329 0.914998 0.158035
Si Si7 0.640194 0.085935 0.513224
O O1 0.785783 0.193536 0.319756
O O2 0.826992 0.108730 0.412841
O O3 0.057195 0.219254 0.316887
O O4 0.076503 0.104928 0.225928
O O5 0.599466 0.834981 0.910089
O O6 0.368804 0.718646 0.006504
O O7 0.807337 0.650903 0.769280
O O8 0.051381 0.651616 0.590847
O O9 0.752231 0.891988 0.949516
O O10 0.673889 0.000000 0.886534
O O11 0.525713 0.408573 0.922454
O O12 0.203273 0.404297 0.099127
O O13 0.703347 0.000000 0.202902
O O14 0.500000 0.080749 0.500000
O O15 0.650663 0.000000 0.542205
#
# Coordination Sequence:
#
# PCOD9175633 Si02
#       7
#     8   4   8   8   8   8   8
#     4  11  23  39  62  90 123 160 204 248 308 370
#     4  10  23  38  55  82 116 154 202 256 309 364
#     4  11  22  38  62  90 122 159 202 253 304 366
#     4  12  23  38  60  85 120 163 208 255 311 369
#     4  10  20  36  56  83 112 154 201 249 302 364
#     4  10  18  33  55  84 113 146 199 254 299 345
#     4   9  19  37  63  94 121 150 200 259 306 356
#
# _framework density 20.801400000000001
#
# number of rings (size 3 to 8) (size 9 to 14) (size 15 to 20)
#    0.000    1.692    1.538    5.769    0.000    1.231 
#    0.000    0.000    0.000    3.692    0.000    0.000 
#    0.000    0.000    0.000    0.000    0.000    0.000 
#
# Total GULP energy -144943.093844 kJ/mol
# GULP energy per Si atom -5574.734379 kJ/mol
# Density = 2.075406 g / cm^3
# Si number density = 20.801400 Si / 1000 Ang^3
#
#
#
# Elastic Constant Matrix: (Units=GPa)
#
#
# Indices 1 2 3 4 5 6 
#
# 1 19.2711 5.2849 0.1952 0.0001 3.0603 0.0001
# 2 5.2849 118.5945 6.3421 0.0006 -11.3217 0.0001
# 3 0.1952 6.3421 90.2042 0.0010 -7.3522 0.0002
# 4 0.0001 0.0006 0.0010 -91.7070 -0.0006 -13.9986
# 5 3.0603 -11.3217 -7.3522 -0.0006 27.1133 0.0000
# 6 0.0001 0.0001 0.0002 -13.9986 0.0000 4.0385
#
#
#
# Elastic Compliance Matrix: (Units=1/GPa)
#
#
# Indices 1 2 3 4 5 6 
#
# 1 0.053939 -0.003094 -0.000512 0.000000 -0.007519 0.000000
# 2 -0.003094 0.008969 -0.000297 0.000000 0.004014 0.000000
# 3 -0.000512 -0.000297 0.011353 0.000000 0.003013 0.000000
# 4 0.000000 0.000000 0.000000 -0.007131 0.000000 -0.024718
# 5 -0.007519 0.004014 0.003013 0.000000 0.040224 0.000000
# 6 0.000000 0.000000 0.000000 -0.024718 0.000000 0.161934
#
#
# Mechanical properties :
#
#
# Convention : Reuss Voigt Hill
#
# Bulk Modulus (GPa) = 15.04762 27.96824 21.50793
# Shear Modulus (GPa) = 16.70867 2.30548 9.50707
#
# Velocity S-wave (km/s) = 2.83724 1.05391 2.14017
# Velocity P-wave (km/s) = 4.24062 3.86724 4.05823
#
# Compressibility (1/GPa) = 0.06645567
#
# Stress axis : x y z
#
# Youngs Moduli (GPa) = 18.53952 111.49471 88.07876
#
# Poissons Ratio (x) = 0.34497 0.04510
# Poissons Ratio (y) = 0.05736 0.02614
# Poissons Ratio (z) = 0.00949 0.03309
#
# Static dielectric constant tensor:
#      x y z
#    x 1.900040 0.000000 -0.030790 
#    y 0.000000 1.791320 0.000000 
#    z -0.030790 0.000000 1.733660 
# 
# From -- ./inp_files/306139.got.cif
#   From: 2010.05.17/outbox.cif.g08.bks.cpg/sg12_154_cif.got.tgz:306139.got - 2010.06.03 13:09:07.
