data_PCOD9175075
_publ_section_title
;
Structure prediction by ZEFSAII (Michael W. Deem and Ramdas Pophale) SiO2 
 PCOD9175075
Probable space group: C 2/M
;
_chemical_formula_sum "Si O2"
_cell_formula_units_Z 64
_cell_length_a 32.431770
_cell_length_b 14.340593
_cell_length_c 22.213221
_cell_angle_alpha 90.000000
_cell_angle_beta 20.913856
_cell_angle_gamma 90.000000
_cell_volume 3687.853067
_symmetry_space_group_name_H-M "C 2/M"
_symmetry_group_IT_number 12
_symmetry_cell_setting 'monoclinic'
loop_
_space_group_symop_operation_xyz
x,y,z
-x,y,-z
-x,-y,-z
x,-y,z
1/2+x,1/2+y,z
1/2-x,1/2+y,-z
1/2-x,1/2-y,-z
1/2+x,1/2-y,z
loop_
_atom_site_type_symbol
_atom_site_label
_atom_site_fract_x
_atom_site_fract_y
_atom_site_fract_z
Si Si1 0.696976 0.109241 0.453338
Si Si2 0.615765 0.892155 0.700309
Si Si3 0.522568 0.697033 0.398112
Si Si4 0.133139 0.724871 0.796227
Si Si5 0.145340 0.605114 0.984027
Si Si6 0.019878 0.396277 0.341770
Si Si7 0.731657 0.163831 0.981194
Si Si8 0.296020 0.392120 0.661365
O O1 0.667855 0.128098 0.563320
O O2 0.801165 0.176287 0.292424
O O3 0.582749 0.122537 0.567209
O O4 0.726894 0.000000 0.407553
O O5 0.642960 0.821108 0.716560
O O6 0.645734 0.000000 0.675520
O O7 0.478261 0.888275 0.877999
O O8 0.500000 0.683649 0.500000
O O9 0.527297 0.808051 0.376552
O O10 0.639228 0.643354 0.218427
O O11 0.418676 0.657178 0.499754
O O12 0.206938 0.658492 0.739172
O O13 0.000000 0.729450 0.000000
O O14 0.153705 0.500000 0.999360
O O15 0.163504 0.679338 0.011695
O O16 0.240968 0.613255 0.802835
O O17 0.998038 0.500000 0.397573
O O18 0.143066 0.398809 0.139601
O O19 0.750000 0.250000 0.000000
O O20 0.308191 0.500000 0.627919
#
# Coordination Sequence:
#
# PCOD9175075 Si02
#       8
#     8   8   8   8   8   8   8   8
#     4  10  21  38  59  82 110 149 193 232 275 331
#     4  10  20  35  59  87 111 143 188 235 280 336
#     4  11  22  37  56  85 117 147 187 231 282 336
#     4  12  23  37  58  85 116 149 185 237 287 337
#     4  10  18  32  55  82 111 145 187 228 273 336
#     4  10  20  37  60  81 110 149 191 234 271 326
#     4  10  20  33  55  84 110 146 185 232 276 323
#     4  11  23  36  53  84 122 150 180 229 288 344
#
# _framework density 17.354271000000001
#
# number of rings (size 3 to 8) (size 9 to 14) (size 15 to 20)
#    0.000    1.500    5.000    1.125    0.000    2.250 
#    0.000    0.000    0.000    0.000    0.000    1.750 
#    0.000    0.000    0.000    0.000    0.000    0.000 
#
# Total GULP energy -178250.930075 kJ/mol
# GULP energy per Si atom -5570.341565 kJ/mol
# Density = 1.731477 g / cm^3
# Si number density = 17.354271 Si / 1000 Ang^3
#
#
#
# Elastic Constant Matrix: (Units=GPa)
#
#
# Indices 1 2 3 4 5 6 
#
# 1 61.4492 26.9919 15.5981 0.0000 -8.8174 0.0000
# 2 26.9919 75.5247 34.8244 0.0000 -8.9999 0.0000
# 3 15.5981 34.8244 93.5268 0.0000 -13.7403 0.0000
# 4 0.0000 0.0000 0.0000 16.3942 0.0000 3.9736
# 5 -8.8174 -8.9999 -13.7403 0.0000 22.2946 0.0000
# 6 0.0000 0.0000 0.0000 3.9736 0.0000 22.3158
#
#
#
# Elastic Compliance Matrix: (Units=1/GPa)
#
#
# Indices 1 2 3 4 5 6 
#
# 1 0.019873 -0.006409 -0.000169 0.000000 0.005169 0.000000
# 2 -0.006409 0.018244 -0.005514 0.000000 0.001432 0.000000
# 3 -0.000169 -0.005514 0.013675 0.000000 0.006135 0.000000
# 4 0.000000 0.000000 0.000000 0.063748 0.000000 -0.011351
# 5 0.005169 0.001432 0.006135 0.000000 0.051257 0.000000
# 6 0.000000 0.000000 0.000000 -0.011351 0.000000 0.046832
#
#
# Mechanical properties :
#
#
# Convention : Reuss Voigt Hill
#
# Bulk Modulus (GPa) = 36.21989 42.81438 39.51714
# Shear Modulus (GPa) = 20.24158 22.40668 21.32413
#
# Velocity S-wave (km/s) = 3.41893 3.59713 3.50916
# Velocity P-wave (km/s) = 6.04166 6.47895 6.26412
#
# Compressibility (1/GPa) = 0.02760914
#
# Stress axis : x y z
#
# Youngs Moduli (GPa) = 50.31905 54.81169 73.12763
#
# Poissons Ratio (x) = 0.35128 0.01234
# Poissons Ratio (y) = 0.32248 0.40323
# Poissons Ratio (z) = 0.00849 0.30223
#
# Static dielectric constant tensor:
#      x y z
#    x 1.581130 0.000000 0.006950 
#    y 0.000000 1.602110 0.000000 
#    z 0.006950 0.000000 1.596800 
# 
# From -- ./inp_files/156610.got.cif
#   From: 2010.05.17/outbox.cif.g08.bks.cpg/sg12_79_cif.got.tgz:156610.got - 2010.06.03 13:09:07.
