data_PCOD9175679
_publ_section_title
;
Structure prediction by ZEFSAII (Michael W. Deem and Ramdas Pophale) SiO2 
 PCOD9175679
Probable space group: C 2/M
;
_chemical_formula_sum "Si O2"
_cell_formula_units_Z 40
_cell_length_a 13.024333
_cell_length_b 20.333111
_cell_length_c 11.147727
_cell_angle_alpha 90.000000
_cell_angle_beta 136.351774
_cell_angle_gamma 90.000000
_cell_volume 2037.692970
_symmetry_space_group_name_H-M "C 2/M"
_symmetry_group_IT_number 12
_symmetry_cell_setting 'monoclinic'
loop_
_space_group_symop_operation_xyz
x,y,z
-x,y,-z
-x,-y,-z
x,-y,z
1/2+x,1/2+y,z
1/2-x,1/2+y,-z
1/2-x,1/2-y,-z
1/2+x,1/2-y,z
loop_
_atom_site_type_symbol
_atom_site_label
_atom_site_fract_x
_atom_site_fract_y
_atom_site_fract_z
Si Si1 0.644560 0.307993 0.267430
Si Si2 0.273970 0.577820 0.325513
Si Si3 0.592030 0.162845 0.332068
Si Si4 0.048792 0.144147 0.701783
Si Si5 0.810300 0.720296 0.174889
O O1 0.617292 0.233263 0.288602
O O2 0.790747 0.335824 0.459309
O O3 0.507185 0.348574 0.208708
O O4 0.686211 0.301543 0.164045
O O5 0.282343 0.500000 0.342519
O O6 0.128918 0.607782 0.265103
O O7 0.406353 0.612637 0.514428
O O8 0.311109 0.600745 0.221432
O O9 0.426317 0.163222 0.242632
O O10 0.092870 0.217505 0.694597
O O11 0.750000 0.750000 0.000000
#
# Coordination Sequence:
#
# PCOD9175679 Si02
#       5
#     8   8   8   8   8
#     4   9  17  31  51  75 107 134 168 227 278 310
#     4  10  18  33  56  81 105 136 185 232 262 306
#     4   9  18  30  52  77 104 135 173 223 273 317
#     4   9  18  30  49  78 105 134 174 220 271 318
#     4  11  21  31  50  77 114 146 169 214 277 337
#
# _framework density 19.630043000000001
#
# number of rings (size 3 to 8) (size 9 to 14) (size 15 to 20)
#    0.000    2.400    2.000    3.000    5.600    3.200 
#    0.000    0.000    0.000   14.400    0.000   12.600 
#    0.000    0.000    0.000    0.000    0.000    0.000 
#
# Total GULP energy -111402.194811 kJ/mol
# GULP energy per Si atom -5570.109741 kJ/mol
# Density = 1.958536 g / cm^3
# Si number density = 19.630043 Si / 1000 Ang^3
#
#
#
# Elastic Constant Matrix: (Units=GPa)
#
#
# Indices 1 2 3 4 5 6 
#
# 1 162.5811 55.4726 27.0720 0.0000 -27.1440 0.0000
# 2 55.4726 87.5071 13.0066 0.0000 -1.8055 0.0000
# 3 27.0720 13.0066 43.3214 0.0000 -19.3954 0.0000
# 4 0.0000 0.0000 0.0000 6.0136 0.0000 -0.1109
# 5 -27.1440 -1.8055 -19.3954 0.0000 22.3640 0.0000
# 6 0.0000 0.0000 0.0000 -0.1109 0.0000 20.0803
#
#
#
# Elastic Compliance Matrix: (Units=1/GPa)
#
#
# Indices 1 2 3 4 5 6 
#
# 1 0.010345 -0.006496 0.001426 0.000000 0.013268 0.000000
# 2 -0.006496 0.016212 -0.006133 0.000000 -0.011895 0.000000
# 3 0.001426 -0.006133 0.040193 0.000000 0.036093 0.000000
# 4 0.000000 0.000000 0.000000 0.166307 0.000000 0.000918
# 5 0.013268 -0.011895 0.036093 0.000000 0.091161 0.000000
# 6 0.000000 0.000000 0.000000 0.000918 0.000000 0.049805
#
#
# Mechanical properties :
#
#
# Convention : Reuss Voigt Hill
#
# Bulk Modulus (GPa) = 22.55155 53.83465 38.19310
# Shear Modulus (GPa) = 12.15923 22.88215 17.52069
#
# Velocity S-wave (km/s) = 2.49151 3.41789 2.99079
# Velocity P-wave (km/s) = 4.44860 6.56202 5.60581
#
# Compressibility (1/GPa) = 0.04434285
#
# Stress axis : x y z
#
# Youngs Moduli (GPa) = 96.66450 61.68322 24.88010
#
# Poissons Ratio (x) = 0.40070 -0.03548
# Poissons Ratio (y) = 0.62795 0.15260
# Poissons Ratio (z) = -0.13785 0.37832
#
# Static dielectric constant tensor:
#      x y z
#    x 1.776320 0.000000 -0.004100 
#    y 0.000000 1.653700 0.000000 
#    z -0.004100 0.000000 1.781940 
# 
# From -- ./inp_files/132763.got.cif
#   From: 2010.05.17/outbox.cif.g08.bks.cpg/sg12_67_cif.got.tgz:132763.got - 2010.06.03 13:09:07.
