data_PCOD9175950
_publ_section_title
;
Structure prediction by ZEFSAII (Michael W. Deem and Ramdas Pophale) SiO2 
 PCOD9175950
Probable space group: C 2/M
;
_chemical_formula_sum "Si O2"
_cell_formula_units_Z 64
_cell_length_a 22.381833
_cell_length_b 13.230223
_cell_length_c 22.050162
_cell_angle_alpha 90.000000
_cell_angle_beta 148.324870
_cell_angle_gamma 90.000000
_cell_volume 3428.613390
_symmetry_space_group_name_H-M "C 2/M"
_symmetry_group_IT_number 12
_symmetry_cell_setting 'monoclinic'
loop_
_space_group_symop_operation_xyz
x,y,z
-x,y,-z
-x,-y,-z
x,-y,z
1/2+x,1/2+y,z
1/2-x,1/2+y,-z
1/2-x,1/2-y,-z
1/2+x,1/2-y,z
loop_
_atom_site_type_symbol
_atom_site_label
_atom_site_fract_x
_atom_site_fract_y
_atom_site_fract_z
Si Si1 0.643252 0.226761 0.864370
Si Si2 0.443461 0.121112 0.766641
Si Si3 0.870077 0.193298 0.371888
Si Si4 0.303961 0.388134 0.919538
Si Si5 0.061224 0.878012 0.695603
Si Si6 0.767470 0.113983 0.744014
Si Si7 0.306277 0.618055 0.440692
Si Si8 0.984928 0.251182 0.915176
O O1 0.538024 0.177765 0.808796
O O2 0.605442 0.326072 0.794726
O O3 0.750000 0.250000 0.000000
O O4 0.692460 0.147893 0.857854
O O5 0.314489 0.157015 0.639163
O O6 0.464717 0.153688 0.854737
O O7 0.451001 0.000000 0.766287
O O8 0.861371 0.160199 0.294432
O O9 0.836569 0.309330 0.354702
O O10 0.802331 0.131596 0.364249
O O11 0.000000 0.173495 0.500000
O O12 0.339384 0.500000 0.970891
O O13 0.404082 0.307293 0.012872
O O14 0.282065 0.393088 0.828979
O O15 0.929425 0.843175 0.569840
O O16 0.064746 0.000000 0.699913
O O17 0.879437 0.173079 0.818076
O O18 0.756108 0.000000 0.710026
O O19 0.308396 0.500000 0.456617
O O20 0.000000 0.273629 0.000000
#
# Coordination Sequence:
#
# PCOD9175950 Si02
#       8
#     8   8   8   8   8   8   8   8
#     4  12  24  40  57  85 119 158 198 243 290 348
#     4  11  23  39  60  86 118 156 199 244 294 355
#     4  10  18  33  60  90 120 149 184 242 300 357
#     4  10  20  37  57  77 111 156 196 236 284 343
#     4  10  22  40  63  90 118 154 201 245 294 354
#     4  10  19  33  56  83 112 150 192 234 286 349
#     4   9  19  38  64  91 118 152 192 245 305 353
#     4  10  20  37  57  84 116 150 196 242 299 354
#
# _framework density 18.666436999999998
#
# number of rings (size 3 to 8) (size 9 to 14) (size 15 to 20)
#    0.000    1.750    3.750    1.125    0.000    5.000 
#    0.000    0.000    0.000    0.000    0.000    0.000 
#    0.000    0.000    0.000    0.000    0.000    0.000 
#
# Total GULP energy -178314.053815 kJ/mol
# GULP energy per Si atom -5572.314182 kJ/mol
# Density = 1.862395 g / cm^3
# Si number density = 18.666437 Si / 1000 Ang^3
#
#
#
# Elastic Constant Matrix: (Units=GPa)
#
#
# Indices 1 2 3 4 5 6 
#
# 1 97.3394 21.9208 40.6530 0.0000 22.9002 0.0000
# 2 21.9208 44.3890 11.9615 0.0000 -5.6688 0.0000
# 3 40.6530 11.9615 55.6862 0.0000 7.3876 0.0000
# 4 0.0000 0.0000 0.0000 27.6564 0.0000 -1.7753
# 5 22.9002 -5.6688 7.3876 0.0000 28.0020 0.0000
# 6 0.0000 0.0000 0.0000 -1.7753 0.0000 23.8513
#
#
#
# Elastic Compliance Matrix: (Units=1/GPa)
#
#
# Indices 1 2 3 4 5 6 
#
# 1 0.020707 -0.009291 -0.011011 0.000000 -0.015911 0.000000
# 2 -0.009291 0.029249 -0.001341 0.000000 0.013873 0.000000
# 3 -0.011011 -0.001341 0.026037 0.000000 0.001864 0.000000
# 4 0.000000 0.000000 0.000000 0.036332 0.000000 0.002704
# 5 -0.015911 0.013873 0.001864 0.000000 0.051040 0.000000
# 6 0.000000 0.000000 0.000000 0.002704 0.000000 0.042128
#
#
# Mechanical properties :
#
#
# Convention : Reuss Voigt Hill
#
# Bulk Modulus (GPa) = 30.57265 38.49835 34.53550
# Shear Modulus (GPa) = 19.25450 24.09388 21.67419
#
# Velocity S-wave (km/s) = 3.21519 3.59661 3.41123
# Velocity P-wave (km/s) = 5.49520 6.15765 5.83583
#
# Compressibility (1/GPa) = 0.03270898
#
# Stress axis : x y z
#
# Youngs Moduli (GPa) = 48.29232 34.18900 38.40753
#
# Poissons Ratio (x) = 0.31764 0.42289
# Poissons Ratio (y) = 0.44867 0.05149
# Poissons Ratio (z) = 0.53173 0.04583
#
# Static dielectric constant tensor:
#      x y z
#    x 1.665750 0.000000 0.007610 
#    y 0.000000 1.645690 0.000000 
#    z 0.007610 0.000000 1.669390 
# 
# From -- ./inp_files/349380.got.cif
#   From: 2010.05.17/outbox.cif.g08.bks.cpg/sg12_175_cif.got.tgz:349380.got - 2010.06.03 13:09:07.
