data_PCOD9175537
_publ_section_title
;
Structure prediction by ZEFSAII (Michael W. Deem and Ramdas Pophale) SiO2 
 PCOD9175537
Probable space group: C 2/M
;
_chemical_formula_sum "Si O2"
_cell_formula_units_Z 48
_cell_length_a 9.232515
_cell_length_b 30.414023
_cell_length_c 7.980750
_cell_angle_alpha 90.000000
_cell_angle_beta 113.453001
_cell_angle_gamma 90.000000
_cell_volume 2055.843785
_symmetry_space_group_name_H-M "C 2/M"
_symmetry_group_IT_number 12
_symmetry_cell_setting 'monoclinic'
loop_
_space_group_symop_operation_xyz
x,y,z
-x,y,-z
-x,-y,-z
x,-y,z
1/2+x,1/2+y,z
1/2-x,1/2+y,-z
1/2-x,1/2-y,-z
1/2+x,1/2-y,z
loop_
_atom_site_type_symbol
_atom_site_label
_atom_site_fract_x
_atom_site_fract_y
_atom_site_fract_z
Si Si1 0.760042 0.952170 0.499597
Si Si2 0.267458 0.355657 0.571431
Si Si3 0.095949 0.142108 0.886600
Si Si4 0.109615 0.713948 0.710585
Si Si5 0.321791 0.798271 0.794648
Si Si6 0.609640 0.547185 0.816395
O O1 0.695080 0.904174 0.513894
O O2 0.799299 0.949978 0.319078
O O3 0.926295 0.953675 0.676733
O O4 0.681879 0.000000 0.493890
O O5 0.456486 0.358570 0.682892
O O6 0.234687 0.323877 0.400694
O O7 0.186092 0.332091 0.691537
O O8 0.244340 0.169843 0.896845
O O9 0.141650 0.091053 0.935311
O O10 0.000000 0.160129 0.000000
O O11 0.002788 0.710588 0.826576
O O12 0.000000 0.726968 0.500000
O O13 0.239331 0.751521 0.780980
O O14 0.647614 0.500000 0.914972
#
# Coordination Sequence:
#
# PCOD9175537 Si02
#       6
#     8   8   8   8   8   8
#     4   8  13  24  47  76 101 130 164 202 252 297
#     4  10  18  33  54  76 102 135 167 209 252 298
#     4  11  21  32  50  77 106 137 171 208 252 298
#     4  10  20  33  57  80  97 126 174 213 253 301
#     4  11  20  36  54  76 100 130 168 215 254 304
#     4   8  14  26  45  72 103 133 166 206 247 291
#
# _framework density 23.34808
#
# number of rings (size 3 to 8) (size 9 to 14) (size 15 to 20)
#    0.000    2.333    1.667    5.500    0.000    0.333 
#    0.000    4.167    0.000    5.500    0.000    0.000 
#    0.000    6.667    0.000    0.000    0.000    0.000 
#
# Total GULP energy -134042.410140 kJ/mol
# GULP energy per Si atom -5585.100423 kJ/mol
# Density = 2.329494 g / cm^3
# Si number density = 23.348080 Si / 1000 Ang^3
#
#
#
# Elastic Constant Matrix: (Units=GPa)
#
#
# Indices 1 2 3 4 5 6 
#
# 1 127.8767 77.9663 32.8776 0.0000 -33.9592 0.0000
# 2 77.9663 195.5210 19.1869 0.0000 -34.0688 0.0000
# 3 32.8776 19.1869 57.2728 0.0000 -34.3534 0.0000
# 4 0.0000 0.0000 0.0000 -56.5861 0.0000 49.2208
# 5 -33.9592 -34.0688 -34.3534 0.0000 44.6086 0.0000
# 6 0.0000 0.0000 0.0000 49.2208 0.0000 -19.2862
#
#
#
# Elastic Compliance Matrix: (Units=1/GPa)
#
#
# Indices 1 2 3 4 5 6 
#
# 1 0.011981 -0.003823 -0.003489 0.000000 0.003514 0.000000
# 2 -0.003823 0.007176 0.002476 0.000000 0.004477 0.000000
# 3 -0.003489 0.002476 0.033777 0.000000 0.025247 0.000000
# 4 0.000000 0.000000 0.000000 0.014486 0.000000 0.036970
# 5 0.003514 0.004477 0.025247 0.000000 0.047954 0.000000
# 6 0.000000 0.000000 0.000000 0.036970 0.000000 0.042503
#
#
# Mechanical properties :
#
#
# Convention : Reuss Voigt Hill
#
# Bulk Modulus (GPa) = 23.11482 71.19246 47.15364
# Shear Modulus (GPa) = 27.47688 10.45658 18.96673
#
# Velocity S-wave (km/s) = 3.43423 2.11856 2.85326
# Velocity P-wave (km/s) = 5.06427 6.04503 5.57625
#
# Compressibility (1/GPa) = 0.04326229
#
# Stress axis : x y z
#
# Youngs Moduli (GPa) = 83.46430 139.35135 29.60553
#
# Poissons Ratio (x) = 0.53273 0.10330
# Poissons Ratio (y) = 0.31908 -0.07330
# Poissons Ratio (z) = 0.29123 -0.34502
#
# Static dielectric constant tensor:
#      x y z
#    x 1.874920 0.000000 0.029480 
#    y 0.000000 1.906120 0.000000 
#    z 0.029480 0.000000 1.969620 
# 
# From -- ./inp_files/42217.got.cif
#   From: 2010.05.17/outbox.cif.g08.bks.cpg/sg12_22_cif.got.tgz:42217.got - 2010.06.03 13:09:07.
