data_PCOD9175757
_publ_section_title
;
Structure prediction by ZEFSAII (Michael W. Deem and Ramdas Pophale) SiO2 
 PCOD9175757
Probable space group: C 2/M
;
_chemical_formula_sum "Si O2"
_cell_formula_units_Z 64
_cell_length_a 20.893823
_cell_length_b 7.817388
_cell_length_c 22.532265
_cell_angle_alpha 90.000000
_cell_angle_beta 119.107245
_cell_angle_gamma 90.000000
_cell_volume 3215.526503
_symmetry_space_group_name_H-M "C 2/M"
_symmetry_group_IT_number 12
_symmetry_cell_setting 'monoclinic'
loop_
_space_group_symop_operation_xyz
x,y,z
-x,y,-z
-x,-y,-z
x,-y,z
1/2+x,1/2+y,z
1/2-x,1/2+y,-z
1/2-x,1/2-y,-z
1/2+x,1/2-y,z
loop_
_atom_site_type_symbol
_atom_site_label
_atom_site_fract_x
_atom_site_fract_y
_atom_site_fract_z
Si Si1 0.061540 0.197838 0.207730
Si Si2 0.894299 0.709162 0.570631
Si Si3 0.477175 0.709453 0.055299
Si Si4 0.331361 0.703904 0.056685
Si Si5 0.688461 0.198599 0.349675
Si Si6 0.849695 0.300979 0.421246
Si Si7 0.564286 0.208751 0.653255
Si Si8 0.584276 0.798257 0.792170
O O1 0.127542 0.287652 0.271216
O O2 0.035203 0.264971 0.131827
O O3 0.988458 0.210013 0.214918
O O4 0.082325 0.000000 0.210426
O O5 0.891704 0.500000 0.571332
O O6 0.846901 0.768577 0.605309
O O7 0.865037 0.770351 0.493808
O O8 0.979081 0.757619 0.615608
O O9 0.477334 0.500000 0.055641
O O10 0.396473 0.764198 0.041628
O O11 0.500000 0.765524 0.000000
O O12 0.337047 0.500000 0.061493
O O13 0.351989 0.770566 0.131377
O O14 0.250000 0.750000 0.000000
O O15 0.763985 0.289958 0.369041
O O16 0.706624 0.000000 0.367025
O O17 0.871857 0.500000 0.435453
O O18 0.895660 0.225550 0.387485
O O19 0.599273 0.260462 0.731940
O O20 0.567349 0.000000 0.652565
O O21 0.567136 0.000000 0.782263
#
# Coordination Sequence:
#
# PCOD9175757 Si02
#       8
#     8   8   8   8   8   8   8   8
#     4  10  19  33  56  82 105 136 181 222 259 311
#     4   9  17  32  56  80 100 135 181 223 262 316
#     4   8  16  33  56  80 103 130 170 218 259 303
#     4  10  20  35  56  82 111 141 179 219 264 313
#     4  11  21  35  53  75 110 144 175 215 270 323
#     4  10  20  34  54  79 106 135 178 227 268 311
#     4   9  17  32  55  81 104 135 179 223 265 314
#     4  10  18  33  57  81 108 141 179 218 266 319
#
# _framework density 19.903428000000002
#
# number of rings (size 3 to 8) (size 9 to 14) (size 15 to 20)
#    0.000    2.375    1.250    3.000    0.000    1.500 
#    2.250    1.875    0.000   13.500    0.000    0.000 
#    0.000    0.000    0.000    0.000    0.000    0.000 
#
# Total GULP energy -178570.749863 kJ/mol
# GULP energy per Si atom -5580.335933 kJ/mol
# Density = 1.985813 g / cm^3
# Si number density = 19.903428 Si / 1000 Ang^3
#
#
#
# Elastic Constant Matrix: (Units=GPa)
#
#
# Indices 1 2 3 4 5 6 
#
# 1 30.8969 -3.0346 6.0545 0.0000 -6.5874 0.0000
# 2 -3.0346 27.8328 -0.9370 0.0000 -7.6998 0.0000
# 3 6.0545 -0.9370 97.2606 0.0000 -5.2297 0.0000
# 4 0.0000 0.0000 0.0000 -52.8347 0.0000 -25.8447
# 5 -6.5874 -7.6998 -5.2297 0.0000 31.7806 0.0000
# 6 0.0000 0.0000 0.0000 -25.8447 0.0000 4.8540
#
#
#
# Elastic Compliance Matrix: (Units=1/GPa)
#
#
# Indices 1 2 3 4 5 6 
#
# 1 0.035103 0.006118 -0.001670 0.000000 0.008483 0.000000
# 2 0.006118 0.039651 0.000591 0.000000 0.010972 0.000000
# 3 -0.001670 0.000591 0.010473 0.000000 0.001520 0.000000
# 4 0.000000 0.000000 0.000000 -0.005251 0.000000 -0.027958
# 5 0.008483 0.010972 0.001520 0.000000 0.036133 0.000000
# 6 0.000000 0.000000 0.000000 -0.027958 0.000000 0.057155
#
#
# Mechanical properties :
#
#
# Convention : Reuss Voigt Hill
#
# Bulk Modulus (GPa) = 10.49267 17.79512 14.14390
# Shear Modulus (GPa) = 25.64706 7.02047 16.33376
#
# Velocity S-wave (km/s) = 3.59357 1.88014 2.86781
# Velocity P-wave (km/s) = 4.74358 3.69775 4.25293
#
# Compressibility (1/GPa) = 0.09530459
#
# Stress axis : x y z
#
# Youngs Moduli (GPa) = 28.48793 25.21996 95.48299
#
# Poissons Ratio (x) = -0.15429 0.15946
# Poissons Ratio (y) = -0.17428 -0.05644
# Poissons Ratio (z) = 0.04758 -0.01491
#
# Static dielectric constant tensor:
#      x y z
#    x 1.682080 0.000000 -0.009240 
#    y 0.000000 1.764630 0.000000 
#    z -0.009240 0.000000 1.716790 
# 
# From -- ./inp_files/320000.got.cif
#   From: 2010.05.17/outbox.cif.g08.bks.cpg/sg12_160_cif.got.tgz:320000.got - 2010.06.03 13:09:07.
