data_PCOD9175655
_publ_section_title
;
Structure prediction by ZEFSAII (Michael W. Deem and Ramdas Pophale) SiO2 
 PCOD9175655
Probable space group: C 2/M
;
_chemical_formula_sum "Si O2"
_cell_formula_units_Z 56
_cell_length_a 26.624570
_cell_length_b 13.790477
_cell_length_c 13.738600
_cell_angle_alpha 90.000000
_cell_angle_beta 35.740283
_cell_angle_gamma 90.000000
_cell_volume 2946.459750
_symmetry_space_group_name_H-M "C 2/M"
_symmetry_group_IT_number 12
_symmetry_cell_setting 'monoclinic'
loop_
_space_group_symop_operation_xyz
x,y,z
-x,y,-z
-x,-y,-z
x,-y,z
1/2+x,1/2+y,z
1/2-x,1/2+y,-z
1/2-x,1/2-y,-z
1/2+x,1/2-y,z
loop_
_atom_site_type_symbol
_atom_site_label
_atom_site_fract_x
_atom_site_fract_y
_atom_site_fract_z
Si Si1 0.493688 0.613432 0.627907
Si Si2 0.096563 0.235895 0.624034
Si Si3 0.649051 0.761919 0.144103
Si Si4 0.528188 0.889043 0.225786
Si Si5 0.389556 0.106198 0.622024
Si Si6 0.236005 0.389515 0.343823
Si Si7 0.092581 0.885178 0.819990
O O1 0.500000 0.618916 0.500000
O O2 0.497769 0.500000 0.648191
O O3 0.564062 0.674264 0.580422
O O4 0.402616 0.663830 0.797013
O O5 0.178641 0.304162 0.478206
O O6 0.114922 0.166212 0.684443
O O7 0.019734 0.312285 0.767462
O O8 0.618836 0.842509 0.113552
O O9 0.609040 0.806738 0.305921
O O10 0.750000 0.750000 0.000000
O O11 0.462518 0.888443 0.423477
O O12 0.533882 0.000000 0.184437
O O13 0.297091 0.109116 0.714687
O O14 0.398385 0.000000 0.656234
O O15 0.215211 0.500000 0.413027
O O16 0.334466 0.371010 0.213341
O O17 0.086566 0.000000 0.811761
O O18 0.000000 0.850109 0.000000
#
# Coordination Sequence:
#
# PCOD9175655 Si02
#       7
#     8   8   8   8   8   8   8
#     4  10  21  36  52  72 102 138 174 209 246 297
#     4  10  18  33  56  77  99 131 171 211 254 298
#     4  11  21  30  46  74 105 136 167 202 250 307
#     4   9  18  33  54  76  96 124 166 215 256 293
#     4   9  17  32  54  75  96 126 167 214 256 293
#     4   9  18  32  54  80 100 124 164 215 259 297
#     4  10  21  35  51  76 108 137 167 205 251 303
#
# _framework density 19.005859000000001
#
# number of rings (size 3 to 8) (size 9 to 14) (size 15 to 20)
#    0.000    2.286    0.000    5.571    0.000    4.571 
#    0.000    1.429    0.000    2.143    0.000    4.000 
#    0.000    0.000    0.000    0.000    0.000    0.000 
#
# Total GULP energy -155988.981156 kJ/mol
# GULP energy per Si atom -5571.035041 kJ/mol
# Density = 1.896260 g / cm^3
# Si number density = 19.005859 Si / 1000 Ang^3
#
#
#
# Elastic Constant Matrix: (Units=GPa)
#
#
# Indices 1 2 3 4 5 6 
#
# 1 73.7092 29.3660 18.1634 0.0000 -30.0268 0.0000
# 2 29.3660 114.4390 22.1929 0.0000 -16.5275 0.0000
# 3 18.1634 22.1929 42.1067 0.0000 -28.5298 0.0000
# 4 0.0000 0.0000 0.0000 13.7200 0.0000 -7.7226
# 5 -30.0268 -16.5275 -28.5298 0.0000 31.9301 0.0000
# 6 0.0000 0.0000 0.0000 -7.7226 0.0000 25.3759
#
#
#
# Elastic Compliance Matrix: (Units=1/GPa)
#
#
# Indices 1 2 3 4 5 6 
#
# 1 0.026386 -0.004553 0.015796 0.000000 0.036570 0.000000
# 2 -0.004553 0.010535 -0.007083 0.000000 -0.005156 0.000000
# 3 0.015796 -0.007083 0.071590 0.000000 0.075154 0.000000
# 4 0.000000 0.000000 0.000000 0.087953 0.000000 0.026767
# 5 0.036570 -0.005156 0.075154 0.000000 0.130190 0.000000
# 6 0.000000 0.000000 0.000000 0.026767 0.000000 0.047553
#
#
# Mechanical properties :
#
#
# Convention : Reuss Voigt Hill
#
# Bulk Modulus (GPa) = 8.55927 41.07772 24.81850
# Shear Modulus (GPa) = 12.35088 24.90738 18.62913
#
# Velocity S-wave (km/s) = 2.55197 3.62402 3.13418
# Velocity P-wave (km/s) = 3.63272 6.25872 5.11704
#
# Compressibility (1/GPa) = 0.11683236
#
# Stress axis : x y z
#
# Youngs Moduli (GPa) = 37.89940 94.91853 13.96848
#
# Poissons Ratio (x) = 0.43212 -0.22065
# Poissons Ratio (y) = 0.17254 0.09894
# Poissons Ratio (z) = -0.59866 0.67229
#
# Static dielectric constant tensor:
#      x y z
#    x 1.696300 0.000000 -0.009610 
#    y 0.000000 1.683420 0.000000 
#    z -0.009610 0.000000 1.658840 
# 
# From -- ./inp_files/246516.got.cif
#   From: 2010.05.17/outbox.cif.g08.bks.cpg/sg12_124_cif.got.tgz:246516.got - 2010.06.03 13:09:07.
