data_PCOD9175215
_publ_section_title
;
Structure prediction by ZEFSAII (Michael W. Deem and Ramdas Pophale) SiO2 
 PCOD9175215
Probable space group: C 2/M
;
_chemical_formula_sum "Si O2"
_cell_formula_units_Z 56
_cell_length_a 32.777790
_cell_length_b 10.852160
_cell_length_c 15.686131
_cell_angle_alpha 90.000000
_cell_angle_beta 32.605429
_cell_angle_gamma 90.000000
_cell_volume 3006.630590
_symmetry_space_group_name_H-M "C 2/M"
_symmetry_group_IT_number 12
_symmetry_cell_setting 'monoclinic'
loop_
_space_group_symop_operation_xyz
x,y,z
-x,y,-z
-x,-y,-z
x,-y,z
1/2+x,1/2+y,z
1/2-x,1/2+y,-z
1/2-x,1/2-y,-z
1/2+x,1/2-y,z
loop_
_atom_site_type_symbol
_atom_site_label
_atom_site_fract_x
_atom_site_fract_y
_atom_site_fract_z
Si Si1 0.375723 0.355459 0.027334
Si Si2 0.399951 0.865918 0.493320
Si Si3 0.837011 0.360747 0.414037
Si Si4 0.847088 0.864694 0.813266
Si Si5 0.987774 0.146969 0.674582
Si Si6 0.244006 0.303107 0.151612
Si Si7 0.845359 0.141955 0.270596
O O1 0.350977 0.500000 0.063900
O O2 0.307868 0.272821 0.109097
O O3 0.386606 0.333429 0.107996
O O4 0.446439 0.342160 0.839723
O O5 0.376801 0.850603 0.435423
O O6 0.445902 0.746321 0.442606
O O7 0.322421 0.871311 0.682691
O O8 0.439257 0.000000 0.434021
O O9 0.852060 0.500000 0.353841
O O10 0.861628 0.248689 0.309948
O O11 0.745618 0.352512 0.586036
O O12 0.925517 0.813413 0.713088
O O13 0.800441 0.801094 0.821512
O O14 0.866381 0.000000 0.749831
O O15 0.791912 0.868260 0.992722
O O16 0.005293 0.000000 0.632825
O O17 0.862149 0.000000 0.268104
#
# Coordination Sequence:
#
# PCOD9175215 Si02
#       7
#     8   8   8   8   8   8   8
#     4   9  16  33  57  77  98 135 179 217 255 301
#     4  11  21  35  54  78 107 140 173 210 258 313
#     4   9  18  31  49  77 109 134 162 210 264 307
#     4   9  19  36  54  76 103 134 173 220 263 302
#     4   9  20  37  55  74 105 142 176 213 257 306
#     4  10  18  32  57  79  98 132 175 215 259 309
#     4   9  16  30  54  79 101 130 171 216 255 300
#
# _framework density 18.625499999999999
#
# number of rings (size 3 to 8) (size 9 to 14) (size 15 to 20)
#    0.000    2.571    1.429    2.143    0.000    1.714 
#    0.000   12.143    0.000    4.286    0.000    0.000 
#    0.000    0.000    0.000    0.000    0.000    0.000 
#
# Total GULP energy -155871.658217 kJ/mol
# GULP energy per Si atom -5566.844936 kJ/mol
# Density = 1.858311 g / cm^3
# Si number density = 18.625500 Si / 1000 Ang^3
#
#
#
# Elastic Constant Matrix: (Units=GPa)
#
#
# Indices 1 2 3 4 5 6 
#
# 1 45.4139 32.8679 14.6618 0.0000 4.0268 0.0000
# 2 32.8679 73.1172 26.1762 0.0000 -7.2246 0.0000
# 3 14.6618 26.1762 65.1513 0.0000 0.0900 0.0000
# 4 0.0000 0.0000 0.0000 -20.3462 0.0000 -27.9733
# 5 4.0268 -7.2246 0.0900 0.0000 24.9272 0.0000
# 6 0.0000 0.0000 0.0000 -27.9733 0.0000 1.0660
#
#
#
# Elastic Compliance Matrix: (Units=1/GPa)
#
#
# Indices 1 2 3 4 5 6 
#
# 1 0.035243 -0.016399 -0.001328 0.000000 -0.010441 0.000000
# 2 -0.016399 0.024163 -0.006031 0.000000 0.009674 0.000000
# 3 -0.001328 -0.006031 0.018073 0.000000 -0.001599 0.000000
# 4 0.000000 0.000000 0.000000 -0.001326 0.000000 -0.034784
# 5 -0.010441 0.009674 -0.001599 0.000000 0.044613 0.000000
# 6 0.000000 0.000000 0.000000 -0.034784 0.000000 0.025300
#
#
# Mechanical properties :
#
#
# Convention : Reuss Voigt Hill
#
# Bulk Modulus (GPa) = 33.37423 36.78826 35.08124
# Shear Modulus (GPa) = 24.56155 8.46116 16.51136
#
# Velocity S-wave (km/s) = 3.63534 2.13369 2.98063
# Velocity P-wave (km/s) = 5.96476 5.08573 5.54270
#
# Compressibility (1/GPa) = 0.02996324
#
# Stress axis : x y z
#
# Youngs Moduli (GPa) = 28.37476 41.38512 55.33068
#
# Poissons Ratio (x) = 0.67866 0.07349
# Poissons Ratio (y) = 0.46531 0.33371
# Poissons Ratio (z) = 0.03769 0.24960
#
# Static dielectric constant tensor:
#      x y z
#    x 1.643720 0.000000 0.014660 
#    y 0.000000 1.655950 0.000000 
#    z 0.014660 0.000000 1.653350 
# 
# From -- ./inp_files/250991.got.cif
#   From: 2010.05.17/outbox.cif.g08.bks.cpg/sg12_126_cif.got.tgz:250991.got - 2010.06.03 13:09:07.
