data_PCOD9175389
_publ_section_title
;
Structure prediction by ZEFSAII (Michael W. Deem and Ramdas Pophale) SiO2 
 PCOD9175389
Probable space group: C 2/M
;
_chemical_formula_sum "Si O2"
_cell_formula_units_Z 40
_cell_length_a 19.660162
_cell_length_b 11.808610
_cell_length_c 17.961731
_cell_angle_alpha 90.000000
_cell_angle_beta 152.550007
_cell_angle_gamma 90.000000
_cell_volume 1922.253858
_symmetry_space_group_name_H-M "C 2/M"
_symmetry_group_IT_number 12
_symmetry_cell_setting 'monoclinic'
loop_
_space_group_symop_operation_xyz
x,y,z
-x,y,-z
-x,-y,-z
x,-y,z
1/2+x,1/2+y,z
1/2-x,1/2+y,-z
1/2-x,1/2-y,-z
1/2+x,1/2-y,z
loop_
_atom_site_type_symbol
_atom_site_label
_atom_site_fract_x
_atom_site_fract_y
_atom_site_fract_z
Si Si1 0.877999 0.715989 0.722279
Si Si2 0.328284 0.372144 0.811879
Si Si3 0.948569 0.500000 0.864345
Si Si4 0.070763 0.865370 0.361913
Si Si5 0.324991 0.500000 0.315791
Si Si6 0.888143 0.229783 0.320953
O O1 0.811815 0.784403 0.728090
O O2 0.981120 0.615477 0.853101
O O3 0.954316 0.806462 0.742207
O O4 0.743388 0.656336 0.547783
O O5 0.290006 0.500000 0.752056
O O6 0.225052 0.332351 0.779632
O O7 0.500000 0.368430 0.000000
O O8 0.769550 0.500000 0.701689
O O9 0.000000 0.500000 0.000000
O O10 0.978965 0.796184 0.334954
O O11 0.038256 0.000000 0.332015
O O12 0.500000 0.500000 0.500000
O O13 0.295152 0.615031 0.244168
O O14 0.000000 0.241642 0.500000
#
# Coordination Sequence:
#
# PCOD9175389 Si02
#       6
#     8   8   4   8   4   8
#     4  11  22  39  61  94 129 171 212 262 328 383
#     4  11  24  42  62  86 125 170 213 261 323 389
#     4  12  22  38  68  96 127 162 222 271 303 375
#     4  11  22  39  63  94 134 169 208 269 329 380
#     4  10  18  32  64  92 122 148 209 267 309 358
#     4  11  20  37  63  94 121 160 218 268 312 376
#
# _framework density 20.808907000000001
#
# number of rings (size 3 to 8) (size 9 to 14) (size 15 to 20)
#    0.000    1.000    6.000    2.400    0.000    0.400 
#    1.800    1.000    0.000    0.000    0.000    0.000 
#    0.000    0.000    0.000    0.000    0.000    0.000 
#
# Total GULP energy -111650.441841 kJ/mol
# GULP energy per Si atom -5582.522092 kJ/mol
# Density = 2.076155 g / cm^3
# Si number density = 20.808907 Si / 1000 Ang^3
#
#
#
# Elastic Constant Matrix: (Units=GPa)
#
#
# Indices 1 2 3 4 5 6 
#
# 1 114.1791 34.1844 18.4398 -0.0001 -5.4306 0.0000
# 2 34.1844 132.2078 34.2194 -0.0001 -10.4389 0.0000
# 3 18.4398 34.2194 54.0585 -0.0001 -3.3357 0.0000
# 4 -0.0001 -0.0001 -0.0001 19.4361 -0.0001 -12.8212
# 5 -5.4306 -10.4389 -3.3357 -0.0001 27.7453 0.0000
# 6 0.0000 0.0000 0.0000 -12.8212 0.0000 53.6881
#
#
#
# Elastic Compliance Matrix: (Units=1/GPa)
#
#
# Indices 1 2 3 4 5 6 
#
# 1 0.009704 -0.001906 -0.002046 0.000000 0.000936 0.000000
# 2 -0.001906 0.009631 -0.005285 0.000000 0.002615 0.000000
# 3 -0.002046 -0.005285 0.022562 0.000000 0.000324 0.000000
# 4 0.000000 0.000000 0.000000 0.061072 0.000000 0.014584
# 5 0.000936 0.002615 0.000324 0.000000 0.037248 0.000000
# 6 0.000000 0.000000 0.000000 0.014584 0.000000 0.022109
#
#
# Mechanical properties :
#
#
# Convention : Reuss Voigt Hill
#
# Bulk Modulus (GPa) = 42.69272 52.68141 47.68707
# Shear Modulus (GPa) = 26.51024 34.41403 30.46214
#
# Velocity S-wave (km/s) = 3.57317 4.07112 3.83024
# Velocity P-wave (km/s) = 6.13062 6.88988 6.52131
#
# Compressibility (1/GPa) = 0.02342320
#
# Stress axis : x y z
#
# Youngs Moduli (GPa) = 103.05416 103.83140 44.32258
#
# Poissons Ratio (x) = 0.19785 0.09068
# Poissons Ratio (y) = 0.19637 0.23425
# Poissons Ratio (z) = 0.21085 0.54876
#
# Static dielectric constant tensor:
#      x y z
#    x 1.745480 0.000000 0.023600 
#    y 0.000000 1.772230 0.000000 
#    z 0.023600 0.000000 1.840370 
# 
# From -- ./inp_files/283427.got.cif
#   From: 2010.05.17/outbox.cif.g08.bks.cpg/sg12_142_cif.got.tgz:283427.got - 2010.06.03 13:09:07.
