data_PCOD9175102
_publ_section_title
;
Structure prediction by ZEFSAII (Michael W. Deem and Ramdas Pophale) SiO2 
 PCOD9175102
Probable space group: C 2/M
;
_chemical_formula_sum "Si O2"
_cell_formula_units_Z 46
_cell_length_a 5.108680
_cell_length_b 22.565211
_cell_length_c 25.998664
_cell_angle_alpha 90.000000
_cell_angle_beta 125.253503
_cell_angle_gamma 90.000000
_cell_volume 2447.438790
_symmetry_space_group_name_H-M "C 2/M"
_symmetry_group_IT_number 12
_symmetry_cell_setting 'monoclinic'
loop_
_space_group_symop_operation_xyz
x,y,z
-x,y,-z
-x,-y,-z
x,-y,z
1/2+x,1/2+y,z
1/2-x,1/2+y,-z
1/2-x,1/2-y,-z
1/2+x,1/2-y,z
loop_
_atom_site_type_symbol
_atom_site_label
_atom_site_fract_x
_atom_site_fract_y
_atom_site_fract_z
Si Si1 0.350272 0.212929 0.617052
Si Si2 0.340175 0.864280 0.262313
Si Si3 0.500000 0.207460 0.000000
Si Si4 0.121276 0.207306 0.861943
Si Si5 0.500000 0.500000 0.500000
Si Si6 0.018720 0.929218 0.688499
Si Si7 0.348410 0.388618 0.555968
O O1 0.613660 0.233781 0.606338
O O2 0.526205 0.190713 0.688867
O O3 0.123521 0.158962 0.575349
O O4 0.638193 0.896784 0.269384
O O5 0.078585 0.839395 0.193613
O O6 0.192226 0.909177 0.287209
O O7 0.303970 0.177484 0.931443
O O8 0.750000 0.250000 0.000000
O O9 0.378675 0.242859 0.856754
O O10 0.420578 0.448297 0.533497
O O11 0.861722 0.904941 0.617980
O O12 0.046612 0.000000 0.688844
O O13 0.000000 0.366724 0.500000
#
# Coordination Sequence:
#
# PCOD9175102 Si02
#       7
#     8   8   4   8   2   8   8
#     4  11  24  42  60  85 119 148 184 226 283 358
#     4  11  22  37  61  85 114 157 191 227 292 340
#     4   8  16  28  48  82 119 154 189 232 274 320
#     4  10  18  32  55  85 122 156 191 230 276 339
#     4  12  26  44  68  86 108 144 202 244 304 352
#     4  11  24  41  60  86 112 141 192 252 293 337
#     4  11  27  41  66  86 110 148 191 247 302 350
#
# _framework density 18.795157
#
# number of rings (size 3 to 8) (size 9 to 14) (size 15 to 20)
#    0.000    1.391    0.870    4.957    7.304    0.696 
#    0.000    0.000    0.000    0.000    0.000    3.652 
#    0.000    0.000    0.000    0.000    0.000    0.000 
#
# Total GULP energy -128362.648380 kJ/mol
# GULP energy per Si atom -5580.984712 kJ/mol
# Density = 1.875238 g / cm^3
# Si number density = 18.795157 Si / 1000 Ang^3
#
#
#
# Elastic Constant Matrix: (Units=GPa)
#
#
# Indices 1 2 3 4 5 6 
#
# 1 54.5239 1.7277 4.9594 0.0000 5.3465 0.0000
# 2 1.7277 61.8027 23.6025 0.0000 7.7413 0.0000
# 3 4.9594 23.6025 126.9678 0.0000 20.6102 0.0000
# 4 0.0000 0.0000 0.0000 17.2222 0.0000 -10.0292
# 5 5.3465 7.7413 20.6102 0.0000 24.6486 0.0000
# 6 0.0000 0.0000 0.0000 -10.0292 0.0000 24.5185
#
#
#
# Elastic Compliance Matrix: (Units=1/GPa)
#
#
# Indices 1 2 3 4 5 6 
#
# 1 0.018740 0.000009 -0.000085 0.000000 -0.003997 0.000000
# 2 0.000009 0.017637 -0.002753 0.000000 -0.003239 0.000000
# 3 -0.000085 -0.002753 0.009543 0.000000 -0.007096 0.000000
# 4 0.000000 0.000000 0.000000 0.076220 0.000000 0.031178
# 5 -0.003997 -0.003239 -0.007096 0.000000 0.048388 0.000000
# 6 0.000000 0.000000 0.000000 0.031178 0.000000 0.053539
#
#
# Mechanical properties :
#
#
# Convention : Reuss Voigt Hill
#
# Bulk Modulus (GPa) = 24.83699 33.76373 29.30036
# Shear Modulus (GPa) = 20.56372 27.47819 24.02096
#
# Velocity S-wave (km/s) = 3.31130 3.82774 3.57885
# Velocity P-wave (km/s) = 5.27853 6.12686 5.71845
#
# Compressibility (1/GPa) = 0.04026253
#
# Stress axis : x y z
#
# Youngs Moduli (GPa) = 53.36199 56.69749 104.78802
#
# Poissons Ratio (x) = -0.00052 0.00890
# Poissons Ratio (y) = -0.00049 0.28851
# Poissons Ratio (z) = 0.00453 0.15610
#
# Static dielectric constant tensor:
#      x y z
#    x 1.668190 0.000000 0.006790 
#    y 0.000000 1.622860 0.000000 
#    z 0.006790 0.000000 1.677730 
# 
# From -- ./inp_files/331296.got.cif
#   From: 2010.05.17/outbox.cif.g08.bks.cpg/sg12_166_cif.got.tgz:331296.got - 2010.06.03 13:09:07.
