data_PCOD9175329
_publ_section_title
;
Structure prediction by ZEFSAII (Michael W. Deem and Ramdas Pophale) SiO2 
 PCOD9175329
Probable space group: C 2/M
;
_chemical_formula_sum "Si O2"
_cell_formula_units_Z 44
_cell_length_a 21.039578
_cell_length_b 16.320720
_cell_length_c 13.084561
_cell_angle_alpha 90.000000
_cell_angle_beta 156.091040
_cell_angle_gamma 90.000000
_cell_volume 1820.939630
_symmetry_space_group_name_H-M "C 2/M"
_symmetry_group_IT_number 12
_symmetry_cell_setting 'monoclinic'
loop_
_space_group_symop_operation_xyz
x,y,z
-x,y,-z
-x,-y,-z
x,-y,z
1/2+x,1/2+y,z
1/2-x,1/2+y,-z
1/2-x,1/2-y,-z
1/2+x,1/2-y,z
loop_
_atom_site_type_symbol
_atom_site_label
_atom_site_fract_x
_atom_site_fract_y
_atom_site_fract_z
Si Si1 0.370348 0.500000 0.940311
Si Si2 0.295209 0.500000 0.068630
Si Si3 0.188256 0.594571 0.276734
Si Si4 0.895798 0.336833 0.043668
Si Si5 0.889895 0.826710 0.249038
Si Si6 0.958560 0.500000 0.657044
Si Si7 0.027409 0.832675 0.219921
O O1 0.331282 0.500000 0.002733
O O2 0.212431 0.500000 0.642187
O O3 0.457550 0.411867 0.058069
O O4 0.106248 0.500000 0.797676
O O5 0.367376 0.423344 0.229841
O O6 0.236576 0.500000 0.362560
O O7 0.288242 0.649813 0.499687
O O8 0.223092 0.625885 0.214001
O O9 0.000000 0.597213 0.000000
O O10 0.975865 0.257504 0.109408
O O11 0.009866 0.413462 0.238237
O O12 0.793450 0.306300 0.991209
O O13 0.963108 0.828433 0.242891
O O14 0.000000 0.788848 0.500000
#
# Coordination Sequence:
#
# PCOD9175329 Si02
#       7
#     4   4   8   8   8   4   8
#     4  10  21  36  56  87 128 163 195 246 307 371
#     4   8  18  30  50  84 122 167 201 236 298 372
#     4  11  24  45  69  90 118 162 216 273 311 356
#     4  11  23  39  63  95 125 162 206 253 311 378
#     4  10  18  32  58  93 126 157 203 253 307 368
#     4  10  21  36  56  87 128 163 195 246 307 371
#     4  11  23  39  63  95 125 162 206 253 311 378
#
# _framework density 24.163347000000002
#
# number of rings (size 3 to 8) (size 9 to 14) (size 15 to 20)
#    0.000    1.636    3.636    1.091    2.545    0.727 
#    0.000    0.000    0.000    1.091    0.000    0.000 
#    0.000    0.000    0.000    0.000    0.000    0.000 
#
# Total GULP energy -122583.808661 kJ/mol
# GULP energy per Si atom -5571.991303 kJ/mol
# Density = 2.410835 g / cm^3
# Si number density = 24.163347 Si / 1000 Ang^3
#
#
#
# Elastic Constant Matrix: (Units=GPa)
#
#
# Indices 1 2 3 4 5 6 
#
# 1 62.8472 1.3711 4.4349 0.0000 9.4631 0.0000
# 2 1.3711 136.0506 43.9490 0.0000 10.3519 0.0000
# 3 4.4349 43.9490 132.3104 0.0000 -4.0983 0.0000
# 4 0.0000 0.0000 0.0000 -52.8395 0.0000 56.7688
# 5 9.4631 10.3519 -4.0983 0.0000 26.3116 0.0000
# 6 0.0000 0.0000 0.0000 56.7688 0.0000 -29.2853
#
#
#
# Elastic Compliance Matrix: (Units=1/GPa)
#
#
# Indices 1 2 3 4 5 6 
#
# 1 0.016946 0.000641 -0.000982 0.000000 -0.006500 0.000000
# 2 0.000641 0.008629 -0.003015 0.000000 -0.004095 0.000000
# 3 -0.000982 -0.003015 0.008682 0.000000 0.002892 0.000000
# 4 0.000000 0.000000 0.000000 0.017481 0.000000 0.033886
# 5 -0.006500 -0.004095 0.002892 0.000000 0.042405 0.000000
# 6 0.000000 0.000000 0.000000 0.033886 0.000000 0.031541
#
#
# Mechanical properties :
#
#
# Convention : Reuss Voigt Hill
#
# Bulk Modulus (GPa) = 36.30427 47.85759 42.08093
# Shear Modulus (GPa) = 35.31650 7.60089 21.45870
#
# Velocity S-wave (km/s) = 3.82720 1.77552 2.98328
# Velocity P-wave (km/s) = 5.88108 4.90430 5.41476
#
# Compressibility (1/GPa) = 0.02754497
#
# Stress axis : x y z
#
# Youngs Moduli (GPa) = 59.01228 115.88590 115.18290
#
# Poissons Ratio (x) = -0.07429 0.11314
# Poissons Ratio (y) = -0.03783 0.34724
# Poissons Ratio (z) = 0.05797 0.34936
#
# Static dielectric constant tensor:
#      x y z
#    x 2.041330 0.000000 0.027760 
#    y 0.000000 1.940780 0.000000 
#    z 0.027760 0.000000 1.965020 
# 
# From -- ./inp_files/205995.got.cif
#   From: 2010.05.17/outbox.cif.g08.bks.cpg/sg12_103_cif.got.tgz:205995.got - 2010.06.03 13:09:07.
