data_PCOD9175192
_publ_section_title
;
Structure prediction by ZEFSAII (Michael W. Deem and Ramdas Pophale) SiO2 
 PCOD9175192
Probable space group: C 2/M
;
_chemical_formula_sum "Si O2"
_cell_formula_units_Z 48
_cell_length_a 9.877265
_cell_length_b 24.869132
_cell_length_c 11.956252
_cell_angle_alpha 90.000000
_cell_angle_beta 131.717582
_cell_angle_gamma 90.000000
_cell_volume 2192.218374
_symmetry_space_group_name_H-M "C 2/M"
_symmetry_group_IT_number 12
_symmetry_cell_setting 'monoclinic'
loop_
_space_group_symop_operation_xyz
x,y,z
-x,y,-z
-x,-y,-z
x,-y,z
1/2+x,1/2+y,z
1/2-x,1/2+y,-z
1/2-x,1/2-y,-z
1/2+x,1/2-y,z
loop_
_atom_site_type_symbol
_atom_site_label
_atom_site_fract_x
_atom_site_fract_y
_atom_site_fract_z
Si Si1 0.791466 0.500000 0.733781
Si Si2 0.777431 0.308923 0.862880
Si Si3 0.711853 0.886827 0.933870
Si Si4 0.810350 0.695984 0.469675
Si Si5 0.205982 0.617155 0.330044
Si Si6 0.317504 0.306930 0.831000
Si Si7 0.271231 0.000000 0.988349
O O1 0.725303 0.555556 0.639150
O O2 0.744082 0.500000 0.839829
O O3 0.013321 0.500000 0.861315
O O4 0.714314 0.341348 0.717751
O O5 0.714777 0.247208 0.815689
O O6 0.722416 0.343621 0.939354
O O7 0.000000 0.305151 0.000000
O O8 0.496609 0.890021 0.830868
O O9 0.728808 0.862088 0.821227
O O10 0.800663 0.944258 0.001959
O O11 0.750000 0.750000 0.500000
O O12 0.802097 0.647410 0.555133
O O13 0.664970 0.692439 0.290697
O O14 0.000000 0.697868 0.500000
O O15 0.500000 0.306368 0.000000
#
# Coordination Sequence:
#
# PCOD9175192 Si02
#       7
#     4   8   8   8   8   8   4
#     4   9  16  30  54  88 122 150 197 255 311 368
#     4   9  17  29  53  85 116 147 193 248 305 355
#     4  10  18  32  56  86 121 154 202 255 306 370
#     4  12  25  43  63  92 130 168 207 258 315 373
#     4  10  18  34  57  88 121 157 199 258 309 363
#     4  11  23  38  57  86 125 166 209 250 310 377
#     4   9  16  28  54  89 118 153 199 254 311 363
#
# _framework density 21.895630000000001
#
# number of rings (size 3 to 8) (size 9 to 14) (size 15 to 20)
#    0.000    1.833    5.000    0.500    0.000    1.333 
#    0.000    1.667    0.000    0.000    0.000    1.750 
#    0.000    0.000    0.000    0.000    0.000    0.000 
#
# Total GULP energy -133738.213956 kJ/mol
# GULP energy per Si atom -5572.425581 kJ/mol
# Density = 2.184579 g / cm^3
# Si number density = 21.895630 Si / 1000 Ang^3
#
#
#
# Elastic Constant Matrix: (Units=GPa)
#
#
# Indices 1 2 3 4 5 6 
#
# 1 47.6176 38.5145 28.1148 0.0000 -17.4412 0.0000
# 2 38.5145 178.2978 32.8508 0.0000 -28.3550 0.0000
# 3 28.1148 32.8508 96.2724 0.0000 -22.1247 0.0000
# 4 0.0000 0.0000 0.0000 17.7610 0.0000 -10.5319
# 5 -17.4412 -28.3550 -22.1247 0.0000 38.7365 0.0000
# 6 0.0000 0.0000 0.0000 -10.5319 0.0000 17.8764
#
#
#
# Elastic Compliance Matrix: (Units=1/GPa)
#
#
# Indices 1 2 3 4 5 6 
#
# 1 0.030629 -0.004396 -0.005773 0.000000 0.007276 0.000000
# 2 -0.004396 0.007115 -0.000463 0.000000 0.002965 0.000000
# 3 -0.005773 -0.000463 0.013302 0.000000 0.004659 0.000000
# 4 0.000000 0.000000 0.000000 0.086534 0.000000 0.050982
# 5 0.007276 0.002965 0.004659 0.000000 0.033923 0.000000
# 6 0.000000 0.000000 0.000000 0.050982 0.000000 0.085976
#
#
# Mechanical properties :
#
#
# Convention : Reuss Voigt Hill
#
# Bulk Modulus (GPa) = 33.57537 57.90531 45.74034
# Shear Modulus (GPa) = 17.32087 29.72197 23.52142
#
# Velocity S-wave (km/s) = 2.81564 3.68834 3.28113
# Velocity P-wave (km/s) = 5.09294 6.68146 5.94054
#
# Compressibility (1/GPa) = 0.02978374
#
# Stress axis : x y z
#
# Youngs Moduli (GPa) = 32.64840 140.55173 75.17805
#
# Poissons Ratio (x) = 0.61780 0.43398
# Poissons Ratio (y) = 0.14351 0.03479
# Poissons Ratio (z) = 0.18847 0.06505
#
# Static dielectric constant tensor:
#      x y z
#    x 1.949630 0.000000 0.090390 
#    y 0.000000 1.873530 0.000000 
#    z 0.090390 0.000000 1.822710 
# 
# From -- ./inp_files/134967.got.cif
#   From: 2010.05.17/outbox.cif.g08.bks.cpg/sg12_68_cif.got.tgz:134967.got - 2010.06.03 13:09:07.
