data_PCOD9175962
_publ_section_title
;
Structure prediction by ZEFSAII (Michael W. Deem and Ramdas Pophale) SiO2 
 PCOD9175962
Probable space group: C 2/M
;
_chemical_formula_sum "Si O2"
_cell_formula_units_Z 56
_cell_length_a 18.016608
_cell_length_b 13.417425
_cell_length_c 14.993861
_cell_angle_alpha 90.000000
_cell_angle_beta 43.302768
_cell_angle_gamma 90.000000
_cell_volume 2485.919452
_symmetry_space_group_name_H-M "C 2/M"
_symmetry_group_IT_number 12
_symmetry_cell_setting 'monoclinic'
loop_
_space_group_symop_operation_xyz
x,y,z
-x,y,-z
-x,-y,-z
x,-y,z
1/2+x,1/2+y,z
1/2-x,1/2+y,-z
1/2-x,1/2-y,-z
1/2+x,1/2-y,z
loop_
_atom_site_type_symbol
_atom_site_label
_atom_site_fract_x
_atom_site_fract_y
_atom_site_fract_z
Si Si1 0.208908 0.185017 0.169866
Si Si2 0.019986 0.808738 0.629443
Si Si3 0.359421 0.885854 0.525587
Si Si4 0.239898 0.607783 0.063914
Si Si5 0.009587 0.884861 0.145541
Si Si6 0.755989 0.610145 0.421218
Si Si7 0.176496 0.228609 0.772965
O O1 0.248170 0.118302 0.053520
O O2 0.301011 0.203855 0.161213
O O3 0.093632 0.152998 0.311416
O O4 0.183595 0.294070 0.149360
O O5 0.048727 0.696916 0.571996
O O6 0.002085 0.825707 0.751151
O O7 0.129316 0.869969 0.515740
O O8 0.286269 0.883436 0.499101
O O9 0.279378 0.845645 0.672277
O O10 0.394349 0.000000 0.509076
O O11 0.193392 0.500000 0.128006
O O12 0.364041 0.614016 0.989574
O O13 0.931069 0.834645 0.143435
O O14 0.976872 0.000000 0.189206
O O15 0.786128 0.500000 0.363905
O O16 0.817977 0.695870 0.314958
#
# Coordination Sequence:
#
# PCOD9175962 Si02
#       7
#     8   8   8   8   8   8   8
#     4  10  23  37  56  82 112 142 178 233 286 329
#     4  10  18  35  54  78 110 152 185 216 267 332
#     4  10  19  32  52  81 113 147 184 222 264 323
#     4   9  21  42  61  79 105 144 191 231 278 334
#     4  10  18  33  61  85 105 143 189 232 272 320
#     4  10  19  33  55  83 113 148 187 223 261 321
#     4  11  20  34  53  85 117 140 178 232 278 319
#
# _framework density 22.526876999999999
#
# number of rings (size 3 to 8) (size 9 to 14) (size 15 to 20)
#    0.000    2.000    2.857    1.714    0.000    5.714 
#    0.000    2.857    0.000    0.000    0.000    4.000 
#    0.000    0.000    0.000    0.000    0.000    0.000 
#
# Total GULP energy -156424.921453 kJ/mol
# GULP energy per Si atom -5586.604338 kJ/mol
# Density = 2.247560 g / cm^3
# Si number density = 22.526877 Si / 1000 Ang^3
#
#
#
# Elastic Constant Matrix: (Units=GPa)
#
#
# Indices 1 2 3 4 5 6 
#
# 1 87.1377 -4.9937 5.2252 0.0000 -0.8171 0.0000
# 2 -4.9937 80.6649 4.9649 0.0000 -4.3808 0.0000
# 3 5.2252 4.9649 36.8073 0.0000 -6.5315 0.0000
# 4 0.0000 0.0000 0.0000 6.0475 0.0000 -6.3561
# 5 -0.8171 -4.3808 -6.5315 0.0000 15.3734 0.0000
# 6 0.0000 0.0000 0.0000 -6.3561 0.0000 5.5989
#
#
#
# Elastic Compliance Matrix: (Units=1/GPa)
#
#
# Indices 1 2 3 4 5 6 
#
# 1 0.011629 0.000833 -0.001743 0.000000 0.000115 0.000000
# 2 0.000833 0.012697 -0.001277 0.000000 0.003120 0.000000
# 3 -0.001743 -0.001277 0.029750 0.000000 0.012183 0.000000
# 4 0.000000 0.000000 0.000000 -0.855940 0.000000 -0.971708
# 5 0.000115 0.003120 0.012183 0.000000 0.071118 0.000000
# 6 0.000000 0.000000 0.000000 -0.971708 0.000000 -0.924527
#
#
# Mechanical properties :
#
#
# Convention : Reuss Voigt Hill
#
# Bulk Modulus (GPa) = 20.11972 23.88920 22.00446
# Shear Modulus (GPa) = -3.05936 18.69819 7.81942
#
# Velocity S-wave (km/s) = -1.16664 2.88417 1.86512
# Velocity P-wave (km/s) = 2.67135 4.66036 3.79836
#
# Compressibility (1/GPa) = 0.04970248
#
# Stress axis : x y z
#
# Youngs Moduli (GPa) = 85.98858 78.76120 33.61336
#
# Poissons Ratio (x) = -0.06564 0.05859
# Poissons Ratio (y) = -0.07167 0.04294
# Poissons Ratio (z) = 0.14987 0.10061
#
# Static dielectric constant tensor:
#      x y z
#    x 1.852070 0.000000 0.023890 
#    y 0.000000 1.813130 0.000000 
#    z 0.023890 0.000000 1.844980 
# 
# From -- ./inp_files/225202.got.cif
#   From: 2010.05.17/outbox.cif.g08.bks.cpg/sg12_113_cif.got.tgz:225202.got - 2010.06.03 13:09:07.
