data_PCOD9175144
_publ_section_title
;
Structure prediction by ZEFSAII (Michael W. Deem and Ramdas Pophale) SiO2 
 PCOD9175144
Probable space group: C 2/M
;
_chemical_formula_sum "Si O2"
_cell_formula_units_Z 56
_cell_length_a 12.885158
_cell_length_b 21.967928
_cell_length_c 11.122421
_cell_angle_alpha 90.000000
_cell_angle_beta 93.671211
_cell_angle_gamma 90.000000
_cell_volume 3141.854369
_symmetry_space_group_name_H-M "C 2/M"
_symmetry_group_IT_number 12
_symmetry_cell_setting 'monoclinic'
loop_
_space_group_symop_operation_xyz
x,y,z
-x,y,-z
-x,-y,-z
x,-y,z
1/2+x,1/2+y,z
1/2-x,1/2+y,-z
1/2-x,1/2-y,-z
1/2+x,1/2-y,z
loop_
_atom_site_type_symbol
_atom_site_label
_atom_site_fract_x
_atom_site_fract_y
_atom_site_fract_z
Si Si1 0.605177 0.771318 0.084142
Si Si2 0.593175 0.882556 0.245300
Si Si3 0.600799 0.426385 0.577718
Si Si4 0.186316 0.927962 0.837416
Si Si5 0.223644 0.154089 0.056817
Si Si6 0.368085 0.928825 0.228897
Si Si7 0.670435 0.072416 0.494457
O O1 0.592224 0.813112 0.200597
O O2 0.648327 0.703902 0.109576
O O3 0.500000 0.768532 0.000000
O O4 0.689370 0.807565 0.009624
O O5 0.693703 0.915627 0.194117
O O6 0.484874 0.912408 0.197327
O O7 0.607352 0.891515 0.388736
O O8 0.500000 0.402988 0.500000
O O9 0.593365 0.500000 0.580830
O O10 0.617164 0.407695 0.717683
O O11 0.708021 0.412714 0.516670
O O12 0.172733 0.000000 0.856499
O O13 0.167272 0.888273 0.954082
O O14 0.284334 0.111754 0.154223
O O15 0.360936 0.917231 0.371148
O O16 0.347760 0.000000 0.206187
O O17 0.656056 0.000000 0.467653
#
# Coordination Sequence:
#
# PCOD9175144 Si02
#       7
#     8   8   8   8   8   8   8
#     4  10  20  39  56  72 100 144 196 230 261 309
#     4  10  18  32  56  82 106 145 179 222 272 327
#     4   8  14  28  49  70 101 144 181 210 249 314
#     4   9  17  30  51  81 110 134 174 227 277 328
#     4  10  21  35  54  79 105 144 182 226 273 319
#     4  11  20  32  54  86 121 143 168 218 284 342
#     4   9  18  31  50  82 118 143 168 215 282 339
#
# _framework density 17.823868999999998
#
# number of rings (size 3 to 8) (size 9 to 14) (size 15 to 20)
#    0.000    2.429    1.429    3.000    0.000    1.143 
#    2.571    2.857    0.000    0.857    0.000    0.000 
#    0.000    0.000    0.000    0.000    0.000    0.000 
#
# Total GULP energy -156138.541183 kJ/mol
# GULP energy per Si atom -5576.376471 kJ/mol
# Density = 1.778330 g / cm^3
# Si number density = 17.823869 Si / 1000 Ang^3
#
#
#
# Elastic Constant Matrix: (Units=GPa)
#
#
# Indices 1 2 3 4 5 6 
#
# 1 53.5457 35.9279 40.1057 0.0000 27.7873 0.0000
# 2 35.9279 102.8582 68.9679 0.0000 12.8516 0.0000
# 3 40.1057 68.9679 92.8918 0.0000 19.0853 0.0000
# 4 0.0000 0.0000 0.0000 8.6159 0.0000 -6.5999
# 5 27.7873 12.8516 19.0853 0.0000 26.1628 0.0000
# 6 0.0000 0.0000 0.0000 -6.5999 0.0000 16.0840
#
#
#
# Elastic Compliance Matrix: (Units=1/GPa)
#
#
# Indices 1 2 3 4 5 6 
#
# 1 0.055510 -0.007868 -0.008006 0.000000 -0.049251 0.000000
# 2 -0.007868 0.020505 -0.013497 0.000000 0.008130 0.000000
# 3 -0.008006 -0.013497 0.024859 0.000000 -0.003002 0.000000
# 4 0.000000 0.000000 0.000000 0.169270 0.000000 0.069459
# 5 -0.049251 0.008130 -0.003002 0.000000 0.088728 0.000000
# 6 0.000000 0.000000 0.000000 0.069459 0.000000 0.090676
#
#
# Mechanical properties :
#
#
# Convention : Reuss Voigt Hill
#
# Bulk Modulus (GPa) = 23.73460 59.92209 41.82835
# Shear Modulus (GPa) = 9.57245 17.12549 13.34897
#
# Velocity S-wave (km/s) = 2.31997 3.10307 2.73964
# Velocity P-wave (km/s) = 4.53006 6.82134 5.79017
#
# Compressibility (1/GPa) = 0.04213258
#
# Stress axis : x y z
#
# Youngs Moduli (GPa) = 18.01487 48.76974 40.22624
#
# Poissons Ratio (x) = 0.38371 0.32204
# Poissons Ratio (y) = 0.14174 0.54294
# Poissons Ratio (z) = 0.14422 0.65825
#
# Static dielectric constant tensor:
#      x y z
#    x 1.627300 0.000000 -0.006970 
#    y 0.000000 1.592280 0.000000 
#    z -0.006970 0.000000 1.608390 
# 
# From -- ./inp_files/133300.got.cif
#   From: 2010.05.17/outbox.cif.g08.bks.cpg/sg12_67_cif.got.tgz:133300.got - 2010.06.03 13:09:07.
