data_PCOD9175439
_publ_section_title
;
Structure prediction by ZEFSAII (Michael W. Deem and Ramdas Pophale) SiO2 
 PCOD9175439
Probable space group: C 2/M
;
_chemical_formula_sum "Si O2"
_cell_formula_units_Z 56
_cell_length_a 21.185316
_cell_length_b 17.795112
_cell_length_c 13.606595
_cell_angle_alpha 90.000000
_cell_angle_beta 154.736339
_cell_angle_gamma 90.000000
_cell_volume 2189.241352
_symmetry_space_group_name_H-M "C 2/M"
_symmetry_group_IT_number 12
_symmetry_cell_setting 'monoclinic'
loop_
_space_group_symop_operation_xyz
x,y,z
-x,y,-z
-x,-y,-z
x,-y,z
1/2+x,1/2+y,z
1/2-x,1/2+y,-z
1/2-x,1/2-y,-z
1/2+x,1/2-y,z
loop_
_atom_site_type_symbol
_atom_site_label
_atom_site_fract_x
_atom_site_fract_y
_atom_site_fract_z
Si Si1 0.141730 0.087950 0.752967
Si Si2 0.432750 0.589441 0.763197
Si Si3 0.523680 0.189761 0.664188
Si Si4 0.139972 0.371892 0.246169
Si Si5 0.772813 0.782923 0.644453
Si Si6 0.961405 0.583725 0.163517
Si Si7 0.681802 0.317928 0.006423
O O1 0.163084 0.130776 0.883412
O O2 0.000000 0.120908 0.500000
O O3 0.115679 0.000000 0.737245
O O4 0.289173 0.091339 0.894869
O O5 0.456927 0.500000 0.815414
O O6 0.304788 0.595273 0.496152
O O7 0.359390 0.639206 0.747401
O O8 0.579467 0.636911 0.939069
O O9 0.357568 0.210289 0.459912
O O10 0.530150 0.103587 0.710099
O O11 0.610065 0.239427 0.870859
O O12 0.639361 0.194401 0.736007
O O13 0.149391 0.292536 0.204703
O O14 0.072066 0.364967 0.260168
O O15 0.000000 0.414798 0.000000
O O16 0.750000 0.750000 0.500000
O O17 0.013020 0.500000 0.219059
#
# Coordination Sequence:
#
# PCOD9175439 Si02
#       7
#     8   8   8   8   8   8   8
#     4   9  19  31  43  63 100 140 167 198 248 310
#     4  11  21  34  55  81 107 138 175 218 263 310
#     4  10  18  33  52  69  95 134 176 219 258 298
#     4  11  22  33  50  76 109 143 176 215 253 308
#     4  10  18  36  53  72 102 141 179 218 256 305
#     4  10  19  31  46  69 100 134 168 207 258 308
#     4  10  19  31  50  72  97 130 172 222 253 299
#
# _framework density 25.579637000000002
#
# number of rings (size 3 to 8) (size 9 to 14) (size 15 to 20)
#    0.000    1.857    5.714    0.857    2.000    1.714 
#    0.000    0.000    0.000    0.429    0.000    0.000 
#    0.000    1.714    0.000    0.000    0.000    0.000 
#
# Total GULP energy -155949.714473 kJ/mol
# GULP energy per Si atom -5569.632660 kJ/mol
# Density = 2.552142 g / cm^3
# Si number density = 25.579637 Si / 1000 Ang^3
#
#
#
# Elastic Constant Matrix: (Units=GPa)
#
#
# Indices 1 2 3 4 5 6 
#
# 1 119.3544 34.9291 47.8028 0.0000 39.7311 0.0000
# 2 34.9291 143.4495 30.8553 0.0000 32.4180 0.0000
# 3 47.8028 30.8553 147.0124 0.0000 54.6902 0.0000
# 4 0.0000 0.0000 0.0000 15.9217 0.0000 20.1107
# 5 39.7311 32.4180 54.6902 0.0000 40.1285 0.0000
# 6 0.0000 0.0000 0.0000 20.1107 0.0000 17.1022
#
#
#
# Elastic Compliance Matrix: (Units=1/GPa)
#
#
# Indices 1 2 3 4 5 6 
#
# 1 0.012589 -0.000183 0.001069 0.000000 -0.013773 0.000000
# 2 -0.000183 0.008713 0.001586 0.000000 -0.009019 0.000000
# 3 0.001069 0.001586 0.014183 0.000000 -0.021669 0.000000
# 4 0.000000 0.000000 0.000000 -0.129422 0.000000 0.152189
# 5 -0.013773 -0.009019 -0.021669 0.000000 0.075375 0.000000
# 6 0.000000 0.000000 0.000000 0.152189 0.000000 -0.120488
#
#
# Mechanical properties :
#
#
# Convention : Reuss Voigt Hill
#
# Bulk Modulus (GPa) = 24.73513 70.77672 47.75593
# Shear Modulus (GPa) = -38.30848 34.37909 -1.96469
#
# Velocity S-wave (km/s) = -3.87410 3.67004 -0.87735
# Velocity P-wave (km/s) = 3.21259 6.75930 4.20520
#
# Compressibility (1/GPa) = 0.04042833
#
# Stress axis : x y z
#
# Youngs Moduli (GPa) = 79.43697 114.77519 70.50785
#
# Poissons Ratio (x) = 0.02096 -0.07535
# Poissons Ratio (y) = 0.01450 -0.11183
# Poissons Ratio (z) = -0.08489 -0.18204
#
# Static dielectric constant tensor:
#      x y z
#    x 2.156430 0.000000 -0.147000 
#    y 0.000000 2.040840 0.000000 
#    z -0.147000 0.000000 2.225580 
# 
# From -- ./inp_files/328572.got.cif
#   From: 2010.05.17/outbox.cif.g08.bks.cpg/sg12_165_cif.got.tgz:328572.got - 2010.06.03 13:09:07.
