data_PCOD9175786
_publ_section_title
;
Structure prediction by ZEFSAII (Michael W. Deem and Ramdas Pophale) SiO2 
 PCOD9175786
Probable space group: C 2/M
;
_chemical_formula_sum "Si O2"
_cell_formula_units_Z 58
_cell_length_a 10.702502
_cell_length_b 14.867865
_cell_length_c 28.506162
_cell_angle_alpha 90.000000
_cell_angle_beta 36.467994
_cell_angle_gamma 90.000000
_cell_volume 2696.076584
_symmetry_space_group_name_H-M "C 2/M"
_symmetry_group_IT_number 12
_symmetry_cell_setting 'monoclinic'
loop_
_space_group_symop_operation_xyz
x,y,z
-x,y,-z
-x,-y,-z
x,-y,z
1/2+x,1/2+y,z
1/2-x,1/2+y,-z
1/2-x,1/2-y,-z
1/2+x,1/2-y,z
loop_
_atom_site_type_symbol
_atom_site_label
_atom_site_fract_x
_atom_site_fract_y
_atom_site_fract_z
Si Si1 0.815450 0.644801 0.487884
Si Si2 0.051820 0.108052 0.215011
Si Si3 0.220176 0.107128 0.791771
Si Si4 0.546451 0.610108 0.038998
Si Si5 0.500000 0.500000 0.500000
Si Si6 0.718717 0.653239 0.614836
Si Si7 0.510292 0.109520 0.051466
Si Si8 0.189365 0.634348 0.616499
O O1 0.750000 0.750000 0.500000
O O2 0.684505 0.614436 0.573066
O O3 0.824831 0.602094 0.433590
O O4 0.053201 0.630192 0.433902
O O5 0.291379 0.140011 0.139846
O O6 0.909134 0.143036 0.214553
O O7 0.950714 0.129832 0.295246
O O8 0.055654 0.000000 0.209191
O O9 0.468969 0.119378 0.708976
O O10 0.122077 0.139469 0.870570
O O11 0.185050 0.000000 0.802460
O O12 0.544018 0.500000 0.038863
O O13 0.500000 0.640217 0.000000
O O14 0.777151 0.638766 0.987155
O O15 0.393901 0.578049 0.567250
O O16 0.728611 0.760685 0.606800
O O17 0.514836 0.000000 0.051280
O O18 0.500000 0.134940 0.000000
#
# Coordination Sequence:
#
# PCOD9175786 Si02
#       8
#     8   8   8   8   2   8   8   8
#     4   9  18  35  55  76 106 148 192 232 284 351
#     4  10  19  33  57  89 117 149 203 251 297 352
#     4  10  18  33  57  85 113 150 198 252 296 356
#     4   9  17  30  52  82 118 157 194 244 307 358
#     4  12  24  40  60  90 112 150 200 242 290 362
#     4  10  20  36  57  82 115 154 195 241 297 352
#     4   9  15  28  52  84 115 154 200 247 293 352
#     4  11  21  37  59  82 114 153 195 242 296 356
#
# _framework density 21.512741999999999
#
# number of rings (size 3 to 8) (size 9 to 14) (size 15 to 20)
#    0.000    2.207    3.448    1.655    0.000    0.000 
#    1.241    4.828    3.034    1.655    0.000    0.000 
#    0.000    0.000    0.000    0.000    0.000    0.000 
#
# Total GULP energy -161470.044284 kJ/mol
# GULP energy per Si atom -5567.932562 kJ/mol
# Density = 2.146378 g / cm^3
# Si number density = 21.512742 Si / 1000 Ang^3
#
#
#
# Elastic Constant Matrix: (Units=GPa)
#
#
# Indices 1 2 3 4 5 6 
#
# 1 108.4821 -11.6136 71.4972 -0.0002 13.6442 -0.0010
# 2 -11.6136 44.0966 -6.7352 -0.0006 -4.0450 -0.0008
# 3 71.4972 -6.7352 217.0371 -0.0007 7.0664 -0.0010
# 4 -0.0002 -0.0006 -0.0007 8.6954 -0.0009 3.8993
# 5 13.6442 -4.0450 7.0664 -0.0009 35.8359 0.0004
# 6 -0.0010 -0.0008 -0.0010 3.8993 0.0004 4.2934
#
#
#
# Elastic Compliance Matrix: (Units=1/GPa)
#
#
# Indices 1 2 3 4 5 6 
#
# 1 0.012532 0.002358 -0.003934 -0.000003 -0.003730 0.000005
# 2 0.002358 0.023444 -0.000107 0.000000 0.001770 0.000005
# 3 -0.003934 -0.000107 0.005890 0.000000 0.000324 0.000000
# 4 -0.000003 0.000000 0.000000 0.194022 0.000008 -0.176213
# 5 -0.003730 0.001770 0.000324 0.000008 0.029461 -0.000011
# 6 0.000005 0.000005 0.000000 -0.176213 -0.000011 0.392958
#
#
# Mechanical properties :
#
#
# Convention : Reuss Voigt Hill
#
# Bulk Modulus (GPa) = 25.97379 52.87917 39.42648
# Shear Modulus (GPa) = 7.41283 30.86277 19.13780
#
# Velocity S-wave (km/s) = 1.85830 3.79176 2.98586
# Velocity P-wave (km/s) = 4.08708 6.61843 5.50036
#
# Compressibility (1/GPa) = 0.03850035
#
# Stress axis : x y z
#
# Youngs Moduli (GPa) = 79.79398 42.65405 169.79285
#
# Poissons Ratio (x) = -0.10056 0.66794
# Poissons Ratio (y) = -0.18812 0.01812
# Poissons Ratio (z) = 0.31390 0.00455
#
# Static dielectric constant tensor:
#      x y z
#    x 1.860940 0.000000 -0.035150 
#    y 0.000000 1.825340 0.000000 
#    z -0.035150 0.000000 1.794240 
# 
# From -- ./inp_files/374354.got.cif
#   From: 2010.05.17/outbox.cif.g08.bks.cpg/sg12_188_cif.got.tgz:374354.got - 2010.06.03 13:09:07.
