data_PCOD9175706
_publ_section_title
;
Structure prediction by ZEFSAII (Michael W. Deem and Ramdas Pophale) SiO2 
 PCOD9175706
Probable space group: C 2/M
;
_chemical_formula_sum "Si O2"
_cell_formula_units_Z 48
_cell_length_a 17.401095
_cell_length_b 17.067850
_cell_length_c 9.179075
_cell_angle_alpha 90.000000
_cell_angle_beta 99.886316
_cell_angle_gamma 90.000000
_cell_volume 2685.695888
_symmetry_space_group_name_H-M "C 2/M"
_symmetry_group_IT_number 12
_symmetry_cell_setting 'monoclinic'
loop_
_space_group_symop_operation_xyz
x,y,z
-x,y,-z
-x,-y,-z
x,-y,z
1/2+x,1/2+y,z
1/2-x,1/2+y,-z
1/2-x,1/2-y,-z
1/2+x,1/2-y,z
loop_
_atom_site_type_symbol
_atom_site_label
_atom_site_fract_x
_atom_site_fract_y
_atom_site_fract_z
Si Si1 0.795851 0.227243 0.161053
Si Si2 0.541684 0.913691 0.670037
Si Si3 0.577301 0.705365 0.434132
Si Si4 0.804099 0.092269 0.385002
Si Si5 0.311946 0.841023 0.415937
Si Si6 0.479796 0.241241 0.161458
O O1 0.785221 0.142180 0.232691
O O2 0.770024 0.288202 0.279697
O O3 0.889455 0.235820 0.163601
O O4 0.750000 0.250000 0.000000
O O5 0.500000 0.911271 0.500000
O O6 0.631065 0.896686 0.657016
O O7 0.511770 0.844530 0.762736
O O8 0.530927 0.000000 0.730224
O O9 0.500000 0.724632 0.500000
O O10 0.617798 0.629808 0.517957
O O11 0.637007 0.776663 0.479532
O O12 0.542826 0.702776 0.261381
O O13 0.739879 0.112483 0.487073
O O14 0.809569 0.000000 0.361122
O O15 0.500000 0.238443 0.000000
#
# Coordination Sequence:
#
# PCOD9175706 Si02
#       6
#     8   8   8   8   8   8
#     4  10  22  39  61  86 118 160 196 239 296 367
#     4  10  18  33  56  83 116 146 185 248 301 342
#     4  11  18  40  62  86 112 157 209 245 282 353
#     4  11  24  39  63  94 120 154 201 257 303 343
#     4  10  19  37  62  85 115 155 204 237 290 362
#     4  11  22  35  58  84 114 154 207 240 291 362
#
# _framework density 17.872464000000001
#
# number of rings (size 3 to 8) (size 9 to 14) (size 15 to 20)
#    0.000    1.500    6.667    2.500    4.667    0.667 
#    0.000    4.167    0.000    1.000    0.000    0.000 
#    0.000    0.000    0.000    0.000    0.000    0.000 
#
# Total GULP energy -133804.122025 kJ/mol
# GULP energy per Si atom -5575.171751 kJ/mol
# Density = 1.783179 g / cm^3
# Si number density = 17.872464 Si / 1000 Ang^3
#
#
#
# Elastic Constant Matrix: (Units=GPa)
#
#
# Indices 1 2 3 4 5 6 
#
# 1 37.8182 22.9470 30.7107 0.0000 6.4256 0.0000
# 2 22.9470 128.3105 48.9945 0.0000 7.7912 0.0000
# 3 30.7107 48.9945 136.4584 0.0000 10.5073 0.0000
# 4 0.0000 0.0000 0.0000 14.1104 0.0000 0.3922
# 5 6.4256 7.7912 10.5073 0.0000 33.9930 0.0000
# 6 0.0000 0.0000 0.0000 0.3922 0.0000 18.2688
#
#
#
# Elastic Compliance Matrix: (Units=1/GPa)
#
#
# Indices 1 2 3 4 5 6 
#
# 1 0.034218 -0.003548 -0.006138 0.000000 -0.003758 0.000000
# 2 -0.003548 0.009440 -0.002536 0.000000 -0.000709 0.000000
# 3 -0.006138 -0.002536 0.009717 0.000000 -0.001262 0.000000
# 4 0.000000 0.000000 0.000000 0.070912 0.000000 -0.001522
# 5 -0.003758 -0.000709 -0.001262 0.000000 0.030681 0.000000
# 6 0.000000 0.000000 0.000000 -0.001522 0.000000 0.054771
#
#
# Mechanical properties :
#
#
# Convention : Reuss Voigt Hill
#
# Bulk Modulus (GPa) = 34.56456 56.43237 45.49847
# Shear Modulus (GPa) = 20.50650 26.60342 23.55496
#
# Velocity S-wave (km/s) = 3.39097 3.86231 3.63429
# Velocity P-wave (km/s) = 5.89179 7.17869 6.56684
#
# Compressibility (1/GPa) = 0.02893136
#
# Stress axis : x y z
#
# Youngs Moduli (GPa) = 29.22470 105.93743 102.90854
#
# Poissons Ratio (x) = 0.37583 0.63163
# Poissons Ratio (y) = 0.10368 0.26100
# Poissons Ratio (z) = 0.17937 0.26868
#
# Static dielectric constant tensor:
#      x y z
#    x 1.652260 0.000000 0.021610 
#    y 0.000000 1.620370 0.000000 
#    z 0.021610 0.000000 1.637980 
# 
# From -- ./inp_files/74505.got.cif
#   From: 2010.05.17/outbox.cif.g08.bks.cpg/sg12_38_cif.got.tgz:74505.got - 2010.06.03 13:09:07.
