data_PCOD9175281
_publ_section_title
;
Structure prediction by ZEFSAII (Michael W. Deem and Ramdas Pophale) SiO2 
 PCOD9175281
Probable space group: C 2/M
;
_chemical_formula_sum "Si O2"
_cell_formula_units_Z 48
_cell_length_a 18.830367
_cell_length_b 13.809960
_cell_length_c 11.216968
_cell_angle_alpha 90.000000
_cell_angle_beta 47.934905
_cell_angle_gamma 90.000000
_cell_volume 2165.485931
_symmetry_space_group_name_H-M "C 2/M"
_symmetry_group_IT_number 12
_symmetry_cell_setting 'monoclinic'
loop_
_space_group_symop_operation_xyz
x,y,z
-x,y,-z
-x,-y,-z
x,-y,z
1/2+x,1/2+y,z
1/2-x,1/2+y,-z
1/2-x,1/2-y,-z
1/2+x,1/2-y,z
loop_
_atom_site_type_symbol
_atom_site_label
_atom_site_fract_x
_atom_site_fract_y
_atom_site_fract_z
Si Si1 0.268235 0.388828 0.347630
Si Si2 0.911145 0.387544 0.275250
Si Si3 0.978934 0.103343 0.162679
Si Si4 0.109153 0.111157 0.330716
Si Si5 0.590864 0.228400 0.154431
Si Si6 0.791760 0.306381 0.195478
O O1 0.271273 0.500000 0.298126
O O2 0.179965 0.378825 0.535364
O O3 0.368062 0.373136 0.304578
O O4 0.266470 0.305067 0.251969
O O5 0.929103 0.500000 0.228652
O O6 0.877864 0.336601 0.188958
O O7 0.001246 0.344771 0.246892
O O8 0.049825 0.182712 0.125556
O O9 0.996533 0.000000 0.201378
O O10 0.000000 0.095378 0.000000
O O11 0.115790 0.211376 0.245014
O O12 0.197254 0.129119 0.322633
O O13 0.000000 0.112397 0.500000
O O14 0.124949 0.000000 0.266781
O O15 0.673910 0.182550 0.980008
#
# Coordination Sequence:
#
# PCOD9175281 Si02
#       6
#     8   8   8   8   8   8
#     4  10  21  36  61  96 127 163 208 257 311 362
#     4  11  24  40  64  96 131 168 208 257 314 376
#     4  10  18  32  57  93 127 155 198 257 313 362
#     4  11  27  46  66  92 125 167 212 261 318 376
#     4  12  23  41  63  93 124 167 209 257 314 375
#     4  12  23  42  65  94 129 167 209 260 314 375
#
# _framework density 22.165925000000001
#
# number of rings (size 3 to 8) (size 9 to 14) (size 15 to 20)
#    0.000    1.000    3.333    3.500    2.333    2.667 
#    0.000    0.833    0.000    3.000    0.000    0.000 
#    0.000    0.000    0.000    0.000    0.000    0.000 
#
# Total GULP energy -133843.790013 kJ/mol
# GULP energy per Si atom -5576.824584 kJ/mol
# Density = 2.211547 g / cm^3
# Si number density = 22.165925 Si / 1000 Ang^3
#
#
#
# Elastic Constant Matrix: (Units=GPa)
#
#
# Indices 1 2 3 4 5 6 
#
# 1 70.4130 28.0590 21.8905 0.0000 -16.3104 0.0000
# 2 28.0590 81.5363 4.6975 0.0000 3.7079 0.0000
# 3 21.8905 4.6975 67.4712 0.0000 -18.3909 0.0000
# 4 0.0000 0.0000 0.0000 19.8493 0.0000 -2.6740
# 5 -16.3104 3.7079 -18.3909 0.0000 31.1986 0.0000
# 6 0.0000 0.0000 0.0000 -2.6740 0.0000 51.2725
#
#
#
# Elastic Compliance Matrix: (Units=1/GPa)
#
#
# Indices 1 2 3 4 5 6 
#
# 1 0.020366 -0.007233 -0.003536 0.000000 0.009423 0.000000
# 2 -0.007233 0.015029 -0.000259 0.000000 -0.005720 0.000000
# 3 -0.003536 -0.000259 0.018456 0.000000 0.009062 0.000000
# 4 0.000000 0.000000 0.000000 0.050736 0.000000 0.002646
# 5 0.009423 -0.005720 0.009062 0.000000 0.043001 0.000000
# 6 0.000000 0.000000 0.000000 0.002646 0.000000 0.019642
#
#
# Mechanical properties :
#
#
# Convention : Reuss Voigt Hill
#
# Bulk Modulus (GPa) = 31.45068 36.52383 33.98726
# Shear Modulus (GPa) = 25.01451 31.44896 28.23173
#
# Velocity S-wave (km/s) = 3.36298 3.77078 3.57270
# Velocity P-wave (km/s) = 5.41286 5.95580 5.69081
#
# Compressibility (1/GPa) = 0.03179581
#
# Stress axis : x y z
#
# Youngs Moduli (GPa) = 49.10072 66.53912 54.18201
#
# Poissons Ratio (x) = 0.48131 0.19157
# Poissons Ratio (y) = 0.35517 0.01402
# Poissons Ratio (z) = 0.17360 0.01721
#
# Static dielectric constant tensor:
#      x y z
#    x 1.935680 0.000000 0.037370 
#    y 0.000000 1.819360 0.000000 
#    z 0.037370 0.000000 1.871970 
# 
# From -- ./inp_files/167527.got.cif
#   From: 2010.05.17/outbox.cif.g08.bks.cpg/sg12_84_cif.got.tgz:167527.got - 2010.06.03 13:09:07.
