data_PCOD9175201
_publ_section_title
;
Structure prediction by ZEFSAII (Michael W. Deem and Ramdas Pophale) SiO2 
 PCOD9175201
Probable space group: C 2/M
;
_chemical_formula_sum "Si O2"
_cell_formula_units_Z 60
_cell_length_a 14.289808
_cell_length_b 9.542043
_cell_length_c 23.478282
_cell_angle_alpha 90.000000
_cell_angle_beta 76.064549
_cell_angle_gamma 90.000000
_cell_volume 3107.133353
_symmetry_space_group_name_H-M "C 2/M"
_symmetry_group_IT_number 12
_symmetry_cell_setting 'monoclinic'
loop_
_space_group_symop_operation_xyz
x,y,z
-x,y,-z
-x,-y,-z
x,-y,z
1/2+x,1/2+y,z
1/2-x,1/2+y,-z
1/2-x,1/2-y,-z
1/2+x,1/2-y,z
loop_
_atom_site_type_symbol
_atom_site_label
_atom_site_fract_x
_atom_site_fract_y
_atom_site_fract_z
Si Si1 0.321304 0.840051 0.603016
Si Si2 0.631139 0.665122 0.872199
Si Si3 0.888277 0.165928 0.406349
Si Si4 0.165828 0.659945 0.202739
Si Si5 0.500000 0.227047 0.500000
Si Si6 0.541310 0.157230 0.111944
Si Si7 0.336133 0.165299 0.016736
Si Si8 0.924369 0.831295 0.685627
O O1 0.221939 0.786239 0.588048
O O2 0.412545 0.845918 0.546762
O O3 0.354011 0.737013 0.648582
O O4 0.305794 0.000000 0.626294
O O5 0.628490 0.500000 0.886332
O O6 0.720673 0.688732 0.817107
O O7 0.532628 0.722416 0.860868
O O8 0.643169 0.757928 0.927198
O O9 0.939327 0.195321 0.459366
O O10 0.966838 0.213913 0.347991
O O11 0.882327 0.000000 0.402525
O O12 0.149929 0.500000 0.225419
O O13 0.129801 0.664182 0.142734
O O14 0.108387 0.767197 0.249929
O O15 0.498829 0.000000 0.123583
O O16 0.578157 0.173108 0.042119
O O17 0.314338 0.000000 0.028050
O O18 0.250000 0.250000 0.000000
O O19 0.918979 0.000000 0.685347
#
# Coordination Sequence:
#
# PCOD9175201 Si02
#       8
#     8   8   8   8   4   8   8   8
#     4  10  20  36  57  84 118 154 188 229 282 334
#     4  11  23  39  59  87 116 149 192 235 288 353
#     4   9  19  35  56  82 117 154 187 230 283 332
#     4  10  22  42  61  80 114 151 186 237 295 343
#     4  10  18  32  56  90 119 150 191 232 271 332
#     4  10  22  40  59  84 117 152 188 233 292 348
#     4  11  21  37  60  85 118 154 189 234 289 349
#     4  10  22  39  58  82 109 145 196 240 280 335
#
# _framework density 19.310403999999998
#
# number of rings (size 3 to 8) (size 9 to 14) (size 15 to 20)
#    0.000    1.867    1.333    2.400    0.000    5.867 
#    0.000    8.000    0.000    0.000    0.000    0.000 
#    0.000    0.000    0.000    0.000    0.000    0.000 
#
# Total GULP energy -167235.537722 kJ/mol
# GULP energy per Si atom -5574.517924 kJ/mol
# Density = 1.926645 g / cm^3
# Si number density = 19.310404 Si / 1000 Ang^3
#
#
#
# Elastic Constant Matrix: (Units=GPa)
#
#
# Indices 1 2 3 4 5 6 
#
# 1 107.6022 31.3319 14.7673 0.0000 -12.0049 0.0000
# 2 31.3319 76.6017 34.5230 0.0000 -18.6582 0.0000
# 3 14.7673 34.5230 72.9775 0.0000 -9.5260 0.0000
# 4 0.0000 0.0000 0.0000 11.4724 0.0000 -2.3266
# 5 -12.0049 -18.6582 -9.5260 0.0000 16.8218 0.0000
# 6 0.0000 0.0000 0.0000 -2.3266 0.0000 30.0371
#
#
#
# Elastic Compliance Matrix: (Units=1/GPa)
#
#
# Indices 1 2 3 4 5 6 
#
# 1 0.010726 -0.003437 -0.000047 0.000000 0.003817 0.000000
# 2 -0.003437 0.022192 -0.007461 0.000000 0.017937 0.000000
# 3 -0.000047 -0.007461 0.017447 0.000000 0.001571 0.000000
# 4 0.000000 0.000000 0.000000 0.088557 0.000000 0.006859
# 5 0.003817 0.017937 0.001571 0.000000 0.082955 0.000000
# 6 0.000000 0.000000 0.000000 0.006859 0.000000 0.033824
#
#
# Mechanical properties :
#
#
# Convention : Reuss Voigt Hill
#
# Bulk Modulus (GPa) = 35.11739 46.49176 40.80458
# Shear Modulus (GPa) = 17.41664 23.43686 20.42675
#
# Velocity S-wave (km/s) = 3.00647 3.48759 3.25593
# Velocity P-wave (km/s) = 5.50246 6.35185 5.94235
#
# Compressibility (1/GPa) = 0.02847592
#
# Stress axis : x y z
#
# Youngs Moduli (GPa) = 93.22786 45.06159 57.31627
#
# Poissons Ratio (x) = 0.15487 0.00267
# Poissons Ratio (y) = 0.32040 0.42766
# Poissons Ratio (z) = 0.00434 0.33622
#
# Static dielectric constant tensor:
#      x y z
#    x 1.713600 0.000000 0.000610 
#    y 0.000000 1.657140 0.000000 
#    z 0.000610 0.000000 1.678300 
# 
# From -- ./inp_files/338632.got.cif
#   From: 2010.05.17/outbox.cif.g08.bks.cpg/sg12_170_cif.got.tgz:338632.got - 2010.06.03 13:09:07.
