data_PCOD9175035
_publ_section_title
;
Structure prediction by ZEFSAII (Michael W. Deem and Ramdas Pophale) SiO2 
 PCOD9175035
Probable space group: C 2/M
;
_chemical_formula_sum "Si O2"
_cell_formula_units_Z 44
_cell_length_a 17.913004
_cell_length_b 14.314924
_cell_length_c 19.418258
_cell_angle_alpha 90.000000
_cell_angle_beta 33.731100
_cell_angle_gamma 90.000000
_cell_volume 2764.981472
_symmetry_space_group_name_H-M "C 2/M"
_symmetry_group_IT_number 12
_symmetry_cell_setting 'monoclinic'
loop_
_space_group_symop_operation_xyz
x,y,z
-x,y,-z
-x,-y,-z
x,-y,z
1/2+x,1/2+y,z
1/2-x,1/2+y,-z
1/2-x,1/2-y,-z
1/2+x,1/2-y,z
loop_
_atom_site_type_symbol
_atom_site_label
_atom_site_fract_x
_atom_site_fract_y
_atom_site_fract_z
Si Si1 0.262783 0.500000 0.507736
Si Si2 0.852994 0.000000 0.029439
Si Si3 0.947248 0.500000 0.716673
Si Si4 0.684267 0.295077 0.748005
Si Si5 0.799978 0.202725 0.531864
Si Si6 0.047602 0.673522 0.389510
Si Si7 0.875421 0.000000 0.264051
Si Si8 0.500000 0.657281 0.000000
O O1 0.308526 0.593462 0.511098
O O2 0.327836 0.500000 0.380401
O O3 0.098630 0.500000 0.631364
O O4 0.889481 0.911845 0.050636
O O5 0.694720 0.000000 0.132500
O O6 0.965429 0.000000 0.881481
O O7 0.941669 0.591528 0.673254
O O8 0.697897 0.230641 0.671183
O O9 0.811179 0.280625 0.700168
O O10 0.681446 0.404015 0.725220
O O11 0.556238 0.283430 0.894147
O O12 0.750000 0.250000 0.500000
O O13 0.938789 0.251541 0.447720
O O14 0.000000 0.634029 0.500000
#
# Coordination Sequence:
#
# PCOD9175035 Si02
#       8
#     4   4   4   8   8   8   4   4
#     4  12  22  36  56  72 110 146 176 216 263 316
#     4   9  18  27  48  86 116 132 161 207 283 331
#     4  12  17  29  54  81 111 133 166 227 267 313
#     4  10  18  32  55  79 106 136 175 217 261 317
#     4  11  21  35  50  79 105 139 177 219 263 319
#     4  10  19  30  49  78 106 131 176 220 262 305
#     4  10  18  32  56  83 115 140 159 216 279 330
#     4   9  16  30  50  77 114 140 162 209 272 335
#
# _framework density 15.913307
#
# number of rings (size 3 to 8) (size 9 to 14) (size 15 to 20)
#    0.000    1.636    5.455    2.455    0.000    0.000 
#    0.000    4.091    4.000    4.909    0.000    0.000 
#    0.000    0.000    0.000    0.000    0.000    0.000 
#
# Total GULP energy -122519.485437 kJ/mol
# GULP energy per Si atom -5569.067520 kJ/mol
# Density = 1.587709 g / cm^3
# Si number density = 15.913307 Si / 1000 Ang^3
#
#
#
# Elastic Constant Matrix: (Units=GPa)
#
#
# Indices 1 2 3 4 5 6 
#
# 1 59.9956 31.5090 43.8455 0.0000 2.0255 0.0000
# 2 31.5090 87.5931 44.9574 0.0000 11.4338 0.0000
# 3 43.8455 44.9574 116.1305 -0.0001 3.5076 -0.0001
# 4 0.0000 0.0000 -0.0001 19.4977 0.0001 -0.8517
# 5 2.0255 11.4338 3.5076 0.0001 24.6193 0.0001
# 6 0.0000 0.0000 -0.0001 -0.8517 0.0001 83.0829
#
#
#
# Elastic Compliance Matrix: (Units=1/GPa)
#
#
# Indices 1 2 3 4 5 6 
#
# 1 0.024784 -0.005346 -0.007333 0.000000 0.001489 0.000000
# 2 -0.005346 0.016294 -0.004092 0.000000 -0.006544 0.000000
# 3 -0.007333 -0.004092 0.012944 0.000000 0.000659 0.000000
# 4 0.000000 0.000000 0.000000 0.051311 0.000000 0.000526
# 5 0.001489 -0.006544 0.000659 0.000000 0.043442 0.000000
# 6 0.000000 0.000000 0.000000 0.000526 0.000000 0.012042
#
#
# Mechanical properties :
#
#
# Convention : Reuss Voigt Hill
#
# Bulk Modulus (GPa) = 48.82667 56.03809 52.43238
# Shear Modulus (GPa) = 24.85290 35.00047 29.92669
#
# Velocity S-wave (km/s) = 3.95621 4.69491 4.34130
# Velocity P-wave (km/s) = 7.18459 8.04243 7.62558
#
# Compressibility (1/GPa) = 0.02048061
#
# Stress axis : x y z
#
# Youngs Moduli (GPa) = 40.34833 61.37276 77.25847
#
# Poissons Ratio (x) = 0.32811 0.56651
# Poissons Ratio (y) = 0.21571 0.31612
# Poissons Ratio (z) = 0.29586 0.25112
#
# Static dielectric constant tensor:
#      x y z
#    x 1.523930 0.000000 -0.020880 
#    y 0.000000 1.509520 0.000000 
#    z -0.020880 0.000000 1.595680 
# 
# From -- ./inp_files/176021.got.cif
#   From: 2010.05.17/outbox.cif.g08.bks.cpg/sg12_89_cif.got.tgz:176021.got - 2010.06.03 13:09:07.
