data_PCOD9175488
_publ_section_title
;
Structure prediction by ZEFSAII (Michael W. Deem and Ramdas Pophale) SiO2 
 PCOD9175488
Probable space group: C 2/M
;
_chemical_formula_sum "Si O2"
_cell_formula_units_Z 52
_cell_length_a 25.322860
_cell_length_b 18.106530
_cell_length_c 6.329365
_cell_angle_alpha 90.000000
_cell_angle_beta 84.614056
_cell_angle_gamma 90.000000
_cell_volume 2889.259020
_symmetry_space_group_name_H-M "C 2/M"
_symmetry_group_IT_number 12
_symmetry_cell_setting 'monoclinic'
loop_
_space_group_symop_operation_xyz
x,y,z
-x,y,-z
-x,-y,-z
x,-y,z
1/2+x,1/2+y,z
1/2-x,1/2+y,-z
1/2-x,1/2-y,-z
1/2+x,1/2-y,z
loop_
_atom_site_type_symbol
_atom_site_label
_atom_site_fract_x
_atom_site_fract_y
_atom_site_fract_z
Si Si1 0.722283 0.173526 0.552968
Si Si2 0.549654 0.224707 0.609056
Si Si3 0.795910 0.086402 0.815270
Si Si4 0.399812 0.311671 0.799744
Si Si5 0.872376 0.671646 0.103048
Si Si6 0.195814 0.584434 0.163881
Si Si7 0.500000 0.323459 0.000000
O O1 0.750000 0.250000 0.500000
O O2 0.764143 0.113265 0.620286
O O3 0.680833 0.190674 0.751710
O O4 0.694593 0.140922 0.357172
O O5 0.500000 0.192000 0.500000
O O6 0.582493 0.277557 0.434595
O O7 0.584327 0.166334 0.727389
O O8 0.524314 0.275722 0.800147
O O9 0.847495 0.137953 0.815075
O O10 0.809850 0.000000 0.799161
O O11 0.751795 0.095260 0.018030
O O12 0.448187 0.355956 0.898648
O O13 0.388444 0.238898 0.944950
O O14 0.853750 0.602513 0.970674
O O15 0.193658 0.500000 0.236178
#
# Coordination Sequence:
#
# PCOD9175488 Si02
#       7
#     8   8   8   8   8   8   4
#     4  11  20  32  51  74 100 132 171 211 250 295
#     4   9  17  31  53  78 102 127 162 214 261 294
#     4  10  21  34  49  73 105 138 172 208 248 299
#     4  10  18  33  53  76 102 131 169 212 256 294
#     4  10  19  31  51  77  99 128 170 209 248 300
#     4  10  21  35  49  71 106 141 169 203 250 300
#     4   8  18  32  51  76 101 128 166 212 254 302
#
# _framework density 17.997693999999999
#
# number of rings (size 3 to 8) (size 9 to 14) (size 15 to 20)
#    0.000    2.154    0.000    4.154    0.000    4.308 
#    0.000    0.385    0.000    4.615    0.000   25.846 
#    0.000    0.000    0.000    0.000    0.000    0.000 
#
# Total GULP energy -144735.936847 kJ/mol
# GULP energy per Si atom -5566.766802 kJ/mol
# Density = 1.795673 g / cm^3
# Si number density = 17.997694 Si / 1000 Ang^3
#
#
#
# Elastic Constant Matrix: (Units=GPa)
#
#
# Indices 1 2 3 4 5 6 
#
# 1 90.4038 13.3177 22.7732 0.0000 12.3160 0.0000
# 2 13.3177 50.7950 31.1810 0.0000 -9.7771 0.0000
# 3 22.7732 31.1810 91.5978 0.0000 4.0422 0.0000
# 4 0.0000 0.0000 0.0000 13.0487 0.0000 2.5450
# 5 12.3160 -9.7771 4.0422 0.0000 25.1390 0.0000
# 6 0.0000 0.0000 0.0000 2.5450 0.0000 9.8133
#
#
#
# Elastic Compliance Matrix: (Units=1/GPa)
#
#
# Indices 1 2 3 4 5 6 
#
# 1 0.013087 -0.003949 -0.001570 0.000000 -0.007695 0.000000
# 2 -0.003949 0.029603 -0.009758 0.000000 0.015017 0.000000
# 3 -0.001570 -0.009758 0.014868 0.000000 -0.005417 0.000000
# 4 0.000000 0.000000 0.000000 0.080719 0.000000 -0.020934
# 5 -0.007695 0.015017 -0.005417 0.000000 0.050260 0.000000
# 6 0.000000 0.000000 0.000000 -0.020934 0.000000 0.107332
#
#
# Mechanical properties :
#
#
# Convention : Reuss Voigt Hill
#
# Bulk Modulus (GPa) = 37.03040 40.81559 38.92300
# Shear Modulus (GPa) = 14.90649 20.63517 17.77083
#
# Velocity S-wave (km/s) = 2.88105 3.38974 3.14569
# Velocity P-wave (km/s) = 5.62912 6.16830 5.90487
#
# Compressibility (1/GPa) = 0.02700484
#
# Stress axis : x y z
#
# Youngs Moduli (GPa) = 76.41219 33.78058 67.25647
#
# Poissons Ratio (x) = 0.13338 0.10559
# Poissons Ratio (y) = 0.30172 0.65630
# Poissons Ratio (z) = 0.11997 0.32964
#
# Static dielectric constant tensor:
#      x y z
#    x 1.670240 0.000000 0.033330 
#    y 0.000000 1.574180 0.000000 
#    z 0.033330 0.000000 1.640790 
# 
# From -- ./inp_files/28503.got.cif
#   From: 2010.05.17/outbox.cif.g08.bks.cpg/sg12_15_cif.got.tgz:28503.got - 2010.06.03 13:09:07.
