data_PCOD9175464
_publ_section_title
;
Structure prediction by ZEFSAII (Michael W. Deem and Ramdas Pophale) SiO2 
 PCOD9175464
Probable space group: C 2/M
;
_chemical_formula_sum "Si O2"
_cell_formula_units_Z 56
_cell_length_a 7.894763
_cell_length_b 26.176653
_cell_length_c 13.829219
_cell_angle_alpha 90.000000
_cell_angle_beta 67.340706
_cell_angle_gamma 90.000000
_cell_volume 2637.327798
_symmetry_space_group_name_H-M "C 2/M"
_symmetry_group_IT_number 12
_symmetry_cell_setting 'monoclinic'
loop_
_space_group_symop_operation_xyz
x,y,z
-x,y,-z
-x,-y,-z
x,-y,z
1/2+x,1/2+y,z
1/2-x,1/2+y,-z
1/2-x,1/2-y,-z
1/2+x,1/2-y,z
loop_
_atom_site_type_symbol
_atom_site_label
_atom_site_fract_x
_atom_site_fract_y
_atom_site_fract_z
Si Si1 0.655023 0.404592 0.709468
Si Si2 0.688782 0.301686 0.406032
Si Si3 0.215657 0.790902 0.740498
Si Si4 0.685323 0.099558 0.518241
Si Si5 0.260108 0.631669 0.794547
Si Si6 0.008773 0.557349 0.741577
Si Si7 0.675645 0.272443 0.114229
O O1 0.740170 0.347317 0.696755
O O2 0.664202 0.418229 0.593122
O O3 0.440235 0.401105 0.786211
O O4 0.802464 0.434430 0.743727
O O5 0.500000 0.288938 0.500000
O O6 0.778470 0.249465 0.348598
O O7 0.790407 0.341793 0.453200
O O8 0.664521 0.335926 0.314694
O O9 0.345874 0.769237 0.795215
O O10 0.030026 0.792633 0.844249
O O11 0.500000 0.094443 0.500000
O O12 0.650970 0.066256 0.621146
O O13 0.085440 0.598376 0.801758
O O14 0.209983 0.678041 0.877164
O O15 0.023037 0.500000 0.775493
O O16 0.750000 0.250000 0.000000
#
# Coordination Sequence:
#
# PCOD9175464 Si02
#       7
#     8   8   8   8   8   8   8
#     4  10  20  36  52  78 119 153 197 251 293 348
#     4  10  18  33  52  77 121 164 199 230 289 359
#     4  10  23  33  53  87 116 158 200 234 295 372
#     4   9  19  31  50  73 113 153 201 248 285 338
#     4   9  20  38  56  83 117 156 199 248 296 363
#     4  10  22  37  57  82 115 159 209 256 302 346
#     4  10  21  39  59  84 118 154 195 246 303 363
#
# _framework density 21.233613999999999
#
# number of rings (size 3 to 8) (size 9 to 14) (size 15 to 20)
#    0.000    2.286    1.429    0.429    8.000    5.429 
#    0.000    0.714    0.000    0.000    0.000    2.000 
#    0.000    4.571    0.000    0.000    0.000    0.000 
#
# Total GULP energy -156071.656679 kJ/mol
# GULP energy per Si atom -5573.987739 kJ/mol
# Density = 2.118529 g / cm^3
# Si number density = 21.233614 Si / 1000 Ang^3
#
#
#
# Elastic Constant Matrix: (Units=GPa)
#
#
# Indices 1 2 3 4 5 6 
#
# 1 39.0957 13.5476 8.7244 0.0000 8.7232 0.0000
# 2 13.5476 76.5318 17.1035 0.0000 7.6607 0.0000
# 3 8.7244 17.1035 59.1778 0.0000 5.1028 0.0000
# 4 0.0000 0.0000 0.0000 10.6768 0.0000 -0.5706
# 5 8.7232 7.6607 5.1028 0.0000 19.9224 0.0000
# 6 0.0000 0.0000 0.0000 -0.5706 0.0000 20.6374
#
#
#
# Elastic Compliance Matrix: (Units=1/GPa)
#
#
# Indices 1 2 3 4 5 6 
#
# 1 0.029840 -0.003641 -0.002394 0.000000 -0.011053 0.000000
# 2 -0.003641 0.014807 -0.003466 0.000000 -0.003212 0.000000
# 3 -0.002394 -0.003466 0.018455 0.000000 -0.002346 0.000000
# 4 0.000000 0.000000 0.000000 0.093800 0.000000 0.002593
# 5 -0.011053 -0.003212 -0.002346 0.000000 0.056870 0.000000
# 6 0.000000 0.000000 0.000000 0.002593 0.000000 0.048528
#
#
# Mechanical properties :
#
#
# Convention : Reuss Voigt Hill
#
# Bulk Modulus (GPa) = 22.67519 28.17292 25.42406
# Shear Modulus (GPa) = 16.89182 19.27597 18.08390
#
# Velocity S-wave (km/s) = 2.82356 3.01625 2.92149
# Velocity P-wave (km/s) = 4.61867 5.04254 4.83525
#
# Compressibility (1/GPa) = 0.04410106
#
# Stress axis : x y z
#
# Youngs Moduli (GPa) = 33.51179 67.53561 54.18544
#
# Poissons Ratio (x) = 0.24589 0.12972
# Poissons Ratio (y) = 0.12202 0.18779
# Poissons Ratio (z) = 0.08022 0.23406
#
# Static dielectric constant tensor:
#      x y z
#    x 1.884410 0.000000 0.036180 
#    y 0.000000 1.805950 0.000000 
#    z 0.036180 0.000000 1.804390 
# 
# From -- ./inp_files/198378.got.cif
#   From: 2010.05.17/outbox.cif.g08.bks.cpg/sg12_100_cif.got.tgz:198378.got - 2010.06.03 13:09:07.
