data_PCOD9175606
_publ_section_title
;
Structure prediction by ZEFSAII (Michael W. Deem and Ramdas Pophale) SiO2 
 PCOD9175606
Probable space group: C 2/M
;
_chemical_formula_sum "Si O2"
_cell_formula_units_Z 56
_cell_length_a 19.813395
_cell_length_b 8.763667
_cell_length_c 25.009296
_cell_angle_alpha 90.000000
_cell_angle_beta 132.444268
_cell_angle_gamma 90.000000
_cell_volume 3204.526254
_symmetry_space_group_name_H-M "C 2/M"
_symmetry_group_IT_number 12
_symmetry_cell_setting 'monoclinic'
loop_
_space_group_symop_operation_xyz
x,y,z
-x,y,-z
-x,-y,-z
x,-y,z
1/2+x,1/2+y,z
1/2-x,1/2+y,-z
1/2-x,1/2-y,-z
1/2+x,1/2-y,z
loop_
_atom_site_type_symbol
_atom_site_label
_atom_site_fract_x
_atom_site_fract_y
_atom_site_fract_z
Si Si1 0.692299 0.184196 0.739068
Si Si2 0.949399 0.815694 0.056123
Si Si3 0.807216 0.816133 0.697659
Si Si4 0.638921 0.314968 0.098776
Si Si5 0.187922 0.182906 0.420495
Si Si6 0.477907 0.317350 0.295925
Si Si7 0.009422 0.318622 0.812101
O O1 0.733341 0.223251 0.703004
O O2 0.768662 0.235253 0.823194
O O3 0.596470 0.258452 0.702254
O O4 0.684394 0.000000 0.737762
O O5 0.049602 0.772855 0.085914
O O6 0.937960 0.742413 0.107767
O O7 0.947593 0.000000 0.059997
O O8 0.878668 0.768176 0.971814
O O9 0.780173 0.775905 0.622589
O O10 0.904529 0.738985 0.761529
O O11 0.821970 0.000000 0.707903
O O12 0.639708 0.500000 0.099215
O O13 0.250000 0.250000 0.500000
O O14 0.081356 0.230645 0.366433
O O15 0.190484 0.000000 0.425796
O O16 0.476855 0.500000 0.291796
O O17 0.456769 0.249343 0.226054
O O18 0.012565 0.500000 0.811715
#
# Coordination Sequence:
#
# PCOD9175606 Si02
#       7
#     8   8   8   8   8   8   8
#     4  10  18  33  55  80 106 135 175 219 257 306
#     4   9  15  29  50  73 101 137 177 218 265 310
#     4   9  18  34  56  79 106 139 173 210 256 309
#     4   8  15  27  50  76 100 136 177 214 261 312
#     4   9  19  36  58  81 104 134 170 208 252 305
#     4  10  22  38  54  75 106 141 172 209 262 316
#     4  11  20  31  50  77 103 135 181 225 260 303
#
# _framework density 17.475282
#
# number of rings (size 3 to 8) (size 9 to 14) (size 15 to 20)
#    0.000    2.571    1.429    3.429    0.000    3.429 
#    0.000    3.571    0.000    4.286    0.000    0.000 
#    0.000    0.000    0.000    0.000    0.000    0.000 
#
# Total GULP energy -156134.116507 kJ/mol
# GULP energy per Si atom -5576.218447 kJ/mol
# Density = 1.743551 g / cm^3
# Si number density = 17.475282 Si / 1000 Ang^3
#
#
#
# Elastic Constant Matrix: (Units=GPa)
#
#
# Indices 1 2 3 4 5 6 
#
# 1 111.8724 34.7366 53.6700 0.0000 -8.8412 0.0000
# 2 34.7366 33.8011 28.0906 0.0000 -7.0026 0.0000
# 3 53.6700 28.0906 125.5219 0.0000 -18.1111 0.0000
# 4 0.0000 0.0000 0.0000 23.5439 0.0000 -1.3030
# 5 -8.8412 -7.0026 -18.1111 0.0000 18.2077 0.0000
# 6 0.0000 0.0000 0.0000 -1.3030 0.0000 24.1885
#
#
#
# Elastic Compliance Matrix: (Units=1/GPa)
#
#
# Indices 1 2 3 4 5 6 
#
# 1 0.014278 -0.011927 -0.003616 0.000000 -0.001251 0.000000
# 2 -0.011927 0.047060 -0.004269 0.000000 0.008062 0.000000
# 3 -0.003616 -0.004269 0.011650 0.000000 0.008191 0.000000
# 4 0.000000 0.000000 0.000000 0.042601 0.000000 0.002295
# 5 -0.001251 0.008062 0.008191 0.000000 0.065562 0.000000
# 6 0.000000 0.000000 0.000000 0.002295 0.000000 0.041466
#
#
# Mechanical properties :
#
#
# Convention : Reuss Voigt Hill
#
# Bulk Modulus (GPa) = 29.97265 56.02109 42.99687
# Shear Modulus (GPa) = 18.29079 23.50125 20.89602
#
# Velocity S-wave (km/s) = 3.23873 3.67117 3.46171
# Velocity P-wave (km/s) = 5.58342 7.07792 6.37461
#
# Compressibility (1/GPa) = 0.03336375
#
# Stress axis : x y z
#
# Youngs Moduli (GPa) = 70.03677 21.24959 85.83662
#
# Poissons Ratio (x) = 0.25345 0.31041
# Poissons Ratio (y) = 0.83534 0.36640
# Poissons Ratio (z) = 0.25328 0.09070
#
# Static dielectric constant tensor:
#      x y z
#    x 1.588250 0.000000 -0.011960 
#    y 0.000000 1.589010 0.000000 
#    z -0.011960 0.000000 1.595160 
# 
# From -- ./inp_files/280170.got.cif
#   From: 2010.05.17/outbox.cif.g08.bks.cpg/sg12_141_cif.got.tgz:280170.got - 2010.06.03 13:09:07.
