data_PCOD9175358
_publ_section_title
;
Structure prediction by ZEFSAII (Michael W. Deem and Ramdas Pophale) SiO2 
 PCOD9175358
Probable space group: C 2/M
;
_chemical_formula_sum "Si O2"
_cell_formula_units_Z 40
_cell_length_a 9.079113
_cell_length_b 28.716449
_cell_length_c 13.835165
_cell_angle_alpha 90.000000
_cell_angle_beta 34.971902
_cell_angle_gamma 90.000000
_cell_volume 2067.499801
_symmetry_space_group_name_H-M "C 2/M"
_symmetry_group_IT_number 12
_symmetry_cell_setting 'monoclinic'
loop_
_space_group_symop_operation_xyz
x,y,z
-x,y,-z
-x,-y,-z
x,-y,z
1/2+x,1/2+y,z
1/2-x,1/2+y,-z
1/2-x,1/2-y,-z
1/2+x,1/2-y,z
loop_
_atom_site_type_symbol
_atom_site_label
_atom_site_fract_x
_atom_site_fract_y
_atom_site_fract_z
Si Si1 0.654548 0.500000 0.018931
Si Si2 0.000000 0.833454 0.000000
Si Si3 0.058800 0.305542 0.676527
Si Si4 0.668711 0.901918 0.543811
Si Si5 0.293108 0.000000 0.372658
Si Si6 0.000000 0.259351 0.500000
Si Si7 0.915275 0.904068 0.217043
O O1 0.960096 0.500000 0.832402
O O2 0.500000 0.500000 0.000000
O O3 0.560272 0.452982 0.122746
O O4 0.260392 0.804305 0.863605
O O5 0.982014 0.866089 0.914075
O O6 0.157635 0.358733 0.623184
O O7 0.247930 0.273486 0.637018
O O8 0.050581 0.289968 0.567938
O O9 0.692761 0.952369 0.576009
O O10 0.887079 0.892850 0.345589
O O11 0.382561 0.905464 0.653942
O O12 0.000000 0.000000 0.500000
#
# Coordination Sequence:
#
# PCOD9175358 Si02
#       7
#     4   4   8   8   4   4   8
#     4  12  17  33  55  81 109 149 201 237 262 322
#     4  10  18  33  58  90 112 146 184 241 286 336
#     4  10  21  38  62  85 117 150 193 240 288 346
#     4  10  20  37  58  87 116 152 188 235 282 340
#     4  12  25  37  55  84 120 156 185 226 295 345
#     4  10  22  40  60  86 112 154 192 236 298 348
#     4  10  18  32  60  84 110 148 201 235 270 327
#
# _framework density 19.347038999999999
#
# number of rings (size 3 to 8) (size 9 to 14) (size 15 to 20)
#    0.000    1.600    3.000    4.200    1.400    2.400 
#    0.000    2.000    0.000    0.000    0.000    0.000 
#    0.000    0.000    0.000    0.000    0.000    0.000 
#
# Total GULP energy -111433.448835 kJ/mol
# GULP energy per Si atom -5571.672442 kJ/mol
# Density = 1.930300 g / cm^3
# Si number density = 19.347039 Si / 1000 Ang^3
#
#
#
# Elastic Constant Matrix: (Units=GPa)
#
#
# Indices 1 2 3 4 5 6 
#
# 1 3.4880 5.6931 1.6805 0.0000 -5.4320 0.0000
# 2 5.6931 71.5099 16.1281 0.0000 -10.5092 0.0000
# 3 1.6805 16.1281 111.0939 0.0000 -5.2139 0.0000
# 4 0.0000 0.0000 0.0000 68.4710 0.0000 40.5638
# 5 -5.4320 -10.5092 -5.2139 0.0000 20.2959 0.0000
# 6 0.0000 0.0000 0.0000 40.5638 0.0000 64.9553
#
#
#
# Elastic Compliance Matrix: (Units=1/GPa)
#
#
# Indices 1 2 3 4 5 6 
#
# 1 0.524160 -0.023151 0.001471 0.000000 0.128676 0.000000
# 2 -0.023151 0.016544 -0.001964 0.000000 0.001866 0.000000
# 3 0.001471 -0.001964 0.009348 0.000000 0.001778 0.000000
# 4 0.000000 0.000000 0.000000 0.023181 0.000000 -0.014476
# 5 0.128676 0.001866 0.001778 0.000000 0.085133 0.000000
# 6 0.000000 0.000000 0.000000 -0.014476 0.000000 0.024435
#
#
# Mechanical properties :
#
#
# Convention : Reuss Voigt Hill
#
# Bulk Modulus (GPa) = 1.98901 25.89949 13.94425
# Shear Modulus (GPa) = 5.56993 41.58376 23.57684
#
# Velocity S-wave (km/s) = 1.69859 4.64115 3.49467
# Velocity P-wave (km/s) = 2.20845 6.49124 4.84837
#
# Compressibility (1/GPa) = 0.50276352
#
# Stress axis : x y z
#
# Youngs Moduli (GPa) = 1.90781 60.44340 106.97790
#
# Poissons Ratio (x) = 1.39935 -0.15736
# Poissons Ratio (y) = 0.04417 0.21011
# Poissons Ratio (z) = -0.00281 0.11871
#
# Static dielectric constant tensor:
#      x y z
#    x 2.048700 0.000000 0.073160 
#    y 0.000000 1.644080 0.000000 
#    z 0.073160 0.000000 1.691650 
# 
# From -- ./inp_files/201151.got.cif
#   From: 2010.05.17/outbox.cif.g08.bks.cpg/sg12_101_cif.got.tgz:201151.got - 2010.06.03 13:09:07.
