data_PCOD9175646
_publ_section_title
;
Structure prediction by ZEFSAII (Michael W. Deem and Ramdas Pophale) SiO2 
 PCOD9175646
Probable space group: C 2/M
;
_chemical_formula_sum "Si O2"
_cell_formula_units_Z 32
_cell_length_a 6.968187
_cell_length_b 13.346088
_cell_length_c 12.809257
_cell_angle_alpha 90.000000
_cell_angle_beta 112.204241
_cell_angle_gamma 90.000000
_cell_volume 1102.896826
_symmetry_space_group_name_H-M "C 2/M"
_symmetry_group_IT_number 12
_symmetry_cell_setting 'monoclinic'
loop_
_space_group_symop_operation_xyz
x,y,z
-x,y,-z
-x,-y,-z
x,-y,z
1/2+x,1/2+y,z
1/2-x,1/2+y,-z
1/2-x,1/2-y,-z
1/2+x,1/2-y,z
loop_
_atom_site_type_symbol
_atom_site_label
_atom_site_fract_x
_atom_site_fract_y
_atom_site_fract_z
Si Si1 0.213859 0.387632 0.401309
Si Si2 0.596649 0.845235 0.914531
Si Si3 0.667092 0.362009 0.851196
Si Si4 0.244810 0.158439 0.350242
O O1 0.280340 0.500000 0.382609
O O2 0.268631 0.280645 0.357945
O O3 0.290498 0.372372 0.536820
O O4 0.963364 0.385614 0.358979
O O5 0.655959 0.760015 0.848080
O O6 0.381067 0.896696 0.838876
O O7 0.500000 0.792639 0.000000
O O8 0.783822 0.893978 0.017729
O O9 0.445255 0.384550 0.757550
#
# Coordination Sequence:
#
# PCOD9175646 Si02
#       4
#     8   8   8   8
#     4  10  22  37  52  81 111 134 181 225 253 313
#     4   7  13  22  37  69 102 117 168 219 235 306
#     4   8  13  23  42  70  97 131 170 202 254 312
#     4  10  18  33  56  75 106 149 171 212 274 309
#
# _framework density 29.014502
#
# number of rings (size 3 to 8) (size 9 to 14) (size 15 to 20)
#    1.500    1.500    0.000    3.000    0.000    0.000 
#    0.000   11.250    0.000    0.000    0.000   52.500 
#    0.000    0.000    0.000    0.000    0.000    0.000 
#
# Total GULP energy -89102.511594 kJ/mol
# GULP energy per Si atom -5568.906975 kJ/mol
# Density = 2.894846 g / cm^3
# Si number density = 29.014502 Si / 1000 Ang^3
#
#
#
# Elastic Constant Matrix: (Units=GPa)
#
#
# Indices 1 2 3 4 5 6 
#
# 1 98.5976 42.5191 41.7998 0.0000 14.3510 0.0000
# 2 42.5191 238.8970 48.4070 0.0000 1.6356 0.0000
# 3 41.7998 48.4070 237.0652 0.0000 59.1184 0.0000
# 4 0.0000 0.0000 0.0000 -57.7596 0.0000 18.8538
# 5 14.3510 1.6356 59.1184 0.0000 71.0223 0.0000
# 6 0.0000 0.0000 0.0000 18.8538 0.0000 -18.6942
#
#
#
# Elastic Compliance Matrix: (Units=1/GPa)
#
#
# Indices 1 2 3 4 5 6 
#
# 1 0.011676 -0.001785 -0.001409 0.000000 -0.001146 0.000000
# 2 -0.001785 0.004677 -0.000888 0.000000 0.000992 0.000000
# 3 -0.001409 -0.000888 0.005769 0.000000 -0.004497 0.000000
# 4 0.000000 0.000000 0.000000 -0.025810 0.000000 -0.026030
# 5 -0.001146 0.000992 -0.004497 0.000000 0.018032 0.000000
# 6 0.000000 0.000000 0.000000 -0.026030 0.000000 -0.079745
#
#
# Mechanical properties :
#
#
# Convention : Reuss Voigt Hill
#
# Bulk Modulus (GPa) = 71.63335 93.33461 82.48398
# Shear Modulus (GPa) = -95.08273 28.36932 -33.35670
#
# Velocity S-wave (km/s) = -5.73079 3.13031 -3.39434
# Velocity P-wave (km/s) = 4.36426 6.73077 3.62329
#
# Compressibility (1/GPa) = 0.01395998
#
# Stress axis : x y z
#
# Youngs Moduli (GPa) = 85.64714 213.82977 173.32958
#
# Poissons Ratio (x) = 0.38165 0.24414
# Poissons Ratio (y) = 0.15286 0.15384
# Poissons Ratio (z) = 0.12064 0.18978
#
# Static dielectric constant tensor:
#      x y z
#    x 2.274730 0.000000 0.038230 
#    y 0.000000 2.195100 0.000000 
#    z 0.038230 0.000000 2.566140 
# 
# From -- ./inp_files/202560.got.cif
#   From: 2010.05.17/outbox.cif.g08.bks.cpg/sg12_102_cif.got.tgz:202560.got - 2010.06.03 13:09:07.
