data_PCOD9175783
_publ_section_title
;
Structure prediction by ZEFSAII (Michael W. Deem and Ramdas Pophale) SiO2 
 PCOD9175783
Probable space group: C 2/M
;
_chemical_formula_sum "Si O2"
_cell_formula_units_Z 48
_cell_length_a 20.143039
_cell_length_b 14.572151
_cell_length_c 11.926061
_cell_angle_alpha 90.000000
_cell_angle_beta 53.481412
_cell_angle_gamma 90.000000
_cell_volume 2813.326348
_symmetry_space_group_name_H-M "C 2/M"
_symmetry_group_IT_number 12
_symmetry_cell_setting 'monoclinic'
loop_
_space_group_symop_operation_xyz
x,y,z
-x,y,-z
-x,-y,-z
x,-y,z
1/2+x,1/2+y,z
1/2-x,1/2+y,-z
1/2-x,1/2-y,-z
1/2+x,1/2-y,z
loop_
_atom_site_type_symbol
_atom_site_label
_atom_site_fract_x
_atom_site_fract_y
_atom_site_fract_z
Si Si1 0.872631 0.701257 0.378247
Si Si2 0.764473 0.500000 0.007008
Si Si3 0.728835 0.705357 0.701594
Si Si4 0.428762 0.000000 0.757903
Si Si5 0.458261 0.201433 0.662021
Si Si6 0.623070 0.000000 0.593259
Si Si7 0.210482 0.804524 0.142151
Si Si8 0.762556 0.500000 0.735071
O O1 0.811671 0.721298 0.543869
O O2 0.846524 0.763733 0.301041
O O3 0.851409 0.594503 0.374840
O O4 0.967361 0.708865 0.322772
O O5 0.863757 0.500000 0.924604
O O6 0.764420 0.500000 0.869423
O O7 0.723478 0.410529 0.100555
O O8 0.741474 0.769002 0.796565
O O9 0.722854 0.598182 0.741613
O O10 0.419820 0.901777 0.704766
O O11 0.524596 0.000000 0.691943
O O12 0.500000 0.213358 0.500000
O O13 0.384471 0.272650 0.752843
O O14 0.656974 0.000000 0.430266
O O15 0.250000 0.750000 0.000000
#
# Coordination Sequence:
#
# PCOD9175783 Si02
#       8
#     8   4   8   4   8   4   8   4
#     4   9  19  34  59  87 118 148 190 246 301 339
#     4  12  24  36  56  86 120 159 198 229 290 359
#     4  10  19  36  59  87 116 152 193 241 296 346
#     4  10  19  28  58  90 113 140 194 248 294 336
#     4  11  20  36  61  90 118 150 197 250 293 339
#     4   8  18  30  54  90 113 140 184 255 298 342
#     4  12  23  38  59  85 122 157 192 237 291 355
#     4  10  18  33  57  85 109 148 206 243 275 347
#
# _framework density 17.061654000000001
#
# number of rings (size 3 to 8) (size 9 to 14) (size 15 to 20)
#    0.000    1.667    5.000    0.250    4.667    0.667 
#    0.000    2.917    0.000    3.000    0.000    0.000 
#    0.000    0.000    0.000    0.000    0.000    0.000 
#
# Total GULP energy -133705.727447 kJ/mol
# GULP energy per Si atom -5571.071977 kJ/mol
# Density = 1.702282 g / cm^3
# Si number density = 17.061654 Si / 1000 Ang^3
#
#
#
# Elastic Constant Matrix: (Units=GPa)
#
#
# Indices 1 2 3 4 5 6 
#
# 1 90.5078 67.8423 45.0289 0.0000 9.4178 0.0000
# 2 67.8423 159.2611 66.8043 0.0000 3.3141 0.0000
# 3 45.0289 66.8043 86.8323 0.0000 -6.2846 0.0000
# 4 0.0000 0.0000 0.0000 35.2557 0.0000 -2.2037
# 5 9.4178 3.3141 -6.2846 0.0000 30.3079 0.0000
# 6 0.0000 0.0000 0.0000 -2.2037 0.0000 24.6280
#
#
#
# Elastic Compliance Matrix: (Units=1/GPa)
#
#
# Indices 1 2 3 4 5 6 
#
# 1 0.018726 -0.005272 -0.006126 0.000000 -0.006513 0.000000
# 2 -0.005272 0.010950 -0.005745 0.000000 -0.000751 0.000000
# 3 -0.006126 -0.005745 0.019591 0.000000 0.006594 0.000000
# 4 0.000000 0.000000 0.000000 0.028524 0.000000 0.002552
# 5 -0.006513 -0.000751 0.006594 0.000000 0.036468 0.000000
# 6 0.000000 0.000000 0.000000 0.002552 0.000000 0.040833
#
#
# Mechanical properties :
#
#
# Convention : Reuss Voigt Hill
#
# Bulk Modulus (GPa) = 66.75341 77.32803 72.04072
# Shear Modulus (GPa) = 25.72409 28.50003 27.11206
#
# Velocity S-wave (km/s) = 3.88714 4.09150 3.99063
# Velocity P-wave (km/s) = 7.70430 8.23053 7.97176
#
# Compressibility (1/GPa) = 0.01498051
#
# Stress axis : x y z
#
# Youngs Moduli (GPa) = 53.40211 91.32402 51.04467
#
# Poissons Ratio (x) = 0.48142 0.31272
# Poissons Ratio (y) = 0.28151 0.29325
# Poissons Ratio (z) = 0.32717 0.52466
#
# Static dielectric constant tensor:
#      x y z
#    x 1.634990 0.000000 0.000010 
#    y 0.000000 1.623130 0.000000 
#    z 0.000010 0.000000 1.573090 
# 
# From -- ./inp_files/174442.got.cif
#   From: 2010.05.17/outbox.cif.g08.bks.cpg/sg12_88_cif.got.tgz:174442.got - 2010.06.03 13:09:07.
