data_PCOD9175053
_publ_section_title
;
Structure prediction by ZEFSAII (Michael W. Deem and Ramdas Pophale) SiO2 
 PCOD9175053
Probable space group: C 2/M
;
_chemical_formula_sum "Si O2"
_cell_formula_units_Z 64
_cell_length_a 14.955845
_cell_length_b 17.506854
_cell_length_c 13.444950
_cell_angle_alpha 90.000000
_cell_angle_beta 94.417384
_cell_angle_gamma 90.000000
_cell_volume 3509.831234
_symmetry_space_group_name_H-M "C 2/M"
_symmetry_group_IT_number 12
_symmetry_cell_setting 'monoclinic'
loop_
_space_group_symop_operation_xyz
x,y,z
-x,y,-z
-x,-y,-z
x,-y,z
1/2+x,1/2+y,z
1/2-x,1/2+y,-z
1/2-x,1/2-y,-z
1/2+x,1/2-y,z
loop_
_atom_site_type_symbol
_atom_site_label
_atom_site_fract_x
_atom_site_fract_y
_atom_site_fract_z
Si Si1 0.550709 0.632434 0.368152
Si Si2 0.220963 0.240935 0.612476
Si Si3 0.508747 0.086308 0.217002
Si Si4 0.520532 0.197981 0.607451
Si Si5 0.095357 0.686792 0.061758
Si Si6 0.641199 0.415466 0.577097
Si Si7 0.685688 0.088555 0.904182
Si Si8 0.165510 0.822879 0.206406
O O1 0.530946 0.721220 0.391624
O O2 0.455472 0.591659 0.376981
O O3 0.617838 0.601392 0.458784
O O4 0.589509 0.630588 0.260634
O O5 0.250000 0.250000 0.500000
O O6 0.125243 0.281703 0.620676
O O7 0.204191 0.150766 0.623847
O O8 0.286001 0.276506 0.699887
O O9 0.510516 0.144020 0.308037
O O10 0.571992 0.119756 0.137246
O O11 0.407335 0.087210 0.165520
O O12 0.531928 0.000000 0.245779
O O13 0.500000 0.161392 0.500000
O O14 0.128583 0.761013 0.124447
O O15 0.165205 0.649461 0.990259
O O16 0.000000 0.704586 0.000000
O O17 0.677722 0.500000 0.590874
O O18 0.765179 0.121341 0.842854
O O19 0.702109 0.000000 0.937192
#
# Coordination Sequence:
#
# PCOD9175053 Si02
#       8
#     8   8   8   8   8   8   8   8
#     4  10  18  32  55  80 109 153 197 230 268 339
#     4  11  21  36  56  85 121 158 188 233 282 342
#     4  10  20  36  57  82 112 152 197 237 285 344
#     4  11  18  34  56  80 117 156 192 229 277 338
#     4  10  22  39  63  83 110 148 199 240 289 356
#     4  10  20  35  55  81 118 158 198 232 271 330
#     4  10  22  39  58  86 116 146 187 249 303 341
#     4  12  21  36  63  88 115 151 193 241 294 346
#
# _framework density 18.234496
#
# number of rings (size 3 to 8) (size 9 to 14) (size 15 to 20)
#    0.000    1.500    6.250    1.500    0.000    2.750 
#    0.000    1.875    0.000    0.375    0.000    0.000 
#    0.000    0.000    0.000    0.000    0.000    0.000 
#
# Total GULP energy -178580.166409 kJ/mol
# GULP energy per Si atom -5580.630200 kJ/mol
# Density = 1.819299 g / cm^3
# Si number density = 18.234496 Si / 1000 Ang^3
#
#
#
# Elastic Constant Matrix: (Units=GPa)
#
#
# Indices 1 2 3 4 5 6 
#
# 1 40.4145 12.6680 23.3965 0.0000 -17.9885 0.0000
# 2 12.6680 82.0452 24.6958 0.0000 -2.9572 0.0000
# 3 23.3965 24.6958 92.6990 0.0000 -21.7810 0.0000
# 4 0.0000 0.0000 0.0000 23.2194 0.0000 -1.1008
# 5 -17.9885 -2.9572 -21.7810 0.0000 35.0904 0.0000
# 6 0.0000 0.0000 0.0000 -1.1008 0.0000 -0.5164
#
#
#
# Elastic Compliance Matrix: (Units=1/GPa)
#
#
# Indices 1 2 3 4 5 6 
#
# 1 0.035049 -0.003552 -0.004388 0.000000 0.014944 0.000000
# 2 -0.003552 0.013659 -0.003395 0.000000 -0.002777 0.000000
# 3 -0.004388 -0.003395 0.014288 0.000000 0.006333 0.000000
# 4 0.000000 0.000000 0.000000 0.039114 0.000000 -0.083386
# 5 0.014944 -0.002777 0.006333 0.000000 0.039855 0.000000
# 6 0.000000 0.000000 0.000000 -0.083386 0.000000 -1.758809
#
#
# Mechanical properties :
#
#
# Convention : Reuss Voigt Hill
#
# Bulk Modulus (GPa) = 24.79876 37.40881 31.10379
# Shear Modulus (GPa) = -3.16309 21.85191 9.34441
#
# Velocity S-wave (km/s) = -1.31850 3.46552 2.26621
# Velocity P-wave (km/s) = 3.36326 6.04757 4.89309
#
# Compressibility (1/GPa) = 0.04032460
#
# Stress axis : x y z
#
# Youngs Moduli (GPa) = 28.53140 73.21394 69.99091
#
# Poissons Ratio (x) = 0.26006 0.30715
# Poissons Ratio (y) = 0.10135 0.23760
# Poissons Ratio (z) = 0.12521 0.24854
#
# Static dielectric constant tensor:
#      x y z
#    x 1.642480 0.000000 -0.010070 
#    y 0.000000 1.613160 0.000000 
#    z -0.010070 0.000000 1.624410 
# 
# From -- ./inp_files/146154.got.cif
#   From: 2010.05.17/outbox.cif.g08.bks.cpg/sg12_74_cif.got.tgz:146154.got - 2010.06.03 13:09:07.
