data_PCOD9175155
_publ_section_title
;
Structure prediction by ZEFSAII (Michael W. Deem and Ramdas Pophale) SiO2 
 PCOD9175155
Probable space group: C 2/M
;
_chemical_formula_sum "Si O2"
_cell_formula_units_Z 64
_cell_length_a 18.369124
_cell_length_b 12.847102
_cell_length_c 29.522170
_cell_angle_alpha 90.000000
_cell_angle_beta 147.113796
_cell_angle_gamma 90.000000
_cell_volume 3782.853669
_symmetry_space_group_name_H-M "C 2/M"
_symmetry_group_IT_number 12
_symmetry_cell_setting 'monoclinic'
loop_
_space_group_symop_operation_xyz
x,y,z
-x,y,-z
-x,-y,-z
x,-y,z
1/2+x,1/2+y,z
1/2-x,1/2+y,-z
1/2-x,1/2-y,-z
1/2+x,1/2-y,z
loop_
_atom_site_type_symbol
_atom_site_label
_atom_site_fract_x
_atom_site_fract_y
_atom_site_fract_z
Si Si1 0.429294 0.372953 0.510072
Si Si2 0.233405 0.877444 0.935066
Si Si3 0.379148 0.740463 0.209889
Si Si4 0.859533 0.380218 0.666377
Si Si5 0.874900 0.384952 0.778221
Si Si6 0.446195 0.720820 0.084333
Si Si7 0.901385 0.878494 0.314860
Si Si8 0.120975 0.121091 0.099273
O O1 0.500000 0.339080 0.500000
O O2 0.432679 0.500000 0.511222
O O3 0.273022 0.342173 0.428702
O O4 0.507525 0.338413 0.595939
O O5 0.154221 0.836408 0.849396
O O6 0.147103 0.856764 0.935721
O O7 0.266408 0.000000 0.948165
O O8 0.358958 0.799115 0.007489
O O9 0.507569 0.812452 0.267680
O O10 0.411211 0.679598 0.272790
O O11 0.247482 0.810986 0.149903
O O12 0.887831 0.500000 0.667898
O O13 0.819650 0.381676 0.698566
O O14 0.936042 0.500000 0.816782
O O15 0.751891 0.372685 0.748063
O O16 0.981780 0.296245 0.842349
O O17 0.556403 0.662508 0.112061
O O18 0.934098 0.000000 0.325507
O O19 0.159415 0.000000 0.123052
O O20 0.000000 0.129060 0.000000
#
# Coordination Sequence:
#
# PCOD9175155 Si02
#       8
#     8   8   8   8   8   8   8   8
#     4   9  16  31  55  82 108 136 177 225 273 323
#     4  11  24  38  55  81 110 144 182 227 275 323
#     4  12  22  37  53  79 118 144 181 222 271 334
#     4  10  20  34  55  81 110 141 178 227 276 318
#     4  10  18  32  56  83 107 137 181 228 268 313
#     4  11  21  40  57  78 107 145 186 226 265 328
#     4  10  20  33  55  82 110 142 176 222 274 325
#     4  11  23  39  57  78 106 145 187 229 272 319
#
# _framework density 16.918444000000001
#
# number of rings (size 3 to 8) (size 9 to 14) (size 15 to 20)
#    0.000    1.500    5.000    1.500    0.000    0.500 
#    0.000    0.625    0.000    0.000    0.000    0.000 
#    0.000    4.000    0.000    0.000    0.000    0.000 
#
# Total GULP energy -178467.346194 kJ/mol
# GULP energy per Si atom -5577.104569 kJ/mol
# Density = 1.687994 g / cm^3
# Si number density = 16.918444 Si / 1000 Ang^3
#
#
#
# Elastic Constant Matrix: (Units=GPa)
#
#
# Indices 1 2 3 4 5 6 
#
# 1 69.6485 33.4074 15.4993 0.0000 -3.1471 0.0000
# 2 33.4074 68.1391 28.9314 0.0000 -6.8844 0.0000
# 3 15.4993 28.9314 81.7519 0.0001 -12.3483 0.0000
# 4 0.0000 0.0000 0.0001 22.2276 0.0000 -1.8477
# 5 -3.1471 -6.8844 -12.3483 0.0000 26.1626 0.0000
# 6 0.0000 0.0000 0.0000 -1.8477 0.0000 11.2982
#
#
#
# Elastic Compliance Matrix: (Units=1/GPa)
#
#
# Indices 1 2 3 4 5 6 
#
# 1 0.018784 -0.009072 -0.000398 0.000000 -0.000316 0.000000
# 2 -0.009072 0.021731 -0.005676 0.000000 0.001948 0.000000
# 3 -0.000398 -0.005676 0.015165 0.000000 0.005616 0.000000
# 4 0.000000 0.000000 0.000000 0.045609 0.000000 0.007459
# 5 -0.000316 0.001948 0.005616 0.000000 0.041348 0.000000
# 6 0.000000 0.000000 0.000000 0.007459 0.000000 0.089730
#
#
# Mechanical properties :
#
#
# Convention : Reuss Voigt Hill
#
# Bulk Modulus (GPa) = 39.39200 41.69063 40.54132
# Shear Modulus (GPa) = 18.44197 21.38443 19.91320
#
# Velocity S-wave (km/s) = 3.30517 3.55909 3.43448
# Velocity P-wave (km/s) = 6.15626 6.44865 6.30415
#
# Compressibility (1/GPa) = 0.02538586
#
# Stress axis : x y z
#
# Youngs Moduli (GPa) = 53.23770 46.01813 65.94280
#
# Poissons Ratio (x) = 0.41748 0.02627
# Poissons Ratio (y) = 0.48298 0.37430
# Poissons Ratio (z) = 0.02121 0.26120
#
# Static dielectric constant tensor:
#      x y z
#    x 1.565790 0.000000 -0.006080 
#    y 0.000000 1.554790 0.000000 
#    z -0.006080 0.000000 1.580110 
# 
# From -- ./inp_files/296508.got.cif
#   From: 2010.05.17/outbox.cif.g08.bks.cpg/sg12_149_cif.got.tgz:296508.got - 2010.06.03 13:09:07.
