data_PCOD9175777
_publ_section_title
;
Structure prediction by ZEFSAII (Michael W. Deem and Ramdas Pophale) SiO2 
 PCOD9175777
Probable space group: C 2/M
;
_chemical_formula_sum "Si O2"
_cell_formula_units_Z 64
_cell_length_a 23.368210
_cell_length_b 13.333277
_cell_length_c 10.726827
_cell_angle_alpha 90.000000
_cell_angle_beta 73.317399
_cell_angle_gamma 90.000000
_cell_volume 3201.534617
_symmetry_space_group_name_H-M "C 2/M"
_symmetry_group_IT_number 12
_symmetry_cell_setting 'monoclinic'
loop_
_space_group_symop_operation_xyz
x,y,z
-x,y,-z
-x,-y,-z
x,-y,z
1/2+x,1/2+y,z
1/2-x,1/2+y,-z
1/2-x,1/2-y,-z
1/2+x,1/2-y,z
loop_
_atom_site_type_symbol
_atom_site_label
_atom_site_fract_x
_atom_site_fract_y
_atom_site_fract_z
Si Si1 0.708790 0.801412 0.421264
Si Si2 0.353440 0.606899 0.611478
Si Si3 0.539174 0.672494 0.592083
Si Si4 0.758834 0.382279 0.857289
Si Si5 0.585390 0.886175 0.601780
Si Si6 0.933739 0.888766 0.810582
Si Si7 0.654315 0.234690 0.015782
Si Si8 0.935158 0.384310 0.089015
O O1 0.750000 0.750000 0.500000
O O2 0.686176 0.704543 0.358136
O O3 0.735736 0.870581 0.295898
O O4 0.653575 0.858357 0.522157
O O5 0.321493 0.500000 0.624135
O O6 0.396444 0.622398 0.465036
O O7 0.395624 0.606123 0.705835
O O8 0.500000 0.636318 0.500000
O O9 0.548340 0.791730 0.572967
O O10 0.501296 0.641786 0.735103
O O11 0.751587 0.500000 0.893700
O O12 0.815913 0.335614 0.896192
O O13 0.704229 0.312366 0.936342
O O14 0.571567 0.882051 0.757652
O O15 0.572057 0.000000 0.566771
O O16 0.900351 0.802319 0.903461
O O17 0.931751 0.000000 0.868441
O O18 0.623310 0.168475 0.929496
O O19 0.933494 0.500000 0.048098
O O20 0.000000 0.344785 0.000000
#
# Coordination Sequence:
#
# PCOD9175777 Si02
#       8
#     8   8   8   8   8   8   8   8
#     4  11  22  39  58  82 117 154 193 244 296 352
#     4   9  18  33  53  81 111 144 186 227 277 342
#     4   9  18  32  54  83 116 147 181 228 288 341
#     4  11  24  41  60  87 121 158 203 256 304 349
#     4  10  21  37  56  82 115 152 194 237 285 349
#     4  10  18  33  57  84 112 142 183 233 283 340
#     4  11  22  39  62  87 116 159 201 248 298 357
#     4  10  21  39  62  88 119 156 198 243 295 356
#
# _framework density 19.990413
#
# number of rings (size 3 to 8) (size 9 to 14) (size 15 to 20)
#    0.000    1.875    1.250    3.000    0.000    2.750 
#    0.000    1.250    0.000    9.000    0.000    0.000 
#    0.000    0.000    0.000    0.000    0.000    0.000 
#
# Total GULP energy -178330.283199 kJ/mol
# GULP energy per Si atom -5572.821350 kJ/mol
# Density = 1.994491 g / cm^3
# Si number density = 19.990413 Si / 1000 Ang^3
#
#
#
# Elastic Constant Matrix: (Units=GPa)
#
#
# Indices 1 2 3 4 5 6 
#
# 1 23.4404 10.0801 -5.7705 0.0000 5.2567 0.0000
# 2 10.0801 105.8563 -0.0095 0.0000 0.5896 0.0000
# 3 -5.7705 -0.0095 52.0841 0.0000 -5.5054 0.0000
# 4 0.0000 0.0000 0.0000 17.2672 0.0000 -1.2411
# 5 5.2567 0.5896 -5.5054 0.0000 14.5835 0.0000
# 6 0.0000 0.0000 0.0000 -1.2411 0.0000 21.1342
#
#
#
# Elastic Compliance Matrix: (Units=1/GPa)
#
#
# Indices 1 2 3 4 5 6 
#
# 1 0.049174 -0.004592 0.003743 0.000000 -0.016126 0.000000
# 2 -0.004592 0.009878 -0.000390 0.000000 0.001109 0.000000
# 3 0.003743 -0.000390 0.020283 0.000000 0.006324 0.000000
# 4 0.000000 0.000000 0.000000 0.058159 0.000000 0.003415
# 5 -0.016126 0.001109 0.006324 0.000000 0.076726 0.000000
# 6 0.000000 0.000000 0.000000 0.003415 0.000000 0.047517
#
#
# Mechanical properties :
#
#
# Convention : Reuss Voigt Hill
#
# Bulk Modulus (GPa) = 13.01141 21.10900 17.06020
# Shear Modulus (GPa) = 17.25123 22.40234 19.82678
#
# Velocity S-wave (km/s) = 2.94083 3.35125 3.15273
# Velocity P-wave (km/s) = 4.24903 5.05539 4.66965
#
# Compressibility (1/GPa) = 0.07685563
#
# Stress axis : x y z
#
# Youngs Moduli (GPa) = 20.33592 101.23643 49.30301
#
# Poissons Ratio (x) = 0.46492 -0.18453
# Poissons Ratio (y) = 0.09339 0.01922
# Poissons Ratio (z) = -0.07611 0.03946
#
# Static dielectric constant tensor:
#      x y z
#    x 1.702640 0.000000 -0.011050 
#    y 0.000000 1.746990 0.000000 
#    z -0.011050 0.000000 1.726320 
# 
# From -- ./inp_files/175260.got.cif
#   From: 2010.05.17/outbox.cif.g08.bks.cpg/sg12_88_cif.got.tgz:175260.got - 2010.06.03 13:09:07.
