data_PCOD9175676
_publ_section_title
;
Structure prediction by ZEFSAII (Michael W. Deem and Ramdas Pophale) SiO2 
 PCOD9175676
Probable space group: C 2/M
;
_chemical_formula_sum "Si O2"
_cell_formula_units_Z 48
_cell_length_a 8.186372
_cell_length_b 17.534716
_cell_length_c 15.827573
_cell_angle_alpha 90.000000
_cell_angle_beta 63.975847
_cell_angle_gamma 90.000000
_cell_volume 2041.622221
_symmetry_space_group_name_H-M "C 2/M"
_symmetry_group_IT_number 12
_symmetry_cell_setting 'monoclinic'
loop_
_space_group_symop_operation_xyz
x,y,z
-x,y,-z
-x,-y,-z
x,-y,z
1/2+x,1/2+y,z
1/2-x,1/2+y,-z
1/2-x,1/2-y,-z
1/2+x,1/2-y,z
loop_
_atom_site_type_symbol
_atom_site_label
_atom_site_fract_x
_atom_site_fract_y
_atom_site_fract_z
Si Si1 0.276428 0.580880 0.793112
Si Si2 0.781781 0.916502 0.052471
Si Si3 0.033780 0.295838 0.336841
Si Si4 0.350799 0.641132 0.597546
Si Si5 0.362972 0.369043 0.202907
Si Si6 0.486978 0.790944 0.863947
O O1 0.188196 0.500000 0.832823
O O2 0.308810 0.587623 0.686032
O O3 0.466479 0.588083 0.797710
O O4 0.153865 0.652576 0.844065
O O5 0.750260 0.916973 0.160611
O O6 0.676076 0.837929 0.053378
O O7 0.730740 0.000000 0.027398
O O8 0.000000 0.912582 0.000000
O O9 0.062711 0.217539 0.379679
O O10 0.220326 0.342794 0.306479
O O11 0.034912 0.285587 0.233896
O O12 0.842251 0.335198 0.400111
O O13 0.500000 0.610149 0.500000
O O14 0.446847 0.294753 0.134828
#
# Coordination Sequence:
#
# PCOD9175676 Si02
#       6
#     8   8   8   8   8   8
#     4  11  21  35  56  83 112 146 188 231 276 329
#     4  10  22  38  55  81 116 147 178 225 283 331
#     4  10  18  33  56  80 108 143 187 232 266 326
#     4  11  20  33  54  83 114 145 181 229 284 326
#     4  11  19  37  60  81 107 145 191 231 267 324
#     4  10  19  36  60  80 107 146 189 228 267 326
#
# _framework density 23.510715999999999
#
# number of rings (size 3 to 8) (size 9 to 14) (size 15 to 20)
#    0.000    1.500    5.000    2.500    0.000    1.000 
#    0.000    1.667    0.000    4.000    0.000    0.000 
#    0.000    0.000    0.000    0.000    0.000    0.000 
#
# Total GULP energy -133940.667580 kJ/mol
# GULP energy per Si atom -5580.861149 kJ/mol
# Density = 2.345721 g / cm^3
# Si number density = 23.510716 Si / 1000 Ang^3
#
#
#
# Elastic Constant Matrix: (Units=GPa)
#
#
# Indices 1 2 3 4 5 6 
#
# 1 82.3935 25.0382 15.2004 0.0000 -20.6817 0.0000
# 2 25.0382 132.6729 10.8726 0.0000 -15.9278 0.0000
# 3 15.2004 10.8726 59.3161 0.0000 -24.6990 0.0000
# 4 0.0000 0.0000 0.0000 -1.8095 0.0000 -1.2415
# 5 -20.6817 -15.9278 -24.6990 0.0000 30.8009 0.0000
# 6 0.0000 0.0000 0.0000 -1.2415 0.0000 3.8999
#
#
#
# Elastic Compliance Matrix: (Units=1/GPa)
#
#
# Indices 1 2 3 4 5 6 
#
# 1 0.014966 -0.001718 0.000442 0.000000 0.009515 0.000000
# 2 -0.001718 0.008239 0.000336 0.000000 0.003376 0.000000
# 3 0.000442 0.000336 0.025342 0.000000 0.020791 0.000000
# 4 0.000000 0.000000 0.000000 -0.453583 0.000000 -0.144389
# 5 0.009515 0.003376 0.020791 0.000000 0.057274 0.000000
# 6 0.000000 0.000000 0.000000 -0.144389 0.000000 0.210451
#
#
# Mechanical properties :
#
#
# Convention : Reuss Voigt Hill
#
# Bulk Modulus (GPa) = 21.42911 41.84499 31.63705
# Shear Modulus (GPa) = -41.71025 21.46301 -10.12362
#
# Velocity S-wave (km/s) = -4.21657 3.02471 -2.07733
# Velocity P-wave (km/s) = 3.81727 5.48045 2.78063
#
# Compressibility (1/GPa) = 0.04666549
#
# Stress axis : x y z
#
# Youngs Moduli (GPa) = 66.81871 121.36763 39.46087
#
# Poissons Ratio (x) = 0.20855 -0.01743
# Poissons Ratio (y) = 0.11482 -0.01326
# Poissons Ratio (z) = -0.02951 -0.04078
#
# Static dielectric constant tensor:
#      x y z
#    x 1.933270 0.000000 -0.023420 
#    y 0.000000 1.906050 0.000000 
#    z -0.023420 0.000000 1.922580 
# 
# From -- ./inp_files/256206.got.cif
#   From: 2010.05.17/outbox.cif.g08.bks.cpg/sg12_129_cif.got.tgz:256206.got - 2010.06.03 13:09:07.
