data_PCOD9175884
_publ_section_title
;
Structure prediction by ZEFSAII (Michael W. Deem and Ramdas Pophale) SiO2 
 PCOD9175884
Probable space group: C 2/M
;
_chemical_formula_sum "Si O2"
_cell_formula_units_Z 48
_cell_length_a 20.950349
_cell_length_b 7.623002
_cell_length_c 15.166552
_cell_angle_alpha 90.000000
_cell_angle_beta 73.205113
_cell_angle_gamma 90.000000
_cell_volume 2318.850541
_symmetry_space_group_name_H-M "C 2/M"
_symmetry_group_IT_number 12
_symmetry_cell_setting 'monoclinic'
loop_
_space_group_symop_operation_xyz
x,y,z
-x,y,-z
-x,-y,-z
x,-y,z
1/2+x,1/2+y,z
1/2-x,1/2+y,-z
1/2-x,1/2-y,-z
1/2+x,1/2-y,z
loop_
_atom_site_type_symbol
_atom_site_label
_atom_site_fract_x
_atom_site_fract_y
_atom_site_fract_z
Si Si1 0.954019 0.796648 0.259345
Si Si2 0.291118 0.289604 0.572145
Si Si3 0.456143 0.714900 0.932939
Si Si4 0.809319 0.208715 0.042840
Si Si5 0.688055 0.204707 0.756755
Si Si6 0.562225 0.715275 0.535312
O O1 0.882233 0.790650 0.240485
O O2 0.946963 0.722504 0.360324
O O3 0.008233 0.720840 0.170265
O O4 0.972741 0.000000 0.264286
O O5 0.295967 0.500000 0.579257
O O6 0.250000 0.250000 0.500000
O O7 0.247879 0.224080 0.672135
O O8 0.366516 0.224047 0.530748
O O9 0.456954 0.500000 0.930560
O O10 0.500000 0.767017 0.000000
O O11 0.380381 0.772818 0.977215
O O12 0.797780 0.279079 0.145636
O O13 0.814720 0.000000 0.049630
O O14 0.750000 0.250000 0.000000
O O15 0.679605 0.000000 0.738227
O O16 0.500000 0.766793 0.500000
O O17 0.564294 0.500000 0.535812
#
# Coordination Sequence:
#
# PCOD9175884 Si02
#       6
#     8   8   8   8   8   8
#     4  10  18  33  59  83 106 144 192 236 280 331
#     4  10  20  34  56  84 112 145 187 234 279 330
#     4   9  17  32  57  85 106 139 189 235 274 325
#     4  11  23  40  60  84 118 150 187 234 285 338
#     4  11  22  35  55  85 117 149 188 233 284 340
#     4   9  18  32  53  82 110 139 182 233 279 325
#
# _framework density 20.699912000000001
#
# number of rings (size 3 to 8) (size 9 to 14) (size 15 to 20)
#    0.000    2.000    3.333    1.000    0.000    2.000 
#    0.000    7.500    0.000    2.000    0.000    0.000 
#    0.000    0.000    0.000    0.000    0.000    0.000 
#
# Total GULP energy -134050.381067 kJ/mol
# GULP energy per Si atom -5585.432544 kJ/mol
# Density = 2.065280 g / cm^3
# Si number density = 20.699912 Si / 1000 Ang^3
#
#
#
# Elastic Constant Matrix: (Units=GPa)
#
#
# Indices 1 2 3 4 5 6 
#
# 1 173.7371 -12.1922 101.7846 0.0000 -17.3657 0.0000
# 2 -12.1922 42.4747 -5.1125 0.0000 -8.3344 0.0000
# 3 101.7846 -5.1125 205.1512 0.0000 -27.1289 0.0000
# 4 0.0000 0.0000 0.0000 2.0581 0.0000 0.3636
# 5 -17.3657 -8.3344 -27.1289 0.0000 41.7122 0.0000
# 6 0.0000 0.0000 0.0000 0.3636 0.0000 17.4406
#
#
#
# Elastic Compliance Matrix: (Units=1/GPa)
#
#
# Indices 1 2 3 4 5 6 
#
# 1 0.008330 0.002191 -0.003897 0.000000 0.001371 0.000000
# 2 0.002191 0.025441 0.000372 0.000000 0.006237 0.000000
# 3 -0.003897 0.000372 0.007235 0.000000 0.003157 0.000000
# 4 0.000000 0.000000 0.000000 0.487681 0.000000 -0.010167
# 5 0.001371 0.006237 0.003157 0.000000 0.027844 0.000000
# 6 0.000000 0.000000 0.000000 -0.010167 0.000000 0.057549
#
#
# Mechanical properties :
#
#
# Convention : Reuss Voigt Hill
#
# Bulk Modulus (GPa) = 26.08439 65.59142 45.83791
# Shear Modulus (GPa) = 7.94247 34.70106 21.32177
#
# Velocity S-wave (km/s) = 1.96094 4.09881 3.21291
# Velocity P-wave (km/s) = 4.21374 7.35907 5.99631
#
# Compressibility (1/GPa) = 0.03833710
#
# Stress axis : x y z
#
# Youngs Moduli (GPa) = 120.05437 39.30670 138.22524
#
# Poissons Ratio (x) = -0.08612 0.53863
# Poissons Ratio (y) = -0.26304 -0.05139
# Poissons Ratio (z) = 0.46782 -0.01461
#
# Static dielectric constant tensor:
#      x y z
#    x 1.719030 0.000000 -0.019850 
#    y 0.000000 1.808490 0.000000 
#    z -0.019850 0.000000 1.738560 
# 
# From -- ./inp_files/229921.got.cif
#   From: 2010.05.17/outbox.cif.g08.bks.cpg/sg12_115_cif.got.tgz:229921.got - 2010.06.03 13:09:07.
