data_PCOD9175563
_publ_section_title
;
Structure prediction by ZEFSAII (Michael W. Deem and Ramdas Pophale) SiO2 
 PCOD9175563
Probable space group: C 2/M
;
_chemical_formula_sum "Si O2"
_cell_formula_units_Z 64
_cell_length_a 19.588618
_cell_length_b 16.686712
_cell_length_c 14.301504
_cell_angle_alpha 90.000000
_cell_angle_beta 130.371528
_cell_angle_gamma 90.000000
_cell_volume 3561.489051
_symmetry_space_group_name_H-M "C 2/M"
_symmetry_group_IT_number 12
_symmetry_cell_setting 'monoclinic'
loop_
_space_group_symop_operation_xyz
x,y,z
-x,y,-z
-x,-y,-z
x,-y,z
1/2+x,1/2+y,z
1/2-x,1/2+y,-z
1/2-x,1/2-y,-z
1/2+x,1/2-y,z
loop_
_atom_site_type_symbol
_atom_site_label
_atom_site_fract_x
_atom_site_fract_y
_atom_site_fract_z
Si Si1 0.765087 0.231742 0.738795
Si Si2 0.367435 0.175657 0.662442
Si Si3 0.974795 0.404968 0.087623
Si Si4 0.095824 0.839622 0.572378
Si Si5 0.297178 0.802849 0.960857
Si Si6 0.875685 0.089837 0.212349
Si Si7 0.063293 0.155744 0.337183
Si Si8 0.766870 0.093646 0.607200
O O1 0.817718 0.281356 0.705375
O O2 0.669733 0.274301 0.657135
O O3 0.806020 0.246718 0.876746
O O4 0.753934 0.142115 0.691846
O O5 0.439343 0.115648 0.771625
O O6 0.416817 0.249706 0.654775
O O7 0.296119 0.135410 0.528283
O O8 0.953159 0.500000 0.073790
O O9 0.892273 0.349434 0.050342
O O10 0.000000 0.388017 0.000000
O O11 0.102748 0.906351 0.657826
O O12 0.098037 0.871361 0.469881
O O13 0.000000 0.799173 0.500000
O O14 0.221339 0.870811 0.880467
O O15 0.250000 0.750000 0.000000
O O16 0.957913 0.137573 0.237400
O O17 0.876103 0.000000 0.177401
O O18 0.128885 0.109556 0.325587
O O19 0.747584 0.000000 0.594789
#
# Coordination Sequence:
#
# PCOD9175563 Si02
#       8
#     8   8   8   8   8   8   8   8
#     4  10  19  38  56  83 115 147 196 240 289 354
#     4  11  19  36  60  83 118 160 193 232 292 362
#     4  11  23  39  61  92 122 152 200 259 307 346
#     4   9  17  30  51  77 107 150 177 221 283 348
#     4  11  23  42  63  84 109 163 205 243 295 361
#     4  10  21  34  53  84 115 141 184 244 299 340
#     4  10  18  33  54  82 117 152 184 224 281 362
#     4  11  21  33  57  88 119 153 190 236 293 354
#
# _framework density 17.970011
#
# number of rings (size 3 to 8) (size 9 to 14) (size 15 to 20)
#    0.000    1.625    3.750    2.625    0.000    2.750 
#    0.000    1.250    0.000    0.375    0.000    4.375 
#    0.000    0.000    0.000    0.000    0.000    0.000 
#
# Total GULP energy -178257.714236 kJ/mol
# GULP energy per Si atom -5570.553570 kJ/mol
# Density = 1.792911 g / cm^3
# Si number density = 17.970011 Si / 1000 Ang^3
#
#
#
# Elastic Constant Matrix: (Units=GPa)
#
#
# Indices 1 2 3 4 5 6 
#
# 1 73.0134 37.6409 18.3948 0.0000 7.8015 0.0000
# 2 37.6409 100.7779 14.8520 0.0000 -4.6697 0.0000
# 3 18.3948 14.8520 46.9192 0.0000 3.6831 0.0000
# 4 0.0000 0.0000 0.0000 14.2991 0.0000 4.2931
# 5 7.8015 -4.6697 3.6831 0.0000 26.1387 0.0000
# 6 0.0000 0.0000 0.0000 4.2931 0.0000 20.2421
#
#
#
# Elastic Compliance Matrix: (Units=1/GPa)
#
#
# Indices 1 2 3 4 5 6 
#
# 1 0.019023 -0.006676 -0.004859 0.000000 -0.006186 0.000000
# 2 -0.006676 0.012896 -0.001822 0.000000 0.004553 0.000000
# 3 -0.004859 -0.001822 0.023972 0.000000 -0.002253 0.000000
# 4 0.000000 0.000000 0.000000 0.074690 0.000000 -0.015841
# 5 -0.006186 0.004553 -0.002253 0.000000 0.041234 0.000000
# 6 0.000000 0.000000 0.000000 -0.015841 0.000000 0.052762
#
#
# Mechanical properties :
#
#
# Convention : Reuss Voigt Hill
#
# Bulk Modulus (GPa) = 34.27446 40.27622 37.27534
# Shear Modulus (GPa) = 19.15588 22.12417 20.64002
#
# Velocity S-wave (km/s) = 3.26849 3.51261 3.39275
# Velocity P-wave (km/s) = 5.77569 6.23802 6.01130
#
# Compressibility (1/GPa) = 0.02917624
#
# Stress axis : x y z
#
# Youngs Moduli (GPa) = 52.56863 77.54534 41.71530
#
# Poissons Ratio (x) = 0.51766 0.20271
# Poissons Ratio (y) = 0.35092 0.07602
# Poissons Ratio (z) = 0.25544 0.14131
#
# Static dielectric constant tensor:
#      x y z
#    x 1.659730 0.000000 -0.019820 
#    y 0.000000 1.614320 0.000000 
#    z -0.019820 0.000000 1.643830 
# 
# From -- ./inp_files/225756.got.cif
#   From: 2010.05.17/outbox.cif.g08.bks.cpg/sg12_113_cif.got.tgz:225756.got - 2010.06.03 13:09:07.
