data_PCOD9175390
_publ_section_title
;
Structure prediction by ZEFSAII (Michael W. Deem and Ramdas Pophale) SiO2 
 PCOD9175390
Probable space group: C 2/M
;
_chemical_formula_sum "Si O2"
_cell_formula_units_Z 58
_cell_length_a 30.177608
_cell_length_b 22.173760
_cell_length_c 14.364781
_cell_angle_alpha 90.000000
_cell_angle_beta 18.930667
_cell_angle_gamma 90.000000
_cell_volume 3118.428644
_symmetry_space_group_name_H-M "C 2/M"
_symmetry_group_IT_number 12
_symmetry_cell_setting 'monoclinic'
loop_
_space_group_symop_operation_xyz
x,y,z
-x,y,-z
-x,-y,-z
x,-y,z
1/2+x,1/2+y,z
1/2-x,1/2+y,-z
1/2-x,1/2-y,-z
1/2+x,1/2-y,z
loop_
_atom_site_type_symbol
_atom_site_label
_atom_site_fract_x
_atom_site_fract_y
_atom_site_fract_z
Si Si1 0.015790 0.927782 0.859103
Si Si2 0.000629 0.592333 0.170761
Si Si3 0.280648 0.395666 0.183175
Si Si4 0.449033 0.771856 0.203722
Si Si5 0.990943 0.070873 0.410758
Si Si6 0.697027 0.261748 0.816017
Si Si7 0.279307 0.628111 0.690020
Si Si8 0.000000 0.500000 0.000000
O O1 0.134965 0.889014 0.573860
O O2 0.042714 0.000000 0.793364
O O3 0.000000 0.916041 0.000000
O O4 0.876858 0.911527 0.080774
O O5 0.868048 0.579271 0.497238
O O6 0.982047 0.659435 0.165502
O O7 0.137901 0.592177 0.958767
O O8 0.009236 0.550991 0.063982
O O9 0.269151 0.323056 0.197673
O O10 0.364697 0.420177 0.928744
O O11 0.290327 0.762057 0.537771
O O12 0.500000 0.757847 0.000000
O O13 0.539830 0.735574 0.098077
O O14 0.877032 0.106824 0.578856
O O15 0.000000 0.089521 0.500000
O O16 0.956335 0.000000 0.475427
O O17 0.737196 0.198297 0.782286
#
# Coordination Sequence:
#
# PCOD9175390 Si02
#       8
#     8   8   8   8   8   8   8   2
#     4  10  22  34  54  80 115 156 207 249 285 332
#     4  10  24  32  52  77 120 151 193 222 270 328
#     4  10  21  39  55  85 113 151 186 236 287 337
#     4  10  18  33  44  75 102 151 191 229 258 315
#     4  10  22  43  69  89 107 138 188 243 297 352
#     4  10  21  32  55  74 112 146 186 228 280 336
#     4  10  21  39  55  85 113 151 186 236 287 337
#     4  12  24  32  48  78 118 172 188 218 266 332
#
# _framework density 18.599111000000001
#
# number of rings (size 3 to 8) (size 9 to 14) (size 15 to 20)
#    0.000    1.931    0.690    3.724    5.793    3.310 
#    0.000    1.379    0.000    1.655    0.000    0.000 
#    0.000    0.000    0.000    0.000    0.000    0.000 
#
# Total GULP energy -161574.411858 kJ/mol
# GULP energy per Si atom -5571.531443 kJ/mol
# Density = 1.855678 g / cm^3
# Si number density = 18.599111 Si / 1000 Ang^3
#
#
#
# Elastic Constant Matrix: (Units=GPa)
#
#
# Indices 1 2 3 4 5 6 
#
# 1 102.1587 24.6979 35.8232 0.0266 13.4403 0.0122
# 2 24.6979 72.0702 -0.4889 0.0417 -1.2065 0.0187
# 3 35.8232 -0.4889 91.5473 0.0880 -12.4790 0.0386
# 4 0.0266 0.0417 0.0880-1826.4033 -0.0682 -829.9709
# 5 13.4403 -1.2065 -12.4790 -0.0682 15.0011 -0.0309
# 6 0.0122 0.0187 0.0386 -829.9709 -0.0309 -331.8081
#
#
#
# Elastic Compliance Matrix: (Units=1/GPa)
#
#
# Indices 1 2 3 4 5 6 
#
# 1 0.018857 -0.006983 -0.011049 0.000001 -0.026648 0.000000
# 2 -0.006983 0.016485 0.004347 0.000000 0.011199 0.000000
# 3 -0.011049 0.004347 0.018799 0.000000 0.025887 0.000001
# 4 0.000001 0.000000 0.000000 0.004006 -0.000003 -0.010019
# 5 -0.026648 0.011199 0.025887 -0.000003 0.112972 0.000001
# 6 0.000000 0.000000 0.000001 -0.010019 0.000001 0.022048
#
#
# Mechanical properties :
#
#
# Convention : Reuss Voigt Hill
#
# Bulk Modulus (GPa) = 37.35282 42.87118 40.11200
# Shear Modulus (GPa) = 21.79023 -414.92578 -196.56777
#
# Velocity S-wave (km/s) = 3.42654 -14.95237 -10.29155
# Velocity P-wave (km/s) = 5.98177 16.58305 10.93654
#
# Compressibility (1/GPa) = 0.02677174
#
# Stress axis : x y z
#
# Youngs Moduli (GPa) = 53.03020 60.65966 53.19531
#
# Poissons Ratio (x) = 0.42360 0.58774
# Poissons Ratio (y) = 0.37032 -0.23125
# Poissons Ratio (z) = 0.58591 -0.26370
#
# Static dielectric constant tensor:
#      x y z
#    x 1.600060 0.000000 -0.021650 
#    y 0.000000 1.681450 0.000000 
#    z -0.021650 0.000000 1.688080 
# 
# From -- ./inp_files/251847.got.cif
#   From: 2010.05.17/outbox.cif.g08.bks.cpg/sg12_126_cif.got.tgz:251847.got - 2010.06.03 13:09:07.
