data_PCOD9175761
_publ_section_title
;
Structure prediction by ZEFSAII (Michael W. Deem and Ramdas Pophale) SiO2 
 PCOD9175761
Probable space group: C 2/M
;
_chemical_formula_sum "Si O2"
_cell_formula_units_Z 56
_cell_length_a 20.382766
_cell_length_b 14.541129
_cell_length_c 23.318525
_cell_angle_alpha 90.000000
_cell_angle_beta 20.330426
_cell_angle_gamma 90.000000
_cell_volume 2401.232457
_symmetry_space_group_name_H-M "C 2/M"
_symmetry_group_IT_number 12
_symmetry_cell_setting 'monoclinic'
loop_
_space_group_symop_operation_xyz
x,y,z
-x,y,-z
-x,-y,-z
x,-y,z
1/2+x,1/2+y,z
1/2-x,1/2+y,-z
1/2-x,1/2-y,-z
1/2+x,1/2-y,z
loop_
_atom_site_type_symbol
_atom_site_label
_atom_site_fract_x
_atom_site_fract_y
_atom_site_fract_z
Si Si1 0.744358 0.346103 0.971734
Si Si2 0.449633 0.613302 0.397555
Si Si3 0.407423 0.106996 0.245038
Si Si4 0.119317 0.387874 0.957882
Si Si5 0.868201 0.895613 0.339502
Si Si6 0.164412 0.108397 0.908713
Si Si7 0.546829 0.108954 0.523312
O O1 0.691728 0.345491 0.948186
O O2 0.949803 0.387191 0.817918
O O3 0.750000 0.250000 0.000000
O O4 0.576345 0.398442 0.142198
O O5 0.451829 0.500000 0.395202
O O6 0.298034 0.642713 0.569048
O O7 0.665527 0.644053 0.226339
O O8 0.380664 0.647253 0.391905
O O9 0.378071 0.000000 0.255833
O O10 0.515375 0.145372 0.100877
O O11 0.128656 0.500000 0.953719
O O12 0.000000 0.363849 0.000000
O O13 0.725509 0.852515 0.411087
O O14 0.800441 0.000000 0.404691
O O15 0.361906 0.114157 0.713715
O O16 0.123304 0.000000 0.954406
O O17 0.000000 0.140887 0.000000
O O18 0.500000 0.150656 0.500000
O O19 0.591422 0.000000 0.476435
#
# Coordination Sequence:
#
# PCOD9175761 Si02
#       7
#     8   8   8   8   8   8   8
#     4  12  24  37  55  85 120 160 199 241 302 371
#     4   9  17  30  53  83 108 140 189 241 297 348
#     4  10  19  35  58  81 110 147 193 247 296 355
#     4   9  17  30  51  82 113 140 179 239 296 337
#     4  10  18  33  57  81 112 150 191 242 293 355
#     4  10  20  37  63  94 123 155 202 257 313 369
#     4   9  17  30  54  91 123 148 189 251 316 367
#
# _framework density 23.321356000000002
#
# number of rings (size 3 to 8) (size 9 to 14) (size 15 to 20)
#    0.000    2.143    1.429    3.000    0.000    5.143 
#    0.000    6.429    0.000    0.000    3.714    0.000 
#    0.000    0.000    0.000    0.000    0.000    0.143 
#
# Total GULP energy -156477.273467 kJ/mol
# GULP energy per Si atom -5588.474052 kJ/mol
# Density = 2.326828 g / cm^3
# Si number density = 23.321356 Si / 1000 Ang^3
#
#
#
# Elastic Constant Matrix: (Units=GPa)
#
#
# Indices 1 2 3 4 5 6 
#
# 1 184.8932 24.7959 90.0021 0.0314 -10.6419 0.0135
# 2 24.7959 64.2413 8.1460 -0.0150 7.4159 0.0056
# 3 90.0021 8.1460 167.2750 -0.0529 -8.8364 0.0118
# 4 0.0314 -0.0150 -0.0529 -45.1940 0.0252 5.4372
# 5 -10.6419 7.4159 -8.8364 0.0252 29.5982 -0.0084
# 6 0.0135 0.0056 0.0118 5.4372 -0.0084 8.3187
#
#
#
# Elastic Compliance Matrix: (Units=1/GPa)
#
#
# Indices 1 2 3 4 5 6 
#
# 1 0.007847 -0.002796 -0.003962 0.000011 0.002339 -0.000010
# 2 -0.002796 0.017196 0.000393 -0.000012 -0.005197 -0.000005
# 3 -0.003962 0.000393 0.008139 -0.000012 0.000907 0.000003
# 4 0.000011 -0.000012 -0.000012 -0.020514 0.000025 0.013408
# 5 0.002339 -0.005197 0.000907 0.000025 0.036200 0.000019
# 6 -0.000010 -0.000005 0.000003 0.013408 0.000019 0.111448
#
#
# Mechanical properties :
#
#
# Convention : Reuss Voigt Hill
#
# Bulk Modulus (GPa) = 48.90080 73.58861 61.24471
# Shear Modulus (GPa) = 27.79880 18.10894 22.95387
#
# Velocity S-wave (km/s) = 3.45626 2.78959 3.14067
# Velocity P-wave (km/s) = 6.07795 6.48062 6.28251
#
# Compressibility (1/GPa) = 0.02044956
#
# Stress axis : x y z
#
# Youngs Moduli (GPa) = 127.43841 58.15395 122.86728
#
# Poissons Ratio (x) = 0.16262 0.48684
# Poissons Ratio (y) = 0.35636 -0.04824
# Poissons Ratio (z) = 0.50495 -0.02283
#
# Static dielectric constant tensor:
#      x y z
#    x 1.854410 0.000020 -0.017660 
#    y 0.000020 1.872460 0.000010 
#    z -0.017660 0.000010 1.846280 
# 
# From -- ./inp_files/347790.got.cif
#   From: 2010.05.17/outbox.cif.g08.bks.cpg/sg12_174_cif.got.tgz:347790.got - 2010.06.03 13:09:07.
