data_PCOD9175145
_publ_section_title
;
Structure prediction by ZEFSAII (Michael W. Deem and Ramdas Pophale) SiO2 
 PCOD9175145
Probable space group: C 2/M
;
_chemical_formula_sum "Si O2"
_cell_formula_units_Z 56
_cell_length_a 19.730771
_cell_length_b 8.005909
_cell_length_c 28.121550
_cell_angle_alpha 90.000000
_cell_angle_beta 138.793750
_cell_angle_gamma 90.000000
_cell_volume 2926.366949
_symmetry_space_group_name_H-M "C 2/M"
_symmetry_group_IT_number 12
_symmetry_cell_setting 'monoclinic'
loop_
_space_group_symop_operation_xyz
x,y,z
-x,y,-z
-x,-y,-z
x,-y,z
1/2+x,1/2+y,z
1/2-x,1/2+y,-z
1/2-x,1/2-y,-z
1/2+x,1/2-y,z
loop_
_atom_site_type_symbol
_atom_site_label
_atom_site_fract_x
_atom_site_fract_y
_atom_site_fract_z
Si Si1 0.522581 0.689443 0.286274
Si Si2 0.673663 0.697330 0.918187
Si Si3 0.061092 0.200077 0.202989
Si Si4 0.731296 0.794187 0.737076
Si Si5 0.132528 0.699361 0.436031
Si Si6 0.529966 0.202798 0.569111
Si Si7 0.196829 0.686731 0.825628
O O1 0.480864 0.500000 0.259130
O O2 0.584830 0.724312 0.271313
O O3 0.587336 0.706534 0.367125
O O4 0.426856 0.811330 0.240108
O O5 0.663463 0.500000 0.914559
O O6 0.556510 0.765493 0.864317
O O7 0.717705 0.739323 0.888923
O O8 0.750000 0.750000 0.000000
O O9 0.157976 0.262438 0.224317
O O10 0.057368 0.000000 0.192034
O O11 0.635638 0.742541 0.652181
O O12 0.722977 0.736834 0.787793
O O13 0.727517 0.000000 0.735760
O O14 0.122473 0.500000 0.423999
O O15 0.250000 0.750000 0.500000
O O16 0.064868 0.743983 0.446224
O O17 0.500000 0.261725 0.500000
O O18 0.537966 0.000000 0.570494
O O19 0.239673 0.500000 0.848365
#
# Coordination Sequence:
#
# PCOD9175145 Si02
#       7
#     8   8   8   8   8   8   8
#     4  10  19  33  53  76 103 139 178 222 264 314
#     4  10  20  36  57  83 111 142 178 218 263 316
#     4   8  17  31  52  80 105 133 178 220 256 307
#     4   9  16  30  52  78 106 137 178 226 264 308
#     4  11  22  35  51  75 102 135 179 227 277 325
#     4   9  18  31  50  76 104 137 181 228 269 312
#     4  10  18  32  56  82 107 138 173 216 266 317
#
# _framework density 19.136357
#
# number of rings (size 3 to 8) (size 9 to 14) (size 15 to 20)
#    0.000    2.429    1.429    2.571    2.000    0.000 
#    0.000    0.714    0.000   18.000    0.000    0.000 
#    0.000    0.000    0.000    0.000    0.000    0.000 
#
# Total GULP energy -155900.365696 kJ/mol
# GULP energy per Si atom -5567.870203 kJ/mol
# Density = 1.909280 g / cm^3
# Si number density = 19.136357 Si / 1000 Ang^3
#
#
#
# Elastic Constant Matrix: (Units=GPa)
#
#
# Indices 1 2 3 4 5 6 
#
# 1 167.1164 17.4084 84.5730 0.0000 -19.2943 0.0001
# 2 17.4084 24.3881 13.6655 0.0000 -4.4316 0.0001
# 3 84.5730 13.6655 157.2387 0.0000 -27.3503 0.0000
# 4 0.0000 0.0000 0.0000 18.2719 0.0000 -1.7975
# 5 -19.2943 -4.4316 -27.3503 0.0000 24.4762 0.0000
# 6 0.0001 0.0001 0.0000 -1.7975 0.0000 18.0548
#
#
#
# Elastic Compliance Matrix: (Units=1/GPa)
#
#
# Indices 1 2 3 4 5 6 
#
# 1 0.008579 -0.003576 -0.004021 0.000000 0.001622 0.000000
# 2 -0.003576 0.044994 -0.001316 0.000000 0.003857 0.000000
# 3 -0.004021 -0.001316 0.009985 0.000000 0.007749 0.000000
# 4 0.000000 0.000000 0.000000 0.055270 0.000000 0.005503
# 5 0.001622 0.003857 0.007749 0.000000 0.051492 0.000000
# 6 0.000000 0.000000 0.000000 0.005503 0.000000 0.055935
#
#
# Mechanical properties :
#
#
# Convention : Reuss Voigt Hill
#
# Bulk Modulus (GPa) = 21.86678 64.44856 43.15767
# Shear Modulus (GPa) = 19.28083 27.70032 23.49058
#
# Velocity S-wave (km/s) = 3.17764 3.80876 3.50742
# Velocity P-wave (km/s) = 4.99147 7.28656 6.24535
#
# Compressibility (1/GPa) = 0.04573147
#
# Stress axis : x y z
#
# Youngs Moduli (GPa) = 116.56907 22.22503 100.15039
#
# Poissons Ratio (x) = 0.07947 0.40274
# Poissons Ratio (y) = 0.41680 0.13183
# Poissons Ratio (z) = 0.46876 0.02926
#
# Static dielectric constant tensor:
#      x y z
#    x 1.678320 0.000000 -0.009960 
#    y 0.000000 1.745920 0.000000 
#    z -0.009960 0.000000 1.676690 
# 
# From -- ./inp_files/342274.got.cif
#   From: 2010.05.17/outbox.cif.g08.bks.cpg/sg12_172_cif.got.tgz:342274.got - 2010.06.03 13:09:07.
