data_PCOD9175740
_publ_section_title
;
Structure prediction by ZEFSAII (Michael W. Deem and Ramdas Pophale) SiO2 
 PCOD9175740
Probable space group: C 2/M
;
_chemical_formula_sum "Si O2"
_cell_formula_units_Z 56
_cell_length_a 20.350655
_cell_length_b 7.662460
_cell_length_c 15.767041
_cell_angle_alpha 90.000000
_cell_angle_beta 61.925068
_cell_angle_gamma 90.000000
_cell_volume 2169.348181
_symmetry_space_group_name_H-M "C 2/M"
_symmetry_group_IT_number 12
_symmetry_cell_setting 'monoclinic'
loop_
_space_group_symop_operation_xyz
x,y,z
-x,y,-z
-x,-y,-z
x,-y,z
1/2+x,1/2+y,z
1/2-x,1/2+y,-z
1/2-x,1/2-y,-z
1/2+x,1/2-y,z
loop_
_atom_site_type_symbol
_atom_site_label
_atom_site_fract_x
_atom_site_fract_y
_atom_site_fract_z
Si Si1 0.334673 0.706324 0.619626
Si Si2 0.361641 0.294890 0.862174
Si Si3 0.529440 0.799751 0.355138
Si Si4 0.771158 0.197327 0.164274
Si Si5 0.464026 0.710299 0.936206
Si Si6 0.137442 0.202071 0.578586
Si Si7 0.882461 0.212382 0.227696
O O1 0.317279 0.500000 0.633506
O O2 0.419905 0.726760 0.599417
O O3 0.283831 0.799530 0.720103
O O4 0.327274 0.776664 0.528634
O O5 0.378554 0.500000 0.848286
O O6 0.414704 0.209941 0.759171
O O7 0.277443 0.273964 0.881941
O O8 0.387718 0.230059 0.938762
O O9 0.451893 0.706656 0.382427
O O10 0.511086 0.000000 0.384020
O O11 0.843725 0.277251 0.164881
O O12 0.788663 0.000000 0.128076
O O13 0.457446 0.500000 0.952746
O O14 0.529910 0.744908 0.829002
O O15 0.500000 0.781678 0.000000
O O16 0.150305 0.280525 0.663948
O O17 0.160257 0.000000 0.568072
O O18 0.874167 0.000000 0.231591
#
# Coordination Sequence:
#
# PCOD9175740 Si02
#       7
#     8   8   8   8   8   8   8
#     4  10  20  32  49  72 102 141 183 223 258 303
#     4  10  18  33  57  79 106 139 175 218 259 309
#     4  11  20  30  48  75 107 139 177 219 265 312
#     4  10  20  34  53  75 108 146 178 213 259 315
#     4   9  17  32  59  88 105 127 173 222 259 309
#     4  10  19  33  51  72 101 140 183 221 263 307
#     4   9  18  34  54  77 106 140 175 216 265 314
#
# _framework density 25.814205999999999
#
# number of rings (size 3 to 8) (size 9 to 14) (size 15 to 20)
#    0.000    2.143    1.429    4.714    0.000    3.429 
#    0.000    2.143    0.000    1.714    0.000    0.000 
#    0.000    0.000    0.000    0.000    0.000    0.000 
#
# Total GULP energy -156519.481387 kJ/mol
# GULP energy per Si atom -5589.981478 kJ/mol
# Density = 2.575545 g / cm^3
# Si number density = 25.814206 Si / 1000 Ang^3
#
#
#
# Elastic Constant Matrix: (Units=GPa)
#
#
# Indices 1 2 3 4 5 6 
#
# 1 149.5595 4.2923 48.0966 0.0000 26.2662 0.0000
# 2 4.2923 71.9905 2.9831 0.0000 8.5711 -0.0001
# 3 48.0966 2.9831 113.3611 0.0000 33.8741 0.0000
# 4 0.0000 0.0000 0.0000 -2.1903 0.0000 3.9901
# 5 26.2662 8.5711 33.8741 0.0000 57.9353 0.0000
# 6 0.0000 -0.0001 0.0000 3.9901 0.0000 5.8929
#
#
#
# Elastic Compliance Matrix: (Units=1/GPa)
#
#
# Indices 1 2 3 4 5 6 
#
# 1 0.007925 -0.000125 -0.002776 0.000000 -0.001951 0.000000
# 2 -0.000125 0.014151 0.000351 0.000000 -0.002242 0.000000
# 3 -0.002776 0.000351 0.011668 0.000000 -0.005615 0.000000
# 4 0.000000 0.000000 0.000000 -0.204415 0.000000 0.138410
# 5 -0.001951 -0.002242 -0.005615 0.000000 0.021760 0.000000
# 6 0.000000 0.000000 0.000000 0.138410 0.000000 0.075977
#
#
# Mechanical properties :
#
#
# Convention : Reuss Voigt Hill
#
# Bulk Modulus (GPa) = 34.91323 49.51726 42.21525
# Shear Modulus (GPa) = -85.78558 30.96352 -27.41103
#
# Velocity S-wave (km/s) = -5.77097 3.46710 -3.26215
# Velocity P-wave (km/s) = 5.55439 5.93730 1.48329
#
# Compressibility (1/GPa) = 0.02864243
#
# Stress axis : x y z
#
# Youngs Moduli (GPa) = 126.17670 70.66863 85.70480
#
# Poissons Ratio (x) = 0.00885 0.23793
# Poissons Ratio (y) = 0.01579 -0.03005
# Poissons Ratio (z) = 0.35029 -0.02478
#
# Static dielectric constant tensor:
#      x y z
#    x 2.052080 0.000000 0.006130 
#    y 0.000000 1.948580 0.000000 
#    z 0.006130 0.000000 2.081120 
# 
# From -- ./inp_files/280232.got.cif
#   From: 2010.05.17/outbox.cif.g08.bks.cpg/sg12_141_cif.got.tgz:280232.got - 2010.06.03 13:09:07.
