data_PCOD9175835
_publ_section_title
;
Structure prediction by ZEFSAII (Michael W. Deem and Ramdas Pophale) SiO2 
 PCOD9175835
Probable space group: C 2/M
;
_chemical_formula_sum "Si O2"
_cell_formula_units_Z 48
_cell_length_a 14.259682
_cell_length_b 13.513963
_cell_length_c 14.596168
_cell_angle_alpha 90.000000
_cell_angle_beta 132.675718
_cell_angle_gamma 90.000000
_cell_volume 2067.940602
_symmetry_space_group_name_H-M "C 2/M"
_symmetry_group_IT_number 12
_symmetry_cell_setting 'monoclinic'
loop_
_space_group_symop_operation_xyz
x,y,z
-x,y,-z
-x,-y,-z
x,-y,z
1/2+x,1/2+y,z
1/2-x,1/2+y,-z
1/2-x,1/2-y,-z
1/2+x,1/2-y,z
loop_
_atom_site_type_symbol
_atom_site_label
_atom_site_fract_x
_atom_site_fract_y
_atom_site_fract_z
Si Si1 0.457193 0.763678 0.670681
Si Si2 0.145094 0.333092 0.104696
Si Si3 0.122010 0.149695 0.631247
Si Si4 0.799522 0.107515 0.827952
Si Si5 0.632313 0.887001 0.901531
Si Si6 0.784733 0.667326 0.416799
O O1 0.562263 0.713043 0.675690
O O2 0.517639 0.814753 0.798692
O O3 0.355399 0.681148 0.634561
O O4 0.385473 0.849732 0.564252
O O5 0.245907 0.388323 0.237497
O O6 0.137344 0.216828 0.129591
O O7 0.197745 0.345155 0.036004
O O8 0.000000 0.370334 0.000000
O O9 0.171621 0.224037 0.586668
O O10 0.000000 0.100317 0.500000
O O11 0.718766 0.109738 0.867777
O O12 0.718765 0.107974 0.679596
O O13 0.868206 0.000000 0.872189
O O14 0.592868 0.000000 0.892842
#
# Coordination Sequence:
#
# PCOD9175835 Si02
#       6
#     8   8   8   8   8   8
#     4  10  18  33  58  83 120 159 202 243 300 363
#     4  11  22  39  62  85 123 159 200 256 311 365
#     4   9  18  35  59  85 112 152 203 248 298 361
#     4  10  21  37  57  86 122 159 203 251 307 372
#     4  11  22  35  56  87 119 161 208 252 308 366
#     4   9  18  33  56  88 115 158 203 246 298 362
#
# _framework density 23.211499
#
# number of rings (size 3 to 8) (size 9 to 14) (size 15 to 20)
#    0.000    2.000    3.333    2.500    0.000    1.333 
#    0.000    1.667    0.000    0.500    0.000    2.333 
#    0.000    0.000    0.000    0.000    0.000    0.000 
#
# Total GULP energy -133626.389731 kJ/mol
# GULP energy per Si atom -5567.766239 kJ/mol
# Density = 2.315867 g / cm^3
# Si number density = 23.211499 Si / 1000 Ang^3
#
#
#
# Elastic Constant Matrix: (Units=GPa)
#
#
# Indices 1 2 3 4 5 6 
#
# 1 70.5593 5.5497 15.1437 0.0000 -3.5024 0.0000
# 2 5.5497 94.4362 32.2738 0.0000 -1.2670 0.0000
# 3 15.1437 32.2738 188.6335 0.0000 4.3331 0.0000
# 4 0.0000 0.0000 0.0000 -23.8627 0.0000 -0.3575
# 5 -3.5024 -1.2670 4.3331 0.0000 45.6841 0.0000
# 6 0.0000 0.0000 0.0000 -0.3575 0.0000 -3.2048
#
#
#
# Elastic Compliance Matrix: (Units=1/GPa)
#
#
# Indices 1 2 3 4 5 6 
#
# 1 0.014507 -0.000456 -0.001114 0.000000 0.001205 0.000000
# 2 -0.000456 0.011272 -0.001903 0.000000 0.000458 0.000000
# 3 -0.001114 -0.001903 0.005732 0.000000 -0.000682 0.000000
# 4 0.000000 0.000000 0.000000 -0.041977 0.000000 0.004683
# 5 0.001205 0.000458 -0.000682 0.000000 0.022059 0.000000
# 6 0.000000 0.000000 0.000000 0.004683 0.000000 -0.312550
#
#
# Mechanical properties :
#
#
# Convention : Reuss Voigt Hill
#
# Bulk Modulus (GPa) = 40.70578 51.06259 45.88419
# Shear Modulus (GPa) = -17.49341 23.76743 3.13701
#
# Velocity S-wave (km/s) = -2.74825 3.20339 1.16380
# Velocity P-wave (km/s) = 2.73943 5.97737 4.64937
#
# Compressibility (1/GPa) = 0.02456653
#
# Stress axis : x y z
#
# Youngs Moduli (GPa) = 68.93072 88.71320 174.46137
#
# Poissons Ratio (x) = 0.04041 0.19442
# Poissons Ratio (y) = 0.03140 0.33192
# Poissons Ratio (z) = 0.07682 0.16878
#
# Static dielectric constant tensor:
#      x y z
#    x 1.893110 0.000000 0.034390 
#    y 0.000000 1.855390 0.000000 
#    z 0.034390 0.000000 1.930440 
# 
# From -- ./inp_files/215018.got.cif
#   From: 2010.05.17/outbox.cif.g08.bks.cpg/sg12_108_cif.got.tgz:215018.got - 2010.06.03 13:09:07.
