data_PCOD9175394
_publ_section_title
;
Structure prediction by ZEFSAII (Michael W. Deem and Ramdas Pophale) SiO2 
 PCOD9175394
Probable space group: C 2/M
;
_chemical_formula_sum "Si O2"
_cell_formula_units_Z 56
_cell_length_a 15.502632
_cell_length_b 21.777126
_cell_length_c 9.373734
_cell_angle_alpha 90.000000
_cell_angle_beta 102.423993
_cell_angle_gamma 90.000000
_cell_volume 3090.490855
_symmetry_space_group_name_H-M "C 2/M"
_symmetry_group_IT_number 12
_symmetry_cell_setting 'monoclinic'
loop_
_space_group_symop_operation_xyz
x,y,z
-x,y,-z
-x,-y,-z
x,-y,z
1/2+x,1/2+y,z
1/2-x,1/2+y,-z
1/2-x,1/2-y,-z
1/2+x,1/2-y,z
loop_
_atom_site_type_symbol
_atom_site_label
_atom_site_fract_x
_atom_site_fract_y
_atom_site_fract_z
Si Si1 0.844854 0.757433 0.107134
Si Si2 0.225595 0.931444 0.471845
Si Si3 0.091910 0.802794 0.159107
Si Si4 0.627611 0.363479 0.656148
Si Si5 0.205776 0.323791 0.668122
Si Si6 0.966122 0.070014 0.747487
Si Si7 0.419214 0.250189 0.555623
O O1 0.846886 0.817637 0.207492
O O2 0.851968 0.699463 0.217497
O O3 0.907690 0.772478 0.995915
O O4 0.750000 0.750000 0.000000
O O5 0.210627 0.898475 0.618008
O O6 0.284788 0.893098 0.382604
O O7 0.124814 0.933309 0.375083
O O8 0.258180 0.000000 0.499875
O O9 0.194124 0.806770 0.251503
O O10 0.052902 0.761333 0.272350
O O11 0.053229 0.871982 0.154983
O O12 0.550627 0.408849 0.683710
O O13 0.594869 0.317252 0.520161
O O14 0.167389 0.287434 0.517753
O O15 0.980596 0.000000 0.808216
O O16 0.500000 0.220204 0.500000
#
# Coordination Sequence:
#
# PCOD9175394 Si02
#       7
#     8   8   8   8   8   8   8
#     4   9  21  32  48  68  98 136 172 214 255 289
#     4  10  19  31  53  78 100 134 177 211 250 310
#     4  10  18  33  47  71  97 139 172 206 248 297
#     4  11  18  31  47  75 105 133 171 207 247 295
#     4   9  19  32  51  71  96 129 170 214 259 300
#     4  10  19  31  49  74 109 145 171 200 242 301
#     4  11  18  30  50  76  99 123 169 218 261 296
#
# _framework density 18.120097000000001
#
# number of rings (size 3 to 8) (size 9 to 14) (size 15 to 20)
#    0.000    2.000    4.286    1.286    4.000    1.714 
#    0.000    2.143    0.000    2.143    0.000    0.000 
#    0.000    1.143    0.000    0.000    0.000    0.000 
#
# Total GULP energy -155951.092268 kJ/mol
# GULP energy per Si atom -5569.681867 kJ/mol
# Density = 1.807886 g / cm^3
# Si number density = 18.120097 Si / 1000 Ang^3
#
#
#
# Elastic Constant Matrix: (Units=GPa)
#
#
# Indices 1 2 3 4 5 6 
#
# 1 62.7213 49.9287 30.2505 0.0000 -23.8962 0.0000
# 2 49.9287 106.7543 44.6981 0.0000 -19.2846 0.0000
# 3 30.2505 44.6981 117.2249 0.0000 -25.9927 0.0000
# 4 0.0000 0.0000 0.0000 12.2778 0.0000 -1.0245
# 5 -23.8962 -19.2846 -25.9927 0.0000 33.0140 0.0000
# 6 0.0000 0.0000 0.0000 -1.0245 0.0000 25.7149
#
#
#
# Elastic Compliance Matrix: (Units=1/GPa)
#
#
# Indices 1 2 3 4 5 6 
#
# 1 0.031374 -0.011783 -0.000114 0.000000 0.015736 0.000000
# 2 -0.011783 0.015988 -0.003484 0.000000 -0.001933 0.000000
# 3 -0.000114 -0.003484 0.011411 0.000000 0.006866 0.000000
# 4 0.000000 0.000000 0.000000 0.081719 0.000000 0.003256
# 5 0.015736 -0.001933 0.006866 0.000000 0.045958 0.000000
# 6 0.000000 0.000000 0.000000 0.003256 0.000000 0.039018
#
#
# Mechanical properties :
#
#
# Convention : Reuss Voigt Hill
#
# Bulk Modulus (GPa) = 35.70109 59.60612 47.65361
# Shear Modulus (GPa) = 18.82773 24.98956 21.90865
#
# Velocity S-wave (km/s) = 3.22693 3.71766 3.48096
# Velocity P-wave (km/s) = 5.79908 7.16899 6.52012
#
# Compressibility (1/GPa) = 0.02801035
#
# Stress axis : x y z
#
# Youngs Moduli (GPa) = 31.87398 62.54775 87.63430
#
# Poissons Ratio (x) = 0.73699 0.00999
# Poissons Ratio (y) = 0.37557 0.30533
# Poissons Ratio (z) = 0.00363 0.21792
#
# Static dielectric constant tensor:
#      x y z
#    x 1.703860 0.000000 -0.019750 
#    y 0.000000 1.625270 0.000000 
#    z -0.019750 0.000000 1.678750 
# 
# From -- ./inp_files/147152.got.cif
#   From: 2010.05.17/outbox.cif.g08.bks.cpg/sg12_74_cif.got.tgz:147152.got - 2010.06.03 13:09:07.
