data_PCOD9175541
_publ_section_title
;
Structure prediction by ZEFSAII (Michael W. Deem and Ramdas Pophale) SiO2 
 PCOD9175541
Probable space group: C 2/M
;
_chemical_formula_sum "Si O2"
_cell_formula_units_Z 56
_cell_length_a 25.839690
_cell_length_b 8.257089
_cell_length_c 22.831223
_cell_angle_alpha 90.000000
_cell_angle_beta 139.181580
_cell_angle_gamma 90.000000
_cell_volume 3184.182606
_symmetry_space_group_name_H-M "C 2/M"
_symmetry_group_IT_number 12
_symmetry_cell_setting 'monoclinic'
loop_
_space_group_symop_operation_xyz
x,y,z
-x,y,-z
-x,-y,-z
x,-y,z
1/2+x,1/2+y,z
1/2-x,1/2+y,-z
1/2-x,1/2-y,-z
1/2+x,1/2-y,z
loop_
_atom_site_type_symbol
_atom_site_label
_atom_site_fract_x
_atom_site_fract_y
_atom_site_fract_z
Si Si1 0.498880 0.809964 0.091764
Si Si2 0.581448 0.195272 0.408242
Si Si3 0.538843 0.804101 0.594826
Si Si4 0.763370 0.804446 0.392657
Si Si5 0.713347 0.693650 0.722023
Si Si6 0.912088 0.301832 0.718622
Si Si7 0.120001 0.812447 0.101883
O O1 0.526322 0.749509 0.178723
O O2 0.574070 0.788309 0.112674
O O3 0.480068 0.000000 0.079044
O O4 0.426425 0.721929 0.997977
O O5 0.515556 0.253046 0.398002
O O6 0.667347 0.243741 0.505974
O O7 0.569908 0.252105 0.331822
O O8 0.577922 0.000000 0.404496
O O9 0.500000 0.750022 0.500000
O O10 0.628757 0.745673 0.674227
O O11 0.538730 0.000000 0.594697
O O12 0.780251 0.750840 0.340457
O O13 0.676499 0.750809 0.338871
O O14 0.764217 0.000000 0.393942
O O15 0.719489 0.500000 0.727901
O O16 0.788548 0.765298 0.820118
O O17 0.912360 0.500000 0.719850
O O18 0.110829 0.000000 0.109320
#
# Coordination Sequence:
#
# PCOD9175541 Si02
#       7
#     8   8   8   8   8   8   8
#     4  10  18  33  54  76 106 138 171 208 254 310
#     4  10  20  34  52  73 103 141 177 210 254 303
#     4  10  20  34  51  75 104 137 174 216 260 301
#     4  10  19  32  49  74 105 135 173 212 253 303
#     4  11  21  34  54  76 102 138 174 213 258 305
#     4   9  18  33  52  75 104 139 174 209 250 306
#     4  11  21  33  51  79 108 133 168 212 262 310
#
# _framework density 17.586931
#
# number of rings (size 3 to 8) (size 9 to 14) (size 15 to 20)
#    0.000    1.857    2.857    3.429    0.000    1.429 
#    0.000    1.429    0.000    0.857    0.000    0.000 
#    0.000    0.000    0.000    0.000    0.000    0.000 
#
# Total GULP energy -156327.467372 kJ/mol
# GULP energy per Si atom -5583.123835 kJ/mol
# Density = 1.754690 g / cm^3
# Si number density = 17.586931 Si / 1000 Ang^3
#
#
#
# Elastic Constant Matrix: (Units=GPa)
#
#
# Indices 1 2 3 4 5 6 
#
# 1 94.3398 2.6420 59.7833 0.0000 -17.9421 0.0000
# 2 2.6420 12.5797 2.5317 0.0000 -3.0982 0.0000
# 3 59.7833 2.5317 143.4454 0.0000 -9.0103 0.0000
# 4 0.0000 0.0000 0.0000 27.7135 0.0000 4.6618
# 5 -17.9421 -3.0982 -9.0103 0.0000 25.6457 0.0000
# 6 0.0000 0.0000 0.0000 4.6618 0.0000 13.2423
#
#
#
# Elastic Compliance Matrix: (Units=1/GPa)
#
#
# Indices 1 2 3 4 5 6 
#
# 1 0.016287 0.000101 -0.006210 0.000000 0.009225 0.000000
# 2 0.000101 0.082031 -0.000882 0.000000 0.009671 0.000000
# 3 -0.006210 -0.000882 0.009505 0.000000 -0.001112 0.000000
# 4 0.000000 0.000000 0.000000 0.038355 0.000000 -0.013502
# 5 0.009225 0.009671 -0.001112 0.000000 0.046225 0.000000
# 6 0.000000 0.000000 0.000000 -0.013502 0.000000 0.080269
#
#
# Mechanical properties :
#
#
# Convention : Reuss Voigt Hill
#
# Bulk Modulus (GPa) = 10.65636 42.25321 26.45479
# Shear Modulus (GPa) = 15.72647 25.68082 20.70364
#
# Velocity S-wave (km/s) = 2.99358 3.82543 3.43478
# Velocity P-wave (km/s) = 4.24513 6.60223 5.55025
#
# Compressibility (1/GPa) = 0.09384064
#
# Stress axis : x y z
#
# Youngs Moduli (GPa) = 61.39851 12.19045 105.20506
#
# Poissons Ratio (x) = -0.00123 0.65335
# Poissons Ratio (y) = -0.00621 0.09284
# Poissons Ratio (z) = 0.38130 0.01076
#
# Static dielectric constant tensor:
#      x y z
#    x 1.587760 0.000000 -0.016660 
#    y 0.000000 1.608250 0.000000 
#    z -0.016660 0.000000 1.587940 
# 
# From -- ./inp_files/348639.got.cif
#   From: 2010.05.17/outbox.cif.g08.bks.cpg/sg12_175_cif.got.tgz:348639.got - 2010.06.03 13:09:07.
