data_PCOD9175333
_publ_section_title
;
Structure prediction by ZEFSAII (Michael W. Deem and Ramdas Pophale) SiO2 
 PCOD9175333
Probable space group: C 2/M
;
_chemical_formula_sum "Si O2"
_cell_formula_units_Z 56
_cell_length_a 19.694857
_cell_length_b 19.472174
_cell_length_c 9.106354
_cell_angle_alpha 90.000000
_cell_angle_beta 62.211682
_cell_angle_gamma 90.000000
_cell_volume 3089.556003
_symmetry_space_group_name_H-M "C 2/M"
_symmetry_group_IT_number 12
_symmetry_cell_setting 'monoclinic'
loop_
_space_group_symop_operation_xyz
x,y,z
-x,y,-z
-x,-y,-z
x,-y,z
1/2+x,1/2+y,z
1/2-x,1/2+y,-z
1/2-x,1/2-y,-z
1/2+x,1/2-y,z
loop_
_atom_site_type_symbol
_atom_site_label
_atom_site_fract_x
_atom_site_fract_y
_atom_site_fract_z
Si Si1 0.588381 0.172456 0.549918
Si Si2 0.810887 0.221614 0.730190
Si Si3 0.201479 0.079542 0.785331
Si Si4 0.347589 0.295902 0.023068
Si Si5 0.740566 0.167402 0.542800
Si Si6 0.952347 0.669213 0.907636
Si Si7 0.370127 0.920816 0.757188
O O1 0.624939 0.236629 0.425123
O O2 0.651122 0.153199 0.610802
O O3 0.511386 0.186146 0.715574
O O4 0.588317 0.113543 0.426007
O O5 0.736764 0.270019 0.837857
O O6 0.777062 0.160863 0.665404
O O7 0.844037 0.200733 0.851844
O O8 0.140179 0.129117 0.923729
O O9 0.219400 0.118076 0.614478
O O10 0.279973 0.082487 0.804226
O O11 0.181530 0.000000 0.787377
O O12 0.407975 0.237414 0.004328
O O13 0.750000 0.250000 0.500000
O O14 0.891791 0.619940 0.883937
O O15 0.000000 0.641474 0.000000
O O16 0.392328 0.000000 0.749989
#
# Coordination Sequence:
#
# PCOD9175333 Si02
#       7
#     8   8   8   8   8   8   8
#     4  10  19  35  50  81 110 146 189 227 275 343
#     4  10  18  32  59  81 105 142 191 241 277 318
#     4  10  20  36  60  87 113 147 189 234 287 341
#     4  11  19  35  55  85 109 147 185 241 282 326
#     4   9  16  32  56  82 102 143 186 235 278 325
#     4  12  25  33  52  85 120 148 198 234 278 330
#     4  10  20  38  58  78 115 160 192 224 278 344
#
# _framework density 18.125582000000001
#
# number of rings (size 3 to 8) (size 9 to 14) (size 15 to 20)
#    0.000    1.714    5.714    2.143    2.000    1.429 
#    0.000    0.714    0.000    6.429    0.000    1.000 
#    0.000    0.000    0.000    0.000    0.000    0.000 
#
# Total GULP energy -156030.598454 kJ/mol
# GULP energy per Si atom -5572.521373 kJ/mol
# Density = 1.808433 g / cm^3
# Si number density = 18.125582 Si / 1000 Ang^3
#
#
#
# Elastic Constant Matrix: (Units=GPa)
#
#
# Indices 1 2 3 4 5 6 
#
# 1 42.0765 21.4922 9.0874 0.0000 25.0101 0.0000
# 2 21.4922 118.0900 29.4363 0.0000 5.9752 0.0000
# 3 9.0874 29.4363 59.9017 0.0000 8.4795 0.0000
# 4 0.0000 0.0000 0.0000 20.5107 0.0000 3.9411
# 5 25.0101 5.9752 8.4795 0.0000 36.5004 0.0000
# 6 0.0000 0.0000 0.0000 3.9411 0.0000 15.2850
#
#
#
# Elastic Compliance Matrix: (Units=1/GPa)
#
#
# Indices 1 2 3 4 5 6 
#
# 1 0.044764 -0.006836 0.000778 0.000000 -0.029734 0.000000
# 2 -0.006836 0.010703 -0.004795 0.000000 0.004046 0.000000
# 3 0.000778 -0.004795 0.019539 0.000000 -0.004287 0.000000
# 4 0.000000 0.000000 0.000000 0.051296 0.000000 -0.013226
# 5 -0.029734 0.004046 -0.004287 0.000000 0.048104 0.000000
# 6 0.000000 0.000000 0.000000 -0.013226 0.000000 0.068834
#
#
# Mechanical properties :
#
#
# Convention : Reuss Voigt Hill
#
# Bulk Modulus (GPa) = 18.76232 37.78888 28.27560
# Shear Modulus (GPa) = 17.68568 25.12936 21.40752
#
# Velocity S-wave (km/s) = 3.12706 3.72748 3.44039
# Velocity P-wave (km/s) = 4.83857 6.27847 5.60495
#
# Compressibility (1/GPa) = 0.05329831
#
# Stress axis : x y z
#
# Youngs Moduli (GPa) = 22.33942 93.43276 51.17889
#
# Poissons Ratio (x) = 0.63874 -0.03980
# Poissons Ratio (y) = 0.15272 0.24541
# Poissons Ratio (z) = -0.01737 0.44803
#
# Static dielectric constant tensor:
#      x y z
#    x 1.682230 0.000000 0.015960 
#    y 0.000000 1.632550 0.000000 
#    z 0.015960 0.000000 1.654930 
# 
# From -- ./inp_files/87851.got.cif
#   From: 2010.05.17/outbox.cif.g08.bks.cpg/sg12_44_cif.got.tgz:87851.got - 2010.06.03 13:09:07.
