data_PCOD9175764
_publ_section_title
;
Structure prediction by ZEFSAII (Michael W. Deem and Ramdas Pophale) SiO2 
 PCOD9175764
Probable space group: C 2/M
;
_chemical_formula_sum "Si O2"
_cell_formula_units_Z 64
_cell_length_a 20.964042
_cell_length_b 7.501560
_cell_length_c 23.395227
_cell_angle_alpha 90.000000
_cell_angle_beta 125.358776
_cell_angle_gamma 90.000000
_cell_volume 3000.554145
_symmetry_space_group_name_H-M "C 2/M"
_symmetry_group_IT_number 12
_symmetry_cell_setting 'monoclinic'
loop_
_space_group_symop_operation_xyz
x,y,z
-x,y,-z
-x,-y,-z
x,-y,z
1/2+x,1/2+y,z
1/2-x,1/2+y,-z
1/2-x,1/2-y,-z
1/2+x,1/2-y,z
loop_
_atom_site_type_symbol
_atom_site_label
_atom_site_fract_x
_atom_site_fract_y
_atom_site_fract_z
Si Si1 0.969554 0.717504 0.161277
Si Si2 0.290566 0.788151 0.081042
Si Si3 0.408356 0.216952 0.450015
Si Si4 0.975184 0.718285 0.688733
Si Si5 0.160021 0.286596 0.466040
Si Si6 0.455262 0.218523 0.919248
Si Si7 0.721162 0.796729 0.164210
Si Si8 0.622549 0.793188 0.691059
O O1 0.969094 0.500000 0.159830
O O2 0.880143 0.774645 0.124962
O O3 0.019333 0.773852 0.242365
O O4 0.002047 0.775052 0.116826
O O5 0.242937 0.707272 0.108715
O O6 0.292103 0.000000 0.091893
O O7 0.250000 0.750000 0.000000
O O8 0.500000 0.260999 0.500000
O O9 0.365656 0.282070 0.484929
O O10 0.376161 0.281802 0.372362
O O11 0.402337 0.000000 0.448149
O O12 0.975497 0.500000 0.689893
O O13 0.053526 0.779276 0.695753
O O14 0.899665 0.777878 0.613923
O O15 0.150108 0.500000 0.462102
O O16 0.250000 0.250000 0.500000
O O17 0.365269 0.279825 0.872501
O O18 0.454733 0.000000 0.920018
O O19 0.500000 0.275022 0.000000
O O20 0.794024 0.713913 0.235221
O O21 0.718081 0.000000 0.182808
O O22 0.600743 0.000000 0.672668
#
# Coordination Sequence:
#
# PCOD9175764 Si02
#       8
#     8   8   8   8   8   8   8   8
#     4   9  17  31  54  79 100 136 188 227 261 316
#     4  11  21  35  58  84 110 141 183 231 273 320
#     4   9  16  30  56  81 101 138 192 232 261 316
#     4   9  16  30  54  79 102 136 183 228 266 317
#     4  10  20  34  54  81 111 142 180 227 275 327
#     4   9  18  33  51  73 104 141 180 220 261 318
#     4  11  22  35  54  83 114 142 176 225 280 329
#     4  10  18  33  57  82 106 138 184 233 274 318
#
# _framework density 21.329395000000002
#
# number of rings (size 3 to 8) (size 9 to 14) (size 15 to 20)
#    0.000    2.250    2.500    1.500    0.000    3.000 
#    0.000    2.500    0.000    9.000    0.000    0.000 
#    0.000    0.000    0.000    0.000    0.000    0.000 
#
# Total GULP energy -178730.892292 kJ/mol
# GULP energy per Si atom -5585.340384 kJ/mol
# Density = 2.128085 g / cm^3
# Si number density = 21.329395 Si / 1000 Ang^3
#
#
#
# Elastic Constant Matrix: (Units=GPa)
#
#
# Indices 1 2 3 4 5 6 
#
# 1 128.3783 0.7971 47.6285 0.0000 -4.6667 0.0000
# 2 0.7971 54.5957 -1.8987 0.0000 -1.8919 -0.0001
# 3 47.6285 -1.8987 142.4177 0.0000 -13.7500 0.0000
# 4 0.0000 0.0000 0.0000 4.1458 0.0000 10.6434
# 5 -4.6667 -1.8919 -13.7500 0.0000 40.8393 0.0000
# 6 0.0000 -0.0001 0.0000 10.6434 0.0000 7.8218
#
#
#
# Elastic Compliance Matrix: (Units=1/GPa)
#
#
# Indices 1 2 3 4 5 6 
#
# 1 0.008896 -0.000233 -0.002978 0.000000 0.000003 0.000000
# 2 -0.000233 0.018368 0.000416 0.000000 0.000964 0.000000
# 3 -0.002978 0.000416 0.008261 0.000000 0.002460 0.000000
# 4 0.000000 0.000000 0.000000 -0.096740 0.000000 0.131637
# 5 0.000003 0.000964 0.002460 0.000000 0.025360 0.000000
# 6 0.000000 0.000000 0.000000 0.131637 0.000000 -0.051275
#
#
# Mechanical properties :
#
#
# Convention : Reuss Voigt Hill
#
# Bulk Modulus (GPa) = 33.40702 46.49394 39.95048
# Shear Modulus (GPa) = -69.86836 29.15237 -20.35799
#
# Velocity S-wave (km/s) = -5.72957 3.70100 -3.09278
# Velocity P-wave (km/s) = 5.29851 6.33313 2.45299
#
# Compressibility (1/GPa) = 0.02993383
#
# Stress axis : x y z
#
# Youngs Moduli (GPa) = 112.41237 54.44321 121.05749
#
# Poissons Ratio (x) = 0.01270 0.36049
# Poissons Ratio (y) = 0.02623 -0.05036
# Poissons Ratio (z) = 0.33474 -0.02265
#
# Static dielectric constant tensor:
#      x y z
#    x 1.718770 0.000000 -0.003080 
#    y 0.000000 1.836960 0.000000 
#    z -0.003080 0.000000 1.736030 
# 
# From -- ./inp_files/346183.got.cif
#   From: 2010.05.17/outbox.cif.g08.bks.cpg/sg12_174_cif.got.tgz:346183.got - 2010.06.03 13:09:07.
