data_PCOD9175132
_publ_section_title
;
Structure prediction by ZEFSAII (Michael W. Deem and Ramdas Pophale) SiO2 
 PCOD9175132
Probable space group: C 2/M
;
_chemical_formula_sum "Si O2"
_cell_formula_units_Z 40
_cell_length_a 19.069778
_cell_length_b 20.366761
_cell_length_c 10.449430
_cell_angle_alpha 90.000000
_cell_angle_beta 36.238005
_cell_angle_gamma 90.000000
_cell_volume 2399.115428
_symmetry_space_group_name_H-M "C 2/M"
_symmetry_group_IT_number 12
_symmetry_cell_setting 'monoclinic'
loop_
_space_group_symop_operation_xyz
x,y,z
-x,y,-z
-x,-y,-z
x,-y,z
1/2+x,1/2+y,z
1/2-x,1/2+y,-z
1/2-x,1/2-y,-z
1/2+x,1/2-y,z
loop_
_atom_site_type_symbol
_atom_site_label
_atom_site_fract_x
_atom_site_fract_y
_atom_site_fract_z
Si Si1 0.736257 0.165393 0.883746
Si Si2 0.800515 0.660397 0.537836
Si Si3 0.983798 0.421919 0.873042
Si Si4 0.155721 0.182948 0.001560
Si Si5 0.620850 0.311729 0.577038
O O1 0.633842 0.113473 0.004843
O O2 0.794622 0.157539 0.936538
O O3 0.678539 0.238330 0.964871
O O4 0.833707 0.164395 0.627891
O O5 0.902445 0.607348 0.366835
O O6 0.729187 0.654179 0.774879
O O7 0.707216 0.659780 0.558603
O O8 0.861231 0.732680 0.446410
O O9 0.976134 0.500000 0.871088
O O10 0.000000 0.405773 0.000000
O O11 0.984419 0.171787 0.802530
#
# Coordination Sequence:
#
# PCOD9175132 Si02
#       5
#     8   8   8   8   8
#     4  10  20  34  53  83 113 146 187 218 284 338
#     4  10  20  32  55  84 109 144 188 224 279 324
#     4  11  22  39  60  79 112 151 194 232 264 336
#     4  10  20  32  54  84 118 141 170 241 288 325
#     4  10  18  32  56  80 117 144 173 236 276 331
#
# _framework density 16.672812
#
# number of rings (size 3 to 8) (size 9 to 14) (size 15 to 20)
#    0.000    1.800    4.000    1.200    0.000    0.800 
#    0.000    2.000    0.000    7.200    0.000    0.000 
#    0.000    0.000    0.000    0.000    0.000    0.000 
#
# Total GULP energy -111649.712534 kJ/mol
# GULP energy per Si atom -5582.485627 kJ/mol
# Density = 1.663486 g / cm^3
# Si number density = 16.672812 Si / 1000 Ang^3
#
#
#
# Elastic Constant Matrix: (Units=GPa)
#
#
# Indices 1 2 3 4 5 6 
#
# 1 70.0643 35.4988 56.2226 0.0001 -6.3045 -0.0001
# 2 35.4988 45.1112 34.8162 0.0001 -3.1698 -0.0001
# 3 56.2226 34.8162 136.2309 0.0001 -2.3551 -0.0001
# 4 0.0001 0.0001 0.0001 15.2414 -0.0001 -0.6543
# 5 -6.3045 -3.1698 -2.3551 -0.0001 37.1882 0.0001
# 6 -0.0001 -0.0001 -0.0001 -0.6543 0.0001 19.7992
#
#
#
# Elastic Compliance Matrix: (Units=1/GPa)
#
#
# Indices 1 2 3 4 5 6 
#
# 1 0.029296 -0.016878 -0.007724 0.000000 0.003039 0.000000
# 2 -0.016878 0.037475 -0.002609 0.000000 0.000168 0.000000
# 3 -0.007724 -0.002609 0.011181 0.000000 -0.000824 0.000000
# 4 0.000000 0.000000 0.000000 0.065704 0.000000 0.002171
# 5 0.003039 0.000168 -0.000824 0.000000 0.027368 0.000000
# 6 0.000000 0.000000 0.000000 0.002171 0.000000 0.050579
#
#
# Mechanical properties :
#
#
# Convention : Reuss Voigt Hill
#
# Bulk Modulus (GPa) = 42.50186 56.05350 49.27768
# Shear Modulus (GPa) = 17.61385 22.77034 20.19209
#
# Velocity S-wave (km/s) = 3.25382 3.69957 3.48383
# Velocity P-wave (km/s) = 6.29790 7.20706 6.76777
#
# Compressibility (1/GPa) = 0.02352838
#
# Stress axis : x y z
#
# Youngs Moduli (GPa) = 34.13429 26.68481 89.43930
#
# Poissons Ratio (x) = 0.45040 0.69086
# Poissons Ratio (y) = 0.57614 0.23331
# Poissons Ratio (z) = 0.26367 0.06961
#
# Static dielectric constant tensor:
#      x y z
#    x 1.540840 0.000000 0.012450 
#    y 0.000000 1.532720 0.000000 
#    z 0.012450 0.000000 1.553490 
# 
# From -- ./inp_files/85504.got.cif
#   From: 2010.05.17/outbox.cif.g08.bks.cpg/sg12_43_cif.got.tgz:85504.got - 2010.06.03 13:09:07.
