data_PCOD9175727
_publ_section_title
;
Structure prediction by ZEFSAII (Michael W. Deem and Ramdas Pophale) SiO2 
 PCOD9175727
Probable space group: C 2/M
;
_chemical_formula_sum "Si O2"
_cell_formula_units_Z 56
_cell_length_a 7.540536
_cell_length_b 24.594396
_cell_length_c 17.238554
_cell_angle_alpha 90.000000
_cell_angle_beta 45.040950
_cell_angle_gamma 90.000000
_cell_volume 2262.217662
_symmetry_space_group_name_H-M "C 2/M"
_symmetry_group_IT_number 12
_symmetry_cell_setting 'monoclinic'
loop_
_space_group_symop_operation_xyz
x,y,z
-x,y,-z
-x,-y,-z
x,-y,z
1/2+x,1/2+y,z
1/2-x,1/2+y,-z
1/2-x,1/2-y,-z
1/2+x,1/2-y,z
loop_
_atom_site_type_symbol
_atom_site_label
_atom_site_fract_x
_atom_site_fract_y
_atom_site_fract_z
Si Si1 0.547346 0.827992 0.792585
Si Si2 0.747580 0.772762 0.587631
Si Si3 0.354340 0.936170 0.624611
Si Si4 0.990555 0.559641 0.739082
Si Si5 0.085897 0.941532 0.062675
Si Si6 0.441591 0.675205 0.268784
Si Si7 0.256624 0.176365 0.028740
O O1 0.555678 0.805155 0.702309
O O2 0.541470 0.892815 0.782510
O O3 0.316014 0.810577 0.920242
O O4 0.806972 0.815894 0.757078
O O5 0.750000 0.750000 0.500000
O O6 0.758539 0.717481 0.636206
O O7 0.000000 0.808262 0.500000
O O8 0.500000 0.928033 0.500000
O O9 0.566228 0.930749 0.627253
O O10 0.156960 0.886080 0.691235
O O11 0.264768 0.000000 0.651984
O O12 0.064360 0.500000 0.744548
O O13 0.690036 0.559167 0.815437
O O14 0.206839 0.000000 0.039265
O O15 0.000000 0.938000 0.000000
O O16 0.243020 0.889352 0.035192
O O17 0.518920 0.690178 0.156018
O O18 0.500000 0.195457 0.000000
#
# Coordination Sequence:
#
# PCOD9175727 Si02
#       7
#     8   8   8   8   8   8   8
#     4  11  25  42  64  97 132 164 214 266 320 387
#     4  12  27  48  71  95 120 163 220 270 326 386
#     4  10  22  39  63  96 130 171 219 263 314 376
#     4  10  21  37  61  93 131 173 214 257 310 374
#     4  10  18  33  56  88 128 170 212 249 296 369
#     4  11  24  43  67  92 130 172 210 266 321 383
#     4  10  22  39  60  93 132 169 206 258 320 380
#
# _framework density 24.754470999999999
#
# number of rings (size 3 to 8) (size 9 to 14) (size 15 to 20)
#    0.000    1.429    4.286    0.429    4.000    1.429 
#    0.000    2.857    0.000    3.000    0.000    0.000 
#    0.000    0.000    0.000    0.000    0.000    0.000 
#
# Total GULP energy -156024.615665 kJ/mol
# GULP energy per Si atom -5572.307702 kJ/mol
# Density = 2.469813 g / cm^3
# Si number density = 24.754471 Si / 1000 Ang^3
#
#
#
# Elastic Constant Matrix: (Units=GPa)
#
#
# Indices 1 2 3 4 5 6 
#
# 1 39.7286 19.4059 33.5022 0.0000 -6.3456 0.0000
# 2 19.4059 124.3292 41.0308 0.0000 -0.4798 0.0000
# 3 33.5022 41.0308 204.8068 0.0000 24.0821 0.0000
# 4 0.0000 0.0000 0.0000 36.4426 0.0000 -2.6836
# 5 -6.3456 -0.4798 24.0821 0.0000 36.1018 0.0000
# 6 0.0000 0.0000 0.0000 -2.6836 0.0000 13.4996
#
#
#
# Elastic Compliance Matrix: (Units=1/GPa)
#
#
# Indices 1 2 3 4 5 6 
#
# 1 0.033324 -0.003196 -0.005962 0.000000 0.009792 0.000000
# 2 -0.003196 0.008982 -0.001329 0.000000 0.000444 0.000000
# 3 -0.005962 -0.001329 0.006781 0.000000 -0.005589 0.000000
# 4 0.000000 0.000000 0.000000 0.027848 0.000000 0.005536
# 5 0.009792 0.000444 -0.005589 0.000000 0.033155 0.000000
# 6 0.000000 0.000000 0.000000 0.005536 0.000000 0.075177
#
#
# Mechanical properties :
#
#
# Convention : Reuss Voigt Hill
#
# Bulk Modulus (GPa) = 35.57038 61.86026 48.71532
# Shear Modulus (GPa) = 23.18980 35.53718 29.36349
#
# Velocity S-wave (km/s) = 3.06403 3.79302 3.44785
# Velocity P-wave (km/s) = 5.18827 6.65030 5.96425
#
# Compressibility (1/GPa) = 0.02811328
#
# Stress axis : x y z
#
# Youngs Moduli (GPa) = 30.00870 111.33029 147.46248
#
# Poissons Ratio (x) = 0.35580 0.87920
# Poissons Ratio (y) = 0.09591 0.19597
# Poissons Ratio (z) = 0.17892 0.14795
#
# Static dielectric constant tensor:
#      x y z
#    x 2.037740 0.000000 0.032640 
#    y 0.000000 1.991710 0.000000 
#    z 0.032640 0.000000 2.301960 
# 
# From -- ./inp_files/259166.got.cif
#   From: 2010.05.17/outbox.cif.g08.bks.cpg/sg12_130_cif.got.tgz:259166.got - 2010.06.03 13:09:07.
