data_PCOD9175374
_publ_section_title
;
Structure prediction by ZEFSAII (Michael W. Deem and Ramdas Pophale) SiO2 
 PCOD9175374
Probable space group: C 2/M
;
_chemical_formula_sum "Si O2"
_cell_formula_units_Z 56
_cell_length_a 24.458765
_cell_length_b 28.083237
_cell_length_c 5.488734
_cell_angle_alpha 90.000000
_cell_angle_beta 137.199277
_cell_angle_gamma 90.000000
_cell_volume 2561.602488
_symmetry_space_group_name_H-M "C 2/M"
_symmetry_group_IT_number 12
_symmetry_cell_setting 'monoclinic'
loop_
_space_group_symop_operation_xyz
x,y,z
-x,y,-z
-x,-y,-z
x,-y,z
1/2+x,1/2+y,z
1/2-x,1/2+y,-z
1/2-x,1/2-y,-z
1/2+x,1/2-y,z
loop_
_atom_site_type_symbol
_atom_site_label
_atom_site_fract_x
_atom_site_fract_y
_atom_site_fract_z
Si Si1 0.380001 0.601360 0.549168
Si Si2 0.827577 0.175379 0.995273
Si Si3 0.631959 0.500000 0.522092
Si Si4 0.163753 0.724466 0.558097
Si Si5 0.734360 0.500000 0.355431
Si Si6 0.403905 0.822418 0.164586
Si Si7 0.723982 0.899438 0.333486
Si Si8 0.575497 0.307805 0.095898
O O1 0.414188 0.549888 0.607811
O O2 0.286058 0.593020 0.313182
O O3 0.422909 0.634617 0.888579
O O4 0.374346 0.638420 0.315184
O O5 0.757029 0.211572 0.835400
O O6 0.773726 0.139278 0.653021
O O7 0.900782 0.202753 0.101724
O O8 0.670025 0.500000 0.371606
O O9 0.692691 0.500000 0.953731
O O10 0.129729 0.703343 0.699787
O O11 0.147728 0.780705 0.470042
O O12 0.119405 0.701542 0.173390
O O13 0.781846 0.450319 0.551013
O O14 0.500000 0.825509 0.500000
O O15 0.358228 0.873704 0.008537
O O16 0.500000 0.290186 0.000000
#
# Coordination Sequence:
#
# PCOD9175374 Si02
#       8
#     8   8   4   8   4   8   8   8
#     4  10  20  38  62  86 121 152 206 254 306 361
#     4  10  20  38  63  88 117 158 207 255 296 357
#     4  10  20  36  63  93 112 156 202 254 306 362
#     4  11  24  42  63  88 122 166 213 248 296 359
#     4  10  18  32  61  88 120 151 202 256 306 356
#     4  11  22  38  60  88 127 167 205 250 304 364
#     4   9  19  35  56  90 118 156 204 255 302 361
#     4  11  25  40  58  90 127 164 202 253 313 365
#
# _framework density 21.861315999999999
#
# number of rings (size 3 to 8) (size 9 to 14) (size 15 to 20)
#    0.000    1.714    2.857    1.714    2.000    1.143 
#    0.000    0.714    0.000    0.857    0.000    5.000 
#    0.000    0.000    0.000    0.000    0.000    0.000 
#
# Total GULP energy -156036.584408 kJ/mol
# GULP energy per Si atom -5572.735157 kJ/mol
# Density = 2.181156 g / cm^3
# Si number density = 21.861316 Si / 1000 Ang^3
#
#
#
# Elastic Constant Matrix: (Units=GPa)
#
#
# Indices 1 2 3 4 5 6 
#
# 1 109.6737 29.3018 26.9286 0.0000 1.3630 0.0000
# 2 29.3018 142.2166 14.1236 0.0000 -5.2187 0.0000
# 3 26.9286 14.1236 76.1919 0.0000 -7.6706 0.0000
# 4 0.0000 0.0000 0.0000 25.2626 0.0000 -11.4038
# 5 1.3630 -5.2187 -7.6706 0.0000 31.2616 0.0000
# 6 0.0000 0.0000 0.0000 -11.4038 0.0000 20.3829
#
#
#
# Elastic Compliance Matrix: (Units=1/GPa)
#
#
# Indices 1 2 3 4 5 6 
#
# 1 0.010506 -0.001874 -0.003531 0.000000 -0.001637 0.000000
# 2 -0.001874 0.007522 -0.000612 0.000000 0.001187 0.000000
# 3 -0.003531 -0.000612 0.014858 0.000000 0.003697 0.000000
# 4 0.000000 0.000000 0.000000 0.052959 0.000000 0.029630
# 5 -0.001637 0.001187 0.003697 0.000000 0.033165 0.000000
# 6 0.000000 0.000000 0.000000 0.029630 0.000000 0.065638
#
#
# Mechanical properties :
#
#
# Convention : Reuss Voigt Hill
#
# Bulk Modulus (GPa) = 47.95683 52.08780 50.02232
# Shear Modulus (GPa) = 24.55392 32.56329 28.55860
#
# Velocity S-wave (km/s) = 3.35500 3.86364 3.61827
# Velocity P-wave (km/s) = 6.08215 6.61678 6.35509
#
# Compressibility (1/GPa) = 0.02085209
#
# Stress axis : x y z
#
# Youngs Moduli (GPa) = 95.18489 132.94262 67.30225
#
# Poissons Ratio (x) = 0.24914 0.23761
# Poissons Ratio (y) = 0.17838 0.04122
# Poissons Ratio (z) = 0.33605 0.08143
#
# Static dielectric constant tensor:
#      x y z
#    x 1.966680 0.000000 -0.111400 
#    y 0.000000 1.870540 0.000000 
#    z -0.111400 0.000000 1.861820 
# 
# From -- ./inp_files/29817.got.cif
#   From: 2010.05.17/outbox.cif.g08.bks.cpg/sg12_15_cif.got.tgz:29817.got - 2010.06.03 13:09:07.
