data_PCOD9175517
_publ_section_title
;
Structure prediction by ZEFSAII (Michael W. Deem and Ramdas Pophale) SiO2 
 PCOD9175517
Probable space group: C 2/M
;
_chemical_formula_sum "Si O2"
_cell_formula_units_Z 44
_cell_length_a 14.489477
_cell_length_b 30.780630
_cell_length_c 5.176272
_cell_angle_alpha 90.000000
_cell_angle_beta 72.147974
_cell_angle_gamma 90.000000
_cell_volume 2197.437170
_symmetry_space_group_name_H-M "C 2/M"
_symmetry_group_IT_number 12
_symmetry_cell_setting 'monoclinic'
loop_
_space_group_symop_operation_xyz
x,y,z
-x,y,-z
-x,-y,-z
x,-y,z
1/2+x,1/2+y,z
1/2-x,1/2+y,-z
1/2-x,1/2-y,-z
1/2+x,1/2-y,z
loop_
_atom_site_type_symbol
_atom_site_label
_atom_site_fract_x
_atom_site_fract_y
_atom_site_fract_z
Si Si1 0.894355 0.670330 0.949607
Si Si2 0.261607 0.092603 0.117481
Si Si3 0.500000 0.111368 0.500000
Si Si4 0.931604 0.762540 0.808694
Si Si5 0.932097 0.140083 0.806984
Si Si6 0.154525 0.551027 0.478148
O O1 0.919186 0.644329 0.668863
O O2 0.866927 0.719860 0.912143
O O3 0.816172 0.638308 0.140115
O O4 0.000000 0.670581 0.000000
O O5 0.268615 0.063675 0.367775
O O6 0.154440 0.105979 0.124234
O O7 0.312565 0.067694 0.833789
O O8 0.556937 0.077989 0.635341
O O9 0.888486 0.810720 0.826185
O O10 0.000000 0.754791 0.500000
O O11 0.000000 0.764922 0.000000
O O12 0.000000 0.134926 0.500000
O O13 0.000000 0.136749 0.000000
O O14 0.136740 0.500000 0.488028
#
# Coordination Sequence:
#
# PCOD9175517 Si02
#       6
#     8   8   4   8   8   8
#     4  10  18  33  53  84 126 152 191 221 277 342
#     4  11  23  37  62  86 113 156 192 240 293 344
#     4  10  19  34  56  84 122 164 184 220 275 356
#     4   9  18  31  54  80 116 156 188 234 274 328
#     4  10  21  40  60  84 113 152 200 243 292 334
#     4  11  23  39  59  87 119 150 192 238 290 351
#
# _framework density 20.023326000000001
#
# number of rings (size 3 to 8) (size 9 to 14) (size 15 to 20)
#    0.000    1.818    2.727    1.909    0.000    0.727 
#    0.000    2.727    0.000   22.909    0.000    0.000 
#    0.000    0.000    0.000    0.000    0.000    0.000 
#
# Total GULP energy -122558.356933 kJ/mol
# GULP energy per Si atom -5570.834406 kJ/mol
# Density = 1.997775 g / cm^3
# Si number density = 20.023326 Si / 1000 Ang^3
#
#
#
# Elastic Constant Matrix: (Units=GPa)
#
#
# Indices 1 2 3 4 5 6 
#
# 1 62.1373 17.9253 6.7341 0.0000 11.6551 0.0000
# 2 17.9253 70.3153 5.3699 0.0000 3.5393 0.0000
# 3 6.7341 5.3699 77.0012 0.0000 22.5385 0.0000
# 4 0.0000 0.0000 0.0000 28.6870 0.0000 3.3684
# 5 11.6551 3.5393 22.5385 0.0000 20.9764 0.0000
# 6 0.0000 0.0000 0.0000 3.3684 0.0000 21.6278
#
#
#
# Elastic Compliance Matrix: (Units=1/GPa)
#
#
# Indices 1 2 3 4 5 6 
#
# 1 0.019496 -0.004514 0.002272 0.000000 -0.012512 0.000000
# 2 -0.004514 0.015398 -0.000952 0.000000 0.000933 0.000000
# 3 0.002272 -0.000952 0.019222 0.000000 -0.021756 0.000000
# 4 0.000000 0.000000 0.000000 0.035508 0.000000 -0.005530
# 5 -0.012512 0.000933 -0.021756 0.000000 0.077843 0.000000
# 6 0.000000 0.000000 0.000000 -0.005530 0.000000 0.047098
#
#
# Mechanical properties :
#
#
# Convention : Reuss Voigt Hill
#
# Bulk Modulus (GPa) = 20.95156 29.94583 25.44869
# Shear Modulus (GPa) = 21.10914 26.21986 23.66450
#
# Velocity S-wave (km/s) = 3.25041 3.62258 3.44153
# Velocity P-wave (km/s) = 4.95713 5.69960 5.34128
#
# Compressibility (1/GPa) = 0.04772915
#
# Stress axis : x y z
#
# Youngs Moduli (GPa) = 51.29190 64.94301 52.02246
#
# Poissons Ratio (x) = 0.29314 -0.11820
# Poissons Ratio (y) = 0.23152 0.04953
# Poissons Ratio (z) = -0.11654 0.06184
#
# Static dielectric constant tensor:
#      x y z
#    x 1.708950 0.000000 0.002980 
#    y 0.000000 1.720880 0.000000 
#    z 0.002980 0.000000 1.729660 
# 
# From -- ./inp_files/8416.got.cif
#   From: 2010.05.17/outbox.cif.g08.bks.cpg/sg12_5_cif.got.tgz:8416.got - 2010.06.03 13:09:07.
