data_PCOD9175889
_publ_section_title
;
Structure prediction by ZEFSAII (Michael W. Deem and Ramdas Pophale) SiO2 
 PCOD9175889
Probable space group: C 2/M
;
_chemical_formula_sum "Si O2"
_cell_formula_units_Z 56
_cell_length_a 8.948722
_cell_length_b 18.646855
_cell_length_c 27.130373
_cell_angle_alpha 90.000000
_cell_angle_beta 136.864421
_cell_angle_gamma 90.000000
_cell_volume 3095.317035
_symmetry_space_group_name_H-M "C 2/M"
_symmetry_group_IT_number 12
_symmetry_cell_setting 'monoclinic'
loop_
_space_group_symop_operation_xyz
x,y,z
-x,y,-z
-x,-y,-z
x,-y,z
1/2+x,1/2+y,z
1/2-x,1/2+y,-z
1/2-x,1/2-y,-z
1/2+x,1/2-y,z
loop_
_atom_site_type_symbol
_atom_site_label
_atom_site_fract_x
_atom_site_fract_y
_atom_site_fract_z
Si Si1 0.476285 0.919918 0.239965
Si Si2 0.423646 0.338365 0.850220
Si Si3 0.733275 0.222006 0.551790
Si Si4 0.830372 0.330273 0.005144
Si Si5 0.217824 0.202878 0.649819
Si Si6 0.407630 0.706141 0.212742
Si Si7 0.080690 0.414462 0.152347
O O1 0.236901 0.902389 0.202176
O O2 0.642512 0.866390 0.305054
O O3 0.470018 0.908123 0.179383
O O4 0.545521 0.000000 0.265805
O O5 0.553129 0.310157 0.834576
O O6 0.264682 0.271894 0.826002
O O7 0.600939 0.363572 0.932253
O O8 0.500000 0.180084 0.500000
O O9 0.750000 0.250000 0.500000
O O10 0.707342 0.280546 0.589044
O O11 0.979689 0.192820 0.616964
O O12 0.939680 0.374646 0.075976
O O13 0.750000 0.250000 0.000000
O O14 0.000000 0.327883 0.000000
O O15 0.363134 0.267508 0.708564
O O16 0.299453 0.634447 0.208910
O O17 0.113163 0.500000 0.150082
#
# Coordination Sequence:
#
# PCOD9175889 Si02
#       7
#     8   8   8   8   8   8   8
#     4  10  23  39  57  82 115 151 193 240 287 339
#     4  11  21  36  57  80 108 144 195 248 292 344
#     4   9  18  32  55  89 119 140 173 223 267 319
#     4  12  24  38  58  79 105 149 196 245 301 355
#     4  10  18  33  59  84 112 149 183 224 280 330
#     4  11  20  36  57  84 109 143 192 239 285 345
#     4  11  24  39  54  79 113 151 193 247 300 345
#
# _framework density 18.091844999999999
#
# number of rings (size 3 to 8) (size 9 to 14) (size 15 to 20)
#    0.000    1.429    2.857    4.286    2.000    1.429 
#    0.000    1.429    0.000    4.286    0.000    4.000 
#    0.000    0.000    0.000    0.000    0.000    0.000 
#
# Total GULP energy -155958.750865 kJ/mol
# GULP energy per Si atom -5569.955388 kJ/mol
# Density = 1.805067 g / cm^3
# Si number density = 18.091845 Si / 1000 Ang^3
#
#
#
# Elastic Constant Matrix: (Units=GPa)
#
#
# Indices 1 2 3 4 5 6 
#
# 1 53.3776 7.3306 14.9328 0.0000 8.9827 0.0000
# 2 7.3306 81.5325 26.0800 0.0000 -2.0908 0.0000
# 3 14.9328 26.0800 96.4914 0.0001 13.5008 0.0000
# 4 0.0000 0.0000 0.0001 8.5961 0.0000 -5.3632
# 5 8.9827 -2.0908 13.5008 0.0000 38.9087 0.0000
# 6 0.0000 0.0000 0.0000 -5.3632 0.0000 16.9067
#
#
#
# Elastic Compliance Matrix: (Units=1/GPa)
#
#
# Indices 1 2 3 4 5 6 
#
# 1 0.020192 -0.001197 -0.002249 0.000000 -0.003946 0.000000
# 2 -0.001197 0.013659 -0.003834 0.000000 0.002341 0.000000
# 3 -0.002249 -0.003834 0.012301 0.000000 -0.003955 0.000000
# 4 0.000000 0.000000 0.000000 0.145037 0.000000 0.046009
# 5 -0.003946 0.002341 -0.003955 0.000000 0.028110 0.000000
# 6 0.000000 0.000000 0.000000 0.046009 0.000000 0.073743
#
#
# Mechanical properties :
#
#
# Convention : Reuss Voigt Hill
#
# Bulk Modulus (GPa) = 31.65401 36.45426 34.05414
# Shear Modulus (GPa) = 15.71661 25.08616 20.40138
#
# Velocity S-wave (km/s) = 2.95059 3.72775 3.36170
# Velocity P-wave (km/s) = 5.39836 6.22266 5.82510
#
# Compressibility (1/GPa) = 0.03159157
#
# Stress axis : x y z
#
# Youngs Moduli (GPa) = 49.52438 73.21113 81.29161
#
# Poissons Ratio (x) = 0.08765 0.18285
# Poissons Ratio (y) = 0.05929 0.31168
# Poissons Ratio (z) = 0.11139 0.28070
#
# Static dielectric constant tensor:
#      x y z
#    x 1.642740 0.000000 0.017320 
#    y 0.000000 1.610290 0.000000 
#    z 0.017320 0.000000 1.690860 
# 
# From -- ./inp_files/333397.got.cif
#   From: 2010.05.17/outbox.cif.g08.bks.cpg/sg12_167_cif.got.tgz:333397.got - 2010.06.03 13:09:07.
