data_PCOD9175993
_publ_section_title
;
Structure prediction by ZEFSAII (Michael W. Deem and Ramdas Pophale) SiO2 
 PCOD9175993
Probable space group: C 2/M
;
_chemical_formula_sum "Si O2"
_cell_formula_units_Z 56
_cell_length_a 28.321892
_cell_length_b 17.900457
_cell_length_c 9.565243
_cell_angle_alpha 90.000000
_cell_angle_beta 143.897352
_cell_angle_gamma 90.000000
_cell_volume 2857.392927
_symmetry_space_group_name_H-M "C 2/M"
_symmetry_group_IT_number 12
_symmetry_cell_setting 'monoclinic'
loop_
_space_group_symop_operation_xyz
x,y,z
-x,y,-z
-x,-y,-z
x,-y,z
1/2+x,1/2+y,z
1/2-x,1/2+y,-z
1/2-x,1/2-y,-z
1/2+x,1/2-y,z
loop_
_atom_site_type_symbol
_atom_site_label
_atom_site_fract_x
_atom_site_fract_y
_atom_site_fract_z
Si Si1 0.922496 0.414245 0.414591
Si Si2 0.660615 0.586137 0.052456
Si Si3 0.552663 0.183115 0.264243
Si Si4 0.154523 0.914569 0.707481
Si Si5 0.713941 0.193383 0.028508
Si Si6 0.764294 0.709378 0.389390
Si Si7 0.997339 0.184973 0.331977
O O1 0.890740 0.500000 0.337426
O O2 0.941930 0.387539 0.618361
O O3 0.000000 0.413084 0.500000
O O4 0.861113 0.352148 0.208611
O O5 0.646885 0.500000 0.056806
O O6 0.679684 0.588300 0.931645
O O7 0.581388 0.635890 0.882607
O O8 0.732139 0.624894 0.307241
O O9 0.643235 0.208448 0.439257
O O10 0.511435 0.248342 0.257986
O O11 0.500000 0.169774 0.000000
O O12 0.219956 0.868855 0.779663
O O13 0.071318 0.871929 0.497314
O O14 0.147653 0.000000 0.649163
O O15 0.706629 0.245752 0.144178
O O16 0.750000 0.250000 0.000000
O O17 0.750000 0.750000 0.500000
O O18 0.000000 0.212492 0.500000
#
# Coordination Sequence:
#
# PCOD9175993 Si02
#       7
#     8   8   8   8   8   8   8
#     4  11  26  45  69 101 134 172 224 282 334 390
#     4  10  21  38  63  95 129 165 206 265 327 384
#     4  12  25  42  68  95 131 181 221 273 327 393
#     4  10  18  33  62  95 125 159 208 263 321 384
#     4  12  21  42  68  96 123 167 220 277 331 379
#     4  12  26  42  64  98 131 173 222 268 325 398
#     4  10  20  37  64  99 128 164 211 267 324 393
#
# _framework density 19.598285000000001
#
# number of rings (size 3 to 8) (size 9 to 14) (size 15 to 20)
#    0.000    1.000    4.286    2.143    6.000    3.714 
#    0.000    1.429    0.000    1.714    0.000    0.000 
#    0.000    0.000    0.000    0.000    0.000    0.000 
#
# Total GULP energy -156474.041134 kJ/mol
# GULP energy per Si atom -5588.358612 kJ/mol
# Density = 1.955368 g / cm^3
# Si number density = 19.598285 Si / 1000 Ang^3
#
#
#
# Elastic Constant Matrix: (Units=GPa)
#
#
# Indices 1 2 3 4 5 6 
#
# 1 76.7258 40.9631 36.5290 0.0000 -2.8460 0.0000
# 2 40.9631 113.3396 50.0211 0.0000 -2.0008 0.0000
# 3 36.5290 50.0211 99.5101 0.0000 -4.7172 0.0000
# 4 0.0000 0.0000 0.0000 18.2961 0.0000 0.8657
# 5 -2.8460 -2.0008 -4.7172 0.0000 31.2980 0.0000
# 6 0.0000 0.0000 0.0000 0.8657 0.0000 18.5967
#
#
#
# Elastic Compliance Matrix: (Units=1/GPa)
#
#
# Indices 1 2 3 4 5 6 
#
# 1 0.017398 -0.004461 -0.004112 0.000000 0.000677 0.000000
# 2 -0.004461 0.012483 -0.004652 0.000000 -0.000309 0.000000
# 3 -0.004112 -0.004652 0.013965 0.000000 0.001433 0.000000
# 4 0.000000 0.000000 0.000000 0.054777 0.000000 -0.002550
# 5 0.000677 -0.000309 0.001433 0.000000 0.032209 0.000000
# 6 0.000000 0.000000 0.000000 -0.002550 0.000000 0.053892
#
#
# Mechanical properties :
#
#
# Convention : Reuss Voigt Hill
#
# Bulk Modulus (GPa) = 57.48475 60.51134 58.99804
# Shear Modulus (GPa) = 23.04438 24.44230 23.74334
#
# Velocity S-wave (km/s) = 3.43277 3.53535 3.48444
# Velocity P-wave (km/s) = 6.71618 6.89984 6.80863
#
# Compressibility (1/GPa) = 0.01739592
#
# Stress axis : x y z
#
# Youngs Moduli (GPa) = 57.47761 80.10886 71.60759
#
# Poissons Ratio (x) = 0.35739 0.29445
# Poissons Ratio (y) = 0.25642 0.33311
# Poissons Ratio (z) = 0.23635 0.37265
#
# Static dielectric constant tensor:
#      x y z
#    x 1.547060 0.000000 -0.062130 
#    y 0.000000 1.700490 0.000000 
#    z -0.062130 0.000000 1.664580 
# 
# From -- ./inp_files/75979.got.cif
#   From: 2010.05.17/outbox.cif.g08.bks.cpg/sg12_38_cif.got.tgz:75979.got - 2010.06.03 13:09:07.
