data_PCOD9175779
_publ_section_title
;
Structure prediction by ZEFSAII (Michael W. Deem and Ramdas Pophale) SiO2 
 PCOD9175779
Probable space group: C 2/M
;
_chemical_formula_sum "Si O2"
_cell_formula_units_Z 50
_cell_length_a 14.189474
_cell_length_b 12.087601
_cell_length_c 15.291632
_cell_angle_alpha 90.000000
_cell_angle_beta 64.032608
_cell_angle_gamma 90.000000
_cell_volume 2357.984253
_symmetry_space_group_name_H-M "C 2/M"
_symmetry_group_IT_number 12
_symmetry_cell_setting 'monoclinic'
loop_
_space_group_symop_operation_xyz
x,y,z
-x,y,-z
-x,-y,-z
x,-y,z
1/2+x,1/2+y,z
1/2-x,1/2+y,-z
1/2-x,1/2-y,-z
1/2+x,1/2-y,z
loop_
_atom_site_type_symbol
_atom_site_label
_atom_site_fract_x
_atom_site_fract_y
_atom_site_fract_z
Si Si1 0.128098 0.379935 0.956051
Si Si2 0.370711 0.376415 0.417166
Si Si3 0.224927 0.764629 0.381533
Si Si4 0.114625 0.126263 0.271587
Si Si5 0.500000 0.500000 0.000000
Si Si6 0.921202 0.804508 0.900146
Si Si7 0.593323 0.124597 0.776940
O O1 0.161208 0.500000 0.978436
O O2 0.145565 0.274059 0.008379
O O3 0.157344 0.370786 0.842618
O O4 0.000000 0.383770 0.000000
O O5 0.356357 0.500000 0.456850
O O6 0.284893 0.349021 0.377570
O O7 0.347311 0.295628 0.507378
O O8 0.488201 0.368004 0.334140
O O9 0.161043 0.783415 0.319078
O O10 0.324625 0.847651 0.332058
O O11 0.137382 0.146357 0.160111
O O12 0.143669 0.000000 0.285845
O O13 0.528279 0.401629 0.062041
O O14 0.006307 0.718782 0.824147
O O15 0.550705 0.000000 0.785887
#
# Coordination Sequence:
#
# PCOD9175779 Si02
#       7
#     8   8   8   8   2   8   8
#     4   8  15  29  50  73 107 147 190 233 291 352
#     4  10  22  41  63  86 122 164 201 250 318 368
#     4  11  22  38  63  90 120 154 211 254 302 369
#     4  11  22  37  60  90 123 160 204 250 305 367
#     4  12  20  32  58  84 122 164 212 234 298 376
#     4  11  19  33  54  86 116 160 199 244 299 361
#     4  10  18  33  57  84 112 153 199 249 299 353
#
# _framework density 21.204552
#
# number of rings (size 3 to 8) (size 9 to 14) (size 15 to 20)
#    0.000    1.760    4.800    3.360    0.000    1.280 
#    0.000    2.400    0.000    1.920    0.000    0.000 
#    0.000    0.000    0.000    0.000    0.000    0.000 
#
# Total GULP energy -139181.834074 kJ/mol
# GULP energy per Si atom -5567.273363 kJ/mol
# Density = 2.115629 g / cm^3
# Si number density = 21.204552 Si / 1000 Ang^3
#
#
#
# Elastic Constant Matrix: (Units=GPa)
#
#
# Indices 1 2 3 4 5 6 
#
# 1 58.1263 15.8117 -1.2355 0.0000 13.8006 0.0000
# 2 15.8117 87.5805 11.0745 0.0000 -6.3796 0.0000
# 3 -1.2355 11.0745 77.7986 0.0000 1.7774 0.0000
# 4 0.0000 0.0000 0.0000 30.6673 0.0000 -3.5542
# 5 13.8006 -6.3796 1.7774 0.0000 36.3754 0.0000
# 6 0.0000 0.0000 0.0000 -3.5542 0.0000 21.4209
#
#
#
# Elastic Compliance Matrix: (Units=1/GPa)
#
#
# Indices 1 2 3 4 5 6 
#
# 1 0.020491 -0.004474 0.001159 0.000000 -0.008615 0.000000
# 2 -0.004474 0.012770 -0.001981 0.000000 0.004034 0.000000
# 3 0.001159 -0.001981 0.013187 0.000000 -0.001431 0.000000
# 4 0.000000 0.000000 0.000000 0.033247 0.000000 0.005516
# 5 -0.008615 0.004034 -0.001431 0.000000 0.031537 0.000000
# 6 0.000000 0.000000 0.000000 0.005516 0.000000 0.047599
#
#
# Mechanical properties :
#
#
# Convention : Reuss Voigt Hill
#
# Bulk Modulus (GPa) = 27.88873 30.53411 29.21142
# Shear Modulus (GPa) = 27.56732 30.88303 29.22518
#
# Velocity S-wave (km/s) = 3.60955 3.82047 3.71651
# Velocity P-wave (km/s) = 5.52744 5.82171 5.67648
#
# Compressibility (1/GPa) = 0.03585678
#
# Stress axis : x y z
#
# Youngs Moduli (GPa) = 48.80199 78.30829 75.83337
#
# Poissons Ratio (x) = 0.35032 -0.08789
# Poissons Ratio (y) = 0.21832 0.15023
# Poissons Ratio (z) = -0.05656 0.15513
#
# Static dielectric constant tensor:
#      x y z
#    x 1.850110 0.000000 -0.036720 
#    y 0.000000 1.766210 0.000000 
#    z -0.036720 0.000000 1.816150 
# 
# From -- ./inp_files/213328.got.cif
#   From: 2010.05.17/outbox.cif.g08.bks.cpg/sg12_107_cif.got.tgz:213328.got - 2010.06.03 13:09:07.
