data_PCOD9175008
_publ_section_title
;
Structure prediction by ZEFSAII (Michael W. Deem and Ramdas Pophale) SiO2 
 PCOD9175008
Probable space group: C 2/M
;
_chemical_formula_sum "Si O2"
_cell_formula_units_Z 48
_cell_length_a 14.763564
_cell_length_b 7.339933
_cell_length_c 20.202178
_cell_angle_alpha 90.000000
_cell_angle_beta 115.975412
_cell_angle_gamma 90.000000
_cell_volume 1968.033732
_symmetry_space_group_name_H-M "C 2/M"
_symmetry_group_IT_number 12
_symmetry_cell_setting 'monoclinic'
loop_
_space_group_symop_operation_xyz
x,y,z
-x,y,-z
-x,-y,-z
x,-y,z
1/2+x,1/2+y,z
1/2-x,1/2+y,-z
1/2-x,1/2-y,-z
1/2+x,1/2-y,z
loop_
_atom_site_type_symbol
_atom_site_label
_atom_site_fract_x
_atom_site_fract_y
_atom_site_fract_z
Si Si1 0.081134 0.222976 0.579668
Si Si2 0.949230 0.793675 0.048224
Si Si3 0.525691 0.710607 0.707951
Si Si4 0.798723 0.719199 0.673129
Si Si5 0.343361 0.780629 0.833781
Si Si6 0.831186 0.222711 0.128272
O O1 0.196859 0.278264 0.604215
O O2 0.000000 0.283763 0.500000
O O3 0.051634 0.285263 0.644024
O O4 0.078972 0.000000 0.578605
O O5 0.045453 0.798748 0.127864
O O6 0.861734 0.710555 0.065146
O O7 0.920912 0.000000 0.020725
O O8 0.000000 0.704305 0.000000
O O9 0.558485 0.500000 0.715929
O O10 0.406259 0.717839 0.681111
O O11 0.587373 0.785312 0.790456
O O12 0.801703 0.500000 0.671894
O O13 0.791580 0.771516 0.748331
O O14 0.276358 0.726883 0.875439
O O15 0.351352 0.000000 0.836923
O O16 0.834454 0.000000 0.125449
#
# Coordination Sequence:
#
# PCOD9175008 Si02
#       6
#     8   8   8   8   8   8
#     4   9  18  33  53  77 105 137 173 209 249 305
#     4  10  21  36  53  76 106 135 165 209 261 305
#     4  10  18  32  55  77  99 136 176 205 249 309
#     4  10  19  32  52  78 103 130 171 218 255 291
#     4  10  19  33  54  76  99 133 175 213 249 297
#     4   9  17  32  53  74  99 134 171 203 245 307
#
# _framework density 24.389825999999999
#
# number of rings (size 3 to 8) (size 9 to 14) (size 15 to 20)
#    0.000    2.333    3.333    0.000    0.000    1.667 
#    0.000    2.500    0.000    1.000    0.000    0.000 
#    0.000    0.000    0.000    0.000    0.000    0.000 
#
# Total GULP energy -134138.068661 kJ/mol
# GULP energy per Si atom -5589.086194 kJ/mol
# Density = 2.433431 g / cm^3
# Si number density = 24.389826 Si / 1000 Ang^3
#
#
#
# Elastic Constant Matrix: (Units=GPa)
#
#
# Indices 1 2 3 4 5 6 
#
# 1 122.7335 -3.4855 14.8340 0.0000 -4.8328 0.0000
# 2 -3.4855 94.9708 7.8166 0.0000 0.4476 0.0000
# 3 14.8340 7.8166 69.6048 0.0000 7.8693 0.0000
# 4 0.0000 0.0000 0.0000 1.5286 0.0000 9.6329
# 5 -4.8328 0.4476 7.8693 0.0000 42.5037 0.0000
# 6 0.0000 0.0000 0.0000 9.6329 0.0000 12.0668
#
#
#
# Elastic Compliance Matrix: (Units=1/GPa)
#
#
# Indices 1 2 3 4 5 6 
#
# 1 0.008456 0.000469 -0.002005 0.000000 0.001328 0.000000
# 2 0.000469 0.010654 -0.001317 0.000000 0.000185 0.000000
# 3 -0.002005 -0.001317 0.015286 0.000000 -0.003044 0.000000
# 4 0.000000 0.000000 0.000000 -0.162303 0.000000 0.129566
# 5 0.001328 0.000185 -0.003044 0.000000 0.024240 0.000000
# 6 0.000000 0.000000 0.000000 0.129566 0.000000 -0.020560
#
#
# Mechanical properties :
#
#
# Convention : Reuss Voigt Hill
#
# Bulk Modulus (GPa) = 34.85542 36.18215 35.51878
# Shear Modulus (GPa) = -45.88947 29.09607 -8.39670
#
# Velocity S-wave (km/s) = -4.34233 3.45767 -1.85747
# Velocity P-wave (km/s) = 3.28925 5.55048 3.16138
#
# Compressibility (1/GPa) = 0.02868994
#
# Stress axis : x y z
#
# Youngs Moduli (GPa) = 118.26421 93.85858 65.41843
#
# Poissons Ratio (x) = -0.04403 0.13115
# Poissons Ratio (y) = -0.05547 0.08618
# Poissons Ratio (z) = 0.23710 0.12365
#
# Static dielectric constant tensor:
#      x y z
#    x 1.899600 0.000000 -0.011460 
#    y 0.000000 1.919160 0.000000 
#    z -0.011460 0.000000 1.938190 
# 
# From -- ./inp_files/261620.got.cif
#   From: 2010.05.17/outbox.cif.g08.bks.cpg/sg12_131_cif.got.tgz:261620.got - 2010.06.03 13:09:07.
