data_PCOD9175839
_publ_section_title
;
Structure prediction by ZEFSAII (Michael W. Deem and Ramdas Pophale) SiO2 
 PCOD9175839
Probable space group: C 2/M
;
_chemical_formula_sum "Si O2"
_cell_formula_units_Z 64
_cell_length_a 30.898750
_cell_length_b 7.424280
_cell_length_c 16.541721
_cell_angle_alpha 90.000000
_cell_angle_beta 133.078859
_cell_angle_gamma 90.000000
_cell_volume 2771.693711
_symmetry_space_group_name_H-M "C 2/M"
_symmetry_group_IT_number 12
_symmetry_cell_setting 'monoclinic'
loop_
_space_group_symop_operation_xyz
x,y,z
-x,y,-z
-x,-y,-z
x,-y,z
1/2+x,1/2+y,z
1/2-x,1/2+y,-z
1/2-x,1/2-y,-z
1/2+x,1/2-y,z
loop_
_atom_site_type_symbol
_atom_site_label
_atom_site_fract_x
_atom_site_fract_y
_atom_site_fract_z
Si Si1 0.921417 0.781659 0.695772
Si Si2 0.868912 0.279284 0.341415
Si Si3 0.974175 0.782167 0.053136
Si Si4 0.697806 0.715137 0.370116
Si Si5 0.249056 0.294186 0.727247
Si Si6 0.901887 0.280067 0.208331
Si Si7 0.351258 0.208030 0.974268
Si Si8 0.467221 0.792072 0.583746
O O1 0.863839 0.717639 0.671150
O O2 0.925415 0.716357 0.609212
O O3 0.980516 0.725217 0.818918
O O4 0.920507 0.000000 0.692210
O O5 0.869009 0.500000 0.343850
O O6 0.812360 0.214205 0.319625
O O7 0.867130 0.230316 0.245195
O O8 0.929723 0.217149 0.461339
O O9 0.972556 0.000000 0.050171
O O10 0.908445 0.719158 0.989103
O O11 0.000000 0.723406 0.000000
O O12 0.688914 0.500000 0.349543
O O13 0.750000 0.750000 0.500000
O O14 0.718990 0.787727 0.310416
O O15 0.234704 0.500000 0.685741
O O16 0.295888 0.296341 0.859767
O O17 0.903742 0.500000 0.204611
O O18 0.969431 0.215616 0.308497
O O19 0.872683 0.216490 0.087874
O O20 0.335014 0.000000 0.964981
O O21 0.479430 0.000000 0.578454
#
# Coordination Sequence:
#
# PCOD9175839 Si02
#       8
#     8   8   8   8   8   8   8   8
#     4  10  20  33  52  78 110 143 174 216 275 331
#     4   9  18  33  57  83 106 143 190 231 274 328
#     4  10  20  36  57  78 104 143 185 222 266 326
#     4  10  21  37  56  81 112 146 185 228 272 321
#     4  10  21  38  57  79 110 150 195 230 265 328
#     4   9  18  33  54  84 115 139 177 234 285 325
#     4  11  22  36  55  82 115 146 179 230 282 326
#     4  10  18  33  58  84 110 140 180 230 278 329
#
# _framework density 23.090575000000001
#
# number of rings (size 3 to 8) (size 9 to 14) (size 15 to 20)
#    0.000    2.125    1.250    2.250    0.000    6.250 
#    0.000    1.875    0.000    4.500    0.000    0.000 
#    0.000    0.000    0.000    0.000    0.000    0.000 
#
# Total GULP energy -178888.983160 kJ/mol
# GULP energy per Si atom -5590.280724 kJ/mol
# Density = 2.303802 g / cm^3
# Si number density = 23.090575 Si / 1000 Ang^3
#
#
#
# Elastic Constant Matrix: (Units=GPa)
#
#
# Indices 1 2 3 4 5 6 
#
# 1 81.1863 -6.0684 10.5214 0.0000 -6.9080 0.0000
# 2 -6.0684 74.1774 -9.6273 0.0000 -0.6823 0.0000
# 3 10.5214 -9.6273 98.7873 0.0000 -9.8230 0.0000
# 4 0.0000 0.0000 0.0000 9.2098 0.0000 4.8451
# 5 -6.9080 -0.6823 -9.8230 0.0000 44.6868 0.0000
# 6 0.0000 0.0000 0.0000 4.8451 0.0000 0.7683
#
#
#
# Elastic Compliance Matrix: (Units=1/GPa)
#
#
# Indices 1 2 3 4 5 6 
#
# 1 0.012674 0.000912 -0.001089 0.000000 0.001734 0.000000
# 2 0.000912 0.013731 0.001304 0.000000 0.000637 0.000000
# 3 -0.001089 0.001304 0.010582 0.000000 0.002178 0.000000
# 4 0.000000 0.000000 0.000000 -0.046853 0.000000 0.295454
# 5 0.001734 0.000637 0.002178 0.000000 0.023134 0.000000
# 6 0.000000 0.000000 0.000000 0.295454 0.000000 -0.561614
#
#
# Mechanical properties :
#
#
# Convention : Reuss Voigt Hill
#
# Bulk Modulus (GPa) = 25.48288 27.08917 26.28602
# Shear Modulus (GPa) = -9.30199 28.22135 9.45968
#
# Velocity S-wave (km/s) = -2.00928 3.49979 2.02624
# Velocity P-wave (km/s) = 2.38265 5.29987 4.10887
#
# Compressibility (1/GPa) = 0.03924204
#
# Stress axis : x y z
#
# Youngs Moduli (GPa) = 78.90115 72.82834 94.49670
#
# Poissons Ratio (x) = -0.06638 0.10287
# Poissons Ratio (y) = -0.07192 -0.12326
# Poissons Ratio (z) = 0.08589 -0.09500
#
# Static dielectric constant tensor:
#      x y z
#    x 1.843640 0.000000 -0.011960 
#    y 0.000000 1.879820 0.000000 
#    z -0.011960 0.000000 1.822640 
# 
# From -- ./inp_files/250055.got.cif
#   From: 2010.05.17/outbox.cif.g08.bks.cpg/sg12_126_cif.got.tgz:250055.got - 2010.06.03 13:09:07.
