data_PCOD9175669
_publ_section_title
;
Structure prediction by ZEFSAII (Michael W. Deem and Ramdas Pophale) SiO2 
 PCOD9175669
Probable space group: C 2/M
;
_chemical_formula_sum "Si O2"
_cell_formula_units_Z 64
_cell_length_a 15.583380
_cell_length_b 14.210086
_cell_length_c 22.635464
_cell_angle_alpha 90.000000
_cell_angle_beta 141.491413
_cell_angle_gamma 90.000000
_cell_volume 3120.894950
_symmetry_space_group_name_H-M "C 2/M"
_symmetry_group_IT_number 12
_symmetry_cell_setting 'monoclinic'
loop_
_space_group_symop_operation_xyz
x,y,z
-x,y,-z
-x,-y,-z
x,-y,z
1/2+x,1/2+y,z
1/2-x,1/2+y,-z
1/2-x,1/2-y,-z
1/2+x,1/2-y,z
loop_
_atom_site_type_symbol
_atom_site_label
_atom_site_fract_x
_atom_site_fract_y
_atom_site_fract_z
Si Si1 0.584081 0.778750 0.800713
Si Si2 0.045001 0.891771 0.868385
Si Si3 0.355950 0.105642 0.731060
Si Si4 0.650184 0.894102 0.548126
Si Si5 0.612441 0.604418 0.508065
Si Si6 0.033620 0.718340 0.388129
Si Si7 0.737369 0.701901 0.281835
Si Si8 0.151222 0.108710 0.055138
O O1 0.586687 0.684844 0.841685
O O2 0.509078 0.861740 0.797035
O O3 0.486392 0.766105 0.691389
O O4 0.733530 0.817225 0.863478
O O5 0.889957 0.862788 0.804981
O O6 0.046185 0.000000 0.848413
O O7 0.137805 0.884743 0.976845
O O8 0.258331 0.107680 0.620325
O O9 0.299645 0.188300 0.742386
O O10 0.349505 0.000000 0.751272
O O11 0.500000 0.893567 0.500000
O O12 0.631669 0.859759 0.471020
O O13 0.738203 0.824207 0.635938
O O14 0.704006 0.000000 0.580104
O O15 0.500000 0.615778 0.500000
O O16 0.594334 0.500000 0.472621
O O17 0.581587 0.686513 0.445931
O O18 0.881186 0.687374 0.327427
O O19 0.186621 0.000000 0.089937
O O20 0.000000 0.127873 0.000000
#
# Coordination Sequence:
#
# PCOD9175669 Si02
#       8
#     8   8   8   8   8   8   8   8
#     4  11  24  37  58  86 122 151 183 229 289 352
#     4  10  22  40  60  83 116 153 186 227 288 351
#     4  10  20  35  54  79 112 150 191 236 282 325
#     4   9  17  29  47  73 108 146 186 233 280 320
#     4  10  18  33  56  79 110 153 201 243 274 317
#     4  11  20  33  53  82 114 148 193 236 279 333
#     4  10  18  34  57  82 108 147 197 242 279 326
#     4  10  21  41  68  92 111 139 186 239 290 343
#
# _framework density 20.506938999999999
#
# number of rings (size 3 to 8) (size 9 to 14) (size 15 to 20)
#    0.000    1.875    2.500    2.250    0.000    2.500 
#    0.000    0.000    0.000    0.375    0.000    0.000 
#    0.000    0.000    0.000    0.000    0.000    0.000 
#
# Total GULP energy -178658.217005 kJ/mol
# GULP energy per Si atom -5583.069281 kJ/mol
# Density = 2.046026 g / cm^3
# Si number density = 20.506939 Si / 1000 Ang^3
#
#
#
# Elastic Constant Matrix: (Units=GPa)
#
#
# Indices 1 2 3 4 5 6 
#
# 1 45.3664 20.5925 13.1903 0.0000 2.8721 0.0000
# 2 20.5925 133.5556 27.1301 0.0000 -1.6194 0.0000
# 3 13.1903 27.1301 51.5272 0.0000 -2.7974 0.0000
# 4 0.0000 0.0000 0.0000 15.8499 0.0000 5.2175
# 5 2.8721 -1.6194 -2.7974 0.0000 32.5647 0.0000
# 6 0.0000 0.0000 0.0000 5.2175 0.0000 12.1416
#
#
#
# Elastic Compliance Matrix: (Units=1/GPa)
#
#
# Indices 1 2 3 4 5 6 
#
# 1 0.024983 -0.002862 -0.005039 0.000000 -0.002779 0.000000
# 2 -0.002862 0.008712 -0.003835 0.000000 0.000356 0.000000
# 3 -0.005039 -0.003835 0.022837 0.000000 0.002215 0.000000
# 4 0.000000 0.000000 0.000000 0.073487 0.000000 -0.031579
# 5 -0.002779 0.000356 0.002215 0.000000 0.031161 0.000000
# 6 0.000000 0.000000 0.000000 -0.031579 0.000000 0.095932
#
#
# Mechanical properties :
#
#
# Convention : Reuss Voigt Hill
#
# Bulk Modulus (GPa) = 30.24894 39.14167 34.69530
# Shear Modulus (GPa) = 17.14646 23.41364 20.28005
#
# Velocity S-wave (km/s) = 2.89473 3.38263 3.14815
# Velocity P-wave (km/s) = 5.09463 5.86385 5.49272
#
# Compressibility (1/GPa) = 0.03305901
#
# Stress axis : x y z
#
# Youngs Moduli (GPa) = 40.02732 114.78159 43.78903
#
# Poissons Ratio (x) = 0.32851 0.22066
# Poissons Ratio (y) = 0.11456 0.16794
# Poissons Ratio (z) = 0.20171 0.44020
#
# Static dielectric constant tensor:
#      x y z
#    x 1.779210 0.000000 0.006380 
#    y 0.000000 1.713360 0.000000 
#    z 0.006380 0.000000 1.749720 
# 
# From -- ./inp_files/344082.got.cif
#   From: 2010.05.17/outbox.cif.g08.bks.cpg/sg12_173_cif.got.tgz:344082.got - 2010.06.03 13:09:07.
