data_PCOD9175117
_publ_section_title
;
Structure prediction by ZEFSAII (Michael W. Deem and Ramdas Pophale) SiO2 
 PCOD9175117
Probable space group: C 2/M
;
_chemical_formula_sum "Si O2"
_cell_formula_units_Z 32
_cell_length_a 20.394331
_cell_length_b 12.850247
_cell_length_c 14.026809
_cell_angle_alpha 90.000000
_cell_angle_beta 157.350134
_cell_angle_gamma 90.000000
_cell_volume 1415.636794
_symmetry_space_group_name_H-M "C 2/M"
_symmetry_group_IT_number 12
_symmetry_cell_setting 'monoclinic'
loop_
_space_group_symop_operation_xyz
x,y,z
-x,y,-z
-x,-y,-z
x,-y,z
1/2+x,1/2+y,z
1/2-x,1/2+y,-z
1/2-x,1/2-y,-z
1/2+x,1/2-y,z
loop_
_atom_site_type_symbol
_atom_site_label
_atom_site_fract_x
_atom_site_fract_y
_atom_site_fract_z
Si Si1 0.422668 0.201802 0.617255
Si Si2 0.159549 0.380885 0.285763
Si Si3 0.634629 0.381725 0.108052
Si Si4 0.840533 0.622865 0.212660
O O1 0.320751 0.310924 0.469109
O O2 0.409450 0.167896 0.708532
O O3 0.302090 0.121322 0.397304
O O4 0.599697 0.185077 0.799998
O O5 0.215297 0.500000 0.376273
O O6 0.000000 0.384061 0.000000
O O7 0.578804 0.500000 0.015537
O O8 0.683544 0.339154 0.069314
O O9 0.500000 0.331989 0.000000
O O10 0.813308 0.500000 0.154021
O O11 0.000000 0.629233 0.500000
#
# Coordination Sequence:
#
# PCOD9175117 Si02
#       4
#     8   8   8   8
#     4  10  18  32  56  78 105 144 185 222 269 323
#     4  10  21  35  53  80 113 149 186 222 267 325
#     4   9  16  27  50  85 115 137 175 231 279 320
#     4   8  14  26  48  79 110 139 176 225 275 320
#
# _framework density 22.604669000000001
#
# number of rings (size 3 to 8) (size 9 to 14) (size 15 to 20)
#    0.000    2.750    0.000    4.500    0.000    0.000 
#    0.000    0.000    0.000   52.500    0.000   14.000 
#    0.000    0.000    0.000    0.000    0.000    0.500 
#
# Total GULP energy -89223.480793 kJ/mol
# GULP energy per Si atom -5576.467550 kJ/mol
# Density = 2.255322 g / cm^3
# Si number density = 22.604669 Si / 1000 Ang^3
#
#
#
# Elastic Constant Matrix: (Units=GPa)
#
#
# Indices 1 2 3 4 5 6 
#
# 1 245.5390 65.6176 38.5745 0.0000 23.2760 0.0000
# 2 65.6176 145.9751 13.8518 0.0000 13.7838 0.0000
# 3 38.5745 13.8518 40.7058 0.0000 -2.6837 0.0000
# 4 0.0000 0.0000 0.0000 61.1165 0.0000 25.9201
# 5 23.2760 13.7838 -2.6837 0.0000 41.6244 0.0000
# 6 0.0000 0.0000 0.0000 25.9201 0.0000 49.8322
#
#
#
# Elastic Compliance Matrix: (Units=1/GPa)
#
#
# Indices 1 2 3 4 5 6 
#
# 1 0.005584 -0.001779 -0.004874 0.000000 -0.002848 0.000000
# 2 -0.001779 0.007917 -0.001121 0.000000 -0.001699 0.000000
# 3 -0.004874 -0.001121 0.029898 0.000000 0.005024 0.000000
# 4 0.000000 0.000000 0.000000 0.020993 0.000000 -0.010920
# 5 -0.002848 -0.001699 0.005024 0.000000 0.026503 0.000000
# 6 0.000000 0.000000 0.000000 -0.010920 0.000000 0.025747
#
#
# Mechanical properties :
#
#
# Convention : Reuss Voigt Hill
#
# Bulk Modulus (GPa) = 35.90381 74.25640 55.08010
# Shear Modulus (GPa) = 35.34275 51.45970 43.40123
#
# Velocity S-wave (km/s) = 3.95842 4.77645 4.38655
# Velocity P-wave (km/s) = 6.06712 7.95869 7.07639
#
# Compressibility (1/GPa) = 0.02785220
#
# Stress axis : x y z
#
# Youngs Moduli (GPa) = 179.09679 126.31450 33.44739
#
# Poissons Ratio (x) = 0.22465 0.16301
# Poissons Ratio (y) = 0.31853 0.03748
# Poissons Ratio (z) = 0.87287 0.14155
#
# Static dielectric constant tensor:
#      x y z
#    x 1.907020 0.000000 0.087730 
#    y 0.000000 1.834430 0.000000 
#    z 0.087730 0.000000 1.944430 
# 
# From -- ./inp_files/96044.got.cif
#   From: 2010.05.17/outbox.cif.g08.bks.cpg/sg12_49_cif.got.tgz:96044.got - 2010.06.03 13:09:07.
