data_PCOD9175232
_publ_section_title
;
Structure prediction by ZEFSAII (Michael W. Deem and Ramdas Pophale) SiO2 
 PCOD9175232
Probable space group: C 2/M
;
_chemical_formula_sum "Si O2"
_cell_formula_units_Z 52
_cell_length_a 5.583094
_cell_length_b 31.522666
_cell_length_c 13.239009
_cell_angle_alpha 90.000000
_cell_angle_beta 76.683242
_cell_angle_gamma 90.000000
_cell_volume 2267.336519
_symmetry_space_group_name_H-M "C 2/M"
_symmetry_group_IT_number 12
_symmetry_cell_setting 'monoclinic'
loop_
_space_group_symop_operation_xyz
x,y,z
-x,y,-z
-x,-y,-z
x,-y,z
1/2+x,1/2+y,z
1/2-x,1/2+y,-z
1/2-x,1/2-y,-z
1/2+x,1/2-y,z
loop_
_atom_site_type_symbol
_atom_site_label
_atom_site_fract_x
_atom_site_fract_y
_atom_site_fract_z
Si Si1 0.296348 0.933949 0.103215
Si Si2 0.069803 0.728558 0.623477
Si Si3 0.779013 0.136078 0.599837
Si Si4 0.089714 0.000000 0.790543
Si Si5 0.412509 0.923608 0.722942
Si Si6 0.967525 0.238803 0.858165
Si Si7 0.995770 0.141270 0.805590
O O1 0.424671 0.941231 0.199717
O O2 0.196562 0.885997 0.109726
O O3 0.058524 0.963530 0.128488
O O4 0.500000 0.943295 0.000000
O O5 0.323677 0.755544 0.591046
O O6 0.133548 0.679878 0.595937
O O7 0.004200 0.735661 0.748366
O O8 0.593411 0.096407 0.622623
O O9 0.000000 0.131458 0.500000
O O10 0.895680 0.140176 0.700468
O O11 0.231675 0.038156 0.713827
O O12 0.252641 0.883903 0.779231
O O13 0.181693 0.256004 0.907089
O O14 0.016155 0.189126 0.837347
#
# Coordination Sequence:
#
# PCOD9175232 Si02
#       7
#     8   8   8   4   8   8   8
#     4  10  22  38  63  96 123 148 189 245 309 378
#     4  10  19  34  54  84 123 165 212 265 311 360
#     4  11  23  37  56  86 123 163 210 256 302 356
#     4  10  21  39  66  94 119 151 189 236 315 379
#     4  10  22  40  62  86 123 156 193 247 305 377
#     4  10  18  32  57  83 118 167 216 257 306 362
#     4  10  21  37  58  87 120 165 202 247 312 361
#
# _framework density 22.934397000000001
#
# number of rings (size 3 to 8) (size 9 to 14) (size 15 to 20)
#    0.000    1.846    3.077    2.538    2.154    4.308 
#    0.000    0.385    0.000    9.231    0.000    0.000 
#    0.000    0.000    0.000    0.000    0.000    0.000 
#
# Total GULP energy -144890.815200 kJ/mol
# GULP energy per Si atom -5572.723662 kJ/mol
# Density = 2.288220 g / cm^3
# Si number density = 22.934397 Si / 1000 Ang^3
#
#
#
# Elastic Constant Matrix: (Units=GPa)
#
#
# Indices 1 2 3 4 5 6 
#
# 1 105.6182 37.2275 45.1086 0.0000 -23.3682 0.0000
# 2 37.2275 165.0088 56.1840 0.0000 -32.7741 0.0000
# 3 45.1086 56.1840 83.0168 0.0000 -33.3481 0.0000
# 4 0.0000 0.0000 0.0000 19.4664 0.0000 -13.4929
# 5 -23.3682 -32.7741 -33.3481 0.0000 52.2575 0.0000
# 6 0.0000 0.0000 0.0000 -13.4929 0.0000 -200.2176
#
#
#
# Elastic Compliance Matrix: (Units=1/GPa)
#
#
# Indices 1 2 3 4 5 6 
#
# 1 0.012473 -0.000534 -0.005796 0.000000 0.001544 0.000000
# 2 -0.000534 0.008068 -0.004348 0.000000 0.002046 0.000000
# 3 -0.005796 -0.004348 0.021517 0.000000 0.008412 0.000000
# 4 0.000000 0.000000 0.000000 0.049078 0.000000 -0.003307
# 5 0.001544 0.002046 0.008412 0.000000 0.026478 0.000000
# 6 0.000000 0.000000 0.000000 -0.003307 0.000000 -0.004772
#
#
# Mechanical properties :
#
#
# Convention : Reuss Voigt Hill
#
# Bulk Modulus (GPa) = 48.30349 70.07599 59.18974
# Shear Modulus (GPa) = 35.43621 -11.35716 12.03953
#
# Velocity S-wave (km/s) = 3.93506 -2.22773 2.29368
# Velocity P-wave (km/s) = 6.46170 4.89942 5.73401
#
# Compressibility (1/GPa) = 0.02070244
#
# Stress axis : x y z
#
# Youngs Moduli (GPa) = 80.17117 123.95284 46.47525
#
# Poissons Ratio (x) = 0.06618 0.26937
# Poissons Ratio (y) = 0.04280 0.20207
# Poissons Ratio (z) = 0.46467 0.53892
#
# Static dielectric constant tensor:
#      x y z
#    x 1.932110 0.000000 -0.017950 
#    y 0.000000 1.834220 0.000000 
#    z -0.017950 0.000000 1.990970 
# 
# From -- ./inp_files/192566.got.cif
#   From: 2010.05.17/outbox.cif.g08.bks.cpg/sg12_97_cif.got.tgz:192566.got - 2010.06.03 13:09:07.
