data_PCOD9175238
_publ_section_title
;
Structure prediction by ZEFSAII (Michael W. Deem and Ramdas Pophale) SiO2 
 PCOD9175238
Probable space group: C 2/M
;
_chemical_formula_sum "Si O2"
_cell_formula_units_Z 56
_cell_length_a 15.125334
_cell_length_b 7.616350
_cell_length_c 22.041276
_cell_angle_alpha 90.000000
_cell_angle_beta 59.527667
_cell_angle_gamma 90.000000
_cell_volume 2188.428944
_symmetry_space_group_name_H-M "C 2/M"
_symmetry_group_IT_number 12
_symmetry_cell_setting 'monoclinic'
loop_
_space_group_symop_operation_xyz
x,y,z
-x,y,-z
-x,-y,-z
x,-y,z
1/2+x,1/2+y,z
1/2-x,1/2+y,-z
1/2-x,1/2-y,-z
1/2+x,1/2-y,z
loop_
_atom_site_type_symbol
_atom_site_label
_atom_site_fract_x
_atom_site_fract_y
_atom_site_fract_z
Si Si1 0.716416 0.784384 0.327250
Si Si2 0.164437 0.298974 0.146585
Si Si3 0.561364 0.297958 0.740924
Si Si4 0.003427 0.286839 0.631708
Si Si5 0.662257 0.790178 0.481492
Si Si6 0.127735 0.294093 0.899952
Si Si7 0.090533 0.284741 0.050364
O O1 0.831440 0.723740 0.271175
O O2 0.615677 0.733742 0.324768
O O3 0.691022 0.724903 0.404911
O O4 0.721310 0.000000 0.324246
O O5 0.193472 0.500000 0.131406
O O6 0.253935 0.227161 0.158033
O O7 0.159639 0.215189 0.081030
O O8 0.046825 0.291706 0.208003
O O9 0.551406 0.500000 0.762505
O O10 0.566857 0.288067 0.665806
O O11 0.007470 0.500000 0.633916
O O12 0.056837 0.232011 0.550265
O O13 0.750000 0.750000 0.500000
O O14 0.653807 0.000000 0.477687
O O15 0.109082 0.500000 0.910206
O O16 0.028669 0.227683 0.898297
O O17 0.118140 0.227795 0.972931
O O18 0.096552 0.500000 0.050964
#
# Coordination Sequence:
#
# PCOD9175238 Si02
#       7
#     8   8   8   8   8   8   8
#     4   9  19  36  57  80 108 142 180 220 271 329
#     4  11  22  36  54  80 112 145 183 224 268 318
#     4  11  23  39  55  75 107 146 185 227 270 319
#     4  10  20  36  59  83 107 140 180 224 274 326
#     4  10  18  32  57  84 111 140 173 219 273 326
#     4   9  17  35  60  85 111 143 180 218 268 322
#     4   8  17  34  58  84 113 145 177 218 268 324
#
# _framework density 25.589131999999999
#
# number of rings (size 3 to 8) (size 9 to 14) (size 15 to 20)
#    0.000    2.286    1.429    2.571    0.000    2.857 
#    0.000    8.571    0.000    1.714    0.000    0.000 
#    0.000    0.000    0.000    0.000    0.000    0.000 
#
# Total GULP energy -156466.316924 kJ/mol
# GULP energy per Si atom -5588.082747 kJ/mol
# Density = 2.553089 g / cm^3
# Si number density = 25.589132 Si / 1000 Ang^3
#
#
#
# Elastic Constant Matrix: (Units=GPa)
#
#
# Indices 1 2 3 4 5 6 
#
# 1 173.5160 3.4105 18.1333 0.0000 -33.6569 0.0000
# 2 3.4105 58.9114 -0.2832 0.0000 -3.5059 0.0000
# 3 18.1333 -0.2832 65.3826 0.0000 -21.8822 0.0000
# 4 0.0000 0.0000 0.0000 13.6322 0.0000 1.9282
# 5 -33.6569 -3.5059 -21.8822 0.0000 48.2927 0.0000
# 6 0.0000 0.0000 0.0000 1.9282 0.0000 12.0668
#
#
#
# Elastic Compliance Matrix: (Units=1/GPa)
#
#
# Indices 1 2 3 4 5 6 
#
# 1 0.006672 -0.000121 -0.000351 0.000000 0.004482 0.000000
# 2 -0.000121 0.017069 0.000582 0.000000 0.001419 0.000000
# 3 -0.000351 0.000582 0.018066 0.000000 0.007984 0.000000
# 4 0.000000 0.000000 0.000000 0.075052 0.000000 -0.011993
# 5 0.004482 0.001419 0.007984 0.000000 0.027551 0.000000
# 6 0.000000 0.000000 0.000000 -0.011993 0.000000 0.084789
#
#
# Mechanical properties :
#
#
# Convention : Reuss Voigt Hill
#
# Bulk Modulus (GPa) = 23.79399 37.81458 30.80429
# Shear Modulus (GPa) = 20.57718 33.23496 26.90607
#
# Velocity S-wave (km/s) = 2.83881 3.60779 3.24615
# Velocity P-wave (km/s) = 4.47926 5.67137 5.11020
#
# Compressibility (1/GPa) = 0.04202741
#
# Stress axis : x y z
#
# Youngs Moduli (GPa) = 149.89008 58.58612 55.35119
#
# Poissons Ratio (x) = 0.00710 0.01942
# Poissons Ratio (y) = 0.01817 -0.03223
# Poissons Ratio (z) = 0.05259 -0.03411
#
# Static dielectric constant tensor:
#      x y z
#    x 2.007170 0.000000 -0.030450 
#    y 0.000000 1.962530 0.000000 
#    z -0.030450 0.000000 2.102750 
# 
# From -- ./inp_files/338475.got.cif
#   From: 2010.05.17/outbox.cif.g08.bks.cpg/sg12_170_cif.got.tgz:338475.got - 2010.06.03 13:09:07.
