data_PCOD9175897
_publ_section_title
;
Structure prediction by ZEFSAII (Michael W. Deem and Ramdas Pophale) SiO2 
 PCOD9175897
Probable space group: C 2/M
;
_chemical_formula_sum "Si O2"
_cell_formula_units_Z 56
_cell_length_a 20.067443
_cell_length_b 9.637858
_cell_length_c 28.663008
_cell_angle_alpha 90.000000
_cell_angle_beta 153.808325
_cell_angle_gamma 90.000000
_cell_volume 2446.822846
_symmetry_space_group_name_H-M "C 2/M"
_symmetry_group_IT_number 12
_symmetry_cell_setting 'monoclinic'
loop_
_space_group_symop_operation_xyz
x,y,z
-x,y,-z
-x,-y,-z
x,-y,z
1/2+x,1/2+y,z
1/2-x,1/2+y,-z
1/2-x,1/2-y,-z
1/2+x,1/2-y,z
loop_
_atom_site_type_symbol
_atom_site_label
_atom_site_fract_x
_atom_site_fract_y
_atom_site_fract_z
Si Si1 0.722067 0.775802 0.168007
Si Si2 0.590177 0.662741 0.490725
Si Si3 0.449610 0.652029 0.639354
Si Si4 0.600609 0.838893 0.994962
Si Si5 0.308499 0.851144 0.313687
Si Si6 0.926600 0.665853 0.714839
Si Si7 0.033715 0.162336 0.864746
O O1 0.576537 0.843041 0.101393
O O2 0.771646 0.656368 0.234951
O O3 0.873466 0.862926 0.260859
O O4 0.675552 0.755514 0.085059
O O5 0.560688 0.500000 0.476874
O O6 0.620133 0.691058 0.454326
O O7 0.437506 0.741801 0.407215
O O8 0.749135 0.691477 0.615313
O O9 0.390977 0.500000 0.618180
O O10 0.444454 0.769867 0.674861
O O11 0.612613 0.753904 0.954594
O O12 0.652928 0.000000 0.025535
O O13 0.143907 0.837627 0.232716
O O14 0.372923 0.000000 0.366505
O O15 0.953173 0.500000 0.733550
O O16 0.032909 0.754228 0.815820
O O17 0.081390 0.000000 0.892383
#
# Coordination Sequence:
#
# PCOD9175897 Si02
#       7
#     8   8   8   8   8   8   8
#     4   9  18  32  56  87 113 137 170 214 266 316
#     4   9  20  36  56  81 107 136 175 222 270 315
#     4  10  19  34  55  80 109 139 171 214 265 317
#     4  10  18  33  59  86 110 139 174 215 262 318
#     4   9  19  34  55  82 111 140 174 217 266 318
#     4  11  23  38  54  75 104 143 186 223 261 312
#     4  10  22  38  53  76 109 144 179 219 266 315
#
# _framework density 22.886821000000001
#
# number of rings (size 3 to 8) (size 9 to 14) (size 15 to 20)
#    0.000    2.286    0.000    3.000    0.000    9.143 
#    0.000    6.429    0.000    0.000    0.000    0.000 
#    0.000    0.000    0.000    0.000    0.000    0.000 
#
# Total GULP energy -156214.015817 kJ/mol
# GULP energy per Si atom -5579.071993 kJ/mol
# Density = 2.283473 g / cm^3
# Si number density = 22.886821 Si / 1000 Ang^3
#
#
#
# Elastic Constant Matrix: (Units=GPa)
#
#
# Indices 1 2 3 4 5 6 
#
# 1 58.9303 29.5025 23.1818 -0.0002 -9.8640 0.0001
# 2 29.5025 78.9056 25.1983 -0.0007 -16.4522 0.0000
# 3 23.1818 25.1983 91.2954 -0.0016 -16.1988 0.0003
# 4 -0.0002 -0.0007 -0.0016 15.0097 0.0001 -0.1346
# 5 -9.8640 -16.4522 -16.1988 0.0001 38.1624 0.0001
# 6 0.0001 0.0000 0.0003 -0.1346 0.0001 15.1028
#
#
#
# Elastic Compliance Matrix: (Units=1/GPa)
#
#
# Indices 1 2 3 4 5 6 
#
# 1 0.021970 -0.006846 -0.003466 0.000000 0.001256 0.000000
# 2 -0.006846 0.016864 -0.002098 0.000000 0.004610 0.000000
# 3 -0.003466 -0.002098 0.013078 0.000001 0.003751 0.000000
# 4 0.000000 0.000000 0.000001 0.066629 0.000000 0.000594
# 5 0.001256 0.004610 0.003751 0.000000 0.030108 0.000000
# 6 0.000000 0.000000 0.000000 0.000594 0.000000 0.066218
#
#
# Mechanical properties :
#
#
# Convention : Reuss Voigt Hill
#
# Bulk Modulus (GPa) = 36.91138 42.76628 39.83883
# Shear Modulus (GPa) = 20.10296 23.73824 21.92060
#
# Velocity S-wave (km/s) = 2.96694 3.22405 3.09816
# Velocity P-wave (km/s) = 5.28202 5.70841 5.49935
#
# Compressibility (1/GPa) = 0.02709192
#
# Stress axis : x y z
#
# Youngs Moduli (GPa) = 45.51622 59.29681 76.46248
#
# Poissons Ratio (x) = 0.40593 0.26504
# Poissons Ratio (y) = 0.31159 0.16045
# Poissons Ratio (z) = 0.15777 0.12443
#
# Static dielectric constant tensor:
#      x y z
#    x 1.906280 0.000000 0.003970 
#    y 0.000000 1.827400 0.000000 
#    z 0.003970 0.000000 1.867410 
# 
# From -- ./inp_files/380708.got.cif
#   From: 2010.05.17/outbox.cif.g08.bks.cpg/sg12_191_cif.got.tgz:380708.got - 2010.06.03 13:09:07.
