data_PCOD9175685
_publ_section_title
;
Structure prediction by ZEFSAII (Michael W. Deem and Ramdas Pophale) SiO2 
 PCOD9175685
Probable space group: C 2/M
;
_chemical_formula_sum "Si O2"
_cell_formula_units_Z 56
_cell_length_a 23.365570
_cell_length_b 13.377630
_cell_length_c 10.250061
_cell_angle_alpha 90.000000
_cell_angle_beta 48.512964
_cell_angle_gamma 90.000000
_cell_volume 2400.076422
_symmetry_space_group_name_H-M "C 2/M"
_symmetry_group_IT_number 12
_symmetry_cell_setting 'monoclinic'
loop_
_space_group_symop_operation_xyz
x,y,z
-x,y,-z
-x,-y,-z
x,-y,z
1/2+x,1/2+y,z
1/2-x,1/2+y,-z
1/2-x,1/2-y,-z
1/2+x,1/2-y,z
loop_
_atom_site_type_symbol
_atom_site_label
_atom_site_fract_x
_atom_site_fract_y
_atom_site_fract_z
Si Si1 0.209010 0.620354 0.221881
Si Si2 0.424601 0.618189 0.677455
Si Si3 0.631496 0.888600 0.866634
Si Si4 0.878039 0.178256 0.017848
Si Si5 0.924697 0.889340 0.202354
Si Si6 0.331259 0.214687 0.444880
Si Si7 0.744317 0.616090 0.115702
O O1 0.209592 0.500000 0.239938
O O2 0.292706 0.671699 0.091966
O O3 0.173312 0.668507 0.404757
O O4 0.191978 0.639795 0.093051
O O5 0.500000 0.664417 0.500000
O O6 0.425560 0.500000 0.647142
O O7 0.341783 0.658686 0.755636
O O8 0.428768 0.632072 0.827684
O O9 0.594348 0.789191 0.985029
O O10 0.637494 0.867183 0.704953
O O11 0.715755 0.881468 0.804641
O O12 0.601561 0.000000 0.939889
O O13 0.867505 0.114700 0.165411
O O14 0.890995 0.806902 0.348416
O O15 0.930215 0.000000 0.250458
O O16 0.000000 0.867666 0.000000
O O17 0.250000 0.250000 0.500000
O O18 0.729719 0.500000 0.106774
#
# Coordination Sequence:
#
# PCOD9175685 Si02
#       7
#     8   8   8   8   8   8   8
#     4  10  18  33  56  81 115 150 187 232 287 344
#     4   9  17  31  50  75 109 146 186 226 278 348
#     4  10  20  35  55  80 110 140 186 241 288 330
#     4  10  19  34  53  77 108 150 189 228 297 347
#     4  10  21  38  58  82 117 154 190 236 291 353
#     4  11  21  36  55  89 113 151 191 237 289 340
#     4   8  17  33  54  80 110 147 183 229 284 337
#
# _framework density 23.332588999999999
#
# number of rings (size 3 to 8) (size 9 to 14) (size 15 to 20)
#    0.000    2.286    2.857    2.571    0.000    2.857 
#    2.571    0.000    0.000   11.143    0.000    1.000 
#    0.000    0.000    0.000    0.000    0.000    0.000 
#
# Total GULP energy -155941.897713 kJ/mol
# GULP energy per Si atom -5569.353490 kJ/mol
# Density = 2.327948 g / cm^3
# Si number density = 23.332589 Si / 1000 Ang^3
#
#
#
# Elastic Constant Matrix: (Units=GPa)
#
#
# Indices 1 2 3 4 5 6 
#
# 1 37.7233 16.1509 34.7159 0.0000 19.8617 0.0000
# 2 16.1509 139.9927 29.5327 0.0000 1.9467 0.0000
# 3 34.7159 29.5327 129.0675 0.0000 24.0891 0.0000
# 4 0.0000 0.0000 0.0000 32.7637 0.0000 3.5086
# 5 19.8617 1.9467 24.0891 0.0000 30.1066 0.0000
# 6 0.0000 0.0000 0.0000 3.5086 0.0000 17.4793
#
#
#
# Elastic Compliance Matrix: (Units=1/GPa)
#
#
# Indices 1 2 3 4 5 6 
#
# 1 0.048476 -0.003678 -0.007374 0.000000 -0.025842 0.000000
# 2 -0.003678 0.007813 -0.001360 0.000000 0.003009 0.000000
# 3 -0.007374 -0.001360 0.010719 0.000000 -0.003624 0.000000
# 4 0.000000 0.000000 0.000000 0.031192 0.000000 -0.006261
# 5 -0.025842 0.003009 -0.003624 0.000000 0.052968 0.000000
# 6 0.000000 0.000000 0.000000 -0.006261 0.000000 0.058467
#
#
# Mechanical properties :
#
#
# Convention : Reuss Voigt Hill
#
# Bulk Modulus (GPa) = 23.70599 51.95362 37.82981
# Shear Modulus (GPa) = 20.11913 31.16219 25.64066
#
# Velocity S-wave (km/s) = 2.93964 3.65850 3.31859
# Velocity P-wave (km/s) = 4.65876 6.33728 5.56171
#
# Compressibility (1/GPa) = 0.04218343
#
# Stress axis : x y z
#
# Youngs Moduli (GPa) = 20.62891 127.99837 93.29344
#
# Poissons Ratio (x) = 0.47073 0.68795
# Poissons Ratio (y) = 0.07587 0.12689
# Poissons Ratio (z) = 0.15212 0.17409
#
# Static dielectric constant tensor:
#      x y z
#    x 2.167080 0.000000 -0.009290 
#    y 0.000000 1.943620 0.000000 
#    z -0.009290 0.000000 1.897280 
# 
# From -- ./inp_files/189166.got.cif
#   From: 2010.05.17/outbox.cif.g08.bks.cpg/sg12_95_cif.got.tgz:189166.got - 2010.06.03 13:09:07.
