data_PCOD9175347
_publ_section_title
;
Structure prediction by ZEFSAII (Michael W. Deem and Ramdas Pophale) SiO2 
 PCOD9175347
Probable space group: C 2/M
;
_chemical_formula_sum "Si O2"
_cell_formula_units_Z 40
_cell_length_a 10.753943
_cell_length_b 14.995275
_cell_length_c 12.918037
_cell_angle_alpha 90.000000
_cell_angle_beta 65.110381
_cell_angle_gamma 90.000000
_cell_volume 1889.659552
_symmetry_space_group_name_H-M "C 2/M"
_symmetry_group_IT_number 12
_symmetry_cell_setting 'monoclinic'
loop_
_space_group_symop_operation_xyz
x,y,z
-x,y,-z
-x,-y,-z
x,-y,z
1/2+x,1/2+y,z
1/2-x,1/2+y,-z
1/2-x,1/2-y,-z
1/2+x,1/2-y,z
loop_
_atom_site_type_symbol
_atom_site_label
_atom_site_fract_x
_atom_site_fract_y
_atom_site_fract_z
Si Si1 0.153473 0.107952 0.404459
Si Si2 0.360395 0.104830 0.505698
Si Si3 0.848980 0.821976 0.822521
Si Si4 0.845877 0.838012 0.050004
Si Si5 0.381795 0.595666 0.251874
O O1 0.272737 0.141243 0.440297
O O2 0.187835 0.140066 0.276483
O O3 0.000000 0.132846 0.500000
O O4 0.155223 0.000000 0.406213
O O5 0.500000 0.146715 0.500000
O O6 0.256066 0.106392 0.637554
O O7 0.390048 0.000000 0.469771
O O8 0.771468 0.730642 0.874322
O O9 0.013884 0.824929 0.761104
O O10 0.821914 0.872940 0.941984
O O11 0.854531 0.906634 0.139953
O O12 0.000000 0.794828 0.000000
O O13 0.444102 0.500000 0.264376
#
# Coordination Sequence:
#
# PCOD9175347 Si02
#       5
#     8   8   8   8   8
#     4  10  18  32  59  90 117 152 198 249 302 361
#     4   9  18  34  54  84 122 153 185 242 307 354
#     4  10  19  36  58  84 115 155 193 247 302 357
#     4   9  21  38  56  81 119 158 194 247 312 354
#     4  10  19  36  64  88 111 155 211 249 289 363
#
# _framework density 21.167835
#
# number of rings (size 3 to 8) (size 9 to 14) (size 15 to 20)
#    0.000    2.400    2.000    0.600    0.000    4.400 
#   10.800    2.000    0.000    2.400    0.000    0.000 
#    0.000    0.000    0.000    0.000    0.000    0.000 
#
# Total GULP energy -111337.925160 kJ/mol
# GULP energy per Si atom -5566.896258 kJ/mol
# Density = 2.111966 g / cm^3
# Si number density = 21.167835 Si / 1000 Ang^3
#
#
#
# Elastic Constant Matrix: (Units=GPa)
#
#
# Indices 1 2 3 4 5 6 
#
# 1 147.7596 37.5331 74.9464 0.0000 18.4205 0.0000
# 2 37.5331 41.4272 22.6314 0.0000 -11.5372 0.0000
# 3 74.9464 22.6314 142.9010 0.0000 30.2462 0.0000
# 4 0.0000 0.0000 0.0000 30.2953 0.0000 -1.0107
# 5 18.4205 -11.5372 30.2462 0.0000 37.3709 0.0000
# 6 0.0000 0.0000 0.0000 -1.0107 0.0000 15.7069
#
#
#
# Elastic Compliance Matrix: (Units=1/GPa)
#
#
# Indices 1 2 3 4 5 6 
#
# 1 0.012007 -0.011094 -0.003092 0.000000 -0.006841 0.000000
# 2 -0.011094 0.044456 -0.006377 0.000000 0.024354 0.000000
# 3 -0.003092 -0.006377 0.011734 0.000000 -0.009941 0.000000
# 4 0.000000 0.000000 0.000000 0.033079 0.000000 0.002129
# 5 -0.006841 0.024354 -0.009941 0.000000 0.045695 0.000000
# 6 0.000000 0.000000 0.000000 0.002129 0.000000 0.063803
#
#
# Mechanical properties :
#
#
# Convention : Reuss Voigt Hill
#
# Bulk Modulus (GPa) = 36.94102 66.92329 51.93215
# Shear Modulus (GPa) = 19.16253 29.80640 24.48446
#
# Velocity S-wave (km/s) = 3.01203 3.75653 3.40469
# Velocity P-wave (km/s) = 5.43928 7.10631 6.32793
#
# Compressibility (1/GPa) = 0.02707018
#
# Stress axis : x y z
#
# Youngs Moduli (GPa) = 83.28336 22.49397 85.22407
#
# Poissons Ratio (x) = 0.24955 0.26355
# Poissons Ratio (y) = 0.92397 0.54346
# Poissons Ratio (z) = 0.25755 0.14344
#
# Static dielectric constant tensor:
#      x y z
#    x 1.809730 0.000000 0.043360 
#    y 0.000000 1.776260 0.000000 
#    z 0.043360 0.000000 1.772360 
# 
# From -- ./inp_files/129565.got.cif
#   From: 2010.05.17/outbox.cif.g08.bks.cpg/sg12_65_cif.got.tgz:129565.got - 2010.06.03 13:09:07.
