data_PCOD9175611
_publ_section_title
;
Structure prediction by ZEFSAII (Michael W. Deem and Ramdas Pophale) SiO2 
 PCOD9175611
Probable space group: C 2/M
;
_chemical_formula_sum "Si O2"
_cell_formula_units_Z 52
_cell_length_a 10.230652
_cell_length_b 14.322871
_cell_length_c 17.824819
_cell_angle_alpha 90.000000
_cell_angle_beta 56.281248
_cell_angle_gamma 90.000000
_cell_volume 2172.516439
_symmetry_space_group_name_H-M "C 2/M"
_symmetry_group_IT_number 12
_symmetry_cell_setting 'monoclinic'
loop_
_space_group_symop_operation_xyz
x,y,z
-x,y,-z
-x,-y,-z
x,-y,z
1/2+x,1/2+y,z
1/2-x,1/2+y,-z
1/2-x,1/2-y,-z
1/2+x,1/2-y,z
loop_
_atom_site_type_symbol
_atom_site_label
_atom_site_fract_x
_atom_site_fract_y
_atom_site_fract_z
Si Si1 0.500000 0.265009 0.500000
Si Si2 0.893189 0.898674 0.176189
Si Si3 0.272582 0.361023 0.056738
Si Si4 0.587081 0.818145 0.800807
Si Si5 0.596420 0.099595 0.373077
Si Si6 0.234884 0.394848 0.600692
Si Si7 0.175656 0.644721 0.933583
O O1 0.600921 0.193405 0.418503
O O2 0.366091 0.335782 0.514796
O O3 0.869363 0.902739 0.094464
O O4 0.949178 0.793964 0.181873
O O5 0.717009 0.894992 0.266715
O O6 0.955867 0.000000 0.184400
O O7 0.326031 0.253474 0.043175
O O8 0.085993 0.364516 0.136294
O O9 0.283715 0.395076 0.966622
O O10 0.675870 0.847647 0.697181
O O11 0.694283 0.851296 0.837886
O O12 0.420371 0.098893 0.399201
O O13 0.630077 0.000000 0.401689
O O14 0.291099 0.500000 0.598927
O O15 0.000000 0.606330 0.000000
#
# Coordination Sequence:
#
# PCOD9175611 Si02
#       7
#     4   8   8   8   8   8   8
#     4  12  22  40  60  82 110 148 182 232 284 330
#     4  10  19  33  55  82 109 143 185 228 275 328
#     4   9  16  30  55  78 110 148 183 224 272 321
#     4  10  18  33  55  80 112 148 185 226 276 326
#     4  10  21  37  58  84 110 140 184 229 276 332
#     4  11  23  38  57  82 112 147 186 229 277 335
#     4   8  16  29  51  82 108 143 188 224 265 323
#
# _framework density 23.935376999999999
#
# number of rings (size 3 to 8) (size 9 to 14) (size 15 to 20)
#    0.000    2.154    3.077    0.923    0.000    0.000 
#    0.000    0.769    0.000   57.231    0.000    0.000 
#    0.000    0.000    0.000    0.000    0.000    0.000 
#
# Total GULP energy -144903.177871 kJ/mol
# GULP energy per Si atom -5573.199149 kJ/mol
# Density = 2.388090 g / cm^3
# Si number density = 23.935377 Si / 1000 Ang^3
#
#
#
# Elastic Constant Matrix: (Units=GPa)
#
#
# Indices 1 2 3 4 5 6 
#
# 1 42.5465 2.8127 -12.6475 0.0000 4.5701 0.0000
# 2 2.8127 145.5275 24.0660 0.0000 1.1050 0.0000
# 3 -12.6475 24.0660 55.9164 0.0000 -10.8123 0.0000
# 4 0.0000 0.0000 0.0000 19.7840 0.0000 -4.3458
# 5 4.5701 1.1050 -10.8123 0.0000 34.9255 0.0000
# 6 0.0000 0.0000 0.0000 -4.3458 0.0000 8.7781
#
#
#
# Elastic Compliance Matrix: (Units=1/GPa)
#
#
# Indices 1 2 3 4 5 6 
#
# 1 0.025585 -0.001503 0.006165 0.000000 -0.001392 0.000000
# 2 -0.001503 0.007542 -0.003823 0.000000 -0.001225 0.000000
# 3 0.006165 -0.003823 0.022115 0.000000 0.006161 0.000000
# 4 0.000000 0.000000 0.000000 0.056713 0.000000 0.028077
# 5 -0.001392 -0.001225 0.006161 0.000000 0.030760 0.000000
# 6 0.000000 0.000000 0.000000 0.028077 0.000000 0.127820
#
#
# Mechanical properties :
#
#
# Convention : Reuss Voigt Hill
#
# Bulk Modulus (GPa) = 17.56879 30.27254 23.92066
# Shear Modulus (GPa) = 17.37123 28.01481 22.69302
#
# Velocity S-wave (km/s) = 2.69691 3.42487 3.08246
# Velocity P-wave (km/s) = 4.12962 5.32116 4.76280
#
# Compressibility (1/GPa) = 0.05691913
#
# Stress axis : x y z
#
# Youngs Moduli (GPa) = 39.08509 132.58825 45.21828
#
# Poissons Ratio (x) = 0.19934 -0.27877
# Poissons Ratio (y) = 0.05876 0.17287
# Poissons Ratio (z) = -0.24096 0.50690
#
# Static dielectric constant tensor:
#      x y z
#    x 1.954610 0.000000 -0.021070 
#    y 0.000000 1.988440 0.000000 
#    z -0.021070 0.000000 1.953120 
# 
# From -- ./inp_files/305353.got.cif
#   From: 2010.05.17/outbox.cif.g08.bks.cpg/sg12_153_cif.got.tgz:305353.got - 2010.06.03 13:09:07.
