data_PCOD9175355
_publ_section_title
;
Structure prediction by ZEFSAII (Michael W. Deem and Ramdas Pophale) SiO2 
 PCOD9175355
Probable space group: C 2/M
;
_chemical_formula_sum "Si O2"
_cell_formula_units_Z 64
_cell_length_a 10.324682
_cell_length_b 28.965177
_cell_length_c 12.806872
_cell_angle_alpha 90.000000
_cell_angle_beta 128.491280
_cell_angle_gamma 90.000000
_cell_volume 2997.732506
_symmetry_space_group_name_H-M "C 2/M"
_symmetry_group_IT_number 12
_symmetry_cell_setting 'monoclinic'
loop_
_space_group_symop_operation_xyz
x,y,z
-x,y,-z
-x,-y,-z
x,-y,z
1/2+x,1/2+y,z
1/2-x,1/2+y,-z
1/2-x,1/2-y,-z
1/2+x,1/2-y,z
loop_
_atom_site_type_symbol
_atom_site_label
_atom_site_fract_x
_atom_site_fract_y
_atom_site_fract_z
Si Si1 0.802129 0.451922 0.904985
Si Si2 0.197545 0.353488 0.114900
Si Si3 0.709343 0.948195 0.850781
Si Si4 0.053178 0.199064 0.641763
Si Si5 0.389221 0.051615 0.549861
Si Si6 0.244399 0.351563 0.561945
Si Si7 0.821021 0.150778 0.941798
Si Si8 0.439003 0.191792 0.329141
O O1 0.732734 0.500000 0.828185
O O2 0.754912 0.405215 0.824044
O O3 0.774190 0.450055 0.015575
O O4 0.000000 0.453487 0.000000
O O5 0.267942 0.316733 0.230154
O O6 0.288443 0.350569 0.048667
O O7 0.000000 0.350621 0.000000
O O8 0.522958 0.941672 0.711375
O O9 0.803628 0.900105 0.877248
O O10 0.762308 0.000000 0.838771
O O11 0.043865 0.254178 0.641741
O O12 0.000000 0.184306 0.500000
O O13 0.920368 0.172796 0.647363
O O14 0.500000 0.051672 0.500000
O O15 0.264840 0.094017 0.467542
O O16 0.317231 0.000000 0.525185
O O17 0.156021 0.335806 0.625406
O O18 0.121909 0.329001 0.414800
O O19 0.673167 0.182042 0.825606
O O20 0.000000 0.169034 0.000000
#
# Coordination Sequence:
#
# PCOD9175355 Si02
#       8
#     8   8   8   8   8   8   8   8
#     4   8  15  31  55  79 107 150 200 242 294 371
#     4  10  24  41  61  90 124 160 203 261 323 377
#     4   9  17  30  52  84 119 158 202 246 308 384
#     4  12  27  41  64  92 122 167 222 265 313 378
#     4  10  18  32  59  92 125 163 201 249 318 382
#     4  11  21  41  62  92 126 160 215 263 307 378
#     4  11  22  38  62  90 125 161 206 265 324 367
#     4  11  23  40  64  89 118 172 209 262 314 380
#
# _framework density 21.349468999999999
#
# number of rings (size 3 to 8) (size 9 to 14) (size 15 to 20)
#    0.000    1.750    3.750    1.125    1.750    2.250 
#    0.000    0.625    0.000    2.250    0.000    0.000 
#    0.000    0.000    0.000    0.000    0.000    0.000 
#
# Total GULP energy -178375.762811 kJ/mol
# GULP energy per Si atom -5574.242588 kJ/mol
# Density = 2.130088 g / cm^3
# Si number density = 21.349469 Si / 1000 Ang^3
#
#
#
# Elastic Constant Matrix: (Units=GPa)
#
#
# Indices 1 2 3 4 5 6 
#
# 1 35.4511 7.1860 9.4605 0.0000 8.3386 0.0000
# 2 7.1860 123.3502 40.2707 0.0000 3.1440 0.0000
# 3 9.4605 40.2707 64.5361 0.0000 10.0763 0.0000
# 4 0.0000 0.0000 0.0000 367.1500 0.0000 -86.3205
# 5 8.3386 3.1440 10.0763 0.0000 16.8369 0.0000
# 6 0.0000 0.0000 0.0000 -86.3205 0.0000 5.2757
#
#
#
# Elastic Compliance Matrix: (Units=1/GPa)
#
#
# Indices 1 2 3 4 5 6 
#
# 1 0.032357 -0.000894 -0.001886 0.000000 -0.014730 0.000000
# 2 -0.000894 0.010273 -0.006673 0.000000 0.002518 0.000000
# 3 -0.001886 -0.006673 0.021615 0.000000 -0.010756 0.000000
# 4 0.000000 0.000000 0.000000 -0.000957 0.000000 -0.015654
# 5 -0.014730 0.002518 -0.010756 0.000000 0.072655 0.000000
# 6 0.000000 0.000000 0.000000 -0.015654 0.000000 -0.066582
#
#
# Mechanical properties :
#
#
# Convention : Reuss Voigt Hill
#
# Bulk Modulus (GPa) = 22.05538 37.46354 29.75946
# Shear Modulus (GPa) = 48.36542 88.94718 68.65630
#
# Velocity S-wave (km/s) = 4.76480 6.46165 5.67698
# Velocity P-wave (km/s) = 6.37371 8.55900 7.54588
#
# Compressibility (1/GPa) = 0.04534041
#
# Stress axis : x y z
#
# Youngs Moduli (GPa) = 30.90533 97.33917 46.26480
#
# Poissons Ratio (x) = 0.08702 0.08724
# Poissons Ratio (y) = 0.02763 0.30871
# Poissons Ratio (z) = 0.05828 0.64951
#
# Static dielectric constant tensor:
#      x y z
#    x 1.800920 0.000000 -0.033730 
#    y 0.000000 1.834020 0.000000 
#    z -0.033730 0.000000 1.790340 
# 
# From -- ./inp_files/209882.got.cif
#   From: 2010.05.17/outbox.cif.g08.bks.cpg/sg12_105_cif.got.tgz:209882.got - 2010.06.03 13:09:07.
