data_PCOD9175234
_publ_section_title
;
Structure prediction by ZEFSAII (Michael W. Deem and Ramdas Pophale) SiO2 
 PCOD9175234
Probable space group: C 2/M
;
_chemical_formula_sum "Si O2"
_cell_formula_units_Z 48
_cell_length_a 21.102586
_cell_length_b 8.263404
_cell_length_c 15.254584
_cell_angle_alpha 90.000000
_cell_angle_beta 99.391259
_cell_angle_gamma 90.000000
_cell_volume 2624.429155
_symmetry_space_group_name_H-M "C 2/M"
_symmetry_group_IT_number 12
_symmetry_cell_setting 'monoclinic'
loop_
_space_group_symop_operation_xyz
x,y,z
-x,y,-z
-x,-y,-z
x,-y,z
1/2+x,1/2+y,z
1/2-x,1/2+y,-z
1/2-x,1/2-y,-z
1/2+x,1/2-y,z
loop_
_atom_site_type_symbol
_atom_site_label
_atom_site_fract_x
_atom_site_fract_y
_atom_site_fract_z
Si Si1 0.840379 0.193418 0.271695
Si Si2 0.944494 0.697576 0.554756
Si Si3 0.453202 0.693461 0.064736
Si Si4 0.519002 0.192036 0.737641
Si Si5 0.810385 0.194964 0.069928
Si Si6 0.692941 0.806036 0.549458
O O1 0.911130 0.272468 0.288663
O O2 0.808255 0.243764 0.172100
O O3 0.802880 0.241603 0.350465
O O4 0.848788 0.000000 0.271183
O O5 0.944537 0.500000 0.554673
O O6 0.875055 0.751309 0.506393
O O7 0.000000 0.749521 0.500000
O O8 0.965487 0.749214 0.656709
O O9 0.449242 0.500000 0.052328
O O10 0.481151 0.727295 0.167415
O O11 0.379488 0.754760 0.048848
O O12 0.500000 0.759379 0.000000
O O13 0.512638 0.000000 0.747821
O O14 0.811702 0.000000 0.068524
O O15 0.750000 0.250000 0.000000
O O16 0.750000 0.750000 0.500000
O O17 0.691805 0.000000 0.552589
#
# Coordination Sequence:
#
# PCOD9175234 Si02
#       6
#     8   8   8   8   8   8
#     4  10  20  36  56  80 110 144 180 221 272 321
#     4   9  17  33  56  80 107 139 176 221 268 313
#     4   9  19  37  56  76 110 144 172 220 278 319
#     4  10  18  32  57  84 106 138 183 224 265 317
#     4   9  19  35  56  79 104 138 178 221 268 319
#     4  11  22  38  57  79 112 147 181 222 271 321
#
# _framework density 18.289691999999999
#
# number of rings (size 3 to 8) (size 9 to 14) (size 15 to 20)
#    0.000    2.333    1.667    2.500    0.000    3.667 
#    3.000    4.167    0.000    0.000    0.000    0.000 
#    0.000    0.000    0.000    0.000    0.000    0.000 
#
# Total GULP energy -133874.098305 kJ/mol
# GULP energy per Si atom -5578.087429 kJ/mol
# Density = 1.824806 g / cm^3
# Si number density = 18.289692 Si / 1000 Ang^3
#
#
#
# Elastic Constant Matrix: (Units=GPa)
#
#
# Indices 1 2 3 4 5 6 
#
# 1 131.4070 8.8022 96.5824 0.0000 -5.5004 0.0000
# 2 8.8022 6.7765 2.1163 0.0000 4.9938 0.0000
# 3 96.5824 2.1163 142.4479 0.0000 3.3581 0.0000
# 4 0.0000 0.0000 0.0000 27.6388 0.0000 -4.5153
# 5 -5.5004 4.9938 3.3581 0.0000 36.5589 0.0000
# 6 0.0000 0.0000 0.0000 -4.5153 0.0000 17.8251
#
#
#
# Elastic Compliance Matrix: (Units=1/GPa)
#
#
# Indices 1 2 3 4 5 6 
#
# 1 0.019015 -0.026359 -0.012681 0.000000 0.007626 0.000000
# 2 -0.026359 0.201150 0.015659 0.000000 -0.032881 0.000000
# 3 -0.012681 0.015659 0.015514 0.000000 -0.005472 0.000000
# 4 0.000000 0.000000 0.000000 0.037743 0.000000 0.009561
# 5 0.007626 -0.032881 -0.005472 0.000000 0.033495 0.000000
# 6 0.000000 0.000000 0.000000 0.009561 0.000000 0.058522
#
#
# Mechanical properties :
#
#
# Convention : Reuss Voigt Hill
#
# Bulk Modulus (GPa) = 5.29334 55.07033 30.18184
# Shear Modulus (GPa) = 10.52249 27.94661 19.23455
#
# Velocity S-wave (km/s) = 2.40119 3.91320 3.24645
# Velocity P-wave (km/s) = 3.25393 7.11287 5.53087
#
# Compressibility (1/GPa) = 0.18891670
#
# Stress axis : x y z
#
# Youngs Moduli (GPa) = 52.59033 4.97142 64.45714
#
# Poissons Ratio (x) = 0.13104 0.81736
# Poissons Ratio (y) = 1.38623 -1.00932
# Poissons Ratio (z) = 0.66688 -0.07785
#
# Static dielectric constant tensor:
#      x y z
#    x 1.617690 0.000000 0.001030 
#    y 0.000000 1.645230 0.000000 
#    z 0.001030 0.000000 1.631130 
# 
# From -- ./inp_files/230456.got.cif
#   From: 2010.05.17/outbox.cif.g08.bks.cpg/sg12_116_cif.got.tgz:230456.got - 2010.06.03 13:09:07.
