data_PCOD9175001
_publ_section_title
;
Structure prediction by ZEFSAII (Michael W. Deem and Ramdas Pophale) SiO2 
 PCOD9175001
Probable space group: C 2/M
;
_chemical_formula_sum "Si O2"
_cell_formula_units_Z 56
_cell_length_a 19.793701
_cell_length_b 7.711198
_cell_length_c 26.236767
_cell_angle_alpha 90.000000
_cell_angle_beta 45.021253
_cell_angle_gamma 90.000000
_cell_volume 2832.730223
_symmetry_space_group_name_H-M "C 2/M"
_symmetry_group_IT_number 12
_symmetry_cell_setting 'monoclinic'
loop_
_space_group_symop_operation_xyz
x,y,z
-x,y,-z
-x,-y,-z
x,-y,z
1/2+x,1/2+y,z
1/2-x,1/2+y,-z
1/2-x,1/2-y,-z
1/2+x,1/2-y,z
loop_
_atom_site_type_symbol
_atom_site_label
_atom_site_fract_x
_atom_site_fract_y
_atom_site_fract_z
Si Si1 0.005795 0.786431 0.737474
Si Si2 0.797326 0.302204 0.714241
Si Si3 0.993336 0.210244 0.561916
Si Si4 0.094267 0.790945 0.796295
Si Si5 0.360890 0.708096 0.429527
Si Si6 0.206339 0.807807 0.173199
Si Si7 0.582249 0.705879 0.919591
O O1 0.038561 0.728892 0.776303
O O2 0.080965 0.731678 0.652658
O O3 0.895685 0.727423 0.788260
O O4 0.004398 0.000000 0.736341
O O5 0.780767 0.500000 0.741318
O O6 0.895491 0.287021 0.633901
O O7 0.706718 0.256019 0.728445
O O8 0.802646 0.185962 0.761007
O O9 0.000000 0.260956 0.500000
O O10 0.078019 0.266910 0.554043
O O11 0.988568 0.000000 0.567083
O O12 0.076028 0.727549 0.864183
O O13 0.080420 0.000000 0.804411
O O14 0.365595 0.500000 0.424402
O O15 0.250000 0.750000 0.500000
O O16 0.312618 0.729957 0.111646
O O17 0.210001 0.000000 0.148481
O O18 0.567340 0.500000 0.923268
O O19 0.500000 0.778460 0.000000
#
# Coordination Sequence:
#
# PCOD9175001 Si02
#       7
#     8   8   8   8   8   8   8
#     4   9  17  32  52  72 100 134 171 211 253 305
#     4  10  19  32  52  75  98 129 173 216 252 300
#     4  10  21  36  51  69 100 135 170 214 264 310
#     4   8  16  30  50  75  99 129 169 207 248 298
#     4  10  21  36  51  71 100 136 173 214 264 306
#     4  10  18  32  55  77 101 134 169 207 254 306
#     4   9  18  34  55  79 108 137 167 207 252 299
#
# _framework density 19.768913999999999
#
# number of rings (size 3 to 8) (size 9 to 14) (size 15 to 20)
#    0.000    2.571    1.429    1.714    2.000    1.143 
#    0.000    0.714    0.000    8.571    0.000    0.000 
#    0.000    0.000    0.000    0.000    0.000    0.000 
#
# Total GULP energy -155884.890956 kJ/mol
# GULP energy per Si atom -5567.317534 kJ/mol
# Density = 1.972392 g / cm^3
# Si number density = 19.768914 Si / 1000 Ang^3
#
#
#
# Elastic Constant Matrix: (Units=GPa)
#
#
# Indices 1 2 3 4 5 6 
#
# 1 191.4381 11.4293 90.4830 -0.0013 -10.6426 -0.0002
# 2 11.4293 21.0208 9.7238 -0.0092 1.3097 -0.0069
# 3 90.4830 9.7238 138.4759 -0.0007 -22.0355 0.0003
# 4 -0.0013 -0.0092 -0.0007 37.9473 -0.0002 2.5309
# 5 -10.6426 1.3097 -22.0355 -0.0002 25.2181 -0.0002
# 6 -0.0002 -0.0069 0.0003 2.5309 -0.0002 17.8437
#
#
#
# Elastic Compliance Matrix: (Units=1/GPa)
#
#
# Indices 1 2 3 4 5 6 
#
# 1 0.007656 -0.001757 -0.005053 0.000000 -0.001093 -0.000001
# 2 -0.001757 0.050498 -0.003407 0.000011 -0.006341 0.000018
# 3 -0.005053 -0.003407 0.012139 -0.000001 0.008652 -0.000001
# 4 0.000000 0.000011 -0.000001 0.026604 -0.000001 -0.003773
# 5 -0.001093 -0.006341 0.008652 -0.000001 0.047082 -0.000002
# 6 -0.000001 0.000018 -0.000001 -0.003773 -0.000002 0.056578
#
#
# Mechanical properties :
#
#
# Convention : Reuss Voigt Hill
#
# Bulk Modulus (GPa) = 20.05641 63.80078 41.92860
# Shear Modulus (GPa) = 21.04272 32.15506 26.59889
#
# Velocity S-wave (km/s) = 3.26611 4.03742 3.67207
# Velocity P-wave (km/s) = 4.93870 7.35376 6.26372
#
# Compressibility (1/GPa) = 0.04985937
#
# Stress axis : x y z
#
# Youngs Moduli (GPa) = 130.61342 19.80257 82.37665
#
# Poissons Ratio (x) = 0.03480 0.41627
# Poissons Ratio (y) = 0.22951 0.28065
# Poissons Ratio (z) = 0.66003 0.06747
#
# Static dielectric constant tensor:
#      x y z
#    x 1.709060 0.000000 -0.000530 
#    y 0.000000 1.787650 0.000000 
#    z -0.000530 0.000000 1.714340 
# 
# From -- ./inp_files/342227.got.cif
#   From: 2010.05.17/outbox.cif.g08.bks.cpg/sg12_172_cif.got.tgz:342227.got - 2010.06.03 13:09:07.
