data_PCOD9176063
_publ_section_title
;
Structure prediction by ZEFSAII (Michael W. Deem and Ramdas Pophale) SiO2 
 PCOD9176063
Probable space group: C 2/M
;
_chemical_formula_sum "Si O2"
_cell_formula_units_Z 56
_cell_length_a 21.440203
_cell_length_b 30.908732
_cell_length_c 8.569348
_cell_angle_alpha 90.000000
_cell_angle_beta 145.773407
_cell_angle_gamma 90.000000
_cell_volume 3194.148179
_symmetry_space_group_name_H-M "C 2/M"
_symmetry_group_IT_number 12
_symmetry_cell_setting 'monoclinic'
loop_
_space_group_symop_operation_xyz
x,y,z
-x,y,-z
-x,-y,-z
x,-y,z
1/2+x,1/2+y,z
1/2-x,1/2+y,-z
1/2-x,1/2-y,-z
1/2+x,1/2-y,z
loop_
_atom_site_type_symbol
_atom_site_label
_atom_site_fract_x
_atom_site_fract_y
_atom_site_fract_z
Si Si1 0.143391 0.373547 0.457896
Si Si2 0.302955 0.604974 0.224426
Si Si3 0.106230 0.646228 0.020644
Si Si4 0.273521 0.449665 0.861278
Si Si5 0.707463 0.683222 0.004244
Si Si6 0.482204 0.449593 0.779087
Si Si7 0.608037 0.771828 0.830422
O O1 0.137330 0.360728 0.264776
O O2 0.195332 0.420711 0.590684
O O3 0.222110 0.341052 0.717302
O O4 0.017986 0.371529 0.262777
O O5 0.197524 0.622447 0.102999
O O6 0.393536 0.582944 0.522198
O O7 0.266384 0.569957 0.019759
O O8 0.347690 0.645820 0.215648
O O9 0.100729 0.696880 0.963903
O O10 0.245413 0.500000 0.798783
O O11 0.400228 0.444720 0.064712
O O12 0.793183 0.707592 0.067410
O O13 0.630606 0.721424 0.910005
O O14 0.446614 0.500000 0.685585
O O15 0.500000 0.442054 0.000000
O O16 0.500000 0.775627 0.500000
#
# Coordination Sequence:
#
# PCOD9176063 Si02
#       7
#     8   8   8   8   8   8   8
#     4  10  20  38  57  82 109 148 189 221 285 331
#     4  10  20  35  55  81 110 146 190 223 277 326
#     4  10  21  36  58  78 110 149 181 233 277 331
#     4  10  21  36  57  82 113 146 184 230 271 327
#     4   9  20  32  54  80 104 138 182 227 267 327
#     4  10  20  35  56  82 114 148 182 227 278 328
#     4  10  18  34  54  77 106 137 178 225 275 325
#
# _framework density 17.532060999999999
#
# number of rings (size 3 to 8) (size 9 to 14) (size 15 to 20)
#    0.000    2.143    1.429    1.714    0.000    4.000 
#    0.000    4.286    0.000    0.000    0.000    0.000 
#    0.000    0.000    0.000    0.000    0.000    0.000 
#
# Total GULP energy -156168.843875 kJ/mol
# GULP energy per Si atom -5577.458710 kJ/mol
# Density = 1.749216 g / cm^3
# Si number density = 17.532061 Si / 1000 Ang^3
#
#
#
# Elastic Constant Matrix: (Units=GPa)
#
#
# Indices 1 2 3 4 5 6 
#
# 1 75.3132 55.2970 41.4147 0.0000 -4.4654 0.0000
# 2 55.2970 168.0834 87.3043 0.0000 -7.6369 0.0000
# 3 41.4147 87.3043 102.8695 0.0000 -14.1726 0.0000
# 4 0.0000 0.0000 0.0000 24.7419 0.0000 -1.7089
# 5 -4.4654 -7.6369 -14.1726 0.0000 20.6144 0.0000
# 6 0.0000 0.0000 0.0000 -1.7089 0.0000 14.8402
#
#
#
# Elastic Compliance Matrix: (Units=1/GPa)
#
#
# Indices 1 2 3 4 5 6 
#
# 1 0.018411 -0.003933 -0.004115 0.000000 -0.000298 0.000000
# 2 -0.003933 0.011598 -0.008600 0.000000 -0.002468 0.000000
# 3 -0.004115 -0.008600 0.020010 0.000000 0.009680 0.000000
# 4 0.000000 0.000000 0.000000 0.040741 0.000000 0.004691
# 5 -0.000298 -0.002468 0.009680 0.000000 0.054186 0.000000
# 6 0.000000 0.000000 0.000000 0.004691 0.000000 0.067925
#
#
# Mechanical properties :
#
#
# Convention : Reuss Voigt Hill
#
# Bulk Modulus (GPa) = 59.79853 79.36648 69.58250
# Shear Modulus (GPa) = 19.86169 22.85597 21.35883
#
# Velocity S-wave (km/s) = 3.36948 3.61455 3.49416
# Velocity P-wave (km/s) = 7.02282 7.92386 7.48691
#
# Compressibility (1/GPa) = 0.01672282
#
# Stress axis : x y z
#
# Youngs Moduli (GPa) = 54.31567 86.22227 49.97511
#
# Poissons Ratio (x) = 0.33910 0.20567
# Poissons Ratio (y) = 0.21362 0.42977
# Poissons Ratio (z) = 0.22353 0.74148
#
# Static dielectric constant tensor:
#      x y z
#    x 1.594850 0.000000 0.010210 
#    y 0.000000 1.605620 0.000000 
#    z 0.010210 0.000000 1.575140 
# 
# From -- ./inp_files/91523.got.cif
#   From: 2010.05.17/outbox.cif.g08.bks.cpg/sg12_46_cif.got.tgz:91523.got - 2010.06.03 13:09:07.
