data_PCOD9176676
_publ_section_title
;
Structure prediction by ZEFSAII (Michael W. Deem and Ramdas Pophale) SiO2 
 PCOD9176676
Probable space group: C 2/M
;
_chemical_formula_sum "Si O2"
_cell_formula_units_Z 64
_cell_length_a 21.075253
_cell_length_b 7.596470
_cell_length_c 22.682503
_cell_angle_alpha 90.000000
_cell_angle_beta 123.261860
_cell_angle_gamma 90.000000
_cell_volume 3036.487906
_symmetry_space_group_name_H-M "C 2/M"
_symmetry_group_IT_number 12
_symmetry_cell_setting 'monoclinic'
loop_
_space_group_symop_operation_xyz
x,y,z
-x,y,-z
-x,-y,-z
x,-y,z
1/2+x,1/2+y,z
1/2-x,1/2+y,-z
1/2-x,1/2-y,-z
1/2+x,1/2-y,z
loop_
_atom_site_type_symbol
_atom_site_label
_atom_site_fract_x
_atom_site_fract_y
_atom_site_fract_z
Si Si1 0.681795 0.295314 0.599710
Si Si2 0.220250 0.788564 0.050307
Si Si3 0.600496 0.786402 0.438006
Si Si4 0.649756 0.215588 0.331785
Si Si5 0.428177 0.205631 0.352150
Si Si6 0.637945 0.215814 0.803853
Si Si7 0.049072 0.210838 0.970700
Si Si8 0.502561 0.788654 0.186174
O O1 0.685919 0.500000 0.617347
O O2 0.651358 0.277265 0.517845
O O3 0.767224 0.222312 0.645684
O O4 0.621238 0.217378 0.614228
O O5 0.282123 0.723359 0.128875
O O6 0.217214 0.000000 0.054583
O O7 0.250000 0.750000 0.000000
O O8 0.135073 0.719047 0.013989
O O9 0.631304 0.732846 0.389660
O O10 0.513523 0.722711 0.401331
O O11 0.601704 0.000000 0.440967
O O12 0.581077 0.274365 0.254884
O O13 0.651016 0.000000 0.332048
O O14 0.382768 0.276510 0.272437
O O15 0.439968 0.000000 0.344758
O O16 0.569684 0.271735 0.812329
O O17 0.640060 0.000000 0.805422
O O18 0.009962 0.243480 0.888048
O O19 0.054416 0.000000 0.980357
O O20 0.000000 0.280578 0.000000
O O21 0.503305 0.000000 0.191455
#
# Coordination Sequence:
#
# PCOD9176676 Si02
#       8
#     8   8   8   8   8   8   8   8
#     4  11  23  36  51  79 117 144 168 218 281 325
#     4  10  19  33  55  81 107 138 178 220 261 311
#     4  10  19  36  60  80 101 140 189 225 258 313
#     4   9  19  36  58  81 106 139 180 226 270 314
#     4  10  20  36  58  81 104 139 186 226 262 312
#     4   9  17  32  57  82 101 132 182 230 262 300
#     4  10  22  37  52  79 119 150 170 209 273 329
#     4  10  18  35  61  82 102 136 185 229 263 308
#
# _framework density 21.076981
#
# number of rings (size 3 to 8) (size 9 to 14) (size 15 to 20)
#    0.000    2.125    2.500    1.125    0.000    3.250 
#    0.000    5.000    0.000    0.000    0.000    0.000 
#    0.000    0.000    0.000    0.000    0.000    0.000 
#
# Total GULP energy -178760.206110 kJ/mol
# GULP energy per Si atom -5586.256441 kJ/mol
# Density = 2.102901 g / cm^3
# Si number density = 21.076981 Si / 1000 Ang^3
#
#
#
# Elastic Constant Matrix: (Units=GPa)
#
#
# Indices 1 2 3 4 5 6 
#
# 1 99.6315 -4.9374 30.2170 0.0001 15.7396 -0.0004
# 2 -4.9374 39.7311 -5.8838 0.0013 0.8254 -0.0047
# 3 30.2170 -5.8838 117.6918 0.0001 21.2315 -0.0002
# 4 0.0001 0.0013 0.0001 283.5599 0.0001 -976.1175
# 5 15.7396 0.8254 21.2315 0.0001 26.0883 -0.0003
# 6 -0.0004 -0.0047 -0.0002 -976.1175 -0.0003 3564.0048
#
#
#
# Elastic Compliance Matrix: (Units=1/GPa)
#
#
# Indices 1 2 3 4 5 6 
#
# 1 0.011541 0.001263 -0.001918 0.000000 -0.005442 0.000000
# 2 0.001263 0.025598 0.001452 0.000000 -0.002754 0.000000
# 3 -0.001918 0.001452 0.010386 0.000000 -0.007341 0.000000
# 4 0.000000 0.000000 0.000000 0.061657 0.000000 0.016887
# 5 -0.005442 -0.002754 -0.007341 0.000000 0.047676 0.000000
# 6 0.000000 0.000000 0.000000 0.016887 0.000000 0.004906
#
#
# Mechanical properties :
#
#
# Convention : Reuss Voigt Hill
#
# Bulk Modulus (GPa) = 20.35831 32.87177 26.61504
# Shear Modulus (GPa) = 28.32158 790.57450 409.44804
#
# Velocity S-wave (km/s) = 3.66966 19.38823 13.95295
# Velocity P-wave (km/s) = 5.25692 22.73399 16.49954
#
# Compressibility (1/GPa) = 0.04912000
#
# Stress axis : x y z
#
# Youngs Moduli (GPa) = 86.64712 39.06483 96.28122
#
# Poissons Ratio (x) = -0.04935 0.18470
# Poissons Ratio (y) = -0.10945 -0.13982
# Poissons Ratio (z) = 0.16621 -0.05673
#
# Static dielectric constant tensor:
#      x y z
#    x 1.726430 0.000000 0.027380 
#    y 0.000000 1.819480 0.000000 
#    z 0.027380 0.000000 1.730980 
# 
# From -- ./inp_files/346147.got.cif
#   From: 2010.05.17/outbox.cif.g08.bks.cpg/sg12_174_cif.got.tgz:346147.got - 2010.06.03 13:09:07.
