data_PCOD9176833
_publ_section_title
;
Structure prediction by ZEFSAII (Michael W. Deem and Ramdas Pophale) SiO2 
 PCOD9176833
Probable space group: C 2/M
;
_chemical_formula_sum "Si O2"
_cell_formula_units_Z 44
_cell_length_a 18.129098
_cell_length_b 12.066715
_cell_length_c 12.114395
_cell_angle_alpha 90.000000
_cell_angle_beta 51.125808
_cell_angle_gamma 90.000000
_cell_volume 2063.193979
_symmetry_space_group_name_H-M "C 2/M"
_symmetry_group_IT_number 12
_symmetry_cell_setting 'monoclinic'
loop_
_space_group_symop_operation_xyz
x,y,z
-x,y,-z
-x,-y,-z
x,-y,z
1/2+x,1/2+y,z
1/2-x,1/2+y,-z
1/2-x,1/2-y,-z
1/2+x,1/2-y,z
loop_
_atom_site_type_symbol
_atom_site_label
_atom_site_fract_x
_atom_site_fract_y
_atom_site_fract_z
Si Si1 0.329446 0.714498 0.070744
Si Si2 0.868630 0.287680 0.272699
Si Si3 0.372975 0.500000 0.879260
Si Si4 0.613625 0.291461 0.302163
Si Si5 0.554971 0.125903 0.192044
Si Si6 0.343431 0.371372 0.502178
O O1 0.376492 0.730570 0.146392
O O2 0.218398 0.736758 0.191462
O O3 0.352241 0.598771 0.991338
O O4 0.368336 0.812386 0.955965
O O5 0.769098 0.352642 0.371791
O O6 0.867554 0.194713 0.368871
O O7 0.956604 0.365338 0.218655
O O8 0.390281 0.401551 0.768918
O O9 0.548363 0.196805 0.310024
O O10 0.605206 0.325066 0.437406
O O11 0.582349 0.000000 0.186881
O O12 0.365206 0.500000 0.467823
#
# Coordination Sequence:
#
# PCOD9176833 Si02
#       6
#     8   8   4   8   8   8
#     4  10  23  36  63  91 128 160 200 249 306 369
#     4  10  23  41  59  97 117 160 212 246 308 361
#     4  10  18  36  57  87 123 152 203 247 295 351
#     4  10  22  38  62  94 121 165 206 244 302 369
#     4  11  23  40  64  93 127 156 201 257 312 356
#     4  10  21  43  67  82 123 166 209 250 297 366
#
# _framework density 21.326158
#
# number of rings (size 3 to 8) (size 9 to 14) (size 15 to 20)
#    0.000    1.818    0.909    3.273    6.364    2.909 
#    6.545    7.273    0.000    0.000    0.000    0.000 
#    0.000    0.000    0.000    0.000    0.000    0.000 
#
# Total GULP energy -122525.826311 kJ/mol
# GULP energy per Si atom -5569.355741 kJ/mol
# Density = 2.127762 g / cm^3
# Si number density = 21.326158 Si / 1000 Ang^3
#
#
#
# Elastic Constant Matrix: (Units=GPa)
#
#
# Indices 1 2 3 4 5 6 
#
# 1 82.0027 32.7582 5.3307 0.0000 17.3886 0.0000
# 2 32.7582 178.8187 31.5367 0.0000 27.4772 0.0000
# 3 5.3307 31.5367 44.3251 0.0000 25.7881 0.0000
# 4 0.0000 0.0000 0.0000 1.0804 0.0000 17.1546
# 5 17.3886 27.4772 25.7881 0.0000 40.3751 0.0000
# 6 0.0000 0.0000 0.0000 17.1546 0.0000 11.6022
#
#
#
# Elastic Compliance Matrix: (Units=1/GPa)
#
#
# Indices 1 2 3 4 5 6 
#
# 1 0.014366 -0.002236 0.004101 0.000000 -0.007285 0.000000
# 2 -0.002236 0.006880 -0.003918 0.000000 -0.001217 0.000000
# 3 0.004101 -0.003918 0.038720 0.000000 -0.023831 0.000000
# 4 0.000000 0.000000 0.000000 -0.041180 0.000000 0.060887
# 5 -0.007285 -0.001217 -0.023831 0.000000 0.043954 0.000000
# 6 0.000000 0.000000 0.000000 0.060887 0.000000 -0.003835
#
#
# Mechanical properties :
#
#
# Convention : Reuss Voigt Hill
#
# Bulk Modulus (GPa) = 17.90172 49.37754 33.63963
# Shear Modulus (GPa) = 61.25206 26.31293 43.78249
#
# Velocity S-wave (km/s) = 5.36506 3.51641 4.53591
# Velocity P-wave (km/s) = 6.84040 6.30005 6.57577
#
# Compressibility (1/GPa) = 0.05586055
#
# Stress axis : x y z
#
# Youngs Moduli (GPa) = 69.60874 145.35381 25.82677
#
# Poissons Ratio (x) = 0.32496 -0.10593
# Poissons Ratio (y) = 0.15562 0.10119
# Poissons Ratio (z) = -0.28550 0.56952
#
# Static dielectric constant tensor:
#      x y z
#    x 1.859900 0.000000 -0.061660 
#    y 0.000000 1.692560 0.000000 
#    z -0.061660 0.000000 1.803150 
# 
# From -- ./inp_files/154101.got.cif
#   From: 2010.05.17/outbox.cif.g08.bks.cpg/sg12_78_cif.got.tgz:154101.got - 2010.06.03 13:09:07.
