data_PCOD9176986
_publ_section_title
;
Structure prediction by ZEFSAII (Michael W. Deem and Ramdas Pophale) SiO2 
 PCOD9176986
Probable space group: C 2/M
;
_chemical_formula_sum "Si O2"
_cell_formula_units_Z 40
_cell_length_a 12.390245
_cell_length_b 15.356808
_cell_length_c 14.336517
_cell_angle_alpha 90.000000
_cell_angle_beta 38.520434
_cell_angle_gamma 90.000000
_cell_volume 1698.903527
_symmetry_space_group_name_H-M "C 2/M"
_symmetry_group_IT_number 12
_symmetry_cell_setting 'monoclinic'
loop_
_space_group_symop_operation_xyz
x,y,z
-x,y,-z
-x,-y,-z
x,-y,z
1/2+x,1/2+y,z
1/2-x,1/2+y,-z
1/2-x,1/2-y,-z
1/2+x,1/2-y,z
loop_
_atom_site_type_symbol
_atom_site_label
_atom_site_fract_x
_atom_site_fract_y
_atom_site_fract_z
Si Si1 0.695408 0.902291 0.100015
Si Si2 0.405955 0.165783 0.179852
Si Si3 0.870457 0.847731 0.467208
Si Si4 0.051668 0.348391 0.570819
Si Si5 0.000000 0.000000 0.500000
Si Si6 0.000000 0.500000 0.000000
Si Si7 0.000000 0.179466 0.000000
O O1 0.601703 0.839250 0.089735
O O2 0.571514 0.899133 0.274545
O O3 0.883198 0.875751 0.008852
O O4 0.691684 0.000000 0.061137
O O5 0.275602 0.163846 0.353614
O O6 0.382368 0.253344 0.138013
O O7 0.393999 0.077748 0.128493
O O8 0.963433 0.755115 0.396493
O O9 0.753377 0.869165 0.456404
O O10 0.985211 0.924190 0.428708
O O11 0.000000 0.364672 0.500000
#
# Coordination Sequence:
#
# PCOD9176986 Si02
#       7
#     8   8   8   8   2   2   4
#     4  11  23  41  64  89 126 167 210 265 312 374
#     4  10  21  40  65  92 122 168 211 254 319 382
#     4  10  22  38  65  96 129 163 212 260 320 369
#     4  10  21  41  64  89 128 175 208 252 316 397
#     4  12  22  36  66  96 124 160 202 276 302 368
#     4  10  18  36  66  94 118 158 214 250 304 374
#     4  11  23  37  67  90 124 162 207 271 321 369
#
# _framework density 23.544598000000001
#
# number of rings (size 3 to 8) (size 9 to 14) (size 15 to 20)
#    0.000    1.600    2.000    2.700    4.200    0.400 
#    0.000    0.000    0.000    0.000    0.000    0.000 
#    0.000    0.000    0.000    0.000    0.000    0.000 
#
# Total GULP energy -111372.090521 kJ/mol
# GULP energy per Si atom -5568.604526 kJ/mol
# Density = 2.349101 g / cm^3
# Si number density = 23.544598 Si / 1000 Ang^3
#
#
#
# Elastic Constant Matrix: (Units=GPa)
#
#
# Indices 1 2 3 4 5 6 
#
# 1 115.3198 4.1529 0.6178 0.0001 -7.0641 0.0003
# 2 4.1529 99.4090 -3.2857 0.0003 -12.8930 0.0006
# 3 0.6178 -3.2857 41.8102 0.0013 -1.3147 0.0011
# 4 0.0001 0.0003 0.0013 -4.0418 -0.0004 20.6166
# 5 -7.0641 -12.8930 -1.3147 -0.0004 34.1643 -0.0008
# 6 0.0003 0.0006 0.0011 20.6166 -0.0008 20.9074
#
#
#
# Elastic Compliance Matrix: (Units=1/GPa)
#
#
# Indices 1 2 3 4 5 6 
#
# 1 0.008785 -0.000142 -0.000086 0.000000 0.001760 0.000000
# 2 -0.000142 0.010618 0.000963 0.000000 0.004015 0.000000
# 3 -0.000086 0.000963 0.024034 0.000000 0.001271 -0.000001
# 4 0.000000 0.000000 0.000000 -0.041031 0.000000 0.040461
# 5 0.001760 0.004015 0.001271 0.000000 0.031198 0.000000
# 6 0.000000 0.000000 -0.000001 0.040461 0.000000 0.007932
#
#
# Mechanical properties :
#
#
# Convention : Reuss Voigt Hill
#
# Bulk Modulus (GPa) = 22.26757 28.83435 25.55096
# Shear Modulus (GPa) = 90.85160 27.20956 59.03058
#
# Velocity S-wave (km/s) = 6.21858 3.40319 5.01261
# Velocity P-wave (km/s) = 7.81276 5.26456 6.66163
#
# Compressibility (1/GPa) = 0.04490835
#
# Stress axis : x y z
#
# Youngs Moduli (GPa) = 113.83186 94.18073 41.60686
#
# Poissons Ratio (x) = 0.01334 0.00356
# Poissons Ratio (y) = 0.01612 -0.04006
# Poissons Ratio (z) = 0.00974 -0.09067
#
# Static dielectric constant tensor:
#      x y z
#    x 1.981000 0.000000 -0.042330 
#    y 0.000000 1.819100 0.000000 
#    z -0.042330 0.000000 1.959950 
# 
# From -- ./inp_files/204194.got.cif
#   From: 2010.05.17/outbox.cif.g08.bks.cpg/sg12_103_cif.got.tgz:204194.got - 2010.06.03 13:09:07.
