data_PCOD9176545
_publ_section_title
;
Structure prediction by ZEFSAII (Michael W. Deem and Ramdas Pophale) SiO2 
 PCOD9176545
Probable space group: C 2/M
;
_chemical_formula_sum "Si O2"
_cell_formula_units_Z 56
_cell_length_a 22.775482
_cell_length_b 22.625642
_cell_length_c 9.124255
_cell_angle_alpha 90.000000
_cell_angle_beta 47.237608
_cell_angle_gamma 90.000000
_cell_volume 3451.961127
_symmetry_space_group_name_H-M "C 2/M"
_symmetry_group_IT_number 12
_symmetry_cell_setting 'monoclinic'
loop_
_space_group_symop_operation_xyz
x,y,z
-x,y,-z
-x,-y,-z
x,-y,z
1/2+x,1/2+y,z
1/2-x,1/2+y,-z
1/2-x,1/2-y,-z
1/2+x,1/2-y,z
loop_
_atom_site_type_symbol
_atom_site_label
_atom_site_fract_x
_atom_site_fract_y
_atom_site_fract_z
Si Si1 0.189919 0.931313 0.442925
Si Si2 0.818224 0.747802 0.572097
Si Si3 0.188932 0.832349 0.664405
Si Si4 0.742144 0.842343 0.905619
Si Si5 0.387226 0.325557 0.890893
Si Si6 0.913862 0.703654 0.682304
Si Si7 0.004506 0.935420 0.666674
O O1 0.198674 0.897482 0.582547
O O2 0.240315 0.896777 0.232802
O O3 0.096248 0.926819 0.558069
O O4 0.211126 0.000000 0.414087
O O5 0.850296 0.794963 0.401265
O O6 0.774528 0.697182 0.554080
O O7 0.756204 0.784291 0.780269
O O8 0.880275 0.723031 0.581471
O O9 0.142069 0.823213 0.893030
O O10 0.811150 0.840818 0.913941
O O11 0.654818 0.836141 0.125360
O O12 0.420834 0.263983 0.767851
O O13 0.450944 0.378506 0.787251
O O14 0.000000 0.676766 0.500000
O O15 0.000000 0.940155 0.500000
O O16 0.977455 0.000000 0.773540
#
# Coordination Sequence:
#
# PCOD9176545 Si02
#       7
#     8   8   8   8   8   8   8
#     4  10  22  37  55  78 107 144 182 218 262 311
#     4   9  18  35  51  76 105 145 171 219 264 317
#     4  10  19  32  54  72 112 142 177 208 261 318
#     4  10  18  35  56  75 103 139 182 223 259 311
#     4  11  19  32  53  78 105 150 179 208 258 315
#     4  11  21  33  54  81 107 132 182 226 270 311
#     4  10  20  34  51  77 109 144 185 220 247 301
#
# _framework density 16.222663000000001
#
# number of rings (size 3 to 8) (size 9 to 14) (size 15 to 20)
#    0.000    1.857    4.286    1.286    4.000    1.143 
#    0.000    1.429    0.000    0.429    0.000    1.000 
#    0.000    0.000    0.000    0.000    0.000    0.000 
#
# Total GULP energy -155979.837534 kJ/mol
# GULP energy per Si atom -5570.708483 kJ/mol
# Density = 1.618574 g / cm^3
# Si number density = 16.222663 Si / 1000 Ang^3
#
#
#
# Elastic Constant Matrix: (Units=GPa)
#
#
# Indices 1 2 3 4 5 6 
#
# 1 55.3663 38.6831 34.0799 0.0000 9.7875 0.0000
# 2 38.6831 85.7489 28.0203 0.0000 -8.1892 0.0000
# 3 34.0799 28.0203 70.7142 0.0000 3.3017 0.0000
# 4 0.0000 0.0000 0.0000 21.5794 0.0000 1.1772
# 5 9.7875 -8.1892 3.3017 0.0000 31.4214 0.0000
# 6 0.0000 0.0000 0.0000 1.1772 0.0000 29.7464
#
#
#
# Elastic Compliance Matrix: (Units=1/GPa)
#
#
# Indices 1 2 3 4 5 6 
#
# 1 0.038277 -0.014759 -0.011921 0.000000 -0.014517 0.000000
# 2 -0.014759 0.019626 -0.001123 0.000000 0.009830 0.000000
# 3 -0.011921 -0.001123 0.020271 0.000000 0.001291 0.000000
# 4 0.000000 0.000000 0.000000 0.046441 0.000000 -0.001838
# 5 -0.014517 0.009830 0.001291 0.000000 0.038774 0.000000
# 6 0.000000 0.000000 0.000000 -0.001838 0.000000 0.033690
#
#
# Mechanical properties :
#
#
# Convention : Reuss Voigt Hill
#
# Bulk Modulus (GPa) = 44.30918 45.93290 45.12104
# Shear Modulus (GPa) = 19.21542 23.95250 21.58396
#
# Velocity S-wave (km/s) = 3.44536 3.84667 3.65153
# Velocity P-wave (km/s) = 6.57265 6.93575 6.75664
#
# Compressibility (1/GPa) = 0.02256869
#
# Stress axis : x y z
#
# Youngs Moduli (GPa) = 26.12515 50.95396 49.33038
#
# Poissons Ratio (x) = 0.75200 0.58809
# Poissons Ratio (y) = 0.38557 0.05539
# Poissons Ratio (z) = 0.31145 0.05721
#
# Static dielectric constant tensor:
#      x y z
#    x 1.553790 0.000000 -0.031160 
#    y 0.000000 1.586240 0.000000 
#    z -0.031160 0.000000 1.627890 
# 
# From -- ./inp_files/76909.got.cif
#   From: 2010.05.17/outbox.cif.g08.bks.cpg/sg12_39_cif.got.tgz:76909.got - 2010.06.03 13:09:07.
