data_PCOD9176916
_publ_section_title
;
Structure prediction by ZEFSAII (Michael W. Deem and Ramdas Pophale) SiO2 
 PCOD9176916
Probable space group: C 2/M
;
_chemical_formula_sum "Si O2"
_cell_formula_units_Z 48
_cell_length_a 5.345722
_cell_length_b 23.547484
_cell_length_c 16.908357
_cell_angle_alpha 90.000000
_cell_angle_beta 76.014006
_cell_angle_gamma 90.000000
_cell_volume 2065.298661
_symmetry_space_group_name_H-M "C 2/M"
_symmetry_group_IT_number 12
_symmetry_cell_setting 'monoclinic'
loop_
_space_group_symop_operation_xyz
x,y,z
-x,y,-z
-x,-y,-z
x,-y,z
1/2+x,1/2+y,z
1/2-x,1/2+y,-z
1/2-x,1/2-y,-z
1/2+x,1/2-y,z
loop_
_atom_site_type_symbol
_atom_site_label
_atom_site_fract_x
_atom_site_fract_y
_atom_site_fract_z
Si Si1 0.003282 0.187573 0.584329
Si Si2 0.231274 0.500000 0.769034
Si Si3 0.612546 0.721760 0.237941
Si Si4 0.473011 0.878497 0.622504
Si Si5 0.325038 0.000000 0.657538
Si Si6 0.777040 0.683554 0.963343
Si Si7 0.050660 0.377959 0.802592
O O1 0.935975 0.226266 0.664665
O O2 0.771060 0.141007 0.591157
O O3 0.000000 0.217570 0.500000
O O4 0.273037 0.160101 0.589832
O O5 0.536469 0.500000 0.720050
O O6 0.057173 0.500000 0.703412
O O7 0.132801 0.441965 0.817276
O O8 0.378755 0.744664 0.205169
O O9 0.681383 0.657001 0.217836
O O10 0.441723 0.874474 0.720875
O O11 0.382452 0.941890 0.607284
O O12 0.864852 0.658345 0.872570
O O13 0.500000 0.658995 0.000000
O O14 0.750000 0.750000 0.000000
O O15 0.000000 0.659143 0.000000
#
# Coordination Sequence:
#
# PCOD9176916 Si02
#       7
#     8   4   8   8   4   8   8
#     4  11  23  41  58  86 132 171 213 264 335 392
#     4  10  22  38  66  97 121 182 198 280 316 364
#     4  11  24  37  63  95 117 168 214 273 318 367
#     4  10  21  38  63  92 118 178 214 275 316 374
#     4  10  18  36  61  93 128 152 234 268 320 370
#     4  10  24  41  63  96 131 176 200 257 332 370
#     4  10  23  43  68  94 136 159 232 256 318 397
#
# _framework density 23.24119
#
# number of rings (size 3 to 8) (size 9 to 14) (size 15 to 20)
#    0.000    1.667    0.000    5.500    4.667    7.333 
#    0.000    3.333    0.000    0.000    0.000    0.000 
#    0.000    0.000    0.000    0.000    0.000    0.000 
#
# Total GULP energy -133826.526494 kJ/mol
# GULP energy per Si atom -5576.105271 kJ/mol
# Density = 2.318829 g / cm^3
# Si number density = 23.241190 Si / 1000 Ang^3
#
#
#
# Elastic Constant Matrix: (Units=GPa)
#
#
# Indices 1 2 3 4 5 6 
#
# 1 169.5833 47.5961 12.5045 0.0000 -6.8399 0.0000
# 2 47.5961 137.3897 24.5634 0.0000 3.7044 0.0000
# 3 12.5045 24.5634 71.0454 0.0000 -2.8977 0.0000
# 4 0.0000 0.0000 0.0000 88.1827 0.0000 -125.4423
# 5 -6.8399 3.7044 -2.8977 0.0000 25.8032 0.0000
# 6 0.0000 0.0000 0.0000 -125.4423 0.0000 259.5656
#
#
#
# Elastic Compliance Matrix: (Units=1/GPa)
#
#
# Indices 1 2 3 4 5 6 
#
# 1 0.006649 -0.002307 -0.000288 0.000000 0.002061 0.000000
# 2 -0.002307 0.008611 -0.002659 0.000000 -0.002146 0.000000
# 3 -0.000288 -0.002659 0.015127 0.000000 0.002004 0.000000
# 4 0.000000 0.000000 0.000000 0.036285 0.000000 0.017536
# 5 0.002061 -0.002146 0.002004 0.000000 0.039835 0.000000
# 6 0.000000 0.000000 0.000000 0.017536 0.000000 0.012327
#
#
# Mechanical properties :
#
#
# Convention : Reuss Voigt Hill
#
# Bulk Modulus (GPa) = 50.30620 60.81627 55.56124
# Shear Modulus (GPa) = 36.77296 94.26727 65.52012
#
# Velocity S-wave (km/s) = 3.98204 6.37562 5.31532
# Velocity P-wave (km/s) = 6.54481 8.96784 7.85037
#
# Compressibility (1/GPa) = 0.01987826
#
# Stress axis : x y z
#
# Youngs Moduli (GPa) = 150.40284 116.12893 66.10601
#
# Poissons Ratio (x) = 0.26795 0.01907
# Poissons Ratio (y) = 0.34704 0.17575
# Poissons Ratio (z) = 0.04338 0.30875
#
# Static dielectric constant tensor:
#      x y z
#    x 1.874870 0.000000 -0.051250 
#    y 0.000000 1.939930 0.000000 
#    z -0.051250 0.000000 1.981460 
# 
# From -- ./inp_files/253227.got.cif
#   From: 2010.05.17/outbox.cif.g08.bks.cpg/sg12_127_cif.got.tgz:253227.got - 2010.06.03 13:09:07.
