data_PCOD9176481
_publ_section_title
;
Structure prediction by ZEFSAII (Michael W. Deem and Ramdas Pophale) SiO2 
 PCOD9176481
Probable space group: C 2/M
;
_chemical_formula_sum "Si O2"
_cell_formula_units_Z 64
_cell_length_a 11.433929
_cell_length_b 14.121811
_cell_length_c 18.550390
_cell_angle_alpha 90.000000
_cell_angle_beta 79.952377
_cell_angle_gamma 90.000000
_cell_volume 2949.351844
_symmetry_space_group_name_H-M "C 2/M"
_symmetry_group_IT_number 12
_symmetry_cell_setting 'monoclinic'
loop_
_space_group_symop_operation_xyz
x,y,z
-x,y,-z
-x,-y,-z
x,-y,z
1/2+x,1/2+y,z
1/2-x,1/2+y,-z
1/2-x,1/2-y,-z
1/2+x,1/2-y,z
loop_
_atom_site_type_symbol
_atom_site_label
_atom_site_fract_x
_atom_site_fract_y
_atom_site_fract_z
Si Si1 0.882882 0.113083 0.961205
Si Si2 0.533556 0.609295 0.376827
Si Si3 0.573345 0.891610 0.565523
Si Si4 0.819955 0.111034 0.490216
Si Si5 0.865070 0.606338 0.937629
Si Si6 0.223946 0.892470 0.803568
Si Si7 0.505937 0.744963 0.852275
Si Si8 0.076489 0.291749 0.294531
O O1 0.904680 0.169168 0.885239
O O2 0.884641 0.000000 0.952205
O O3 0.752136 0.138273 0.005428
O O4 0.000000 0.133805 0.000000
O O5 0.531192 0.500000 0.352585
O O6 0.400998 0.642120 0.414632
O O7 0.603954 0.612474 0.444664
O O8 0.591895 0.682890 0.316523
O O9 0.500000 0.894453 0.500000
O O10 0.695839 0.844719 0.526386
O O11 0.501449 0.840248 0.635484
O O12 0.595645 0.000000 0.587899
O O13 0.795399 0.000000 0.475859
O O14 0.896142 0.500000 0.956989
O O15 0.810239 0.600812 0.862996
O O16 0.979145 0.673987 0.914988
O O17 0.124046 0.817568 0.837041
O O18 0.302086 0.849466 0.730619
O O19 0.179610 0.000000 0.793937
O O20 0.489855 0.787884 0.774903
#
# Coordination Sequence:
#
# PCOD9176481 Si02
#       8
#     8   8   8   8   8   8   8   8
#     4  10  18  34  64  94 119 159 208 254 303 355
#     4   9  19  37  57  81 115 155 195 241 305 377
#     4  10  22  40  61  87 116 152 206 265 313 364
#     4   8  17  36  61  81 105 145 194 249 304 360
#     4   9  19  37  61  90 119 154 202 253 301 358
#     4  10  21  40  60  84 124 163 204 247 297 364
#     4  11  22  36  58  91 122 161 202 247 303 363
#     4  11  25  36  56  91 122 158 199 250 312 363
#
# _framework density 21.699683
#
# number of rings (size 3 to 8) (size 9 to 14) (size 15 to 20)
#    0.000    2.250    1.250    1.875    3.500    3.000 
#    0.000    1.875    0.000    1.875    0.000    0.000 
#    0.000    0.000    0.000    0.000    0.000    0.000 
#
# Total GULP energy -178439.525524 kJ/mol
# GULP energy per Si atom -5576.235173 kJ/mol
# Density = 2.165029 g / cm^3
# Si number density = 21.699683 Si / 1000 Ang^3
#
#
#
# Elastic Constant Matrix: (Units=GPa)
#
#
# Indices 1 2 3 4 5 6 
#
# 1 66.9967 37.3309 25.2325 0.0000 -33.6981 0.0000
# 2 37.3309 108.8924 33.0875 0.0000 -27.3417 0.0000
# 3 25.2325 33.0875 87.7075 0.0000 -25.6907 0.0000
# 4 0.0000 0.0000 0.0000 1344.3282 0.0000 693.8584
# 5 -33.6981 -27.3417 -25.6907 0.0000 34.4161 0.0000
# 6 0.0000 0.0000 0.0000 693.8584 0.0000 393.8614
#
#
#
# Elastic Compliance Matrix: (Units=1/GPa)
#
#
# Indices 1 2 3 4 5 6 
#
# 1 0.030590 -0.003803 0.000669 0.000000 0.027430 0.000000
# 2 -0.003803 0.012262 -0.002264 0.000000 0.004328 0.000000
# 3 0.000669 -0.002264 0.015010 0.000000 0.010061 0.000000
# 4 0.000000 0.000000 0.000000 0.008199 0.000000 -0.014443
# 5 0.027430 0.004328 0.010061 0.000000 0.066862 0.000000
# 6 0.000000 0.000000 0.000000 -0.014443 0.000000 0.027984
#
#
# Mechanical properties :
#
#
# Convention : Reuss Voigt Hill
#
# Bulk Modulus (GPa) = 21.24694 50.54428 35.89561
# Shear Modulus (GPa) = 26.68222 365.71754 196.19988
#
# Velocity S-wave (km/s) = 3.51039 12.99622 9.51905
# Velocity P-wave (km/s) = 5.12280 15.76533 11.72153
#
# Compressibility (1/GPa) = 0.04706560
#
# Stress axis : x y z
#
# Youngs Moduli (GPa) = 32.69063 81.55517 66.62139
#
# Poissons Ratio (x) = 0.31014 -0.04456
# Poissons Ratio (y) = 0.12432 0.15083
# Poissons Ratio (z) = -0.02186 0.18464
#
# Static dielectric constant tensor:
#      x y z
#    x 1.793740 0.000000 -0.028170 
#    y 0.000000 1.859270 0.000000 
#    z -0.028170 0.000000 1.776170 
# 
# From -- ./inp_files/305425.got.cif
#   From: 2010.05.17/outbox.cif.g08.bks.cpg/sg12_153_cif.got.tgz:305425.got - 2010.06.03 13:09:07.
