data_PCOD9176627
_publ_section_title
;
Structure prediction by ZEFSAII (Michael W. Deem and Ramdas Pophale) SiO2 
 PCOD9176627
Probable space group: C 2/M
;
_chemical_formula_sum "Si O2"
_cell_formula_units_Z 36
_cell_length_a 11.913609
_cell_length_b 25.339987
_cell_length_c 16.118842
_cell_angle_alpha 90.000000
_cell_angle_beta 154.711268
_cell_angle_gamma 90.000000
_cell_volume 2078.713018
_symmetry_space_group_name_H-M "C 2/M"
_symmetry_group_IT_number 12
_symmetry_cell_setting 'monoclinic'
loop_
_space_group_symop_operation_xyz
x,y,z
-x,y,-z
-x,-y,-z
x,-y,z
1/2+x,1/2+y,z
1/2-x,1/2+y,-z
1/2-x,1/2-y,-z
1/2+x,1/2-y,z
loop_
_atom_site_type_symbol
_atom_site_label
_atom_site_fract_x
_atom_site_fract_y
_atom_site_fract_z
Si Si1 0.762093 0.788948 0.277192
Si Si2 0.847121 0.644394 0.093887
Si Si3 0.500000 0.301866 0.000000
Si Si4 0.207987 0.939769 0.563752
Si Si5 0.704187 0.610007 0.821825
O O1 0.513156 0.807302 0.165471
O O2 0.692804 0.736801 0.180170
O O3 0.812829 0.836348 0.245092
O O4 0.000000 0.783203 0.500000
O O5 0.663278 0.663649 0.044346
O O6 0.058977 0.601484 0.266599
O O7 0.693309 0.621650 0.911718
O O8 0.000000 0.933253 0.500000
O O9 0.030503 0.926614 0.365539
O O10 0.301696 0.000000 0.626132
O O11 0.000000 0.588780 0.000000
#
# Coordination Sequence:
#
# PCOD9176627 Si02
#       5
#     8   8   4   8   8
#     4  11  20  36  59  85 114 154 188 243 287 333
#     4  11  22  40  56  85 124 152 196 238 279 353
#     4  12  26  36  57  84 119 170 196 218 286 350
#     4  11  21  37  64  92 114 145 190 250 304 333
#     4  10  18  35  59  84 120 142 181 242 291 339
#
# _framework density 17.318408000000002
#
# number of rings (size 3 to 8) (size 9 to 14) (size 15 to 20)
#    0.000    1.111   10.000    0.667    0.000    4.000 
#    0.000    0.556    0.000    1.333    0.000    0.000 
#    0.000    0.000    0.000    0.000    0.000    0.000 
#
# Total GULP energy -100499.208525 kJ/mol
# GULP energy per Si atom -5583.289363 kJ/mol
# Density = 1.727899 g / cm^3
# Si number density = 17.318408 Si / 1000 Ang^3
#
#
#
# Elastic Constant Matrix: (Units=GPa)
#
#
# Indices 1 2 3 4 5 6 
#
# 1 105.9607 33.4234 33.1285 -0.0116 -5.8450 -0.0017
# 2 33.4234 54.1024 15.6105 -0.0060 3.8042 0.0044
# 3 33.1285 15.6105 60.5994 0.0353 -33.5617 0.0812
# 4 -0.0116 -0.0060 0.0353 -9.7211 0.0040 -18.7073
# 5 -5.8450 3.8042 -33.5617 0.0040 30.6975 0.0195
# 6 -0.0017 0.0044 0.0812 -18.7073 0.0195 -8.5944
#
#
#
# Elastic Compliance Matrix: (Units=1/GPa)
#
#
# Indices 1 2 3 4 5 6 
#
# 1 0.014073 -0.004544 -0.011983 -0.000066 -0.009858 0.000002
# 2 -0.004544 0.028289 -0.018312 -0.000101 -0.024392 0.000006
# 3 -0.011983 -0.018312 0.070376 0.000404 0.076930 -0.000047
# 4 -0.000066 -0.000101 0.000404 0.032262 0.000482 -0.070219
# 5 -0.009858 -0.024392 0.076930 0.000482 0.117829 -0.000066
# 6 0.000002 0.000006 -0.000047 -0.070219 -0.000066 0.036489
#
#
# Mechanical properties :
#
#
# Convention : Reuss Voigt Hill
#
# Bulk Modulus (GPa) = 23.22311 42.77636 32.99973
# Shear Modulus (GPa) = 13.04297 11.70975 12.37636
#
# Velocity S-wave (km/s) = 2.74729 2.60310 2.67617
# Velocity P-wave (km/s) = 4.84790 5.81278 5.35213
#
# Compressibility (1/GPa) = 0.04306056
#
# Stress axis : x y z
#
# Youngs Moduli (GPa) = 71.05683 35.34914 14.20947
#
# Poissons Ratio (x) = 0.16061 0.17027
# Poissons Ratio (y) = 0.32285 0.26021
# Poissons Ratio (z) = 0.85146 0.64733
#
# Static dielectric constant tensor:
#      x y z
#    x 1.581980 0.000000 -0.024850 
#    y 0.000000 1.595890 0.000000 
#    z -0.024850 0.000000 1.586830 
# 
# From -- ./inp_files/47854.got.cif
#   From: 2010.05.17/outbox.cif.g08.bks.cpg/sg12_24_cif.got.tgz:47854.got - 2010.06.03 13:09:07.
