data_PCOD9176029
_publ_section_title
;
Structure prediction by ZEFSAII (Michael W. Deem and Ramdas Pophale) SiO2 
 PCOD9176029
Probable space group: C 2/M
;
_chemical_formula_sum "Si O2"
_cell_formula_units_Z 52
_cell_length_a 20.283161
_cell_length_b 28.229022
_cell_length_c 5.500151
_cell_angle_alpha 90.000000
_cell_angle_beta 108.153525
_cell_angle_gamma 90.000000
_cell_volume 2992.489084
_symmetry_space_group_name_H-M "C 2/M"
_symmetry_group_IT_number 12
_symmetry_cell_setting 'monoclinic'
loop_
_space_group_symop_operation_xyz
x,y,z
-x,y,-z
-x,-y,-z
x,-y,z
1/2+x,1/2+y,z
1/2-x,1/2+y,-z
1/2-x,1/2-y,-z
1/2+x,1/2-y,z
loop_
_atom_site_type_symbol
_atom_site_label
_atom_site_fract_x
_atom_site_fract_y
_atom_site_fract_z
Si Si1 0.632854 0.238116 0.409236
Si Si2 0.803741 0.442771 0.526713
Si Si3 0.962028 0.444744 0.717633
Si Si4 0.072557 0.339659 0.705421
Si Si5 0.000000 0.271149 0.000000
Si Si6 0.744973 0.292590 0.804874
Si Si7 0.789956 0.392719 0.016998
O O1 0.611812 0.195589 0.565870
O O2 0.560004 0.255673 0.214283
O O3 0.675005 0.280993 0.578647
O O4 0.688068 0.214373 0.289719
O O5 0.799133 0.500000 0.508134
O O6 0.884364 0.426045 0.605965
O O7 0.771534 0.419484 0.246665
O O8 0.779411 0.423927 0.761807
O O9 0.951116 0.500000 0.769387
O O10 0.000000 0.446423 0.500000
O O11 0.000000 0.423419 0.000000
O O12 0.128608 0.377004 0.866960
O O13 0.000000 0.356767 0.500000
O O14 0.044690 0.305564 0.882444
O O15 0.750000 0.250000 0.000000
O O16 0.749282 0.343512 0.933773
#
# Coordination Sequence:
#
# PCOD9176029 Si02
#       7
#     8   8   8   8   4   8   8
#     4  10  19  34  53  76 116 143 186 221 282 327
#     4  11  25  40  53  71 101 139 188 240 288 327
#     4   9  17  32  50  66  87 123 171 226 286 324
#     4  10  21  33  50  79 108 144 188 232 276 331
#     4  10  18  34  52  74 111 152 181 228 276 328
#     4  11  21  34  55  81 111 143 180 236 275 347
#     4  12  23  38  57  79 103 144 188 233 285 333
#
# _framework density 17.376837999999999
#
# number of rings (size 3 to 8) (size 9 to 14) (size 15 to 20)
#    0.000    1.538    3.077    2.308    4.308    4.308 
#    0.000    0.000    0.000    0.462    0.000    0.000 
#    0.000    0.000    0.000    4.154    0.000    0.000 
#
# Total GULP energy -145051.574186 kJ/mol
# GULP energy per Si atom -5578.906699 kJ/mol
# Density = 1.733729 g / cm^3
# Si number density = 17.376838 Si / 1000 Ang^3
#
#
#
# Elastic Constant Matrix: (Units=GPa)
#
#
# Indices 1 2 3 4 5 6 
#
# 1 55.8514 26.6862 36.0684 0.0000 -1.5370 0.0000
# 2 26.6862 101.1765 61.1597 0.0000 3.8981 0.0000
# 3 36.0684 61.1597 130.8866 0.0000 0.2889 0.0000
# 4 0.0000 0.0000 0.0000 26.3114 0.0000 12.9819
# 5 -1.5370 3.8981 0.2889 0.0000 41.6987 0.0000
# 6 0.0000 0.0000 0.0000 12.9819 0.0000 15.2689
#
#
#
# Elastic Compliance Matrix: (Units=1/GPa)
#
#
# Indices 1 2 3 4 5 6 
#
# 1 0.022486 -0.003105 -0.004748 0.000000 0.001152 0.000000
# 2 -0.003105 0.014268 -0.005808 0.000000 -0.001408 0.000000
# 3 -0.004748 -0.005808 0.011662 0.000000 0.000287 0.000000
# 4 0.000000 0.000000 0.000000 0.065471 0.000000 -0.055665
# 5 0.001152 -0.001408 0.000287 0.000000 0.024154 0.000000
# 6 0.000000 0.000000 0.000000 -0.055665 0.000000 0.112820
#
#
# Mechanical properties :
#
#
# Convention : Reuss Voigt Hill
#
# Bulk Modulus (GPa) = 47.40850 59.52701 53.46776
# Shear Modulus (GPa) = 17.53063 27.58914 22.55989
#
# Velocity S-wave (km/s) = 3.17969 3.98891 3.60707
# Velocity P-wave (km/s) = 6.38924 7.45293 6.94149
#
# Compressibility (1/GPa) = 0.02109326
#
# Stress axis : x y z
#
# Youngs Moduli (GPa) = 44.47144 70.08699 85.74832
#
# Poissons Ratio (x) = 0.21763 0.40714
# Poissons Ratio (y) = 0.13809 0.49805
# Poissons Ratio (z) = 0.21116 0.40708
#
# Static dielectric constant tensor:
#      x y z
#    x 1.554770 0.000000 -0.028260 
#    y 0.000000 1.616860 0.000000 
#    z -0.028260 0.000000 1.415930 
# 
# From -- ./inp_files/22231.got.cif
#   From: 2010.05.17/outbox.cif.g08.bks.cpg/sg12_12_cif.got.tgz:22231.got - 2010.06.03 13:09:07.
