data_PCOD9176204
_publ_section_title
;
Structure prediction by ZEFSAII (Michael W. Deem and Ramdas Pophale) SiO2 
 PCOD9176204
Probable space group: C 2/M
;
_chemical_formula_sum "Si O2"
_cell_formula_units_Z 48
_cell_length_a 9.545315
_cell_length_b 29.479815
_cell_length_c 12.433068
_cell_angle_alpha 90.000000
_cell_angle_beta 130.034417
_cell_angle_gamma 90.000000
_cell_volume 2678.725792
_symmetry_space_group_name_H-M "C 2/M"
_symmetry_group_IT_number 12
_symmetry_cell_setting 'monoclinic'
loop_
_space_group_symop_operation_xyz
x,y,z
-x,y,-z
-x,-y,-z
x,-y,z
1/2+x,1/2+y,z
1/2-x,1/2+y,-z
1/2-x,1/2-y,-z
1/2+x,1/2-y,z
loop_
_atom_site_type_symbol
_atom_site_label
_atom_site_fract_x
_atom_site_fract_y
_atom_site_fract_z
Si Si1 0.418658 0.551672 0.711588
Si Si2 0.167074 0.446626 0.008057
Si Si3 0.046614 0.770067 0.398444
Si Si4 0.525444 0.174305 0.642534
Si Si5 0.368612 0.635811 0.536692
Si Si6 0.202309 0.100097 0.139860
O O1 0.379147 0.500000 0.659133
O O2 0.637832 0.556799 0.835020
O O3 0.353256 0.590369 0.598025
O O4 0.329850 0.562481 0.783660
O O5 0.137928 0.500000 0.970095
O O6 0.188957 0.419915 0.907839
O O7 0.000000 0.430805 0.000000
O O8 0.250000 0.750000 0.500000
O O9 0.937074 0.726375 0.302623
O O10 0.047101 0.821149 0.353951
O O11 0.000000 0.777216 0.500000
O O12 0.500000 0.175020 0.500000
O O13 0.334208 0.153956 0.593492
O O14 0.687817 0.141510 0.755259
O O15 0.500000 0.627003 0.500000
O O16 0.000000 0.113402 0.000000
#
# Coordination Sequence:
#
# PCOD9176204 Si02
#       6
#     8   8   8   8   8   8
#     4  10  20  35  53  76 109 145 180 221 266 316
#     4   9  19  35  55  74  98 141 189 222 262 322
#     4   8  16  30  51  77 101 135 178 215 255 315
#     4  10  18  34  57  82 106 140 179 221 265 322
#     4  10  20  33  52  81 111 141 176 224 267 314
#     4  10  20  35  56  79 107 142 180 222 263 319
#
# _framework density 17.918966999999999
#
# number of rings (size 3 to 8) (size 9 to 14) (size 15 to 20)
#    0.000    2.500    1.667    0.500    2.333    2.333 
#    0.000    2.500    0.000    5.000    0.000    0.000 
#    0.000    0.000    0.000    0.000    0.000    0.000 
#
# Total GULP energy -133630.290082 kJ/mol
# GULP energy per Si atom -5567.928753 kJ/mol
# Density = 1.787818 g / cm^3
# Si number density = 17.918967 Si / 1000 Ang^3
#
#
#
# Elastic Constant Matrix: (Units=GPa)
#
#
# Indices 1 2 3 4 5 6 
#
# 1 108.5150 23.6186 12.9740 0.0000 -8.3447 0.0000
# 2 23.6186 147.3547 41.8299 0.0000 3.8852 0.0000
# 3 12.9740 41.8299 34.0604 0.0000 -4.9869 0.0000
# 4 0.0000 0.0000 0.0000 5.1157 0.0000 8.0202
# 5 -8.3447 3.8852 -4.9869 0.0000 9.5191 0.0000
# 6 0.0000 0.0000 0.0000 8.0202 0.0000 23.7936
#
#
#
# Elastic Compliance Matrix: (Units=1/GPa)
#
#
# Indices 1 2 3 4 5 6 
#
# 1 0.010397 -0.001847 -0.000268 0.000000 0.009728 0.000000
# 2 -0.001847 0.012151 -0.016443 0.000000 -0.015193 0.000000
# 3 -0.000268 -0.016443 0.054808 0.000000 0.035190 0.000000
# 4 0.000000 0.000000 0.000000 0.414536 0.000000 -0.139729
# 5 0.009728 -0.015193 0.035190 0.000000 0.138217 0.000000
# 6 0.000000 0.000000 0.000000 -0.139729 0.000000 0.089127
#
#
# Mechanical properties :
#
#
# Convention : Reuss Voigt Hill
#
# Bulk Modulus (GPa) = 24.85092 49.64169 37.24630
# Shear Modulus (GPa) = 6.49548 21.78618 14.14083
#
# Velocity S-wave (km/s) = 1.90599 3.49064 2.81224
# Velocity P-wave (km/s) = 4.32924 6.63398 5.60143
#
# Compressibility (1/GPa) = 0.04023996
#
# Stress axis : x y z
#
# Youngs Moduli (GPa) = 96.17756 82.29907 18.24542
#
# Poissons Ratio (x) = 0.15201 0.00489
# Poissons Ratio (y) = 0.17764 0.30002
# Poissons Ratio (z) = 0.02576 1.35328
#
# Static dielectric constant tensor:
#      x y z
#    x 1.635690 0.000000 0.004900 
#    y 0.000000 1.659770 0.000000 
#    z 0.004900 0.000000 1.596450 
# 
# From -- ./inp_files/123903.got.cif
#   From: 2010.05.17/outbox.cif.g08.bks.cpg/sg12_62_cif.got.tgz:123903.got - 2010.06.03 13:09:07.
