data_PCOD9176003
_publ_section_title
;
Structure prediction by ZEFSAII (Michael W. Deem and Ramdas Pophale) SiO2 
 PCOD9176003
Probable space group: C 2/M
;
_chemical_formula_sum "Si O2"
_cell_formula_units_Z 56
_cell_length_a 14.298888
_cell_length_b 20.225776
_cell_length_c 14.637685
_cell_angle_alpha 90.000000
_cell_angle_beta 60.236556
_cell_angle_gamma 90.000000
_cell_volume 3674.859880
_symmetry_space_group_name_H-M "C 2/M"
_symmetry_group_IT_number 12
_symmetry_cell_setting 'monoclinic'
loop_
_space_group_symop_operation_xyz
x,y,z
-x,y,-z
-x,-y,-z
x,-y,z
1/2+x,1/2+y,z
1/2-x,1/2+y,-z
1/2-x,1/2-y,-z
1/2+x,1/2-y,z
loop_
_atom_site_type_symbol
_atom_site_label
_atom_site_fract_x
_atom_site_fract_y
_atom_site_fract_z
Si Si1 0.004974 0.579315 0.771565
Si Si2 0.538953 0.426151 0.376338
Si Si3 0.414156 0.293317 0.409673
Si Si4 0.221587 0.373621 0.768737
Si Si5 0.266723 0.755544 0.645883
Si Si6 0.950009 0.337150 0.621875
Si Si7 0.384080 0.924360 0.005717
O O1 0.002501 0.500000 0.767699
O O2 0.978399 0.612284 0.687887
O O3 0.122329 0.599402 0.754789
O O4 0.914763 0.600411 0.890159
O O5 0.500000 0.428189 0.500000
O O6 0.518619 0.500000 0.347322
O O7 0.472578 0.363464 0.370197
O O8 0.666051 0.410113 0.307586
O O9 0.347207 0.284170 0.537049
O O10 0.331591 0.279204 0.368422
O O11 0.498063 0.233160 0.374219
O O12 0.233501 0.297130 0.737502
O O13 0.191776 0.384758 0.889037
O O14 0.327457 0.817987 0.659603
O O15 0.000000 0.357587 0.500000
O O16 0.344294 0.000000 0.019295
O O17 0.500000 0.926680 0.000000
#
# Coordination Sequence:
#
# PCOD9176003 Si02
#       7
#     8   8   8   8   8   8   8
#     4  10  20  34  51  75 103 132 167 210 253 293
#     4  11  20  29  46  75 104 126 161 213 253 291
#     4  10  18  34  47  68 101 137 166 193 246 300
#     4  11  17  31  52  78  97 129 166 210 250 298
#     4  10  19  30  52  69  96 137 170 194 237 302
#     4  10  19  32  51  72  99 134 169 200 244 301
#     4   8  16  30  48  71 101 130 161 205 259 301
#
# _framework density 15.238676
#
# number of rings (size 3 to 8) (size 9 to 14) (size 15 to 20)
#    0.000    2.000    4.286    2.571    0.000    0.286 
#    0.000    1.429    0.000    0.000    0.000    0.000 
#    0.000    3.429    0.000    0.000    0.000    0.000 
#
# Total GULP energy -155930.631704 kJ/mol
# GULP energy per Si atom -5568.951132 kJ/mol
# Density = 1.520399 g / cm^3
# Si number density = 15.238676 Si / 1000 Ang^3
#
#
#
# Elastic Constant Matrix: (Units=GPa)
#
#
# Indices 1 2 3 4 5 6 
#
# 1 66.8355 18.5330 34.8008 0.0000 3.2232 0.0000
# 2 18.5330 58.2133 41.2923 0.0000 4.2936 0.0000
# 3 34.8008 41.2923 92.9961 0.0000 0.6924 0.0000
# 4 0.0000 0.0000 0.0000 11.0459 0.0000 -34.5656
# 5 3.2232 4.2936 0.6924 0.0000 21.2552 0.0000
# 6 0.0000 0.0000 0.0000 -34.5656 0.0000 -111.5511
#
#
#
# Elastic Compliance Matrix: (Units=1/GPa)
#
#
# Indices 1 2 3 4 5 6 
#
# 1 0.018784 -0.001212 -0.006473 0.000000 -0.002393 0.000000
# 2 -0.001212 0.025633 -0.010894 0.000000 -0.004639 0.000000
# 3 -0.006473 -0.010894 0.017993 0.000000 0.002596 0.000000
# 4 0.000000 0.000000 0.000000 0.045963 0.000000 -0.014242
# 5 -0.002393 -0.004639 0.002596 0.000000 0.048263 0.000000
# 6 0.000000 0.000000 0.000000 -0.014242 0.000000 -0.004551
#
#
# Mechanical properties :
#
#
# Convention : Reuss Voigt Hill
#
# Bulk Modulus (GPa) = 39.59960 45.25525 42.42742
# Shear Modulus (GPa) = 25.29574 -7.62208 8.83683
#
# Velocity S-wave (km/s) = 4.07869 -2.23890 2.41071
# Velocity P-wave (km/s) = 6.94432 4.80401 5.97085
#
# Compressibility (1/GPa) = 0.02525278
#
# Stress axis : x y z
#
# Youngs Moduli (GPa) = 53.23606 39.01147 55.57603
#
# Poissons Ratio (x) = 0.04728 0.35977
# Poissons Ratio (y) = 0.06452 0.60543
# Poissons Ratio (z) = 0.34462 0.42498
#
# Static dielectric constant tensor:
#      x y z
#    x 1.504220 0.000000 -0.014710 
#    y 0.000000 1.506330 0.000000 
#    z -0.014710 0.000000 1.517740 
# 
# From -- ./inp_files/215858.got.cif
#   From: 2010.05.17/outbox.cif.g08.bks.cpg/sg12_108_cif.got.tgz:215858.got - 2010.06.03 13:09:07.
