data_PCOD9176786
_publ_section_title
;
Structure prediction by ZEFSAII (Michael W. Deem and Ramdas Pophale) SiO2 
 PCOD9176786
Probable space group: C 2/M
;
_chemical_formula_sum "Si O2"
_cell_formula_units_Z 64
_cell_length_a 17.983855
_cell_length_b 19.459529
_cell_length_c 20.921635
_cell_angle_alpha 90.000000
_cell_angle_beta 151.472371
_cell_angle_gamma 90.000000
_cell_volume 3496.706083
_symmetry_space_group_name_H-M "C 2/M"
_symmetry_group_IT_number 12
_symmetry_cell_setting 'monoclinic'
loop_
_space_group_symop_operation_xyz
x,y,z
-x,y,-z
-x,-y,-z
x,-y,z
1/2+x,1/2+y,z
1/2-x,1/2+y,-z
1/2-x,1/2-y,-z
1/2+x,1/2-y,z
loop_
_atom_site_type_symbol
_atom_site_label
_atom_site_fract_x
_atom_site_fract_y
_atom_site_fract_z
Si Si1 0.727940 0.284016 0.674592
Si Si2 0.921946 0.349900 0.376843
Si Si3 0.657955 0.711618 0.846946
Si Si4 0.160258 0.575715 0.037445
Si Si5 0.457202 0.710387 0.097425
Si Si6 0.899604 0.921634 0.859922
Si Si7 0.111498 0.746637 0.446612
Si Si8 0.796880 0.424494 0.777142
O O1 0.640641 0.225265 0.648553
O O2 0.677502 0.276561 0.562900
O O3 0.702121 0.360222 0.680021
O O4 0.908646 0.263896 0.820510
O O5 0.772831 0.396054 0.250683
O O6 0.000000 0.379292 0.500000
O O7 0.046553 0.329789 0.416587
O O8 0.746732 0.639371 0.919890
O O9 0.570698 0.720655 0.848304
O O10 0.534443 0.715269 0.696672
O O11 0.793217 0.769164 0.941115
O O12 0.212177 0.500000 0.054425
O O13 0.187131 0.579001 0.134166
O O14 0.975069 0.580298 0.886552
O O15 0.523996 0.635476 0.129312
O O16 0.896325 0.000000 0.832279
O O17 0.000000 0.920848 0.000000
O O18 0.250000 0.750000 0.500000
O O19 0.735381 0.500000 0.713643
#
# Coordination Sequence:
#
# PCOD9176786 Si02
#       8
#     8   8   8   8   8   8   8   8
#     4  10  18  36  54  81 109 139 184 228 267 322
#     4   9  20  35  58  81 106 144 187 221 270 327
#     4  11  20  34  54  81 109 145 179 223 280 330
#     4   9  18  31  51  79 108 139 177 219 266 323
#     4  10  21  34  56  82 106 137 185 227 273 335
#     4  10  21  38  58  82 110 138 179 235 284 326
#     4  11  21  34  54  80 113 143 177 233 276 319
#     4   9  17  31  52  78 108 140 176 218 266 321
#
# _framework density 18.30294
#
# number of rings (size 3 to 8) (size 9 to 14) (size 15 to 20)
#    0.000    2.125    2.500    2.250    0.000    1.750 
#    0.000    0.625    0.000    5.625    0.000    0.000 
#    0.000    0.000    0.000    0.000    0.000    0.000 
#
# Total GULP energy -178380.803453 kJ/mol
# GULP energy per Si atom -5574.400108 kJ/mol
# Density = 1.826128 g / cm^3
# Si number density = 18.302940 Si / 1000 Ang^3
#
#
#
# Elastic Constant Matrix: (Units=GPa)
#
#
# Indices 1 2 3 4 5 6 
#
# 1 52.0733 7.5332 10.2671 -0.0021 13.3042 0.0002
# 2 7.5332 104.0879 20.1559 -0.0041 3.4190 -0.0008
# 3 10.2671 20.1559 77.3941 -0.0038 2.6534 0.0008
# 4 -0.0021 -0.0041 -0.0038 4.8439 -0.0018 -6.3228
# 5 13.3042 3.4190 2.6534 -0.0018 23.3949 0.0005
# 6 0.0002 -0.0008 0.0008 -6.3228 0.0005 15.0614
#
#
#
# Elastic Compliance Matrix: (Units=1/GPa)
#
#
# Indices 1 2 3 4 5 6 
#
# 1 0.023042 -0.000782 -0.002417 0.000006 -0.012715 0.000003
# 2 -0.000782 0.010177 -0.002521 0.000016 -0.000757 0.000007
# 3 -0.002417 -0.002521 0.013892 0.000015 0.000167 0.000005
# 4 0.000006 0.000016 0.000015 0.456706 0.000024 0.191726
# 5 -0.012715 -0.000757 0.000167 0.000024 0.050067 0.000008
# 6 0.000003 0.000007 0.000005 0.191726 0.000008 0.146882
#
#
# Mechanical properties :
#
#
# Convention : Reuss Voigt Hill
#
# Bulk Modulus (GPa) = 28.03355 34.38530 31.20942
# Shear Modulus (GPa) = 6.90516 21.69997 14.30256
#
# Velocity S-wave (km/s) = 1.94445 3.44699 2.79845
# Velocity P-wave (km/s) = 4.51562 5.88811 5.24694
#
# Compressibility (1/GPa) = 0.03567154
#
# Stress axis : x y z
#
# Youngs Moduli (GPa) = 43.39895 98.26243 71.98239
#
# Poissons Ratio (x) = 0.07683 0.17400
# Poissons Ratio (y) = 0.03393 0.18145
# Poissons Ratio (z) = 0.10490 0.24769
#
# Static dielectric constant tensor:
#      x y z
#    x 1.641130 0.000000 0.023550 
#    y 0.000000 1.630520 0.000000 
#    z 0.023550 0.000000 1.657960 
# 
# From -- ./inp_files/317387.got.cif
#   From: 2010.05.17/outbox.cif.g08.bks.cpg/sg12_159_cif.got.tgz:317387.got - 2010.06.03 13:09:07.
