data_PCOD9176089
_publ_section_title
;
Structure prediction by ZEFSAII (Michael W. Deem and Ramdas Pophale) SiO2 
 PCOD9176089
Probable space group: C 2/M
;
_chemical_formula_sum "Si O2"
_cell_formula_units_Z 52
_cell_length_a 17.164224
_cell_length_b 7.291658
_cell_length_c 20.959991
_cell_angle_alpha 90.000000
_cell_angle_beta 129.458638
_cell_angle_gamma 90.000000
_cell_volume 2025.376965
_symmetry_space_group_name_H-M "C 2/M"
_symmetry_group_IT_number 12
_symmetry_cell_setting 'monoclinic'
loop_
_space_group_symop_operation_xyz
x,y,z
-x,y,-z
-x,-y,-z
x,-y,z
1/2+x,1/2+y,z
1/2-x,1/2+y,-z
1/2-x,1/2-y,-z
1/2+x,1/2-y,z
loop_
_atom_site_type_symbol
_atom_site_label
_atom_site_fract_x
_atom_site_fract_y
_atom_site_fract_z
Si Si1 0.970478 0.277405 0.190260
Si Si2 0.786945 0.296449 0.261806
Si Si3 0.758119 0.780179 0.896987
Si Si4 0.776506 0.000000 0.648810
Si Si5 0.994209 0.275115 0.423999
Si Si6 0.969105 0.707945 0.051326
Si Si7 0.133606 0.281622 0.382592
O O1 0.971820 0.500000 0.189790
O O2 0.855586 0.223734 0.145406
O O3 0.048082 0.220994 0.285413
O O4 0.999603 0.209820 0.134900
O O5 0.819301 0.500000 0.253476
O O6 0.727809 0.222816 0.170252
O O7 0.729789 0.341754 0.297190
O O8 0.891705 0.207959 0.337027
O O9 0.847402 0.701734 0.986006
O O10 0.767780 0.000000 0.909774
O O11 0.774667 0.840363 0.592595
O O12 0.987451 0.500000 0.423406
O O13 0.000000 0.214807 0.500000
O O14 0.085644 0.230825 0.425269
O O15 0.008335 0.500000 0.070850
O O16 0.000000 0.795662 0.000000
O O17 0.147154 0.500000 0.385620
#
# Coordination Sequence:
#
# PCOD9176089 Si02
#       7
#     8   8   8   4   8   8   8
#     4   9  18  34  55  75 108 147 192 238 288 348
#     4   8  17  33  56  80 118 156 185 249 304 340
#     4  10  18  34  55  74 102 146 194 233 289 348
#     4  10  22  36  58  91 130 152 196 252 310 353
#     4   9  16  33  65  91 111 159 210 236 289 371
#     4  10  22  35  48  75 111 144 184 243 297 342
#     4  10  20  38  63  89 119 162 202 243 304 363
#
# _framework density 25.674233999999998
#
# number of rings (size 3 to 8) (size 9 to 14) (size 15 to 20)
#    0.462    2.154    1.538    0.462    2.154    0.308 
#    2.769    1.154    1.692    0.000    0.000    0.000 
#    0.000    0.000    0.000    0.000    0.000    0.000 
#
# Total GULP energy -144779.635931 kJ/mol
# GULP energy per Si atom -5568.447536 kJ/mol
# Density = 2.561580 g / cm^3
# Si number density = 25.674234 Si / 1000 Ang^3
#
#
#
# Elastic Constant Matrix: (Units=GPa)
#
#
# Indices 1 2 3 4 5 6 
#
# 1 97.6739 16.7172 52.9887 0.0000 -34.7023 0.0000
# 2 16.7172 118.2328 9.3312 0.0000 -12.5210 0.0000
# 3 52.9887 9.3312 146.9725 0.0000 -17.7479 0.0000
# 4 0.0000 0.0000 0.0000 -0.5283 0.0000 1.0304
# 5 -34.7023 -12.5210 -17.7479 0.0000 54.8709 0.0000
# 6 0.0000 0.0000 0.0000 1.0304 0.0000 1.6393
#
#
#
# Elastic Compliance Matrix: (Units=1/GPa)
#
#
# Indices 1 2 3 4 5 6 
#
# 1 0.015893 -0.000999 -0.004662 0.000000 0.008315 0.000000
# 2 -0.000999 0.008745 -0.000032 0.000000 0.001354 0.000000
# 3 -0.004662 -0.000032 0.008460 0.000000 -0.000219 0.000000
# 4 0.000000 0.000000 0.000000 -0.850335 0.000000 0.534515
# 5 0.008315 0.001354 -0.000219 0.000000 0.023721 0.000000
# 6 0.000000 0.000000 0.000000 0.534515 0.000000 0.274038
#
#
# Mechanical properties :
#
#
# Convention : Reuss Voigt Hill
#
# Bulk Modulus (GPa) = 46.05566 57.88370 51.96968
# Shear Modulus (GPa) = -9.98294 30.11916 10.06811
#
# Velocity S-wave (km/s) = -1.97402 3.42881 1.98242
# Velocity P-wave (km/s) = 3.57516 6.18628 5.05232
#
# Compressibility (1/GPa) = 0.02171286
#
# Stress axis : x y z
#
# Youngs Moduli (GPa) = 62.92188 114.35177 118.19683
#
# Poissons Ratio (x) = 0.11419 0.55108
# Poissons Ratio (y) = 0.06283 0.00375
# Poissons Ratio (z) = 0.29336 0.00363
#
# Static dielectric constant tensor:
#      x y z
#    x 2.088890 0.000000 0.036490 
#    y 0.000000 2.002510 0.000000 
#    z 0.036490 0.000000 2.058430 
# 
# From -- ./inp_files/342048.got.cif
#   From: 2010.05.17/outbox.cif.g08.bks.cpg/sg12_172_cif.got.tgz:342048.got - 2010.06.03 13:09:07.
