data_PCOD9176401
_publ_section_title
;
Structure prediction by ZEFSAII (Michael W. Deem and Ramdas Pophale) SiO2 
 PCOD9176401
Probable space group: C 2/M
;
_chemical_formula_sum "Si O2"
_cell_formula_units_Z 48
_cell_length_a 23.353008
_cell_length_b 20.275657
_cell_length_c 9.475724
_cell_angle_alpha 90.000000
_cell_angle_beta 143.346443
_cell_angle_gamma 90.000000
_cell_volume 2678.467266
_symmetry_space_group_name_H-M "C 2/M"
_symmetry_group_IT_number 12
_symmetry_cell_setting 'monoclinic'
loop_
_space_group_symop_operation_xyz
x,y,z
-x,y,-z
-x,-y,-z
x,-y,z
1/2+x,1/2+y,z
1/2-x,1/2+y,-z
1/2-x,1/2-y,-z
1/2+x,1/2-y,z
loop_
_atom_site_type_symbol
_atom_site_label
_atom_site_fract_x
_atom_site_fract_y
_atom_site_fract_z
Si Si1 0.894877 0.577163 0.227842
Si Si2 0.692047 0.177971 0.164047
Si Si3 0.112292 0.822214 0.044427
Si Si4 0.771760 0.424128 0.262839
Si Si5 0.599533 0.299260 0.355788
Si Si6 0.900413 0.648715 0.728215
O O1 0.896957 0.500000 0.187013
O O2 0.815667 0.584253 0.194191
O O3 0.000000 0.592341 0.500000
O O4 0.863855 0.626432 0.043320
O O5 0.650284 0.251491 0.065914
O O6 0.806520 0.180797 0.372019
O O7 0.673264 0.159501 0.289772
O O8 0.182856 0.877186 0.123810
O O9 0.113563 0.819310 0.218619
O O10 0.000085 0.828769 0.786317
O O11 0.745261 0.500000 0.230904
O O12 0.858166 0.404002 0.538429
O O13 0.589141 0.219555 0.328431
O O14 0.000000 0.631582 0.000000
#
# Coordination Sequence:
#
# PCOD9176401 Si02
#       6
#     8   8   8   8   8   8
#     4  10  24  42  57  81 123 160 188 241 306 346
#     4  11  19  35  62  85 113 151 197 245 283 349
#     4  10  19  36  60  88 121 151 190 242 302 341
#     4  11  23  39  56  82 123 161 194 238 296 350
#     4  10  18  34  60  91 118 147 185 252 301 331
#     4  11  18  33  62  89 113 146 192 247 297 343
#
# _framework density 17.920698000000002
#
# number of rings (size 3 to 8) (size 9 to 14) (size 15 to 20)
#    0.000    1.500    6.667    2.000    0.000    1.667 
#    0.000    3.333    0.000    2.000    0.000    0.000 
#    0.000    0.000    0.000    0.000    0.000    0.000 
#
# Total GULP energy -133955.312239 kJ/mol
# GULP energy per Si atom -5581.471343 kJ/mol
# Density = 1.787991 g / cm^3
# Si number density = 17.920698 Si / 1000 Ang^3
#
#
#
# Elastic Constant Matrix: (Units=GPa)
#
#
# Indices 1 2 3 4 5 6 
#
# 1 38.1017 29.8973 17.9191 0.0000 20.7323 0.0000
# 2 29.8973 76.3572 26.0229 0.0000 -0.2530 0.0000
# 3 17.9191 26.0229 98.3238 0.0000 33.4595 0.0000
# 4 0.0000 0.0000 0.0000 28.2003 0.0000 -3.1384
# 5 20.7323 -0.2530 33.4595 0.0000 32.3879 0.0000
# 6 0.0000 0.0000 0.0000 -3.1384 0.0000 13.8852
#
#
#
# Elastic Compliance Matrix: (Units=1/GPa)
#
#
# Indices 1 2 3 4 5 6 
#
# 1 0.105349 -0.050652 0.026663 0.000000 -0.095378 0.000000
# 2 -0.050652 0.039616 -0.019112 0.000000 0.052478 0.000000
# 3 0.026663 -0.019112 0.025027 0.000000 -0.043072 0.000000
# 4 0.000000 0.000000 0.000000 0.036376 0.000000 0.008222
# 5 -0.095378 0.052478 -0.043072 0.000000 0.136837 0.000000
# 6 0.000000 0.000000 0.000000 0.008222 0.000000 0.073878
#
#
# Mechanical properties :
#
#
# Convention : Reuss Voigt Hill
#
# Bulk Modulus (GPa) = 11.93444 40.05127 25.99285
# Shear Modulus (GPa) = 9.41240 24.15757 16.78498
#
# Velocity S-wave (km/s) = 2.29426 3.67553 3.06375
# Velocity P-wave (km/s) = 3.70030 6.35692 5.20109
#
# Compressibility (1/GPa) = 0.08379112
#
# Stress axis : x y z
#
# Youngs Moduli (GPa) = 9.49224 25.24210 39.95699
#
# Poissons Ratio (x) = 1.27857 -1.06539
# Poissons Ratio (y) = 0.48080 0.76366
# Poissons Ratio (z) = -0.25310 0.48243
#
# Static dielectric constant tensor:
#      x y z
#    x 1.632460 0.000000 0.019670 
#    y 0.000000 1.588830 0.000000 
#    z 0.019670 0.000000 1.624230 
# 
# From -- ./inp_files/62785.got.cif
#   From: 2010.05.17/outbox.cif.g08.bks.cpg/sg12_32_cif.got.tgz:62785.got - 2010.06.03 13:09:07.
