data_PCOD9176507
_publ_section_title
;
Structure prediction by ZEFSAII (Michael W. Deem and Ramdas Pophale) SiO2 
 PCOD9176507
Probable space group: C 2/M
;
_chemical_formula_sum "Si O2"
_cell_formula_units_Z 56
_cell_length_a 5.364172
_cell_length_b 18.618133
_cell_length_c 29.824455
_cell_angle_alpha 90.000000
_cell_angle_beta 102.797063
_cell_angle_gamma 90.000000
_cell_volume 2904.608034
_symmetry_space_group_name_H-M "C 2/M"
_symmetry_group_IT_number 12
_symmetry_cell_setting 'monoclinic'
loop_
_space_group_symop_operation_xyz
x,y,z
-x,y,-z
-x,-y,-z
x,-y,z
1/2+x,1/2+y,z
1/2-x,1/2+y,-z
1/2-x,1/2-y,-z
1/2+x,1/2-y,z
loop_
_atom_site_type_symbol
_atom_site_label
_atom_site_fract_x
_atom_site_fract_y
_atom_site_fract_z
Si Si1 0.135985 0.294531 0.395903
Si Si2 0.786668 0.584804 0.529346
Si Si3 0.599296 0.279711 0.053481
Si Si4 0.439952 0.174641 0.288302
Si Si5 0.797013 0.581794 0.098719
Si Si6 0.131290 0.083763 0.842224
Si Si7 0.393353 0.336871 0.250779
O O1 0.404994 0.252923 0.406521
O O2 0.161121 0.366397 0.425635
O O3 0.061051 0.309660 0.341300
O O4 0.500000 0.599245 0.500000
O O5 0.803231 0.500000 0.540355
O O6 0.000000 0.600684 0.500000
O O7 0.352305 0.266300 0.074496
O O8 0.697731 0.360673 0.059325
O O9 0.500000 0.260513 0.000000
O O10 0.384842 0.251293 0.261321
O O11 0.645136 0.133492 0.266317
O O12 0.164695 0.138251 0.281456
O O13 0.769015 0.500000 0.082120
O O14 0.609982 0.591590 0.134139
O O15 0.093417 0.593759 0.122963
O O16 0.112539 0.139255 0.800687
O O17 0.128629 0.000000 0.826283
#
# Coordination Sequence:
#
# PCOD9176507 Si02
#       7
#     8   8   8   8   8   8   8
#     4  12  21  37  63  86 119 148 189 239 287 326
#     4  10  23  42  60  85 121 154 187 231 284 344
#     4  10  21  39  59  84 119 150 186 237 288 339
#     4  10  19  35  54  77 111 144 177 238 271 320
#     4  10  21  39  58  83 117 150 192 238 282 340
#     4  10  21  37  56  80 115 150 187 238 283 333
#     4  10  18  35  53  75 107 147 179 223 285 325
#
# _framework density 19.279710000000001
#
# number of rings (size 3 to 8) (size 9 to 14) (size 15 to 20)
#    0.000    1.714    2.857    2.571    0.000    2.000 
#   15.429    1.429    0.000    5.143    0.000    0.000 
#    0.000    0.000    0.000    0.000    0.000    0.000 
#
# Total GULP energy -156136.573179 kJ/mol
# GULP energy per Si atom -5576.306185 kJ/mol
# Density = 1.923583 g / cm^3
# Si number density = 19.279710 Si / 1000 Ang^3
#
#
#
# Elastic Constant Matrix: (Units=GPa)
#
#
# Indices 1 2 3 4 5 6 
#
# 1 112.9437 9.4814 13.5738 0.0000 -3.1536 0.0000
# 2 9.4814 3.9121 -31.7787 0.0000 10.5398 0.0000
# 3 13.5738 -31.7787 -62.5794 0.0000 14.6655 0.0000
# 4 0.0000 0.0000 0.0000 -11.0477 0.0000 -3.7239
# 5 -3.1536 10.5398 14.6655 0.0000 11.4721 0.0000
# 6 0.0000 0.0000 0.0000 -3.7239 0.0000 19.8834
#
#
#
# Elastic Compliance Matrix: (Units=1/GPa)
#
#
# Indices 1 2 3 4 5 6 
#
# 1 0.008655 -0.001152 0.002514 0.000000 0.000223 0.000000
# 2 -0.001152 0.051678 -0.029004 0.000000 -0.010717 0.000000
# 3 0.002514 -0.029004 0.004387 0.000000 0.021730 0.000000
# 4 0.000000 0.000000 0.000000 -0.085141 0.000000 -0.015946
# 5 0.000223 -0.010717 0.021730 0.000000 0.069296 0.000000
# 6 0.000000 0.000000 0.000000 -0.015946 0.000000 0.047307
#
#
# Mechanical properties :
#
#
# Convention : Reuss Voigt Hill
#
# Bulk Modulus (GPa) = 105.97189 4.09216 55.03203
# Shear Modulus (GPa) = 32.33979 8.26157 20.30068
#
# Velocity S-wave (km/s) = 4.10005 2.07230 3.24845
# Velocity P-wave (km/s) = 8.80334 2.80232 6.53268
#
# Compressibility (1/GPa) = 0.00943646
#
# Stress axis : x y z
#
# Youngs Moduli (GPa) = 115.54420 19.35075 227.96238
#
# Poissons Ratio (x) = 0.02229 -0.57318
# Poissons Ratio (y) = 0.13307 6.61180
# Poissons Ratio (z) = -0.29052 0.56125
#
# Static dielectric constant tensor:
#      x y z
#    x 1.751960 0.000000 -0.005240 
#    y 0.000000 1.615590 0.000000 
#    z -0.005240 0.000000 1.644100 
# 
# From -- ./inp_files/354955.got.cif
#   From: 2010.05.17/outbox.cif.g08.bks.cpg/sg12_178_cif.got.tgz:354955.got - 2010.06.03 13:09:07.
