data_PCOD9176183
_publ_section_title
;
Structure prediction by ZEFSAII (Michael W. Deem and Ramdas Pophale) SiO2 
 PCOD9176183
Probable space group: C 2/M
;
_chemical_formula_sum "Si O2"
_cell_formula_units_Z 56
_cell_length_a 14.114989
_cell_length_b 25.453161
_cell_length_c 10.837899
_cell_angle_alpha 90.000000
_cell_angle_beta 38.490058
_cell_angle_gamma 90.000000
_cell_volume 2423.383680
_symmetry_space_group_name_H-M "C 2/M"
_symmetry_group_IT_number 12
_symmetry_cell_setting 'monoclinic'
loop_
_space_group_symop_operation_xyz
x,y,z
-x,y,-z
-x,-y,-z
x,-y,z
1/2+x,1/2+y,z
1/2-x,1/2+y,-z
1/2-x,1/2-y,-z
1/2+x,1/2-y,z
loop_
_atom_site_type_symbol
_atom_site_label
_atom_site_fract_x
_atom_site_fract_y
_atom_site_fract_z
Si Si1 0.177451 0.164778 0.345861
Si Si2 0.829067 0.441338 0.636669
Si Si3 0.338161 0.804171 0.928913
Si Si4 0.089941 0.132878 0.777106
Si Si5 0.209341 0.907092 0.006737
Si Si6 0.607428 0.755097 0.767115
Si Si7 0.818640 0.560029 0.165895
O O1 0.270549 0.173136 0.124394
O O2 0.239241 0.213614 0.361289
O O3 0.231326 0.106337 0.328334
O O4 0.000000 0.167617 0.500000
O O5 0.833378 0.500000 0.577826
O O6 0.741131 0.401138 0.638655
O O7 0.737587 0.442499 0.859169
O O8 0.000000 0.426505 0.500000
O O9 0.250000 0.750000 0.000000
O O10 0.295942 0.851981 0.883574
O O11 0.512216 0.788552 0.765147
O O12 0.121001 0.194036 0.723006
O O13 0.000000 0.130518 0.000000
O O14 0.967839 0.109282 0.805449
O O15 0.272816 0.932476 0.067595
O O16 0.500000 0.756632 0.000000
O O17 0.781727 0.500000 0.239607
O O18 0.000000 0.567853 0.000000
#
# Coordination Sequence:
#
# PCOD9176183 Si02
#       7
#     8   8   8   8   8   8   8
#     4  10  21  35  54  81 115 147 183 236 292 332
#     4  10  22  38  55  81 117 151 184 231 287 337
#     4  10  18  34  57  77 108 148 185 227 273 337
#     4   9  18  32  55  82 108 146 189 229 274 336
#     4  10  19  35  60  86 110 144 194 234 276 341
#     4   9  17  33  55  79 110 146 187 224 275 341
#     4  10  21  39  63  85 108 151 203 242 284 341
#
# _framework density 23.108186
#
# number of rings (size 3 to 8) (size 9 to 14) (size 15 to 20)
#    0.000    2.286    1.429    2.571    2.000    4.000 
#    0.000    6.429    0.000    0.000    0.000    0.000 
#    0.000    0.000    0.000    0.000    0.000    0.000 
#
# Total GULP energy -156404.340025 kJ/mol
# GULP energy per Si atom -5585.869287 kJ/mol
# Density = 2.305559 g / cm^3
# Si number density = 23.108186 Si / 1000 Ang^3
#
#
#
# Elastic Constant Matrix: (Units=GPa)
#
#
# Indices 1 2 3 4 5 6 
#
# 1 83.8332 38.3326 41.8559 0.0000 -38.0954 0.0000
# 2 38.3326 157.6403 72.5309 0.0000 -51.8354 0.0000
# 3 41.8559 72.5309 101.3279 0.0000 -42.1003 0.0000
# 4 0.0000 0.0000 0.0000 8.3702 0.0000 -31.0983
# 5 -38.0954 -51.8354 -42.1003 0.0000 62.3363 0.0000
# 6 0.0000 0.0000 0.0000 -31.0983 0.0000 -16.4714
#
#
#
# Elastic Compliance Matrix: (Units=1/GPa)
#
#
# Indices 1 2 3 4 5 6 
#
# 1 0.017558 0.000304 -0.004041 0.000000 0.008253 0.000000
# 2 0.000304 0.010507 -0.005476 0.000000 0.005225 0.000000
# 3 -0.004041 -0.005476 0.017431 0.000000 0.004750 0.000000
# 4 0.000000 0.000000 0.000000 0.014907 0.000000 -0.028144
# 5 0.008253 0.005225 0.004750 0.000000 0.028638 0.000000
# 6 0.000000 0.000000 0.000000 -0.028144 0.000000 -0.007575
#
#
# Mechanical properties :
#
#
# Convention : Reuss Voigt Hill
#
# Bulk Modulus (GPa) = 36.94117 72.02669 54.48393
# Shear Modulus (GPa) = 45.90756 23.51913 34.71335
#
# Velocity S-wave (km/s) = 4.46201 3.19373 3.88004
# Velocity P-wave (km/s) = 6.52433 6.69604 6.61074
#
# Compressibility (1/GPa) = 0.02707007
#
# Stress axis : x y z
#
# Youngs Moduli (GPa) = 56.95549 95.17428 57.36874
#
# Poissons Ratio (x) = -0.02890 0.23182
# Poissons Ratio (y) = -0.01730 0.31414
# Poissons Ratio (z) = 0.23015 0.52115
#
# Static dielectric constant tensor:
#      x y z
#    x 2.006480 0.000000 0.092180 
#    y 0.000000 1.909880 0.000000 
#    z 0.092180 0.000000 1.943770 
# 
# From -- ./inp_files/219082.got.cif
#   From: 2010.05.17/outbox.cif.g08.bks.cpg/sg12_110_cif.got.tgz:219082.got - 2010.06.03 13:09:07.
