data_PCOD9176776
_publ_section_title
;
Structure prediction by ZEFSAII (Michael W. Deem and Ramdas Pophale) SiO2 
 PCOD9176776
Probable space group: C 2/M
;
_chemical_formula_sum "Si O2"
_cell_formula_units_Z 44
_cell_length_a 8.688431
_cell_length_b 26.317361
_cell_length_c 15.040879
_cell_angle_alpha 90.000000
_cell_angle_beta 128.847547
_cell_angle_gamma 90.000000
_cell_volume 2678.506654
_symmetry_space_group_name_H-M "C 2/M"
_symmetry_group_IT_number 12
_symmetry_cell_setting 'monoclinic'
loop_
_space_group_symop_operation_xyz
x,y,z
-x,y,-z
-x,-y,-z
x,-y,z
1/2+x,1/2+y,z
1/2-x,1/2+y,-z
1/2-x,1/2-y,-z
1/2+x,1/2-y,z
loop_
_atom_site_type_symbol
_atom_site_label
_atom_site_fract_x
_atom_site_fract_y
_atom_site_fract_z
Si Si1 0.949625 0.500000 0.803242
Si Si2 0.000000 0.252903 0.000000
Si Si3 0.725636 0.413492 0.088471
Si Si4 0.850854 0.104051 0.735890
Si Si5 0.500000 0.912235 0.500000
Si Si6 0.184725 0.500000 0.449712
Si Si7 0.013574 0.000000 0.712044
Si Si8 0.854570 0.175598 0.080602
O O1 0.858309 0.500000 0.670246
O O2 0.751217 0.500000 0.791022
O O3 0.097173 0.452013 0.868942
O O4 0.185497 0.289632 0.059312
O O5 0.999391 0.214801 0.083074
O O6 0.736519 0.398629 0.196097
O O7 0.500000 0.435478 0.000000
O O8 0.723964 0.365024 0.021589
O O9 0.680174 0.118476 0.605666
O O10 0.933014 0.049286 0.734842
O O11 0.029896 0.143023 0.805491
O O12 0.578394 0.950456 0.452291
O O13 0.402591 0.500000 0.574845
#
# Coordination Sequence:
#
# PCOD9176776 Si02
#       8
#     4   4   8   8   4   4   4   8
#     4  12  20  31  50  74 114 143 165 220 246 285
#     4  10  20  38  58  78  96 132 166 220 262 308
#     4  10  20  35  50  76 104 141 174 202 249 315
#     4  10  18  36  52  77 105 139 174 207 243 315
#     4   9  16  30  56  72  96 144 180 204 240 293
#     4   9  17  31  47  71 101 147 187 199 232 296
#     4  10  23  30  48  77 112 141 173 207 252 286
#     4  10  21  36  57  79 100 129 172 211 263 310
#
# _framework density 16.427064000000001
#
# number of rings (size 3 to 8) (size 9 to 14) (size 15 to 20)
#    0.000    2.000    4.545    1.636    2.545    2.182 
#    0.000    3.636    0.000    1.091    0.000    0.000 
#    0.000    0.000    0.000    0.000    0.000    0.000 
#
# Total GULP energy -122546.846854 kJ/mol
# GULP energy per Si atom -5570.311221 kJ/mol
# Density = 1.638968 g / cm^3
# Si number density = 16.427064 Si / 1000 Ang^3
#
#
#
# Elastic Constant Matrix: (Units=GPa)
#
#
# Indices 1 2 3 4 5 6 
#
# 1 65.8454 34.7612 26.5124 0.0000 14.0892 0.0000
# 2 34.7612 98.9847 52.5658 0.0000 11.1898 0.0000
# 3 26.5124 52.5658 100.1560 0.0000 7.4563 0.0000
# 4 0.0000 0.0000 0.0000 -7.3063 0.0000 17.2079
# 5 14.0892 11.1898 7.4563 0.0000 19.6933 0.0000
# 6 0.0000 0.0000 0.0000 17.2079 0.0000 2.1980
#
#
#
# Elastic Compliance Matrix: (Units=1/GPa)
#
#
# Indices 1 2 3 4 5 6 
#
# 1 0.021135 -0.005001 -0.002115 0.000000 -0.011478 0.000000
# 2 -0.005001 0.015754 -0.006734 0.000000 -0.002824 0.000000
# 3 -0.002115 -0.006734 0.014078 0.000000 0.000010 0.000000
# 4 0.000000 0.000000 0.000000 -0.007041 0.000000 0.055123
# 5 -0.011478 -0.002824 0.000010 0.000000 0.060591 0.000000
# 6 0.000000 0.000000 0.000000 0.055123 0.000000 0.023405
#
#
# Mechanical properties :
#
#
# Convention : Reuss Voigt Hill
#
# Bulk Modulus (GPa) = 42.98186 54.74057 48.86121
# Shear Modulus (GPa) = 30.60349 12.99345 21.79847
#
# Velocity S-wave (km/s) = 4.32092 2.81548 3.64673
# Velocity P-wave (km/s) = 7.14954 6.63061 6.89496
#
# Compressibility (1/GPa) = 0.02326563
#
# Stress axis : x y z
#
# Youngs Moduli (GPa) = 47.31467 63.47412 71.03207
#
# Poissons Ratio (x) = 0.31745 0.15026
# Poissons Ratio (y) = 0.23663 0.47836
# Poissons Ratio (z) = 0.10009 0.42746
#
# Static dielectric constant tensor:
#      x y z
#    x 1.574720 0.000000 0.007020 
#    y 0.000000 1.532140 0.000000 
#    z 0.007020 0.000000 1.574220 
# 
# From -- ./inp_files/197924.got.cif
#   From: 2010.05.17/outbox.cif.g08.bks.cpg/sg12_99_cif.got.tgz:197924.got - 2010.06.03 13:09:07.
