data_PCOD9176921
_publ_section_title
;
Structure prediction by ZEFSAII (Michael W. Deem and Ramdas Pophale) SiO2 
 PCOD9176921
Probable space group: C 2/M
;
_chemical_formula_sum "Si O2"
_cell_formula_units_Z 48
_cell_length_a 19.339032
_cell_length_b 15.332809
_cell_length_c 8.571936
_cell_angle_alpha 90.000000
_cell_angle_beta 70.307723
_cell_angle_gamma 90.000000
_cell_volume 2393.112253
_symmetry_space_group_name_H-M "C 2/M"
_symmetry_group_IT_number 12
_symmetry_cell_setting 'monoclinic'
loop_
_space_group_symop_operation_xyz
x,y,z
-x,y,-z
-x,-y,-z
x,-y,z
1/2+x,1/2+y,z
1/2-x,1/2+y,-z
1/2-x,1/2-y,-z
1/2+x,1/2-y,z
loop_
_atom_site_type_symbol
_atom_site_label
_atom_site_fract_x
_atom_site_fract_y
_atom_site_fract_z
Si Si1 0.909131 0.249561 0.763371
Si Si2 0.234222 0.155074 0.588416
Si Si3 0.961004 0.339601 0.181497
Si Si4 0.313129 0.777039 0.132437
Si Si5 0.393836 0.093670 0.533429
Si Si6 0.824730 0.101350 0.678081
O O1 0.907805 0.323894 0.632508
O O2 0.891675 0.157334 0.697570
O O3 0.984710 0.262874 0.800026
O O4 0.843439 0.269766 0.935012
O O5 0.250000 0.250000 0.500000
O O6 0.209265 0.182936 0.779933
O O7 0.309538 0.102536 0.542315
O O8 0.179553 0.110984 0.507203
O O9 0.882789 0.305431 0.183346
O O10 0.944667 0.398806 0.342625
O O11 0.000000 0.380539 0.000000
O O12 0.248683 0.847953 0.205037
O O13 0.404484 0.000000 0.603272
O O14 0.825019 0.000000 0.720369
#
# Coordination Sequence:
#
# PCOD9176921 Si02
#       6
#     8   8   8   8   8   8
#     4  11  23  39  60  92 128 159 201 253 309 366
#     4  10  18  36  62  85 114 158 203 252 301 356
#     4  10  22  39  62  86 121 167 206 246 302 366
#     4  10  20  40  63  88 118 165 204 249 306 361
#     4  12  23  38  60  90 124 160 205 254 308 365
#     4  11  21  37  63  91 120 157 204 254 303 357
#
# _framework density 20.057563999999999
#
# number of rings (size 3 to 8) (size 9 to 14) (size 15 to 20)
#    0.000    1.333    6.667    1.500    0.000    2.333 
#    0.000    4.167    0.000   13.500    0.000    0.000 
#    0.000    0.000    0.000    0.000    0.000    0.000 
#
# Total GULP energy -133921.525195 kJ/mol
# GULP energy per Si atom -5580.063550 kJ/mol
# Density = 2.001191 g / cm^3
# Si number density = 20.057564 Si / 1000 Ang^3
#
#
#
# Elastic Constant Matrix: (Units=GPa)
#
#
# Indices 1 2 3 4 5 6 
#
# 1 68.2803 37.2985 8.5609 0.0000 9.5909 0.0000
# 2 37.2985 128.0967 35.1407 0.0000 5.0736 0.0000
# 3 8.5609 35.1407 114.5164 0.0000 -2.9262 0.0000
# 4 0.0000 0.0000 0.0000 9.3102 0.0000 -2.4231
# 5 9.5909 5.0736 -2.9262 0.0000 30.6656 0.0000
# 6 0.0000 0.0000 0.0000 -2.4231 0.0000 5.3035
#
#
#
# Elastic Compliance Matrix: (Units=1/GPa)
#
#
# Indices 1 2 3 4 5 6 
#
# 1 0.018097 -0.005104 0.000090 0.000000 -0.004807 0.000000
# 2 -0.005104 0.010049 -0.002710 0.000000 -0.000325 0.000000
# 3 0.000090 -0.002710 0.009591 0.000000 0.001335 0.000000
# 4 0.000000 0.000000 0.000000 0.121904 0.000000 0.055696
# 5 -0.004807 -0.000325 0.001335 0.000000 0.034294 0.000000
# 6 0.000000 0.000000 0.000000 0.055696 0.000000 0.214002
#
#
# Mechanical properties :
#
#
# Convention : Reuss Voigt Hill
#
# Bulk Modulus (GPa) = 44.86277 52.54376 48.70326
# Shear Modulus (GPa) = 11.60586 24.38207 17.99396
#
# Velocity S-wave (km/s) = 2.40808 3.49033 2.99844
# Velocity P-wave (km/s) = 5.49066 6.51894 6.02677
#
# Compressibility (1/GPa) = 0.02229020
#
# Stress axis : x y z
#
# Youngs Moduli (GPa) = 55.25647 99.51070 104.25927
#
# Poissons Ratio (x) = 0.50790 -0.00943
# Poissons Ratio (y) = 0.28203 0.28259
# Poissons Ratio (z) = -0.00500 0.26972
#
# Static dielectric constant tensor:
#      x y z
#    x 1.746840 0.000000 0.008520 
#    y 0.000000 1.672290 0.000000 
#    z 0.008520 0.000000 1.785290 
# 
# From -- ./inp_files/85671.got.cif
#   From: 2010.05.17/outbox.cif.g08.bks.cpg/sg12_43_cif.got.tgz:85671.got - 2010.06.03 13:09:07.
