data_PCOD9176527
_publ_section_title
;
Structure prediction by ZEFSAII (Michael W. Deem and Ramdas Pophale) SiO2 
 PCOD9176527
Probable space group: C 2/M
;
_chemical_formula_sum "Si O2"
_cell_formula_units_Z 32
_cell_length_a 19.358440
_cell_length_b 14.777462
_cell_length_c 19.040508
_cell_angle_alpha 90.000000
_cell_angle_beta 20.653616
_cell_angle_gamma 90.000000
_cell_volume 1921.213670
_symmetry_space_group_name_H-M "C 2/M"
_symmetry_group_IT_number 12
_symmetry_cell_setting 'monoclinic'
loop_
_space_group_symop_operation_xyz
x,y,z
-x,y,-z
-x,-y,-z
x,-y,z
1/2+x,1/2+y,z
1/2-x,1/2+y,-z
1/2-x,1/2-y,-z
1/2+x,1/2-y,z
loop_
_atom_site_type_symbol
_atom_site_label
_atom_site_fract_x
_atom_site_fract_y
_atom_site_fract_z
Si Si1 0.826099 0.500000 0.410008
Si Si2 0.046531 0.302955 0.687325
Si Si3 0.721435 0.000000 0.705792
Si Si4 0.500000 0.154193 0.000000
Si Si5 0.077465 0.000000 0.272876
Si Si6 0.724008 0.804811 0.918864
O O1 0.906572 0.408646 0.366791
O O2 0.878594 0.500000 0.276550
O O3 0.588745 0.500000 0.630063
O O4 0.250000 0.250000 0.500000
O O5 0.908911 0.258890 0.759184
O O6 0.928913 0.292591 0.872316
O O7 0.948576 0.000000 0.467223
O O8 0.648737 0.912576 0.816989
O O9 0.381972 0.209674 0.054277
O O10 0.199952 0.091479 0.152930
#
# Coordination Sequence:
#
# PCOD9176527 Si02
#       6
#     4   8   4   4   4   8
#     4  10  18  36  57  79 114 142 184 231 276 324
#     4  11  21  39  53  81 111 150 190 230 274 329
#     4   9  18  32  54  81 126 145 175 215 289 346
#     4  11  20  34  50  89 118 152 182 221 278 351
#     4  10  18  35  54  88 115 157 167 225 282 344
#     4  11  22  33  58  79 119 148 184 223 278 339
#
# _framework density 16.656139
#
# number of rings (size 3 to 8) (size 9 to 14) (size 15 to 20)
#    0.750    0.750    5.000    2.250    0.000    2.000 
#    0.000    0.000    0.000    0.750    0.000    1.750 
#    0.000    0.000    0.000    0.000    0.000    0.000 
#
# Total GULP energy -89256.937024 kJ/mol
# GULP energy per Si atom -5578.558564 kJ/mol
# Density = 1.661823 g / cm^3
# Si number density = 16.656139 Si / 1000 Ang^3
#
#
#
# Elastic Constant Matrix: (Units=GPa)
#
#
# Indices 1 2 3 4 5 6 
#
# 1 124.2363 54.4656 38.0603 0.0002 -29.7405 0.0003
# 2 54.4656 105.5312 37.4912 0.0063 -17.9509 -0.0011
# 3 38.0603 37.4912 108.2129 0.0007 -10.1285 -0.0015
# 4 0.0002 0.0063 0.0007 22.0889 -0.0011 -12.3238
# 5 -29.7405 -17.9509 -10.1285 -0.0011 29.4774 0.0008
# 6 0.0003 -0.0011 -0.0015 -12.3238 0.0008 22.0022
#
#
#
# Elastic Compliance Matrix: (Units=1/GPa)
#
#
# Indices 1 2 3 4 5 6 
#
# 1 0.012885 -0.004237 -0.002158 0.000002 0.009678 0.000000
# 2 -0.004237 0.013126 -0.002799 -0.000005 0.002757 -0.000002
# 3 -0.002158 -0.002799 0.010959 0.000001 -0.000116 0.000001
# 4 0.000002 -0.000005 0.000001 0.065849 0.000001 0.036883
# 5 0.009678 0.002757 -0.000116 0.000001 0.045327 -0.000001
# 6 0.000000 -0.000002 0.000001 0.036883 -0.000001 0.066109
#
#
# Mechanical properties :
#
#
# Convention : Reuss Voigt Hill
#
# Bulk Modulus (GPa) = 53.81852 66.44606 60.13229
# Shear Modulus (GPa) = 20.93473 28.57792 24.75633
#
# Velocity S-wave (km/s) = 3.54909 4.14667 3.85946
# Velocity P-wave (km/s) = 7.01259 7.93132 7.48606
#
# Compressibility (1/GPa) = 0.01858097
#
# Stress axis : x y z
#
# Youngs Moduli (GPa) = 77.61252 76.18446 91.24922
#
# Poissons Ratio (x) = 0.32279 0.19691
# Poissons Ratio (y) = 0.32884 0.25544
# Poissons Ratio (z) = 0.16748 0.21327
#
# Static dielectric constant tensor:
#      x y z
#    x 1.577490 0.000000 -0.026260 
#    y 0.000000 1.538220 0.000000 
#    z -0.026260 0.000000 1.596320 
# 
# From -- ./inp_files/321772.got.cif
#   From: 2010.05.17/outbox.cif.g08.bks.cpg/sg12_161_cif.got.tgz:321772.got - 2010.06.03 13:09:07.
