data_PCOD9176782
_publ_section_title
;
Structure prediction by ZEFSAII (Michael W. Deem and Ramdas Pophale) SiO2 
 PCOD9176782
Probable space group: C 2/M
;
_chemical_formula_sum "Si O2"
_cell_formula_units_Z 60
_cell_length_a 26.731943
_cell_length_b 15.199026
_cell_length_c 8.645238
_cell_angle_alpha 90.000000
_cell_angle_beta 64.802294
_cell_angle_gamma 90.000000
_cell_volume 3178.315432
_symmetry_space_group_name_H-M "C 2/M"
_symmetry_group_IT_number 12
_symmetry_cell_setting 'monoclinic'
loop_
_space_group_symop_operation_xyz
x,y,z
-x,y,-z
-x,-y,-z
x,-y,z
1/2+x,1/2+y,z
1/2-x,1/2+y,-z
1/2-x,1/2-y,-z
1/2+x,1/2-y,z
loop_
_atom_site_type_symbol
_atom_site_label
_atom_site_fract_x
_atom_site_fract_y
_atom_site_fract_z
Si Si1 0.637481 0.000000 0.452748
Si Si2 0.453754 0.252705 0.190469
Si Si3 0.365831 0.868623 0.840598
Si Si4 0.992100 0.401306 0.694913
Si Si5 0.342669 0.824341 0.380401
Si Si6 0.949239 0.104440 0.452610
Si Si7 0.771029 0.398375 0.214069
Si Si8 0.160768 0.798519 0.311929
O O1 0.637088 0.074898 0.312984
O O2 0.640705 0.079401 0.577748
O O3 0.471202 0.174785 0.283951
O O4 0.392533 0.223194 0.221076
O O5 0.454338 0.342462 0.286168
O O6 0.500000 0.255304 0.000000
O O7 0.428270 0.883613 0.817224
O O8 0.353437 0.768956 0.806225
O O9 0.320519 0.896815 0.024486
O O10 0.009032 0.500000 0.722956
O O11 0.000000 0.400065 0.500000
O O12 0.291493 0.842922 0.335187
O O13 0.332959 0.759566 0.538966
O O14 0.891545 0.137586 0.599162
O O15 0.000000 0.128124 0.500000
O O16 0.949544 0.000000 0.430137
O O17 0.759599 0.500000 0.271505
O O18 0.716562 0.353155 0.216438
#
# Coordination Sequence:
#
# PCOD9176782 Si02
#       8
#     4   8   8   8   8   8   8   8
#     4  10  18  36  54  76 107 156 190 222 278 338
#     4  11  23  36  55  88 122 154 191 239 290 346
#     4  11  21  36  56  83 118 150 189 238 300 334
#     4  11  21  33  57  85 118 158 199 234 280 349
#     4  10  22  37  57  78 117 157 191 229 285 346
#     4  10  21  41  66  88 109 147 197 244 296 347
#     4  12  22  37  57  85 115 151 197 241 287 345
#     4  10  22  38  61  85 112 149 194 241 289 352
#
# _framework density 18.877924
#
# number of rings (size 3 to 8) (size 9 to 14) (size 15 to 20)
#    0.000    1.333    2.000    5.600    2.800    0.533 
#    0.000    0.000    0.000    0.000    0.000    0.000 
#    0.000    0.000    0.000    0.000    0.000    0.000 
#
# Total GULP energy -167044.583070 kJ/mol
# GULP energy per Si atom -5568.152769 kJ/mol
# Density = 1.883496 g / cm^3
# Si number density = 18.877924 Si / 1000 Ang^3
#
#
#
# Elastic Constant Matrix: (Units=GPa)
#
#
# Indices 1 2 3 4 5 6 
#
# 1 49.8227 30.6675 -11.3447 0.0000 -8.1731 0.0000
# 2 30.6675 96.9789 1.9044 0.0000 -0.0823 0.0000
# 3 -11.3447 1.9044 21.1548 0.0000 -6.9160 0.0000
# 4 0.0000 0.0000 0.0000 66.8746 0.0000 53.5639
# 5 -8.1731 -0.0823 -6.9160 0.0000 23.8642 0.0000
# 6 0.0000 0.0000 0.0000 53.5639 0.0000 93.1455
#
#
#
# Elastic Compliance Matrix: (Units=1/GPa)
#
#
# Indices 1 2 3 4 5 6 
#
# 1 0.037546 -0.012407 0.028105 0.000000 0.020961 0.000000
# 2 -0.012407 0.014431 -0.010302 0.000000 -0.007185 0.000000
# 3 0.028105 -0.010302 0.073355 0.000000 0.030849 0.000000
# 4 0.000000 0.000000 0.000000 0.027722 0.000000 -0.015942
# 5 0.020961 -0.007185 0.030849 0.000000 0.057998 0.000000
# 6 0.000000 0.000000 0.000000 -0.015942 0.000000 0.019903
#
#
# Mechanical properties :
#
#
# Convention : Reuss Voigt Hill
#
# Bulk Modulus (GPa) = 7.34627 23.37897 15.36262
# Shear Modulus (GPa) = 18.82960 46.55879 32.69420
#
# Velocity S-wave (km/s) = 3.16165 4.97158 4.16609
# Velocity P-wave (km/s) = 4.15066 6.73548 5.59440
#
# Compressibility (1/GPa) = 0.13612342
#
# Stress axis : x y z
#
# Youngs Moduli (GPa) = 26.63376 69.29386 13.63237
#
# Poissons Ratio (x) = 0.85975 -0.38313
# Poissons Ratio (y) = 0.33045 0.14044
# Poissons Ratio (z) = -0.74853 0.71385
#
# Static dielectric constant tensor:
#      x y z
#    x 1.675930 0.000000 -0.003210 
#    y 0.000000 1.636790 0.000000 
#    z -0.003210 0.000000 1.690840 
# 
# From -- ./inp_files/96829.got.cif
#   From: 2010.05.17/outbox.cif.g08.bks.cpg/sg12_49_cif.got.tgz:96829.got - 2010.06.03 13:09:07.
