data_PCOD9176132
_publ_section_title
;
Structure prediction by ZEFSAII (Michael W. Deem and Ramdas Pophale) SiO2 
 PCOD9176132
Probable space group: C 2/M
;
_chemical_formula_sum "Si O2"
_cell_formula_units_Z 48
_cell_length_a 12.492851
_cell_length_b 26.537398
_cell_length_c 11.802567
_cell_angle_alpha 90.000000
_cell_angle_beta 132.904098
_cell_angle_gamma 90.000000
_cell_volume 2866.160909
_symmetry_space_group_name_H-M "C 2/M"
_symmetry_group_IT_number 12
_symmetry_cell_setting 'monoclinic'
loop_
_space_group_symop_operation_xyz
x,y,z
-x,y,-z
-x,-y,-z
x,-y,z
1/2+x,1/2+y,z
1/2-x,1/2+y,-z
1/2-x,1/2-y,-z
1/2+x,1/2-y,z
loop_
_atom_site_type_symbol
_atom_site_label
_atom_site_fract_x
_atom_site_fract_y
_atom_site_fract_z
Si Si1 0.312981 0.642897 0.210604
Si Si2 0.676049 0.443245 0.616992
Si Si3 0.343837 0.356800 0.571120
Si Si4 0.647994 0.791638 0.276745
Si Si5 0.312493 0.194902 0.083461
Si Si6 0.644457 0.679750 0.181777
O O1 0.277539 0.588666 0.239040
O O2 0.487124 0.651611 0.343465
O O3 0.222900 0.682471 0.221616
O O4 0.268446 0.653245 0.050605
O O5 0.500000 0.446538 0.500000
O O6 0.733812 0.500000 0.651249
O O7 0.706815 0.407217 0.531522
O O8 0.247058 0.311245 0.451470
O O9 0.338098 0.359344 0.702848
O O10 0.482771 0.808440 0.179411
O O11 0.635256 0.732876 0.240694
O O12 0.275840 0.185012 0.187583
O O13 0.250000 0.250000 0.000000
O O14 0.500000 0.672834 0.000000
#
# Coordination Sequence:
#
# PCOD9176132 Si02
#       6
#     8   8   8   8   8   8
#     4  10  18  34  56  77 103 138 174 215 260 303
#     4   8  16  32  56  81 102 127 168 225 273 300
#     4  10  21  35  53  78 102 135 177 220 254 307
#     4  11  21  34  50  74 105 140 181 213 245 299
#     4  12  21  33  50  73 108 150 173 204 254 308
#     4  12  21  33  50  70 108 145 176 204 256 306
#
# _framework density 16.747140999999999
#
# number of rings (size 3 to 8) (size 9 to 14) (size 15 to 20)
#    0.000    1.500    5.000    2.500    0.000    0.667 
#    3.000    0.000    0.000    9.500    0.000    4.667 
#    0.000    0.000    0.000    0.000    0.000    0.000 
#
# Total GULP energy -133789.465634 kJ/mol
# GULP energy per Si atom -5574.561068 kJ/mol
# Density = 1.670902 g / cm^3
# Si number density = 16.747141 Si / 1000 Ang^3
#
#
#
# Elastic Constant Matrix: (Units=GPa)
#
#
# Indices 1 2 3 4 5 6 
#
# 1 62.6933 12.8438 33.9761 0.0000 -2.7665 0.0000
# 2 12.8438 83.7129 39.3160 0.0000 -14.9258 0.0000
# 3 33.9761 39.3160 91.6290 0.0000 -12.7341 0.0000
# 4 0.0000 0.0000 0.0000 10.2641 0.0000 -0.2721
# 5 -2.7665 -14.9258 -12.7341 0.0000 36.6073 0.0000
# 6 0.0000 0.0000 0.0000 -0.2721 0.0000 10.2813
#
#
#
# Elastic Compliance Matrix: (Units=1/GPa)
#
#
# Indices 1 2 3 4 5 6 
#
# 1 0.020015 0.000375 -0.007724 0.000000 -0.001022 0.000000
# 2 0.000375 0.015566 -0.006233 0.000000 0.004207 0.000000
# 3 -0.007724 -0.006233 0.016832 0.000000 0.002730 0.000000
# 4 0.000000 0.000000 0.000000 0.097495 0.000000 0.002580
# 5 -0.001022 0.004207 0.002730 0.000000 0.029904 0.000000
# 6 0.000000 0.000000 0.000000 0.002580 0.000000 0.097332
#
#
# Mechanical properties :
#
#
# Convention : Reuss Voigt Hill
#
# Bulk Modulus (GPa) = 39.60922 45.58967 42.59944
# Shear Modulus (GPa) = 15.98849 21.55717 18.77283
#
# Velocity S-wave (km/s) = 3.09317 3.59167 3.35170
# Velocity P-wave (km/s) = 6.03818 6.66945 6.36165
#
# Compressibility (1/GPa) = 0.02524665
#
# Stress axis : x y z
#
# Youngs Moduli (GPa) = 49.96269 64.24445 59.41187
#
# Poissons Ratio (x) = -0.02408 0.45892
# Poissons Ratio (y) = -0.01872 0.37033
# Poissons Ratio (z) = 0.38593 0.40045
#
# Static dielectric constant tensor:
#      x y z
#    x 1.582110 0.000000 -0.004440 
#    y 0.000000 1.570240 0.000000 
#    z -0.004440 0.000000 1.603970 
# 
# From -- ./inp_files/52402.got.cif
#   From: 2010.05.17/outbox.cif.g08.bks.cpg/sg12_27_cif.got.tgz:52402.got - 2010.06.03 13:09:07.
