data_PCOD9176139
_publ_section_title
;
Structure prediction by ZEFSAII (Michael W. Deem and Ramdas Pophale) SiO2 
 PCOD9176139
Probable space group: C 2/M
;
_chemical_formula_sum "Si O2"
_cell_formula_units_Z 56
_cell_length_a 16.916998
_cell_length_b 15.090695
_cell_length_c 11.050686
_cell_angle_alpha 90.000000
_cell_angle_beta 123.739141
_cell_angle_gamma 90.000000
_cell_volume 2345.973740
_symmetry_space_group_name_H-M "C 2/M"
_symmetry_group_IT_number 12
_symmetry_cell_setting 'monoclinic'
loop_
_space_group_symop_operation_xyz
x,y,z
-x,y,-z
-x,-y,-z
x,-y,z
1/2+x,1/2+y,z
1/2-x,1/2+y,-z
1/2-x,1/2-y,-z
1/2+x,1/2-y,z
loop_
_atom_site_type_symbol
_atom_site_label
_atom_site_fract_x
_atom_site_fract_y
_atom_site_fract_z
Si Si1 0.291203 0.653140 0.317203
Si Si2 0.838060 0.358317 0.314212
Si Si3 0.141027 0.903528 0.059029
Si Si4 0.510585 0.790258 0.715797
Si Si5 0.399498 0.207771 0.957658
Si Si6 0.669261 0.097819 0.418489
Si Si7 0.545726 0.405388 0.712442
O O1 0.321133 0.754996 0.329194
O O2 0.190481 0.651796 0.160046
O O3 0.264577 0.625981 0.430222
O O4 0.371747 0.598724 0.317941
O O5 0.755121 0.393399 0.156355
O O6 0.941001 0.356011 0.339879
O O7 0.824415 0.403703 0.431461
O O8 0.108684 0.811141 0.093900
O O9 0.117427 0.000000 0.095930
O O10 0.095587 0.904561 0.887115
O O11 0.412636 0.831000 0.677711
O O12 0.493733 0.689437 0.657578
O O13 0.589317 0.786220 0.888462
O O14 0.500000 0.170931 0.000000
O O15 0.642517 0.000000 0.352197
O O16 0.493819 0.500000 0.657687
#
# Coordination Sequence:
#
# PCOD9176139 Si02
#       7
#     8   8   8   8   8   8   8
#     4  10  20  37  59  83 111 147 188 234 283 331
#     4  10  21  37  58  78 111 153 192 228 272 334
#     4   9  18  32  55  85 110 143 189 231 274 332
#     4  10  21  37  57  83 114 151 186 226 284 333
#     4  10  18  34  56  79 115 149 178 231 291 334
#     4  12  24  37  56  83 117 153 189 232 280 332
#     4   9  18  36  63  88 112 143 185 234 281 332
#
# _framework density 23.870684000000001
#
# number of rings (size 3 to 8) (size 9 to 14) (size 15 to 20)
#    0.000    2.000    1.429    2.571    0.000    5.429 
#    0.000    2.143    0.000    7.714    0.000    0.000 
#    0.000    0.000    0.000    0.000    0.000    0.000 
#
# Total GULP energy -156402.458305 kJ/mol
# GULP energy per Si atom -5585.802082 kJ/mol
# Density = 2.381635 g / cm^3
# Si number density = 23.870684 Si / 1000 Ang^3
#
#
#
# Elastic Constant Matrix: (Units=GPa)
#
#
# Indices 1 2 3 4 5 6 
#
# 1 65.7579 14.7979 -15.1563 0.0000 -4.8682 0.0000
# 2 14.7979 92.0644 -7.4802 0.0000 4.2408 0.0000
# 3 -15.1563 -7.4802 47.4767 0.0000 1.4771 0.0000
# 4 0.0000 0.0000 0.0000 10.7672 0.0000 -3.5683
# 5 -4.8682 4.2408 1.4771 0.0000 25.2364 0.0000
# 6 0.0000 0.0000 0.0000 -3.5683 0.0000 3.3876
#
#
#
# Elastic Compliance Matrix: (Units=1/GPa)
#
#
# Indices 1 2 3 4 5 6 
#
# 1 0.017176 -0.002515 0.004980 0.000000 0.003444 0.000000
# 2 -0.002515 0.011468 0.001081 0.000000 -0.002476 0.000000
# 3 0.004980 0.001081 0.022840 0.000000 -0.000558 0.000000
# 4 0.000000 0.000000 0.000000 0.142682 0.000000 0.150293
# 5 0.003444 -0.002476 -0.000558 0.000000 0.040738 0.000000
# 6 0.000000 0.000000 0.000000 0.150293 0.000000 0.453501
#
#
# Mechanical properties :
#
#
# Convention : Reuss Voigt Hill
#
# Bulk Modulus (GPa) = 17.07171 21.06911 19.07041
# Shear Modulus (GPa) = 7.13430 22.08741 14.61086
#
# Velocity S-wave (km/s) = 1.73067 3.04517 2.47672
# Velocity P-wave (km/s) = 3.34079 4.60538 4.02309
#
# Compressibility (1/GPa) = 0.05857644
#
# Stress axis : x y z
#
# Youngs Moduli (GPa) = 58.22073 87.19877 43.78215
#
# Poissons Ratio (x) = 0.21929 -0.21803
# Poissons Ratio (y) = 0.14642 -0.04733
# Poissons Ratio (z) = -0.28993 -0.09426
#
# Static dielectric constant tensor:
#      x y z
#    x 1.885130 0.000000 -0.022860 
#    y 0.000000 1.903650 0.000000 
#    z -0.022860 0.000000 1.985570 
# 
# From -- ./inp_files/156755.got.cif
#   From: 2010.05.17/outbox.cif.g08.bks.cpg/sg12_79_cif.got.tgz:156755.got - 2010.06.03 13:09:07.
