data_PCOD9176425
_publ_section_title
;
Structure prediction by ZEFSAII (Michael W. Deem and Ramdas Pophale) SiO2 
 PCOD9176425
Probable space group: C 2/M
;
_chemical_formula_sum "Si O2"
_cell_formula_units_Z 64
_cell_length_a 16.425508
_cell_length_b 19.853958
_cell_length_c 16.932178
_cell_angle_alpha 90.000000
_cell_angle_beta 33.858274
_cell_angle_gamma 90.000000
_cell_volume 3076.404682
_symmetry_space_group_name_H-M "C 2/M"
_symmetry_group_IT_number 12
_symmetry_cell_setting 'monoclinic'
loop_
_space_group_symop_operation_xyz
x,y,z
-x,y,-z
-x,-y,-z
x,-y,z
1/2+x,1/2+y,z
1/2-x,1/2+y,-z
1/2-x,1/2-y,-z
1/2+x,1/2-y,z
loop_
_atom_site_type_symbol
_atom_site_label
_atom_site_fract_x
_atom_site_fract_y
_atom_site_fract_z
Si Si1 0.647532 0.921540 0.416026
Si Si2 0.231069 0.167224 0.928681
Si Si3 0.386471 0.191004 0.972126
Si Si4 0.959054 0.919189 0.189942
Si Si5 0.343067 0.877933 0.290284
Si Si6 0.432399 0.579748 0.398414
Si Si7 0.983610 0.425937 0.702954
Si Si8 0.765029 0.423803 0.180983
O O1 0.500000 0.890616 0.500000
O O2 0.807746 0.893519 0.273523
O O3 0.616938 0.922519 0.534403
O O4 0.651228 0.000000 0.386297
O O5 0.293471 0.178683 0.967230
O O6 0.366415 0.131211 0.777374
O O7 0.170088 0.238348 0.948357
O O8 0.098292 0.115680 0.041023
O O9 0.558600 0.187440 0.811123
O O10 0.350564 0.130386 0.060057
O O11 0.952878 0.905328 0.289093
O O12 0.966049 0.000000 0.176027
O O13 0.190896 0.874818 0.460651
O O14 0.451947 0.916834 0.261865
O O15 0.307724 0.915190 0.237535
O O16 0.390103 0.500000 0.440368
O O17 0.591287 0.587609 0.310143
O O18 0.915821 0.500000 0.750339
O O19 0.796587 0.500000 0.128574
#
# Coordination Sequence:
#
# PCOD9176425 Si02
#       8
#     8   8   8   8   8   8   8   8
#     4   9  18  34  56  85 117 145 184 244 302 347
#     4  10  21  39  58  79 113 159 201 243 287 336
#     4  10  23  39  54  79 115 160 205 240 280 337
#     4  10  18  34  61  89 118 149 190 242 297 350
#     4  11  21  35  56  88 126 159 192 237 292 349
#     4  10  19  33  55  90 124 150 187 239 290 347
#     4  10  19  34  61  92 118 150 196 242 291 353
#     4  11  22  36  58  88 124 158 193 239 291 347
#
# _framework density 20.803505000000001
#
# number of rings (size 3 to 8) (size 9 to 14) (size 15 to 20)
#    0.000    1.875    2.500    2.250    0.000    4.500 
#    0.000    5.000    0.000    3.000    0.000    0.000 
#    0.000    0.000    0.000    0.000    0.000    0.000 
#
# Total GULP energy -178573.102582 kJ/mol
# GULP energy per Si atom -5580.409456 kJ/mol
# Density = 2.075616 g / cm^3
# Si number density = 20.803505 Si / 1000 Ang^3
#
#
#
# Elastic Constant Matrix: (Units=GPa)
#
#
# Indices 1 2 3 4 5 6 
#
# 1 79.9816 9.5372 13.7391 -0.0001 -18.2747 -0.0001
# 2 9.5372 52.2357 16.4330 0.0036 -6.3377 -0.0007
# 3 13.7391 16.4330 69.6106 0.0050 -24.3748 0.0003
# 4 -0.0001 0.0036 0.0050 3.2917 -0.0010 -8.2897
# 5 -18.2747 -6.3377 -24.3748 -0.0010 35.7330 -0.0003
# 6 -0.0001 -0.0007 0.0003 -8.2897 -0.0003 8.2581
#
#
#
# Elastic Compliance Matrix: (Units=1/GPa)
#
#
# Indices 1 2 3 4 5 6 
#
# 1 0.014315 -0.001778 0.000062 -0.000003 0.007048 -0.000003
# 2 -0.001778 0.020906 -0.004736 0.000007 -0.000432 0.000009
# 3 0.000062 -0.004736 0.019955 0.000015 0.012804 0.000015
# 4 -0.000003 0.000007 0.000015 -0.198814 0.000003 -0.199575
# 5 0.007048 -0.000432 0.012804 0.000003 0.040247 0.000004
# 6 -0.000003 0.000009 0.000015 -0.199575 0.000004 -0.079247
#
#
# Mechanical properties :
#
#
# Convention : Reuss Voigt Hill
#
# Bulk Modulus (GPa) = 23.65585 31.24960 27.45273
# Shear Modulus (GPa) = -32.12447 20.26445 -5.93001
#
# Velocity S-wave (km/s) = -3.93388 3.12442 -1.69017
# Velocity P-wave (km/s) = 3.03942 5.29811 3.06854
#
# Compressibility (1/GPa) = 0.04227284
#
# Stress axis : x y z
#
# Youngs Moduli (GPa) = 69.85895 47.83313 50.11372
#
# Poissons Ratio (x) = 0.08505 -0.00313
# Poissons Ratio (y) = 0.12421 0.23731
# Poissons Ratio (z) = -0.00436 0.22651
#
# Static dielectric constant tensor:
#      x y z
#    x 1.776250 0.000000 -0.006070 
#    y 0.000000 1.739680 0.000000 
#    z -0.006070 0.000000 1.742350 
# 
# From -- ./inp_files/279077.got.cif
#   From: 2010.05.17/outbox.cif.g08.bks.cpg/sg12_140_cif.got.tgz:279077.got - 2010.06.03 13:09:07.
