data_PCOD9176258
_publ_section_title
;
Structure prediction by ZEFSAII (Michael W. Deem and Ramdas Pophale) SiO2 
 PCOD9176258
Probable space group: C 2/M
;
_chemical_formula_sum "Si O2"
_cell_formula_units_Z 56
_cell_length_a 24.480789
_cell_length_b 8.713875
_cell_length_c 15.566246
_cell_angle_alpha 90.000000
_cell_angle_beta 63.031140
_cell_angle_gamma 90.000000
_cell_volume 2959.522841
_symmetry_space_group_name_H-M "C 2/M"
_symmetry_group_IT_number 12
_symmetry_cell_setting 'monoclinic'
loop_
_space_group_symop_operation_xyz
x,y,z
-x,y,-z
-x,-y,-z
x,-y,z
1/2+x,1/2+y,z
1/2-x,1/2+y,-z
1/2-x,1/2-y,-z
1/2+x,1/2-y,z
loop_
_atom_site_type_symbol
_atom_site_label
_atom_site_fract_x
_atom_site_fract_y
_atom_site_fract_z
Si Si1 0.245439 0.682490 0.863747
Si Si2 0.058205 0.681424 0.395084
Si Si3 0.154373 0.317686 0.085705
Si Si4 0.657882 0.186593 0.459908
Si Si5 0.531494 0.681623 0.228614
Si Si6 0.101973 0.683929 0.682163
Si Si7 0.785947 0.183435 0.297938
O O1 0.248230 0.500000 0.846975
O O2 0.307870 0.739283 0.863910
O O3 0.231361 0.769398 0.786130
O O4 0.192131 0.714182 0.971809
O O5 0.065332 0.500000 0.368935
O O6 0.117034 0.734833 0.407454
O O7 0.046011 0.770862 0.316627
O O8 0.000000 0.694139 0.500000
O O9 0.154326 0.500000 0.099530
O O10 0.085813 0.255005 0.134039
O O11 0.626790 0.236728 0.570727
O O12 0.728111 0.233781 0.397950
O O13 0.656359 0.000000 0.460804
O O14 0.532065 0.500000 0.219327
O O15 0.464734 0.746984 0.254429
O O16 0.097412 0.500000 0.683830
O O17 0.152292 0.736993 0.714562
O O18 0.792185 0.000000 0.299881
#
# Coordination Sequence:
#
# PCOD9176258 Si02
#       7
#     8   8   8   8   8   8   8
#     4  10  21  39  63  92 119 148 190 238 288 343
#     4  10  18  34  58  82 113 154 194 231 281 344
#     4  10  21  39  64  90 118 152 189 234 290 348
#     4   9  19  35  57  83 112 153 196 236 282 337
#     4  12  24  37  56  87 121 153 193 240 295 349
#     4  11  22  40  59  78 112 158 203 243 285 340
#     4  11  22  37  58  86 118 153 194 240 292 345
#
# _framework density 18.921969000000001
#
# number of rings (size 3 to 8) (size 9 to 14) (size 15 to 20)
#    0.000    1.571    1.429    4.286    0.000    3.143 
#    0.000    3.571    0.000    4.286    0.000    0.000 
#    0.000    0.000    0.000    0.000    0.000    0.000 
#
# Total GULP energy -156533.913036 kJ/mol
# GULP energy per Si atom -5590.496894 kJ/mol
# Density = 1.887890 g / cm^3
# Si number density = 18.921969 Si / 1000 Ang^3
#
#
#
# Elastic Constant Matrix: (Units=GPa)
#
#
# Indices 1 2 3 4 5 6 
#
# 1 111.7690 12.0707 29.0371 0.0000 -28.9105 0.0000
# 2 12.0707 36.2443 12.5538 0.0000 -14.6950 0.0000
# 3 29.0371 12.5538 40.7923 0.0000 -20.9631 0.0000
# 4 0.0000 0.0000 0.0000 21.9644 0.0000 1.5116
# 5 -28.9105 -14.6950 -20.9631 0.0000 28.1382 0.0000
# 6 0.0000 0.0000 0.0000 1.5116 0.0000 32.8226
#
#
#
# Elastic Compliance Matrix: (Units=1/GPa)
#
#
# Indices 1 2 3 4 5 6 
#
# 1 0.012595 0.001551 -0.003850 0.000000 0.010882 0.000000
# 2 0.001551 0.035319 -0.002715 0.000000 0.018016 0.000000
# 3 -0.003850 -0.002715 0.041042 0.000000 0.025203 0.000000
# 4 0.000000 0.000000 0.000000 0.045673 0.000000 -0.002103
# 5 0.010882 0.018016 0.025203 0.000000 0.074904 0.000000
# 6 0.000000 0.000000 0.000000 -0.002103 0.000000 0.030564
#
#
# Mechanical properties :
#
#
# Convention : Reuss Voigt Hill
#
# Bulk Modulus (GPa) = 12.66996 32.90320 22.78658
# Shear Modulus (GPa) = 18.08748 25.59464 21.84106
#
# Velocity S-wave (km/s) = 3.09511 3.68182 3.40114
# Velocity P-wave (km/s) = 4.41400 5.95827 5.24330
#
# Compressibility (1/GPa) = 0.07892687
#
# Stress axis : x y z
#
# Youngs Moduli (GPa) = 79.39955 28.31354 24.36505
#
# Poissons Ratio (x) = -0.04392 0.09382
# Poissons Ratio (y) = -0.12316 0.06615
# Poissons Ratio (z) = 0.30572 0.07688
#
# Static dielectric constant tensor:
#      x y z
#    x 1.636610 0.000000 -0.017560 
#    y 0.000000 1.635210 0.000000 
#    z -0.017560 0.000000 1.653540 
# 
# From -- ./inp_files/237468.got.cif
#   From: 2010.05.17/outbox.cif.g08.bks.cpg/sg12_119_cif.got.tgz:237468.got - 2010.06.03 13:09:07.
