data_PCOD9176837
_publ_section_title
;
Structure prediction by ZEFSAII (Michael W. Deem and Ramdas Pophale) SiO2 
 PCOD9176837
Probable space group: C 2/M
;
_chemical_formula_sum "Si O2"
_cell_formula_units_Z 64
_cell_length_a 22.461079
_cell_length_b 21.729936
_cell_length_c 17.716459
_cell_angle_alpha 90.000000
_cell_angle_beta 157.902754
_cell_angle_gamma 90.000000
_cell_volume 3252.830055
_symmetry_space_group_name_H-M "C 2/M"
_symmetry_group_IT_number 12
_symmetry_cell_setting 'monoclinic'
loop_
_space_group_symop_operation_xyz
x,y,z
-x,y,-z
-x,-y,-z
x,-y,z
1/2+x,1/2+y,z
1/2-x,1/2+y,-z
1/2-x,1/2-y,-z
1/2+x,1/2-y,z
loop_
_atom_site_type_symbol
_atom_site_label
_atom_site_fract_x
_atom_site_fract_y
_atom_site_fract_z
Si Si1 0.702726 0.431032 0.465724
Si Si2 0.138771 0.932978 0.569630
Si Si3 0.768682 0.932817 0.100795
Si Si4 0.871111 0.122268 0.074669
Si Si5 0.698643 0.833563 0.134768
Si Si6 0.872810 0.708299 0.289225
Si Si7 0.041788 0.236726 0.342203
Si Si8 0.380446 0.813767 0.711335
O O1 0.746147 0.500000 0.491761
O O2 0.685241 0.432616 0.536419
O O3 0.529752 0.411215 0.231454
O O4 0.822744 0.374652 0.598446
O O5 0.213076 0.875884 0.700492
O O6 0.948703 0.931448 0.344825
O O7 0.189081 0.000000 0.660209
O O8 0.780186 0.922815 0.024723
O O9 0.689637 0.876203 0.049260
O O10 0.699309 0.000000 0.035501
O O11 0.938141 0.175767 0.208687
O O12 0.758372 0.156942 0.883895
O O13 0.791841 0.770890 0.226233
O O14 0.513636 0.822725 0.930358
O O15 0.000000 0.687167 0.500000
O O16 0.965353 0.725715 0.320555
O O17 0.224460 0.216476 0.565323
O O18 0.044579 0.270286 0.264707
#
# Coordination Sequence:
#
# PCOD9176837 Si02
#       8
#     8   8   8   8   8   8   8   8
#     4   9  20  38  60  84 113 155 195 231 284 344
#     4   9  19  34  51  78 120 158 191 229 272 335
#     4  10  19  32  55  81 107 151 199 238 284 338
#     4  10  18  36  58  79 111 146 194 239 283 332
#     4  12  21  32  50  88 120 157 188 231 280 340
#     4  12  24  36  58  86 118 152 191 238 295 343
#     4  10  20  41  56  80 112 155 191 240 281 333
#     4  10  22  35  59  79 114 154 193 233 282 333
#
# _framework density 19.675174999999999
#
# number of rings (size 3 to 8) (size 9 to 14) (size 15 to 20)
#    0.000    1.750    2.500    3.750    3.500    2.500 
#    0.000    1.250    0.000    1.500    0.000    0.875 
#    0.000    0.000    0.000    0.000    0.000    0.000 
#
# Total GULP energy -178650.743444 kJ/mol
# GULP energy per Si atom -5582.835733 kJ/mol
# Density = 1.963039 g / cm^3
# Si number density = 19.675175 Si / 1000 Ang^3
#
#
#
# Elastic Constant Matrix: (Units=GPa)
#
#
# Indices 1 2 3 4 5 6 
#
# 1 25.3963 14.3038 15.0901 0.0000 -4.3202 0.0000
# 2 14.3038 91.0252 35.6563 0.0000 -5.7971 0.0000
# 3 15.0901 35.6563 100.3301 0.0000 -6.6521 0.0000
# 4 0.0000 0.0000 0.0000 21.6289 0.0000 -12.5496
# 5 -4.3202 -5.7971 -6.6521 0.0000 12.9074 0.0000
# 6 0.0000 0.0000 0.0000 -12.5496 0.0000 20.9250
#
#
#
# Elastic Compliance Matrix: (Units=1/GPa)
#
#
# Indices 1 2 3 4 5 6 
#
# 1 0.046706 -0.004843 -0.004567 0.000000 0.011104 0.000000
# 2 -0.004843 0.013421 -0.003882 0.000000 0.002406 0.000000
# 3 -0.004567 -0.003882 0.012235 0.000000 0.003033 0.000000
# 4 0.000000 0.000000 0.000000 0.070910 0.000000 0.042528
# 5 0.011104 0.002406 0.003033 0.000000 0.083835 0.000000
# 6 0.000000 0.000000 0.000000 0.042528 0.000000 0.073295
#
#
# Mechanical properties :
#
#
# Convention : Reuss Voigt Hill
#
# Bulk Modulus (GPa) = 21.84488 38.53911 30.19200
# Shear Modulus (GPa) = 14.60936 21.20567 17.90752
#
# Velocity S-wave (km/s) = 2.72789 3.28653 3.02016
# Velocity P-wave (km/s) = 4.58789 5.83369 5.24789
#
# Compressibility (1/GPa) = 0.04577731
#
# Stress axis : x y z
#
# Youngs Moduli (GPa) = 21.41035 74.51121 81.73488
#
# Poissons Ratio (x) = 0.36087 0.37332
# Poissons Ratio (y) = 0.10369 0.31727
# Poissons Ratio (z) = 0.09779 0.28923
#
# Static dielectric constant tensor:
#      x y z
#    x 1.707920 0.000000 0.022860 
#    y 0.000000 1.735800 0.000000 
#    z 0.022860 0.000000 1.727250 
# 
# From -- ./inp_files/291097.got.cif
#   From: 2010.05.17/outbox.cif.g08.bks.cpg/sg12_146_cif.got.tgz:291097.got - 2010.06.03 13:09:07.
