data_PCOD9176516
_publ_section_title
;
Structure prediction by ZEFSAII (Michael W. Deem and Ramdas Pophale) SiO2 
 PCOD9176516
Probable space group: C 2/M
;
_chemical_formula_sum "Si O2"
_cell_formula_units_Z 44
_cell_length_a 10.517567
_cell_length_b 31.427424
_cell_length_c 6.795991
_cell_angle_alpha 90.000000
_cell_angle_beta 43.031700
_cell_angle_gamma 90.000000
_cell_volume 1532.913770
_symmetry_space_group_name_H-M "C 2/M"
_symmetry_group_IT_number 12
_symmetry_cell_setting 'monoclinic'
loop_
_space_group_symop_operation_xyz
x,y,z
-x,y,-z
-x,-y,-z
x,-y,z
1/2+x,1/2+y,z
1/2-x,1/2+y,-z
1/2-x,1/2-y,-z
1/2+x,1/2-y,z
loop_
_atom_site_type_symbol
_atom_site_label
_atom_site_fract_x
_atom_site_fract_y
_atom_site_fract_z
Si Si1 0.254298 0.672742 0.879294
Si Si2 0.278515 0.905899 0.686827
Si Si3 0.278934 0.000000 0.706921
Si Si4 0.330447 0.816253 0.487833
Si Si5 0.709747 0.909434 0.783032
Si Si6 0.500000 0.740966 0.500000
Si Si7 0.215178 0.000000 0.313509
O O1 0.309648 0.622627 0.819265
O O2 0.396480 0.709794 0.772242
O O3 0.241422 0.679923 0.654488
O O4 0.052988 0.677412 0.201110
O O5 0.500000 0.907085 0.500000
O O6 0.205868 0.952237 0.849018
O O7 0.242579 0.854025 0.722606
O O8 0.226966 0.911186 0.512528
O O9 0.500000 0.000000 0.500000
O O10 0.249965 0.000000 0.505229
O O11 0.342008 0.770630 0.578780
O O12 0.698036 0.957279 0.867862
O O13 0.500000 0.893090 0.000000
O O14 0.000000 0.000000 0.500000
#
# Coordination Sequence:
#
# PCOD9176516 Si02
#       7
#     8   8   4   8   8   4   4
#     4  10  21  36  52  76 110 139 179 230 280 325
#     4   9  15  29  52  78 101 131 183 226 254 311
#     4   8  16  29  52  83 108 147 184 221 267 340
#     4  10  19  36  52  76 105 138 181 233 261 335
#     4  10  18  35  54  76 111 145 180 223 271 336
#     4  12  22  32  56  76 100 144 184 224 292 322
#     4  10  21  31  54  91 117 138 181 236 279 326
#
# _framework density 28.703505
#
# number of rings (size 3 to 8) (size 9 to 14) (size 15 to 20)
#    0.000    2.182    4.545    1.364    1.273    0.000 
#    0.000    0.000    0.000    0.000    0.000   53.455 
#    0.000    0.000    0.000    0.000    0.000    0.000 
#
# Total GULP energy -122657.311686 kJ/mol
# GULP energy per Si atom -5575.332349 kJ/mol
# Density = 2.863817 g / cm^3
# Si number density = 28.703505 Si / 1000 Ang^3
#
#
#
# Elastic Constant Matrix: (Units=GPa)
#
#
# Indices 1 2 3 4 5 6 
#
# 1 101.9649 -5.4183 30.2884 0.0000 14.5230 0.0000
# 2 -5.4183 283.2811 24.6293 0.0000 -6.4621 0.0000
# 3 30.2884 24.6293 54.4789 0.0000 -8.7555 0.0000
# 4 0.0000 0.0000 0.0000 4.5489 0.0000 14.0013
# 5 14.5230 -6.4621 -8.7555 0.0000 45.9789 0.0000
# 6 0.0000 0.0000 0.0000 14.0013 0.0000 -10.6193
#
#
#
# Elastic Compliance Matrix: (Units=1/GPa)
#
#
# Indices 1 2 3 4 5 6 
#
# 1 0.013246 0.000878 -0.008679 0.000000 -0.005713 0.000000
# 2 0.000878 0.003735 -0.002204 0.000000 -0.000172 0.000000
# 3 -0.008679 -0.002204 0.025344 0.000000 0.007258 0.000000
# 4 0.000000 0.000000 0.000000 0.043461 0.000000 0.057302
# 5 -0.005713 -0.000172 0.007258 0.000000 0.024912 0.000000
# 6 0.000000 0.000000 0.000000 0.057302 0.000000 -0.018617
#
#
# Mechanical properties :
#
#
# Convention : Reuss Voigt Hill
#
# Bulk Modulus (GPa) = 44.81643 59.85821 52.33732
# Shear Modulus (GPa) = 41.83116 33.99674 37.91395
#
# Velocity S-wave (km/s) = 3.82167 3.44526 3.63834
# Velocity P-wave (km/s) = 5.92630 6.06017 5.99361
#
# Compressibility (1/GPa) = 0.02231325
#
# Stress axis : x y z
#
# Youngs Moduli (GPa) = 75.49560 267.77071 39.45728
#
# Poissons Ratio (x) = -0.23500 0.34246
# Poissons Ratio (y) = -0.06626 0.08696
# Poissons Ratio (z) = 0.65524 0.59014
#
# Static dielectric constant tensor:
#      x y z
#    x 2.316770 0.000000 0.062710 
#    y 0.000000 2.422690 0.000000 
#    z 0.062710 0.000000 2.313870 
# 
# From -- ./inp_files/53028.got.cif
#   From: 2010.05.17/outbox.cif.g08.bks.cpg/sg12_27_cif.got.tgz:53028.got - 2010.06.03 13:09:07.
