data_PCOD9176658
_publ_section_title
;
Structure prediction by ZEFSAII (Michael W. Deem and Ramdas Pophale) SiO2 
 PCOD9176658
Probable space group: C 2/M
;
_chemical_formula_sum "Si O2"
_cell_formula_units_Z 58
_cell_length_a 14.389864
_cell_length_b 7.589963
_cell_length_c 23.543859
_cell_angle_alpha 90.000000
_cell_angle_beta 102.041681
_cell_angle_gamma 90.000000
_cell_volume 2514.844380
_symmetry_space_group_name_H-M "C 2/M"
_symmetry_group_IT_number 12
_symmetry_cell_setting 'monoclinic'
loop_
_space_group_symop_operation_xyz
x,y,z
-x,y,-z
-x,-y,-z
x,-y,z
1/2+x,1/2+y,z
1/2-x,1/2+y,-z
1/2-x,1/2-y,-z
1/2+x,1/2-y,z
loop_
_atom_site_type_symbol
_atom_site_label
_atom_site_fract_x
_atom_site_fract_y
_atom_site_fract_z
Si Si1 0.888089 0.214045 0.050954
Si Si2 0.052727 0.203957 0.153159
Si Si3 0.500000 0.000000 0.500000
Si Si4 0.546177 0.205469 0.626561
Si Si5 0.188747 0.705930 0.077195
Si Si6 0.255241 0.713250 0.619927
Si Si7 0.434967 0.714881 0.717201
Si Si8 0.626525 0.301650 0.470498
O O1 0.789471 0.273918 0.067254
O O2 0.973398 0.281152 0.100893
O O3 0.890442 0.000000 0.049886
O O4 0.883239 0.268989 0.984750
O O5 0.149048 0.211196 0.129294
O O6 0.060614 0.277210 0.217359
O O7 0.025892 0.000000 0.157608
O O8 0.584469 0.155444 0.506427
O O9 0.651381 0.269700 0.626628
O O10 0.521516 0.215596 0.689845
O O11 0.461773 0.309538 0.585940
O O12 0.532364 0.000000 0.603501
O O13 0.199690 0.500000 0.089583
O O14 0.254924 0.500000 0.621665
O O15 0.337803 0.772899 0.673497
O O16 0.287339 0.759034 0.559914
O O17 0.436628 0.500000 0.716177
O O18 0.638632 0.500000 0.493827
#
# Coordination Sequence:
#
# PCOD9176658 Si02
#       8
#     8   8   2   8   8   8   8   8
#     4   9  19  35  51  69  97 138 177 216 273 343
#     4  10  20  34  52  72 105 139 177 221 278 337
#     4  12  22  40  64  94 124 158 202 240 282 334
#     4  10  18  35  60  85 111 148 195 234 274 339
#     4  10  20  33  50  72  98 131 176 225 276 333
#     4   8  17  35  60  81 112 151 189 230 281 336
#     4   9  19  35  52  80 108 144 183 227 283 339
#     4  10  21  40  62  87 124 162 193 238 289 332
#
# _framework density 23.063058000000002
#
# number of rings (size 3 to 8) (size 9 to 14) (size 15 to 20)
#    0.000    2.483    0.690    2.276    0.000    4.414 
#    2.483    0.690    0.000    0.000    0.000    0.000 
#    0.000    0.000    0.000    0.000    0.000    0.000 
#
# Total GULP energy -161927.514466 kJ/mol
# GULP energy per Si atom -5583.707395 kJ/mol
# Density = 2.301057 g / cm^3
# Si number density = 23.063058 Si / 1000 Ang^3
#
#
#
# Elastic Constant Matrix: (Units=GPa)
#
#
# Indices 1 2 3 4 5 6 
#
# 1 120.2509 14.2448 50.5113 0.0000 -27.4354 0.0000
# 2 14.2448 95.0100 16.7657 0.0000 -3.5116 0.0000
# 3 50.5113 16.7657 156.0829 0.0000 -19.6859 0.0000
# 4 0.0000 0.0000 0.0000 26.0333 0.0000 -6.2427
# 5 -27.4354 -3.5116 -19.6859 0.0000 29.8039 0.0000
# 6 0.0000 0.0000 0.0000 -6.2427 0.0000 20.6218
#
#
#
# Elastic Compliance Matrix: (Units=1/GPa)
#
#
# Indices 1 2 3 4 5 6 
#
# 1 0.011492 -0.000955 -0.002505 0.000000 0.008811 0.000000
# 2 -0.000955 0.010816 -0.000876 0.000000 -0.000183 0.000000
# 3 -0.002505 -0.000876 0.007645 0.000000 0.002640 0.000000
# 4 0.000000 0.000000 0.000000 0.041419 0.000000 0.012538
# 5 0.008811 -0.000183 0.002640 0.000000 0.043386 0.000000
# 6 0.000000 0.000000 0.000000 0.012538 0.000000 0.052288
#
#
# Mechanical properties :
#
#
# Convention : Reuss Voigt Hill
#
# Bulk Modulus (GPa) = 46.99176 59.37637 53.18407
# Shear Modulus (GPa) = 27.35067 34.61328 30.98197
#
# Velocity S-wave (km/s) = 3.44744 3.87823 3.66916
# Velocity P-wave (km/s) = 6.02213 6.77166 6.40786
#
# Compressibility (1/GPa) = 0.02128033
#
# Stress axis : x y z
#
# Youngs Moduli (GPa) = 87.01997 92.45397 130.81149
#
# Poissons Ratio (x) = 0.08832 0.32768
# Poissons Ratio (y) = 0.08312 0.11457
# Poissons Ratio (z) = 0.21798 0.08097
#
# Static dielectric constant tensor:
#      x y z
#    x 1.896020 0.000000 0.014110 
#    y 0.000000 1.882790 0.000000 
#    z 0.014110 0.000000 1.789770 
# 
# From -- ./inp_files/338006.got.cif
#   From: 2010.05.17/outbox.cif.g08.bks.cpg/sg12_170_cif.got.tgz:338006.got - 2010.06.03 13:09:07.
