data_PCOD9176948
_publ_section_title
;
Structure prediction by ZEFSAII (Michael W. Deem and Ramdas Pophale) SiO2 
 PCOD9176948
Probable space group: C 2/M
;
_chemical_formula_sum "Si O2"
_cell_formula_units_Z 58
_cell_length_a 18.501807
_cell_length_b 24.186414
_cell_length_c 12.343967
_cell_angle_alpha 90.000000
_cell_angle_beta 30.572964
_cell_angle_gamma 90.000000
_cell_volume 2809.614889
_symmetry_space_group_name_H-M "C 2/M"
_symmetry_group_IT_number 12
_symmetry_cell_setting 'monoclinic'
loop_
_space_group_symop_operation_xyz
x,y,z
-x,y,-z
-x,-y,-z
x,-y,z
1/2+x,1/2+y,z
1/2-x,1/2+y,-z
1/2-x,1/2-y,-z
1/2+x,1/2-y,z
loop_
_atom_site_type_symbol
_atom_site_label
_atom_site_fract_x
_atom_site_fract_y
_atom_site_fract_z
Si Si1 0.885188 0.440004 0.246922
Si Si2 0.383542 0.285921 0.864259
Si Si3 0.587875 0.078519 0.188463
Si Si4 0.500000 0.000000 0.500000
Si Si5 0.353146 0.615399 0.740912
Si Si6 0.961693 0.689143 0.423098
Si Si7 0.171691 0.332321 0.778379
Si Si8 0.843498 0.796383 0.169111
O O1 0.808850 0.500000 0.342235
O O2 0.795981 0.383185 0.346459
O O3 0.975132 0.436807 0.241055
O O4 0.000000 0.442039 0.000000
O O5 0.398388 0.339922 0.772674
O O6 0.514225 0.245287 0.673610
O O7 0.250000 0.250000 0.000000
O O8 0.356558 0.296148 0.023450
O O9 0.565577 0.143154 0.242167
O O10 0.554316 0.047222 0.342237
O O11 0.745361 0.072377 0.935822
O O12 0.500000 0.593916 0.500000
O O13 0.256314 0.647801 0.776311
O O14 0.798887 0.670135 0.620134
O O15 0.000000 0.699202 0.500000
O O16 0.188199 0.266148 0.746804
O O17 0.000000 0.334676 0.000000
O O18 0.000000 0.815372 0.000000
#
# Coordination Sequence:
#
# PCOD9176948 Si02
#       8
#     8   8   8   2   8   8   8   8
#     4  10  20  37  66  91 126 159 222 291 333 384
#     4  12  21  36  62  90 135 183 220 274 329 412
#     4  12  23  44  68 103 131 175 233 282 338 407
#     4  12  28  44  76 100 134 176 248 286 320 416
#     4  12  23  41  68 101 140 174 220 287 350 402
#     4  12  22  39  65  93 134 183 224 270 336 412
#     4  10  18  36  63  94 134 169 223 282 326 400
#     4  11  24  39  55  95 139 176 227 272 336 412
#
# _framework density 20.643398999999999
#
# number of rings (size 3 to 8) (size 9 to 14) (size 15 to 20)
#    0.000    0.690    8.276    1.241    1.931    0.552 
#    2.483    0.345    0.000    0.000    0.000    1.448 
#    0.000    0.000    0.000    0.000    0.000    0.000 
#
# Total GULP energy -161448.224910 kJ/mol
# GULP energy per Si atom -5567.180169 kJ/mol
# Density = 2.059641 g / cm^3
# Si number density = 20.643399 Si / 1000 Ang^3
#
#
#
# Elastic Constant Matrix: (Units=GPa)
#
#
# Indices 1 2 3 4 5 6 
#
# 1 63.8982 4.2292 41.2399 -0.0017 0.9656 0.0039
# 2 4.2292 67.0292 7.7798 0.0003 10.7542 0.0027
# 3 41.2399 7.7798 115.1408 -0.0011 -10.8827 0.0022
# 4 -0.0017 0.0003 -0.0011 7.5554 0.0026 4.4813
# 5 0.9656 10.7542 -10.8827 0.0026 22.7915 -0.0062
# 6 0.0039 0.0027 0.0022 4.4813 -0.0062 3.9681
#
#
#
# Elastic Compliance Matrix: (Units=1/GPa)
#
#
# Indices 1 2 3 4 5 6 
#
# 1 0.020825 0.000388 -0.007944 0.000058 -0.004858 -0.000090
# 2 0.000388 0.016553 -0.002091 0.000050 -0.008826 -0.000080
# 3 -0.007944 -0.002091 0.012354 -0.000031 0.007223 0.000049
# 4 0.000058 0.000050 -0.000031 0.400862 -0.000209 -0.452698
# 5 -0.004858 -0.008826 0.007223 -0.000209 0.051695 0.000324
# 6 -0.000090 -0.000080 0.000049 -0.452698 0.000324 0.763244
#
#
# Mechanical properties :
#
#
# Convention : Reuss Voigt Hill
#
# Bulk Modulus (GPa) = 32.85559 39.17401 36.01480
# Shear Modulus (GPa) = 3.86108 19.71762 11.78935
#
# Velocity S-wave (km/s) = 1.36910 3.09391 2.39235
# Velocity P-wave (km/s) = 4.29530 5.63744 5.01150
#
# Compressibility (1/GPa) = 0.03043622
#
# Stress axis : x y z
#
# Youngs Moduli (GPa) = 48.01958 60.41139 80.94316
#
# Poissons Ratio (x) = -0.02342 0.64303
# Poissons Ratio (y) = -0.01861 0.16929
# Poissons Ratio (z) = 0.38148 0.12635
#
# Static dielectric constant tensor:
#      x y z
#    x 1.711230 0.000000 0.067910 
#    y 0.000000 1.794800 0.000000 
#    z 0.067910 0.000000 1.457770 
# 
# From -- ./inp_files/160911.got.cif
#   From: 2010.05.17/outbox.cif.g08.bks.cpg/sg12_81_cif.got.tgz:160911.got - 2010.06.03 13:09:07.
