data_PCOD9176639
_publ_section_title
;
Structure prediction by ZEFSAII (Michael W. Deem and Ramdas Pophale) SiO2 
 PCOD9176639
Probable space group: C 2/M
;
_chemical_formula_sum "Si O2"
_cell_formula_units_Z 56
_cell_length_a 8.251740
_cell_length_b 18.315457
_cell_length_c 31.390945
_cell_angle_alpha 90.000000
_cell_angle_beta 35.064330
_cell_angle_gamma 90.000000
_cell_volume 2725.552417
_symmetry_space_group_name_H-M "C 2/M"
_symmetry_group_IT_number 12
_symmetry_cell_setting 'monoclinic'
loop_
_space_group_symop_operation_xyz
x,y,z
-x,y,-z
-x,-y,-z
x,-y,z
1/2+x,1/2+y,z
1/2-x,1/2+y,-z
1/2-x,1/2-y,-z
1/2+x,1/2-y,z
loop_
_atom_site_type_symbol
_atom_site_label
_atom_site_fract_x
_atom_site_fract_y
_atom_site_fract_z
Si Si1 0.842216 0.838192 0.150338
Si Si2 0.535084 0.317598 0.670332
Si Si3 0.357811 0.180040 0.104731
Si Si4 0.932081 0.338305 0.705265
Si Si5 0.566900 0.415348 0.234767
Si Si6 0.625269 0.418135 0.020385
Si Si7 0.509531 0.719261 0.582254
O O1 0.114196 0.834392 0.122830
O O2 0.887978 0.902396 0.106765
O O3 0.841577 0.763199 0.123748
O O4 0.589984 0.849614 0.238824
O O5 0.335122 0.246855 0.720847
O O6 0.436234 0.388220 0.715959
O O7 0.608019 0.317271 0.604835
O O8 0.820599 0.290841 0.632585
O O9 0.292708 0.131692 0.160389
O O10 0.647439 0.147005 0.024513
O O11 0.729186 0.393197 0.724505
O O12 0.257942 0.333783 0.619449
O O13 0.619662 0.500000 0.219275
O O14 0.745769 0.500000 0.000694
O O15 0.500000 0.414458 0.000000
O O16 0.750000 0.750000 0.500000
#
# Coordination Sequence:
#
# PCOD9176639 Si02
#       7
#     8   8   8   8   8   8   8
#     4  11  22  36  63  85 117 156 205 263 306 366
#     4  10  18  35  59  91 118 158 204 251 295 360
#     4  11  22  39  61  90 118 161 211 257 310 375
#     4   9  20  37  58  92 118 158 204 255 298 374
#     4  11  22  38  62  92 130 167 204 259 321 366
#     4  11  25  42  58  83 122 162 206 262 322 375
#     4  10  19  33  63  94 121 154 207 258 295 355
#
# _framework density 20.546294
#
# number of rings (size 3 to 8) (size 9 to 14) (size 15 to 20)
#    0.857    0.714    2.857    2.571    2.000    4.571 
#    0.000    0.714    0.000    3.429    0.000    0.000 
#    0.000    0.000    0.000    0.000    0.000    0.000 
#
# Total GULP energy -156048.563270 kJ/mol
# GULP energy per Si atom -5573.162974 kJ/mol
# Density = 2.049953 g / cm^3
# Si number density = 20.546294 Si / 1000 Ang^3
#
#
#
# Elastic Constant Matrix: (Units=GPa)
#
#
# Indices 1 2 3 4 5 6 
#
# 1 58.5035 2.8668 17.2579 0.0331 14.8857 -0.0248
# 2 2.8668 53.2648 6.0874 0.0238 6.6994 -0.0095
# 3 17.2579 6.0874 103.1585 0.0267 9.4189 -0.0032
# 4 0.0331 0.0238 0.0267 6.7004 -0.0057 11.2593
# 5 14.8857 6.6994 9.4189 -0.0057 32.5288 0.0019
# 6 -0.0248 -0.0095 -0.0032 11.2593 0.0019 15.2951
#
#
#
# Elastic Compliance Matrix: (Units=1/GPa)
#
#
# Indices 1 2 3 4 5 6 
#
# 1 0.019995 0.000283 -0.002590 0.000643 -0.008458 -0.000440
# 2 0.000283 0.019341 -0.000835 0.000386 -0.003871 -0.000272
# 3 -0.002590 -0.000835 0.010325 0.000096 -0.001633 -0.000073
# 4 0.000643 0.000386 0.000096 -0.629698 -0.000539 0.463547
# 5 -0.008458 -0.003871 -0.001633 -0.000539 0.035882 0.000376
# 6 -0.000440 -0.000272 -0.000073 0.463547 0.000376 -0.275856
#
#
# Mechanical properties :
#
#
# Convention : Reuss Voigt Hill
#
# Bulk Modulus (GPa) = 23.05340 29.70569 26.37954
# Shear Modulus (GPa) = -6.25573 23.48585 8.61506
#
# Velocity S-wave (km/s) = -1.74680 3.38460 2.04990
# Velocity P-wave (km/s) = 2.67884 5.45558 4.29764
#
# Compressibility (1/GPa) = 0.04337755
#
# Stress axis : x y z
#
# Youngs Moduli (GPa) = 50.01354 51.70365 96.84863
#
# Poissons Ratio (x) = -0.01465 0.25080
# Poissons Ratio (y) = -0.01417 0.08091
# Poissons Ratio (z) = 0.12952 0.04319
#
# Static dielectric constant tensor:
#      x y z
#    x 1.804620 -0.000020 -0.019250 
#    y -0.000020 1.699410 0.000030 
#    z -0.019250 0.000030 1.821100 
# 
# From -- ./inp_files/372781.got.cif
#   From: 2010.05.17/outbox.cif.g08.bks.cpg/sg12_187_cif.got.tgz:372781.got - 2010.06.03 13:09:07.
