data_PCOD9176751
_publ_section_title
;
Structure prediction by ZEFSAII (Michael W. Deem and Ramdas Pophale) SiO2 
 PCOD9176751
Probable space group: C 2/M
;
_chemical_formula_sum "Si O2"
_cell_formula_units_Z 64
_cell_length_a 19.903474
_cell_length_b 17.693735
_cell_length_c 15.465910
_cell_angle_alpha 90.000000
_cell_angle_beta 141.672031
_cell_angle_gamma 90.000000
_cell_volume 3377.762173
_symmetry_space_group_name_H-M "C 2/M"
_symmetry_group_IT_number 12
_symmetry_cell_setting 'monoclinic'
loop_
_space_group_symop_operation_xyz
x,y,z
-x,y,-z
-x,-y,-z
x,-y,z
1/2+x,1/2+y,z
1/2-x,1/2+y,-z
1/2-x,1/2-y,-z
1/2+x,1/2-y,z
loop_
_atom_site_type_symbol
_atom_site_label
_atom_site_fract_x
_atom_site_fract_y
_atom_site_fract_z
Si Si1 0.633923 0.846619 0.873675
Si Si2 0.526271 0.358985 0.624488
Si Si3 0.125264 0.284141 0.131922
Si Si4 0.526360 0.181406 0.429999
Si Si5 0.438459 0.410926 0.711747
Si Si6 0.233074 0.202083 0.396163
Si Si7 0.267107 0.086781 0.862531
Si Si8 0.362268 0.312201 0.023544
O O1 0.537152 0.862020 0.709950
O O2 0.617372 0.763286 0.898693
O O3 0.653951 0.900348 0.975827
O O4 0.745891 0.843782 0.933573
O O5 0.500000 0.383660 0.500000
O O6 0.518293 0.268074 0.617831
O O7 0.448083 0.391096 0.619381
O O8 0.646874 0.386893 0.768458
O O9 0.159475 0.252208 0.258283
O O10 0.196579 0.355241 0.174795
O O11 0.141853 0.217702 0.078317
O O12 0.000000 0.306034 0.000000
O O13 0.500000 0.153205 0.500000
O O14 0.653137 0.185789 0.535913
O O15 0.442088 0.500000 0.727453
O O16 0.332233 0.372822 0.644409
O O17 0.541849 0.370262 0.860466
O O18 0.250000 0.250000 0.500000
O O19 0.266067 0.000000 0.834960
#
# Coordination Sequence:
#
# PCOD9176751 Si02
#       8
#     8   8   8   8   8   8   8   8
#     4  10  18  35  64  88 122 166 207 261 308 370
#     4  11  21  39  62  95 132 168 206 262 326 388
#     4  11  23  40  65  85 123 172 219 265 315 376
#     4  11  21  38  68  96 122 167 227 264 306 381
#     4  12  24  40  64  96 130 168 209 271 339 380
#     4  12  24  43  64  94 133 170 216 264 318 389
#     4  11  24  38  60  96 132 165 212 266 322 386
#     4  10  18  37  60  91 120 158 214 257 312 374
#
# _framework density 18.947455000000001
#
# number of rings (size 3 to 8) (size 9 to 14) (size 15 to 20)
#    0.000    1.000    5.000    4.125    1.750    1.250 
#    0.000    1.875    0.000    3.000    0.000    0.000 
#    0.000    0.000    0.000    0.000    0.000    0.000 
#
# Total GULP energy -178853.905852 kJ/mol
# GULP energy per Si atom -5589.184558 kJ/mol
# Density = 1.890433 g / cm^3
# Si number density = 18.947455 Si / 1000 Ang^3
#
#
#
# Elastic Constant Matrix: (Units=GPa)
#
#
# Indices 1 2 3 4 5 6 
#
# 1 90.2020 24.7669 30.6596 0.0000 -6.9068 0.0000
# 2 24.7669 76.5078 20.0073 0.0000 -11.5124 0.0000
# 3 30.6596 20.0073 96.7846 0.0000 -8.2080 0.0000
# 4 0.0000 0.0000 0.0000 13.0118 0.0000 3.4242
# 5 -6.9068 -11.5124 -8.2080 0.0000 26.1576 0.0000
# 6 0.0000 0.0000 0.0000 3.4242 0.0000 6.5009
#
#
#
# Elastic Compliance Matrix: (Units=1/GPa)
#
#
# Indices 1 2 3 4 5 6 
#
# 1 0.013217 -0.003231 -0.003435 0.000000 0.000990 0.000000
# 2 -0.003231 0.015370 -0.001697 0.000000 0.005379 0.000000
# 3 -0.003435 -0.001697 0.011949 0.000000 0.002095 0.000000
# 4 0.000000 0.000000 0.000000 0.089220 0.000000 -0.046994
# 5 0.000990 0.005379 0.002095 0.000000 0.041516 0.000000
# 6 0.000000 0.000000 0.000000 -0.046994 0.000000 0.178578
#
#
# Mechanical properties :
#
#
# Convention : Reuss Voigt Hill
#
# Bulk Modulus (GPa) = 42.00243 46.04023 44.02133
# Shear Modulus (GPa) = 13.35068 21.67143 17.51105
#
# Velocity S-wave (km/s) = 2.65734 3.38563 3.04335
# Velocity P-wave (km/s) = 5.62417 6.29563 5.96935
#
# Compressibility (1/GPa) = 0.02380815
#
# Stress axis : x y z
#
# Youngs Moduli (GPa) = 75.66143 65.06252 83.68931
#
# Poissons Ratio (x) = 0.21024 0.28747
# Poissons Ratio (y) = 0.24448 0.14206
# Poissons Ratio (z) = 0.25989 0.11044
#
# Static dielectric constant tensor:
#      x y z
#    x 1.675580 0.000000 -0.010440 
#    y 0.000000 1.623570 0.000000 
#    z -0.010440 0.000000 1.685910 
# 
# From -- ./inp_files/226866.got.cif
#   From: 2010.05.17/outbox.cif.g08.bks.cpg/sg12_114_cif.got.tgz:226866.got - 2010.06.03 13:09:07.
