data_PCOD9176135
_publ_section_title
;
Structure prediction by ZEFSAII (Michael W. Deem and Ramdas Pophale) SiO2 
 PCOD9176135
Probable space group: C 2/M
;
_chemical_formula_sum "Si O2"
_cell_formula_units_Z 64
_cell_length_a 18.310336
_cell_length_b 20.603011
_cell_length_c 11.469784
_cell_angle_alpha 90.000000
_cell_angle_beta 59.132915
_cell_angle_gamma 90.000000
_cell_volume 3714.083024
_symmetry_space_group_name_H-M "C 2/M"
_symmetry_group_IT_number 12
_symmetry_cell_setting 'monoclinic'
loop_
_space_group_symop_operation_xyz
x,y,z
-x,y,-z
-x,-y,-z
x,-y,z
1/2+x,1/2+y,z
1/2-x,1/2+y,-z
1/2-x,1/2-y,-z
1/2+x,1/2-y,z
loop_
_atom_site_type_symbol
_atom_site_label
_atom_site_fract_x
_atom_site_fract_y
_atom_site_fract_z
Si Si1 0.829518 0.792031 0.797490
Si Si2 0.984078 0.764799 0.376381
Si Si3 0.871360 0.574891 0.668560
Si Si4 0.311452 0.072002 0.329279
Si Si5 0.549275 0.880600 0.622322
Si Si6 0.796526 0.198083 0.548075
Si Si7 0.090350 0.425293 0.984824
Si Si8 0.802521 0.649760 0.926382
O O1 0.799097 0.788679 0.686966
O O2 0.817359 0.720307 0.860009
O O3 0.930745 0.803059 0.725742
O O4 0.776548 0.841693 0.920957
O O5 0.972055 0.693719 0.330057
O O6 0.895955 0.802191 0.432751
O O7 0.000000 0.749331 0.500000
O O8 0.857601 0.500000 0.649194
O O9 0.884996 0.617391 0.541142
O O10 0.801889 0.601527 0.816139
O O11 0.963709 0.583396 0.653762
O O12 0.401985 0.082005 0.317617
O O13 0.250695 0.129295 0.421341
O O14 0.336144 0.076970 0.173561
O O15 0.278238 0.000000 0.381184
O O16 0.750000 0.250000 0.500000
O O17 0.086082 0.500000 0.031803
O O18 0.119354 0.375653 0.059291
O O19 0.000000 0.409839 0.000000
#
# Coordination Sequence:
#
# PCOD9176135 Si02
#       8
#     8   8   8   8   8   8   8   8
#     4  10  22  37  53  80 108 148 184 238 274 325
#     4  10  18  34  56  78 110 141 182 228 283 323
#     4  11  20  30  50  81 113 147 182 219 274 347
#     4  11  22  35  52  79 114 142 179 229 280 336
#     4  11  18  33  52  82 114 144 175 227 288 344
#     4  11  21  36  61  83 107 145 189 233 287 338
#     4  10  21  35  52  78 115 153 182 216 276 348
#     4  11  20  35  54  73 112 152 191 220 270 332
#
# _framework density 17.231708999999999
#
# number of rings (size 3 to 8) (size 9 to 14) (size 15 to 20)
#    0.000    1.375    5.000    3.375    0.000    1.000 
#    0.000    0.000    0.000    4.875    0.000    0.000 
#    0.000    2.000    0.000    0.000    0.000    0.000 
#
# Total GULP energy -178367.007491 kJ/mol
# GULP energy per Si atom -5573.968984 kJ/mol
# Density = 1.719249 g / cm^3
# Si number density = 17.231709 Si / 1000 Ang^3
#
#
#
# Elastic Constant Matrix: (Units=GPa)
#
#
# Indices 1 2 3 4 5 6 
#
# 1 69.1103 31.6263 31.6719 0.0000 -4.5044 0.0000
# 2 31.6263 83.0162 29.1156 0.0000 -6.4168 0.0000
# 3 31.6719 29.1156 97.0376 0.0000 -6.6576 0.0000
# 4 0.0000 0.0000 0.0000 19.8680 0.0000 -10.4897
# 5 -4.5044 -6.4168 -6.6576 0.0000 26.1136 0.0000
# 6 0.0000 0.0000 0.0000 -10.4897 0.0000 19.2830
#
#
#
# Elastic Compliance Matrix: (Units=1/GPa)
#
#
# Indices 1 2 3 4 5 6 
#
# 1 0.019178 -0.005666 -0.004507 0.000000 0.000767 0.000000
# 2 -0.005666 0.015276 -0.002589 0.000000 0.002116 0.000000
# 3 -0.004507 -0.002589 0.012678 0.000000 0.001819 0.000000
# 4 0.000000 0.000000 0.000000 0.070613 0.000000 0.038412
# 5 0.000767 0.002116 0.001819 0.000000 0.039410 0.000000
# 6 0.000000 0.000000 0.000000 0.038412 0.000000 0.072755
#
#
# Mechanical properties :
#
#
# Convention : Reuss Voigt Hill
#
# Bulk Modulus (GPa) = 46.27911 48.22130 47.25020
# Shear Modulus (GPa) = 19.03778 23.50294 21.27036
#
# Velocity S-wave (km/s) = 3.32748 3.69716 3.51718
# Velocity P-wave (km/s) = 6.45585 6.80221 6.63129
#
# Compressibility (1/GPa) = 0.02160802
#
# Stress axis : x y z
#
# Youngs Moduli (GPa) = 52.14331 65.46200 78.87814
#
# Poissons Ratio (x) = 0.37092 0.35548
# Poissons Ratio (y) = 0.29546 0.20421
# Poissons Ratio (z) = 0.23500 0.16947
#
# Static dielectric constant tensor:
#      x y z
#    x 1.581040 0.000000 0.009980 
#    y 0.000000 1.573960 0.000000 
#    z 0.009980 0.000000 1.673680 
# 
# From -- ./inp_files/159226.got.cif
#   From: 2010.05.17/outbox.cif.g08.bks.cpg/sg12_80_cif.got.tgz:159226.got - 2010.06.03 13:09:07.
