data_PCOD9176172
_publ_section_title
;
Structure prediction by ZEFSAII (Michael W. Deem and Ramdas Pophale) SiO2 
 PCOD9176172
Probable space group: C 2/M
;
_chemical_formula_sum "Si O2"
_cell_formula_units_Z 44
_cell_length_a 13.936803
_cell_length_b 19.428116
_cell_length_c 16.519432
_cell_angle_alpha 90.000000
_cell_angle_beta 151.687555
_cell_angle_gamma 90.000000
_cell_volume 2121.403401
_symmetry_space_group_name_H-M "C 2/M"
_symmetry_group_IT_number 12
_symmetry_cell_setting 'monoclinic'
loop_
_space_group_symop_operation_xyz
x,y,z
-x,y,-z
-x,-y,-z
x,-y,z
1/2+x,1/2+y,z
1/2-x,1/2+y,-z
1/2-x,1/2-y,-z
1/2+x,1/2-y,z
loop_
_atom_site_type_symbol
_atom_site_label
_atom_site_fract_x
_atom_site_fract_y
_atom_site_fract_z
Si Si1 0.774690 0.500000 0.164253
Si Si2 0.565493 0.862929 0.640857
Si Si3 0.372151 0.292468 0.321740
Si Si4 0.299338 0.000000 0.623020
Si Si5 0.357973 0.618718 0.593343
Si Si6 0.994278 0.000000 0.177009
Si Si7 0.500000 0.124811 0.000000
Si Si8 0.903251 0.500000 0.026552
O O1 0.804614 0.427658 0.232970
O O2 0.996936 0.500000 0.280976
O O3 0.556966 0.500000 0.955945
O O4 0.500000 0.877170 0.500000
O O5 0.668885 0.788542 0.720157
O O6 0.361152 0.853856 0.542507
O O7 0.500000 0.300364 0.500000
O O8 0.492995 0.323885 0.333402
O O9 0.157235 0.330719 0.167188
O O10 0.173974 0.066317 0.504924
O O11 0.374179 0.000000 0.770229
O O12 0.417384 0.568209 0.713401
O O13 0.762519 0.000000 0.030015
O O14 0.371373 0.070236 0.955705
#
# Coordination Sequence:
#
# PCOD9176172 Si02
#       8
#     4   8   8   4   8   4   4   4
#     4   9  19  38  60  87 114 153 207 263 309 354
#     4  10  22  42  64  85 118 162 211 262 309 363
#     4  11  23  40  62  91 131 166 204 250 311 373
#     4   8  17  30  60  82 116 157 204 242 298 356
#     4  10  19  38  61  91 121 164 204 253 307 369
#     4  10  19  36  61  94 123 153 205 257 302 371
#     4  11  22  36  58  91 130 162 204 245 300 372
#     4  10  18  34  56  89 126 164 195 247 298 363
#
# _framework density 20.740985999999999
#
# number of rings (size 3 to 8) (size 9 to 14) (size 15 to 20)
#    0.000    2.000    1.818    2.455    0.000    0.000 
#    6.545    4.545    0.000    0.000    0.000    0.000 
#    0.000    0.000    0.000    0.000    0.000    0.000 
#
# Total GULP energy -122512.280076 kJ/mol
# GULP energy per Si atom -5568.740003 kJ/mol
# Density = 2.069378 g / cm^3
# Si number density = 20.740986 Si / 1000 Ang^3
#
#
#
# Elastic Constant Matrix: (Units=GPa)
#
#
# Indices 1 2 3 4 5 6 
#
# 1 47.8370 19.1672 -0.5511 0.0312 -1.7567 0.0155
# 2 19.1672 156.7339 65.8741 -0.0238 -17.6336 0.0192
# 3 -0.5511 65.8741 88.3327 0.0315 -15.6609 0.0576
# 4 0.0312 -0.0238 0.0315 17.2268 0.0096 -0.6332
# 5 -1.7567 -17.6336 -15.6609 0.0096 29.2350 0.0172
# 6 0.0155 0.0192 0.0576 -0.6332 0.0172 3.2729
#
#
#
# Elastic Compliance Matrix: (Units=1/GPa)
#
#
# Indices 1 2 3 4 5 6 
#
# 1 0.022600 -0.004075 0.003298 -0.000059 0.000667 -0.000156
# 2 -0.004075 0.010145 -0.007237 0.000037 0.001997 0.000084
# 3 0.003298 -0.007237 0.017679 -0.000063 0.005304 -0.000325
# 4 -0.000059 0.000037 -0.000063 0.058465 -0.000041 0.011313
# 5 0.000667 0.001997 0.005304 -0.000041 0.038292 -0.000317
# 6 -0.000156 0.000084 -0.000325 0.011313 -0.000317 0.307740
#
#
# Mechanical properties :
#
#
# Convention : Reuss Voigt Hill
#
# Bulk Modulus (GPa) = 29.07288 51.32045 40.19666
# Shear Modulus (GPa) = 10.36456 23.84116 17.10286
#
# Velocity S-wave (km/s) = 2.23785 3.39406 2.87469
# Velocity P-wave (km/s) = 4.55246 6.33694 5.51732
#
# Compressibility (1/GPa) = 0.03439631
#
# Stress axis : x y z
#
# Youngs Moduli (GPa) = 44.24848 98.57157 56.56456
#
# Poissons Ratio (x) = 0.40167 -0.18656
# Poissons Ratio (y) = 0.18031 0.40935
# Poissons Ratio (z) = -0.14594 0.71336
#
# Static dielectric constant tensor:
#      x y z
#    x 1.912540 0.000000 -0.131140 
#    y 0.000000 1.711880 -0.000020 
#    z -0.131140 -0.000020 1.848400 
# 
# From -- ./inp_files/61277.got.cif
#   From: 2010.05.17/outbox.cif.g08.bks.cpg/sg12_31_cif.got.tgz:61277.got - 2010.06.03 13:09:07.
