data_PCOD9176933
_publ_section_title
;
Structure prediction by ZEFSAII (Michael W. Deem and Ramdas Pophale) SiO2 
 PCOD9176933
Probable space group: C 2/M
;
_chemical_formula_sum "Si O2"
_cell_formula_units_Z 64
_cell_length_a 14.284057
_cell_length_b 24.917451
_cell_length_c 18.580031
_cell_angle_alpha 90.000000
_cell_angle_beta 151.913444
_cell_angle_gamma 90.000000
_cell_volume 3113.454916
_symmetry_space_group_name_H-M "C 2/M"
_symmetry_group_IT_number 12
_symmetry_cell_setting 'monoclinic'
loop_
_space_group_symop_operation_xyz
x,y,z
-x,y,-z
-x,-y,-z
x,-y,z
1/2+x,1/2+y,z
1/2-x,1/2+y,-z
1/2-x,1/2-y,-z
1/2+x,1/2-y,z
loop_
_atom_site_type_symbol
_atom_site_label
_atom_site_fract_x
_atom_site_fract_y
_atom_site_fract_z
Si Si1 0.448418 0.823591 0.360380
Si Si2 0.165382 0.938970 0.551348
Si Si3 0.942601 0.664592 0.735083
Si Si4 0.649956 0.646013 0.922417
Si Si5 0.334773 0.557231 0.949647
Si Si6 0.202165 0.774687 0.310674
Si Si7 0.030008 0.441137 0.622339
Si Si8 0.445471 0.439818 0.685817
O O1 0.478040 0.825197 0.293798
O O2 0.291262 0.783530 0.290939
O O3 0.655063 0.807054 0.537691
O O4 0.390999 0.883621 0.349803
O O5 0.323187 0.891001 0.659191
O O6 0.055088 0.935644 0.400206
O O7 0.000000 0.932400 0.500000
O O8 0.250042 0.000000 0.614419
O O9 0.806876 0.714312 0.667207
O O10 0.121787 0.662178 0.914095
O O11 0.512104 0.697868 0.831289
O O12 0.574532 0.607175 0.807871
O O13 0.623852 0.607694 0.973845
O O14 0.350372 0.500000 0.999007
O O15 0.122984 0.558042 0.765606
O O16 0.500000 0.557245 0.000000
O O17 0.090936 0.500000 0.633520
O O18 0.791773 0.436854 0.456709
O O19 0.511389 0.500000 0.750578
#
# Coordination Sequence:
#
# PCOD9176933 Si02
#       8
#     8   8   8   8   8   8   8   8
#     4  11  22  44  68  92 128 175 222 280 325 389
#     4  10  22  43  74 102 128 164 219 281 338 399
#     4  12  25  43  69  95 130 177 222 277 334 397
#     4  12  22  39  61  90 139 174 221 265 331 393
#     4  10  20  33  55  90 128 170 216 261 319 389
#     4  11  26  41  62  96 129 174 231 275 326 385
#     4  10  18  36  62  94 127 166 212 258 319 392
#     4  10  20  37  63  97 132 169 208 264 329 395
#
# _framework density 20.555942000000002
#
# number of rings (size 3 to 8) (size 9 to 14) (size 15 to 20)
#    0.000    1.250    3.750    1.875    1.750    1.000 
#    0.000    2.500    0.000    2.250    0.000    0.000 
#    0.000    0.000    0.000    0.000    0.000    0.000 
#
# Total GULP energy -178532.063424 kJ/mol
# GULP energy per Si atom -5579.126982 kJ/mol
# Density = 2.050916 g / cm^3
# Si number density = 20.555942 Si / 1000 Ang^3
#
#
#
# Elastic Constant Matrix: (Units=GPa)
#
#
# Indices 1 2 3 4 5 6 
#
# 1 62.4290 41.5859 17.5993 -0.0007 2.4619 -0.0003
# 2 41.5859 143.4081 34.3325 -0.0004 3.1605 -0.0002
# 3 17.5993 34.3325 94.2272 0.0002 0.3398 0.0000
# 4 -0.0007 -0.0004 0.0002 26.6938 0.0006 -1.0711
# 5 2.4619 3.1605 0.3398 0.0006 13.0452 -0.0001
# 6 -0.0003 -0.0002 0.0000 -1.0711 -0.0001 22.8877
#
#
#
# Elastic Compliance Matrix: (Units=1/GPa)
#
#
# Indices 1 2 3 4 5 6 
#
# 1 0.020203 -0.005372 -0.001807 0.000001 -0.002464 0.000000
# 2 -0.005372 0.009109 -0.002312 0.000000 -0.001133 0.000000
# 3 -0.001807 -0.002312 0.011790 0.000000 0.000594 0.000000
# 4 0.000001 0.000000 0.000000 0.037532 -0.000002 0.001756
# 5 -0.002464 -0.001133 0.000594 -0.000002 0.077381 0.000000
# 6 0.000000 0.000000 0.000000 0.001756 0.000000 0.043774
#
#
# Mechanical properties :
#
#
# Convention : Reuss Voigt Hill
#
# Bulk Modulus (GPa) = 45.20506 54.12220 49.66363
# Shear Modulus (GPa) = 22.10976 26.29510 24.20243
#
# Velocity S-wave (km/s) = 3.28318 3.58047 3.43504
# Velocity P-wave (km/s) = 6.03418 6.59389 6.32023
#
# Compressibility (1/GPa) = 0.02212142
#
# Stress axis : x y z
#
# Youngs Moduli (GPa) = 49.49757 109.77977 84.81518
#
# Poissons Ratio (x) = 0.58968 0.15329
# Poissons Ratio (y) = 0.26588 0.19606
# Poissons Ratio (z) = 0.08946 0.25377
#
# Static dielectric constant tensor:
#      x y z
#    x 1.765660 0.000000 0.010830 
#    y 0.000000 1.778480 0.000000 
#    z 0.010830 0.000000 1.747400 
# 
# From -- ./inp_files/272866.got.cif
#   From: 2010.05.17/outbox.cif.g08.bks.cpg/sg12_137_cif.got.tgz:272866.got - 2010.06.03 13:09:07.
