data_PCOD9176338
_publ_section_title
;
Structure prediction by ZEFSAII (Michael W. Deem and Ramdas Pophale) SiO2 
 PCOD9176338
Probable space group: C 2/M
;
_chemical_formula_sum "Si O2"
_cell_formula_units_Z 48
_cell_length_a 11.018824
_cell_length_b 24.700666
_cell_length_c 12.330262
_cell_angle_alpha 90.000000
_cell_angle_beta 46.997559
_cell_angle_gamma 90.000000
_cell_volume 2454.293084
_symmetry_space_group_name_H-M "C 2/M"
_symmetry_group_IT_number 12
_symmetry_cell_setting 'monoclinic'
loop_
_space_group_symop_operation_xyz
x,y,z
-x,y,-z
-x,-y,-z
x,-y,z
1/2+x,1/2+y,z
1/2-x,1/2+y,-z
1/2-x,1/2-y,-z
1/2+x,1/2-y,z
loop_
_atom_site_type_symbol
_atom_site_label
_atom_site_fract_x
_atom_site_fract_y
_atom_site_fract_z
Si Si1 0.181896 0.381984 0.836464
Si Si2 0.320848 0.308227 0.932585
Si Si3 0.703477 0.382438 0.858129
Si Si4 0.298854 0.000000 0.107264
Si Si5 0.185246 0.181949 0.425059
Si Si6 0.707855 0.304119 0.666578
Si Si7 0.304945 0.500000 0.083750
O O1 0.281323 0.336719 0.843623
O O2 0.254188 0.442541 0.807968
O O3 0.190205 0.359116 0.710479
O O4 0.000000 0.382331 0.000000
O O5 0.516777 0.299932 0.818529
O O6 0.250000 0.250000 0.000000
O O7 0.246880 0.348434 0.067210
O O8 0.766374 0.350335 0.714289
O O9 0.763447 0.443913 0.827622
O O10 0.500000 0.384352 0.000000
O O11 0.500000 0.000000 0.000000
O O12 0.234150 0.000000 0.021862
O O13 0.212799 0.244626 0.372237
O O14 0.211248 0.180109 0.538283
O O15 0.000000 0.166467 0.500000
O O16 0.500000 0.500000 0.000000
#
# Coordination Sequence:
#
# PCOD9176338 Si02
#       7
#     8   8   8   4   8   8   4
#     4  11  22  39  61  88 120 159 205 249 303 367
#     4  11  19  32  59  87 119 152 202 248 294 360
#     4   9  19  33  54  84 113 151 196 246 293 355
#     4  10  22  40  60  92 122 160 203 259 314 360
#     4  11  22  39  60  84 125 162 195 247 310 366
#     4  10  22  38  54  84 125 157 196 245 309 366
#     4  10  18  34  59  86 120 158 197 257 314 348
#
# _framework density 19.557566999999999
#
# number of rings (size 3 to 8) (size 9 to 14) (size 15 to 20)
#    0.000    1.667    3.333    2.000    0.000    1.333 
#    0.000    1.250    0.000    0.000    0.000    2.917 
#    0.000    0.000    0.000    0.000    0.000    0.000 
#
# Total GULP energy -133799.917448 kJ/mol
# GULP energy per Si atom -5574.996560 kJ/mol
# Density = 1.951305 g / cm^3
# Si number density = 19.557567 Si / 1000 Ang^3
#
#
#
# Elastic Constant Matrix: (Units=GPa)
#
#
# Indices 1 2 3 4 5 6 
#
# 1 42.8286 9.7519 18.6851 0.0000 13.3114 0.0000
# 2 9.7519 133.0646 65.9631 0.0000 30.0603 0.0000
# 3 18.6851 65.9631 96.5296 0.0000 26.5710 0.0000
# 4 0.0000 0.0000 0.0000 22.6568 0.0000 -6.2725
# 5 13.3114 30.0603 26.5710 0.0000 33.6688 0.0000
# 6 0.0000 0.0000 0.0000 -6.2725 0.0000 58.9572
#
#
#
# Elastic Compliance Matrix: (Units=1/GPa)
#
#
# Indices 1 2 3 4 5 6 
#
# 1 0.027673 0.002246 -0.004252 0.000000 -0.009591 0.000000
# 2 0.002246 0.012287 -0.007112 0.000000 -0.006246 0.000000
# 3 -0.004252 -0.007112 0.017670 0.000000 -0.005915 0.000000
# 4 0.000000 0.000000 0.000000 0.045476 0.000000 0.004838
# 5 -0.009591 -0.006246 -0.005915 0.000000 0.043737 0.000000
# 6 0.000000 0.000000 0.000000 0.004838 0.000000 0.017476
#
#
# Mechanical properties :
#
#
# Convention : Reuss Voigt Hill
#
# Bulk Modulus (GPa) = 25.38304 51.24700 38.31502
# Shear Modulus (GPa) = 25.55104 34.92476 30.23790
#
# Velocity S-wave (km/s) = 3.61841 4.23039 3.93631
# Velocity P-wave (km/s) = 5.51942 7.07966 6.34766
#
# Compressibility (1/GPa) = 0.03939639
#
# Stress axis : x y z
#
# Youngs Moduli (GPa) = 36.13595 81.38709 56.59171
#
# Poissons Ratio (x) = -0.18281 0.24060
# Poissons Ratio (y) = -0.08117 0.40247
# Poissons Ratio (z) = 0.15363 0.57881
#
# Static dielectric constant tensor:
#      x y z
#    x 1.783960 0.000000 0.024950 
#    y 0.000000 1.673940 0.000000 
#    z 0.024950 0.000000 1.639590 
# 
# From -- ./inp_files/51516.got.cif
#   From: 2010.05.17/outbox.cif.g08.bks.cpg/sg12_26_cif.got.tgz:51516.got - 2010.06.03 13:09:07.
