data_PCOD9176546
_publ_section_title
;
Structure prediction by ZEFSAII (Michael W. Deem and Ramdas Pophale) SiO2 
 PCOD9176546
Probable space group: C 2/M
;
_chemical_formula_sum "Si O2"
_cell_formula_units_Z 44
_cell_length_a 20.253590
_cell_length_b 17.004355
_cell_length_c 9.260238
_cell_angle_alpha 90.000000
_cell_angle_beta 48.288456
_cell_angle_gamma 90.000000
_cell_volume 2380.765083
_symmetry_space_group_name_H-M "C 2/M"
_symmetry_group_IT_number 12
_symmetry_cell_setting 'monoclinic'
loop_
_space_group_symop_operation_xyz
x,y,z
-x,y,-z
-x,-y,-z
x,-y,z
1/2+x,1/2+y,z
1/2-x,1/2+y,-z
1/2-x,1/2-y,-z
1/2+x,1/2-y,z
loop_
_atom_site_type_symbol
_atom_site_label
_atom_site_fract_x
_atom_site_fract_y
_atom_site_fract_z
Si Si1 0.851935 0.088616 0.321016
Si Si2 0.635250 0.201483 0.999864
Si Si3 0.715875 0.411489 0.251185
Si Si4 0.103043 0.765379 0.351886
Si Si5 0.229360 0.702418 0.381700
Si Si6 0.500000 0.287853 0.000000
O O1 0.825427 0.090242 0.527792
O O2 0.763119 0.115460 0.365939
O O3 0.879490 0.000000 0.243033
O O4 0.926834 0.153384 0.176116
O O5 0.683040 0.119524 0.891577
O O6 0.707458 0.263533 0.834954
O O7 0.623251 0.209832 0.187090
O O8 0.548007 0.230565 0.044225
O O9 0.709698 0.500000 0.204039
O O10 0.658502 0.346004 0.251946
O O11 0.134260 0.722736 0.454541
O O12 0.000000 0.784116 0.500000
O O13 0.250000 0.750000 0.500000
#
# Coordination Sequence:
#
# PCOD9176546 Si02
#       6
#     8   8   8   8   8   4
#     4  10  19  33  56  86 114 145 184 231 282 331
#     4  10  21  35  57  82 111 150 196 223 274 341
#     4  10  20  36  56  80 113 148 185 230 281 333
#     4  11  22  36  58  87 111 144 193 234 278 332
#     4  10  18  35  56  79 112 152 185 216 272 342
#     4  10  21  34  57  82 116 150 184 232 277 332
#
# _framework density 18.481452999999998
#
# number of rings (size 3 to 8) (size 9 to 14) (size 15 to 20)
#    0.000    1.818    3.636    3.545    2.545    0.364 
#    0.000    9.545    0.000    2.182    0.000    0.000 
#    0.000    0.000    0.000    0.000    0.000    0.000 
#
# Total GULP energy -122539.947638 kJ/mol
# GULP energy per Si atom -5569.997620 kJ/mol
# Density = 1.843939 g / cm^3
# Si number density = 18.481453 Si / 1000 Ang^3
#
#
#
# Elastic Constant Matrix: (Units=GPa)
#
#
# Indices 1 2 3 4 5 6 
#
# 1 128.9062 38.0207 28.8060 0.0000 -9.2117 0.0000
# 2 38.0207 49.6022 37.1767 0.0000 -19.9500 0.0000
# 3 28.8060 37.1767 62.3119 0.0000 3.6568 0.0000
# 4 0.0000 0.0000 0.0000 22.9290 0.0000 -6.1005
# 5 -9.2117 -19.9500 3.6568 0.0000 23.3325 0.0000
# 6 0.0000 0.0000 0.0000 -6.1005 0.0000 16.2508
#
#
#
# Elastic Compliance Matrix: (Units=1/GPa)
#
#
# Indices 1 2 3 4 5 6 
#
# 1 0.010740 -0.017912 0.006431 0.000000 -0.012083 0.000000
# 2 -0.017912 0.190279 -0.115439 0.000000 0.173715 0.000000
# 3 0.006431 -0.115439 0.088405 0.000000 -0.110020 0.000000
# 4 0.000000 0.000000 0.000000 0.048452 0.000000 0.018189
# 5 -0.012083 0.173715 -0.110020 0.000000 0.203862 0.000000
# 6 0.000000 0.000000 0.000000 0.018189 0.000000 0.068363
#
#
# Mechanical properties :
#
#
# Convention : Reuss Voigt Hill
#
# Bulk Modulus (GPa) = 28.10216 49.86970 38.98593
# Shear Modulus (GPa) = 5.70904 21.62360 13.66632
#
# Velocity S-wave (km/s) = 1.75948 3.42426 2.72225
# Velocity P-wave (km/s) = 4.40072 6.53271 5.56968
#
# Compressibility (1/GPa) = 0.03558445
#
# Stress axis : x y z
#
# Youngs Moduli (GPa) = 93.10771 5.25543 11.31154
#
# Poissons Ratio (x) = 0.09414 -0.07274
# Poissons Ratio (y) = 1.66779 1.30579
# Poissons Ratio (z) = -0.59877 0.60668
#
# Static dielectric constant tensor:
#      x y z
#    x 1.710230 0.000000 -0.016000 
#    y 0.000000 1.657170 0.000000 
#    z -0.016000 0.000000 1.655410 
# 
# From -- ./inp_files/87718.got.cif
#   From: 2010.05.17/outbox.cif.g08.bks.cpg/sg12_44_cif.got.tgz:87718.got - 2010.06.03 13:09:07.
