data_PCOD9176763
_publ_section_title
;
Structure prediction by ZEFSAII (Michael W. Deem and Ramdas Pophale) SiO2 
 PCOD9176763
Probable space group: C 2/M
;
_chemical_formula_sum "Si O2"
_cell_formula_units_Z 48
_cell_length_a 25.939569
_cell_length_b 21.211762
_cell_length_c 10.895682
_cell_angle_alpha 90.000000
_cell_angle_beta 161.476067
_cell_angle_gamma 90.000000
_cell_volume 1904.636771
_symmetry_space_group_name_H-M "C 2/M"
_symmetry_group_IT_number 12
_symmetry_cell_setting 'monoclinic'
loop_
_space_group_symop_operation_xyz
x,y,z
-x,y,-z
-x,-y,-z
x,-y,z
1/2+x,1/2+y,z
1/2-x,1/2+y,-z
1/2-x,1/2-y,-z
1/2+x,1/2-y,z
loop_
_atom_site_type_symbol
_atom_site_label
_atom_site_fract_x
_atom_site_fract_y
_atom_site_fract_z
Si Si1 0.280933 0.299137 0.961084
Si Si2 0.465549 0.746256 0.148623
Si Si3 0.103390 0.571519 0.853923
Si Si4 0.311661 0.925140 0.580830
Si Si5 0.810925 0.841918 0.483084
Si Si6 0.736991 0.929838 0.804323
O O1 0.298865 0.373006 0.028357
O O2 0.116740 0.292852 0.509612
O O3 0.250000 0.250000 0.000000
O O4 0.420838 0.278884 0.183401
O O5 0.526416 0.691815 0.195764
O O6 0.312600 0.785895 0.760223
O O7 0.167725 0.500000 0.982662
O O8 0.000000 0.588991 0.500000
O O9 0.959437 0.568175 0.629027
O O10 0.232650 0.622545 0.187788
O O11 0.207450 0.892586 0.451429
O O12 0.229307 0.916228 0.261960
O O13 0.318279 0.000000 0.619125
O O14 0.500000 0.902179 0.000000
O O15 0.794066 0.000000 0.966839
#
# Coordination Sequence:
#
# PCOD9176763 Si02
#       6
#     8   8   8   8   8   8
#     4  11  22  41  64  90 126 171 211 259 317 393
#     4  10  24  37  59  89 125 165 214 257 317 381
#     4  10  20  34  60  92 122 159 210 269 320 377
#     4  10  18  35  66  94 122 162 218 273 316 373
#     4  11  21  40  60  91 125 168 211 265 320 383
#     4  10  21  38  63  95 123 162 214 268 321 375
#
# _framework density 25.201656
#
# number of rings (size 3 to 8) (size 9 to 14) (size 15 to 20)
#    0.000    1.667    3.333    1.000    4.667    0.000 
#    0.000   11.667    0.000    4.000    0.000    0.000 
#    0.000    0.000    0.000    0.000    0.000    0.000 
#
# Total GULP energy -134336.394883 kJ/mol
# GULP energy per Si atom -5597.349787 kJ/mol
# Density = 2.514430 g / cm^3
# Si number density = 25.201656 Si / 1000 Ang^3
#
#
#
# Elastic Constant Matrix: (Units=GPa)
#
#
# Indices 1 2 3 4 5 6 
#
# 1 155.6144 71.6208 14.1528 0.0000 7.4774 0.0000
# 2 71.6208 176.3476 36.0458 0.0000 -2.2274 0.0000
# 3 14.1528 36.0458 61.9379 0.0000 11.9797 0.0000
# 4 0.0000 0.0000 0.0000 28.8934 0.0000 -7.7653
# 5 7.4774 -2.2274 11.9797 0.0000 34.3231 0.0000
# 6 0.0000 0.0000 0.0000 -7.7653 0.0000 42.5520
#
#
#
# Elastic Compliance Matrix: (Units=1/GPa)
#
#
# Indices 1 2 3 4 5 6 
#
# 1 0.008050 -0.003413 0.000567 0.000000 -0.002173 0.000000
# 2 -0.003413 0.007994 -0.004415 0.000000 0.002803 0.000000
# 3 0.000567 -0.004415 0.020015 0.000000 -0.007396 0.000000
# 4 0.000000 0.000000 0.000000 0.036395 0.000000 0.006642
# 5 -0.002173 0.002803 -0.007396 0.000000 0.032372 0.000000
# 6 0.000000 0.000000 0.000000 0.006642 0.000000 0.024713
#
#
# Mechanical properties :
#
#
# Convention : Reuss Voigt Hill
#
# Bulk Modulus (GPa) = 46.42853 70.83763 58.63308
# Shear Modulus (GPa) = 33.06021 39.29240 36.17631
#
# Velocity S-wave (km/s) = 3.62584 3.95285 3.79287
# Velocity P-wave (km/s) = 5.99932 7.00020 6.51899
#
# Compressibility (1/GPa) = 0.02153848
#
# Stress axis : x y z
#
# Youngs Moduli (GPa) = 124.22984 125.08788 49.96141
#
# Poissons Ratio (x) = 0.42687 -0.02833
# Poissons Ratio (y) = 0.42394 0.22057
# Poissons Ratio (z) = -0.07043 0.55225
#
# Static dielectric constant tensor:
#      x y z
#    x 2.042760 0.000000 -0.035600 
#    y 0.000000 1.986090 0.000000 
#    z -0.035600 0.000000 2.028420 
# 
# From -- ./inp_files/184834.got.cif
#   From: 2010.05.17/outbox.cif.g08.bks.cpg/sg12_93_cif.got.tgz:184834.got - 2010.06.03 13:09:07.
