data_PCOD9176767
_publ_section_title
;
Structure prediction by ZEFSAII (Michael W. Deem and Ramdas Pophale) SiO2 
 PCOD9176767
Probable space group: C 2/M
;
_chemical_formula_sum "Si O2"
_cell_formula_units_Z 40
_cell_length_a 17.972931
_cell_length_b 15.002227
_cell_length_c 6.989121
_cell_angle_alpha 90.000000
_cell_angle_beta 66.328473
_cell_angle_gamma 90.000000
_cell_volume 1725.946568
_symmetry_space_group_name_H-M "C 2/M"
_symmetry_group_IT_number 12
_symmetry_cell_setting 'monoclinic'
loop_
_space_group_symop_operation_xyz
x,y,z
-x,y,-z
-x,-y,-z
x,-y,z
1/2+x,1/2+y,z
1/2-x,1/2+y,-z
1/2-x,1/2-y,-z
1/2+x,1/2-y,z
loop_
_atom_site_type_symbol
_atom_site_label
_atom_site_fract_x
_atom_site_fract_y
_atom_site_fract_z
Si Si1 0.334032 0.227291 0.306300
Si Si2 0.900441 0.851582 0.753925
Si Si3 0.280312 0.100386 0.022238
Si Si4 0.072688 0.098315 0.711713
Si Si5 0.589410 0.849411 0.407687
O O1 0.250000 0.250000 0.500000
O O2 0.314188 0.171318 0.139570
O O3 0.383819 0.318746 0.232393
O O4 0.385154 0.168277 0.401582
O O5 0.811589 0.870435 0.927035
O O6 0.901607 0.894820 0.539726
O O7 0.916055 0.747514 0.691679
O O8 0.975535 0.888479 0.798168
O O9 0.279250 0.000000 0.102467
O O10 0.338811 0.102579 0.778961
O O11 0.093810 0.000000 0.761479
O O12 0.500000 0.890457 0.500000
#
# Coordination Sequence:
#
# PCOD9176767 Si02
#       5
#     8   8   8   8   8
#     4  11  23  40  69 103 139 182 223 284 343 409
#     4  10  18  38  68  99 133 174 221 281 348 409
#     4  12  26  43  71 104 138 184 236 282 336 407
#     4  10  18  35  68 102 136 175 218 279 353 412
#     4  11  23  46  69  97 136 188 230 280 345 406
#
# _framework density 23.175687
#
# number of rings (size 3 to 8) (size 9 to 14) (size 15 to 20)
#    0.000    1.200    8.000    3.000    0.000    2.000 
#    0.000    1.000    0.000    2.400    0.000    0.000 
#    0.000    0.000    0.000    0.000    0.000    0.000 
#
# Total GULP energy -112038.492374 kJ/mol
# GULP energy per Si atom -5601.924619 kJ/mol
# Density = 2.312294 g / cm^3
# Si number density = 23.175687 Si / 1000 Ang^3
#
#
#
# Elastic Constant Matrix: (Units=GPa)
#
#
# Indices 1 2 3 4 5 6 
#
# 1 165.7252 55.2826 63.2941 0.0000 -19.5701 0.0000
# 2 55.2826 153.5394 34.3857 0.0000 3.5353 0.0000
# 3 63.2941 34.3857 123.4052 0.0000 -29.0332 0.0000
# 4 0.0000 0.0000 0.0000 24.7761 0.0000 -6.2521
# 5 -19.5701 3.5353 -29.0332 0.0000 48.6146 0.0000
# 6 0.0000 0.0000 0.0000 -6.2521 0.0000 5.9038
#
#
#
# Elastic Compliance Matrix: (Units=1/GPa)
#
#
# Indices 1 2 3 4 5 6 
#
# 1 0.008200 -0.002269 -0.003209 0.000000 0.001550 0.000000
# 2 -0.002269 0.007734 -0.001557 0.000000 -0.002406 0.000000
# 3 -0.003209 -0.001557 0.011525 0.000000 0.005704 0.000000
# 4 0.000000 0.000000 0.000000 0.055081 0.000000 0.058331
# 5 0.001550 -0.002406 0.005704 0.000000 0.024776 0.000000
# 6 0.000000 0.000000 0.000000 0.058331 0.000000 0.231154
#
#
# Mechanical properties :
#
#
# Convention : Reuss Voigt Hill
#
# Bulk Modulus (GPa) = 74.69091 83.17719 78.93405
# Shear Modulus (GPa) = 14.00551 35.17273 24.58912
#
# Velocity S-wave (km/s) = 2.46096 3.89994 3.26081
# Velocity P-wave (km/s) = 6.35399 7.49981 6.95055
#
# Compressibility (1/GPa) = 0.01338851
#
# Stress axis : x y z
#
# Youngs Moduli (GPa) = 121.95825 129.29557 86.76775
#
# Poissons Ratio (x) = 0.29342 0.27840
# Poissons Ratio (y) = 0.27677 0.13511
# Poissons Ratio (z) = 0.39131 0.20133
#
# Static dielectric constant tensor:
#      x y z
#    x 1.849540 0.000000 0.013240 
#    y 0.000000 1.848690 0.000000 
#    z 0.013240 0.000000 1.913190 
# 
# From -- ./inp_files/72824.got.cif
#   From: 2010.05.17/outbox.cif.g08.bks.cpg/sg12_37_cif.got.tgz:72824.got - 2010.06.03 13:09:07.
