data_PCOD9176195
_publ_section_title
;
Structure prediction by ZEFSAII (Michael W. Deem and Ramdas Pophale) SiO2 
 PCOD9176195
Probable space group: C 2/M
;
_chemical_formula_sum "Si O2"
_cell_formula_units_Z 64
_cell_length_a 19.560313
_cell_length_b 7.491649
_cell_length_c 22.589655
_cell_angle_alpha 90.000000
_cell_angle_beta 131.037321
_cell_angle_gamma 90.000000
_cell_volume 2496.873901
_symmetry_space_group_name_H-M "C 2/M"
_symmetry_group_IT_number 12
_symmetry_cell_setting 'monoclinic'
loop_
_space_group_symop_operation_xyz
x,y,z
-x,y,-z
-x,-y,-z
x,-y,z
1/2+x,1/2+y,z
1/2-x,1/2+y,-z
1/2-x,1/2-y,-z
1/2+x,1/2-y,z
loop_
_atom_site_type_symbol
_atom_site_label
_atom_site_fract_x
_atom_site_fract_y
_atom_site_fract_z
Si Si1 0.171893 0.282112 0.208079
Si Si2 0.172088 0.782046 0.530471
Si Si3 0.475758 0.218780 0.116121
Si Si4 0.372406 0.201437 0.628559
Si Si5 0.933089 0.797771 0.282072
Si Si6 0.818038 0.700150 0.111319
Si Si7 0.631341 0.282895 0.632463
Si Si8 0.368497 0.796075 0.946512
O O1 0.175720 0.500000 0.210471
O O2 0.267809 0.226872 0.289372
O O3 0.157837 0.219501 0.132234
O O4 0.078998 0.229414 0.188275
O O5 0.277779 0.732998 0.601099
O O6 0.144898 0.704308 0.452127
O O7 0.116764 0.724972 0.556764
O O8 0.168108 0.000000 0.521937
O O9 0.396525 0.280725 0.114809
O O10 0.473642 0.000000 0.116530
O O11 0.446740 0.277411 0.033488
O O12 0.467542 0.296563 0.689262
O O13 0.385708 0.000000 0.657799
O O14 0.865035 0.693499 0.202158
O O15 0.933539 0.732151 0.350153
O O16 0.897596 0.000000 0.263079
O O17 0.797758 0.500000 0.079217
O O18 0.722602 0.794579 0.065543
O O19 0.628353 0.500000 0.627040
O O20 0.394133 0.000000 0.948621
#
# Coordination Sequence:
#
# PCOD9176195 Si02
#       8
#     8   8   8   8   8   8   8   8
#     4   9  16  30  54  82 107 134 183 236 269 307
#     4   9  19  37  61  85 111 144 183 222 261 314
#     4   9  19  31  52  82 108 139 183 230 273 321
#     4  10  21  37  59  87 116 145 174 215 272 324
#     4  11  22  38  58  81 109 144 186 228 267 315
#     4  11  22  35  52  79 112 146 180 221 277 332
#     4   9  18  33  56  82 105 141 188 230 265 306
#     4  10  18  34  57  80 106 140 182 229 275 319
#
# _framework density 25.632052000000002
#
# number of rings (size 3 to 8) (size 9 to 14) (size 15 to 20)
#    0.000    2.250    1.250    1.875    1.750    2.500 
#    0.000    4.375    0.000    3.000    0.000    0.000 
#    0.000    0.000    0.000    0.000    0.000    0.000 
#
# Total GULP energy -178913.176225 kJ/mol
# GULP energy per Si atom -5591.036757 kJ/mol
# Density = 2.557371 g / cm^3
# Si number density = 25.632052 Si / 1000 Ang^3
#
#
#
# Elastic Constant Matrix: (Units=GPa)
#
#
# Indices 1 2 3 4 5 6 
#
# 1 109.8443 1.3411 1.6365 0.0000 -1.2657 0.0000
# 2 1.3411 66.2100 -0.7164 0.0000 2.1642 0.0000
# 3 1.6365 -0.7164 32.1444 0.0000 -2.9207 0.0000
# 4 0.0000 0.0000 0.0000 2.7054 0.0000 4.2517
# 5 -1.2657 2.1642 -2.9207 0.0000 49.2316 0.0000
# 6 0.0000 0.0000 0.0000 4.2517 0.0000 9.7967
#
#
#
# Elastic Compliance Matrix: (Units=1/GPa)
#
#
# Indices 1 2 3 4 5 6 
#
# 1 0.009115 -0.000197 -0.000449 0.000000 0.000216 0.000000
# 2 -0.000197 0.015132 0.000288 -0.000001 -0.000653 0.000000
# 3 -0.000449 0.000288 0.031305 0.000000 0.001833 0.000000
# 4 0.000000 -0.000001 0.000000 1.162460 0.000000 -0.504493
# 5 0.000216 -0.000653 0.001833 0.000000 0.020455 0.000000
# 6 0.000000 0.000000 0.000000 -0.504493 0.000000 0.321019
#
#
# Mechanical properties :
#
#
# Convention : Reuss Voigt Hill
#
# Bulk Modulus (GPa) = 18.23558 23.63567 20.93563
# Shear Modulus (GPa) = 3.16760 26.07592 14.62176
#
# Velocity S-wave (km/s) = 1.11287 3.19300 2.39100
# Velocity P-wave (km/s) = 2.96330 4.77858 3.97592
#
# Compressibility (1/GPa) = 0.05483784
#
# Stress axis : x y z
#
# Youngs Moduli (GPa) = 109.70477 66.08553 31.94336
#
# Poissons Ratio (x) = 0.01299 0.01434
# Poissons Ratio (y) = 0.02156 -0.00920
# Poissons Ratio (z) = 0.04923 -0.01903
#
# Static dielectric constant tensor:
#      x y z
#    x 2.017600 0.000000 -0.039250 
#    y 0.000000 2.089740 0.000000 
#    z -0.039250 0.000000 1.990960 
# 
# From -- ./inp_files/346172.got.cif
#   From: 2010.05.17/outbox.cif.g08.bks.cpg/sg12_174_cif.got.tgz:346172.got - 2010.06.03 13:09:07.
