data_PCOD9176299
_publ_section_title
;
Structure prediction by ZEFSAII (Michael W. Deem and Ramdas Pophale) SiO2 
 PCOD9176299
Probable space group: C 2/M
;
_chemical_formula_sum "Si O2"
_cell_formula_units_Z 42
_cell_length_a 15.017048
_cell_length_b 7.399620
_cell_length_c 17.305338
_cell_angle_alpha 90.000000
_cell_angle_beta 120.536128
_cell_angle_gamma 90.000000
_cell_volume 1656.277254
_symmetry_space_group_name_H-M "C 2/M"
_symmetry_group_IT_number 12
_symmetry_cell_setting 'monoclinic'
loop_
_space_group_symop_operation_xyz
x,y,z
-x,y,-z
-x,-y,-z
x,-y,z
1/2+x,1/2+y,z
1/2-x,1/2+y,-z
1/2-x,1/2-y,-z
1/2+x,1/2-y,z
loop_
_atom_site_type_symbol
_atom_site_label
_atom_site_fract_x
_atom_site_fract_y
_atom_site_fract_z
Si Si1 0.752849 0.290336 0.825213
Si Si2 0.153029 0.286704 0.515183
Si Si3 0.819512 0.204688 0.696339
Si Si4 0.959324 0.777955 0.214879
Si Si5 0.500000 0.500000 0.500000
Si Si6 0.910689 0.782580 0.019145
O O1 0.750897 0.500000 0.803718
O O2 0.821786 0.200668 0.789913
O O3 0.636493 0.219226 0.775753
O O4 0.803874 0.272968 0.931789
O O5 0.127199 0.500000 0.502159
O O6 0.250000 0.250000 0.500000
O O7 0.209837 0.222640 0.620364
O O8 0.054350 0.158806 0.468608
O O9 0.926206 0.288241 0.714439
O O10 0.818747 0.000000 0.666757
O O11 0.932418 0.721348 0.115330
O O12 0.960873 0.000000 0.216033
O O13 0.912212 0.000000 0.020864
O O14 0.000000 0.718988 0.000000
#
# Coordination Sequence:
#
# PCOD9176299 Si02
#       6
#     8   8   8   8   2   8
#     4  11  22  34  56  90 128 162 217 276 334 394
#     4  11  25  48  79 113 149 194 243 303 374 451
#     4  10  22  43  66  92 131 171 220 274 337 417
#     4   9  19  37  58  84 119 170 215 267 335 395
#     4  12  26  48  84 108 156 190 242 294 370 456
#     4  10  18  34  59  76 112 172 220 264 323 391
#
# _framework density 25.358073999999998
#
# number of rings (size 3 to 8) (size 9 to 14) (size 15 to 20)
#    0.000    1.714    2.857    1.429    1.333    1.905 
#    3.429    2.857    0.000    0.000    0.000    0.000 
#    0.000    0.000    0.000    0.000    0.000    0.000 
#
# Total GULP energy -117145.297637 kJ/mol
# GULP energy per Si atom -5578.347507 kJ/mol
# Density = 2.530036 g / cm^3
# Si number density = 25.358074 Si / 1000 Ang^3
#
#
#
# Elastic Constant Matrix: (Units=GPa)
#
#
# Indices 1 2 3 4 5 6 
#
# 1 128.2404 28.6997 -11.2418 0.0000 4.7988 0.0000
# 2 28.6997 154.3218 -3.5910 0.0000 -2.4027 0.0000
# 3 -11.2418 -3.5910 40.4214 0.0000 2.2798 0.0000
# 4 0.0000 0.0000 0.0000 0.9795 0.0000 -7.3560
# 5 4.7988 -2.4027 2.2798 0.0000 34.2240 0.0000
# 6 0.0000 0.0000 0.0000 -7.3560 0.0000 19.0513
#
#
#
# Elastic Compliance Matrix: (Units=1/GPa)
#
#
# Indices 1 2 3 4 5 6 
#
# 1 0.008394 -0.001530 0.002280 0.000000 -0.001436 0.000000
# 2 -0.001530 0.006778 0.000138 0.000000 0.000681 0.000000
# 3 0.002280 0.000138 0.025499 0.000000 -0.002008 0.000000
# 4 0.000000 0.000000 0.000000 -0.537410 0.000000 -0.207503
# 5 -0.001436 0.000681 -0.002008 0.000000 0.029602 0.000000
# 6 0.000000 0.000000 0.000000 -0.207503 0.000000 -0.027631
#
#
# Mechanical properties :
#
#
# Convention : Reuss Voigt Hill
#
# Bulk Modulus (GPa) = 23.55943 38.96858 31.26400
# Shear Modulus (GPa) = -10.36499 31.45875 10.54688
#
# Velocity S-wave (km/s) = -2.02394 3.52601 2.04162
# Velocity P-wave (km/s) = 1.96191 5.65488 4.23242
#
# Compressibility (1/GPa) = 0.04244586
#
# Stress axis : x y z
#
# Youngs Moduli (GPa) = 119.13389 147.52758 39.21738
#
# Poissons Ratio (x) = 0.22577 -0.08940
# Poissons Ratio (y) = 0.18232 -0.00542
# Poissons Ratio (z) = -0.27157 -0.02038
#
# Static dielectric constant tensor:
#      x y z
#    x 2.001410 0.000000 0.033090 
#    y 0.000000 1.972930 0.000000 
#    z 0.033090 0.000000 2.159110 
# 
# From -- ./inp_files/267511.got.cif
#   From: 2010.05.17/outbox.cif.g08.bks.cpg/sg12_134_cif.got.tgz:267511.got - 2010.06.03 13:09:07.
