data_PCOD9176678
_publ_section_title
;
Structure prediction by ZEFSAII (Michael W. Deem and Ramdas Pophale) SiO2 
 PCOD9176678
Probable space group: C 2/M
;
_chemical_formula_sum "Si O2"
_cell_formula_units_Z 64
_cell_length_a 21.057786
_cell_length_b 7.673711
_cell_length_c 20.776734
_cell_angle_alpha 90.000000
_cell_angle_beta 64.406125
_cell_angle_gamma 90.000000
_cell_volume 3027.914185
_symmetry_space_group_name_H-M "C 2/M"
_symmetry_group_IT_number 12
_symmetry_cell_setting 'monoclinic'
loop_
_space_group_symop_operation_xyz
x,y,z
-x,y,-z
-x,-y,-z
x,-y,z
1/2+x,1/2+y,z
1/2-x,1/2+y,-z
1/2-x,1/2-y,-z
1/2+x,1/2-y,z
loop_
_atom_site_type_symbol
_atom_site_label
_atom_site_fract_x
_atom_site_fract_y
_atom_site_fract_z
Si Si1 0.329360 0.790487 0.942706
Si Si2 0.657697 0.206032 0.208616
Si Si3 0.580124 0.786593 0.976205
Si Si4 0.343900 0.297920 0.578352
Si Si5 0.315602 0.210909 0.182610
Si Si6 0.392068 0.799651 0.418711
Si Si7 0.049694 0.200738 0.364439
Si Si8 0.313586 0.213660 0.326950
O O1 0.343148 0.725958 0.864345
O O2 0.334650 0.000000 0.937850
O O3 0.250000 0.750000 0.000000
O O4 0.384513 0.728602 0.972352
O O5 0.736438 0.232126 0.200917
O O6 0.601670 0.291223 0.280835
O O7 0.642206 0.000000 0.214751
O O8 0.630625 0.729943 0.895805
O O9 0.580207 0.000000 0.976700
O O10 0.500000 0.730835 0.000000
O O11 0.340070 0.500000 0.600446
O O12 0.362292 0.289246 0.495582
O O13 0.406242 0.221950 0.594892
O O14 0.266550 0.225935 0.626137
O O15 0.335690 0.267930 0.245755
O O16 0.315522 0.000000 0.181712
O O17 0.476175 0.791690 0.382934
O O18 0.361579 0.727884 0.365230
O O19 0.368804 0.000000 0.433883
O O20 0.031086 0.000000 0.387455
O O21 0.314722 0.000000 0.326798
#
# Coordination Sequence:
#
# PCOD9176678 Si02
#       8
#     8   8   8   8   8   8   8   8
#     4  10  20  34  56  85 114 146 185 231 279 328
#     4  11  22  35  56  87 118 145 185 243 294 332
#     4   9  18  32  55  86 113 145 191 232 268 323
#     4  10  20  38  61  82 108 149 200 236 274 339
#     4  10  18  35  61  82 109 153 197 232 274 339
#     4  11  23  37  56  86 122 148 181 238 296 337
#     4  11  23  40  61  82 111 153 197 234 278 342
#     4   9  19  36  58  84 111 151 195 234 280 337
#
# _framework density 21.136662999999999
#
# number of rings (size 3 to 8) (size 9 to 14) (size 15 to 20)
#    0.000    1.875    2.500    1.875    0.000    4.000 
#    0.000    5.625    0.000    1.500    0.000    0.000 
#    0.000    0.000    0.000    0.000    0.000    0.000 
#
# Total GULP energy -178807.808096 kJ/mol
# GULP energy per Si atom -5587.744003 kJ/mol
# Density = 2.108855 g / cm^3
# Si number density = 21.136663 Si / 1000 Ang^3
#
#
#
# Elastic Constant Matrix: (Units=GPa)
#
#
# Indices 1 2 3 4 5 6 
#
# 1 121.1609 -2.0610 27.2531 0.0011 36.7241 0.0002
# 2 -2.0610 40.0576 -6.4587 -0.0021 3.7191 0.0000
# 3 27.2531 -6.4587 88.7452 0.0019 38.4727 -0.0003
# 4 0.0011 -0.0021 0.0019 -77.2822 -0.0011 -22.7636
# 5 36.7241 3.7191 38.4727 -0.0011 40.7928 0.0000
# 6 0.0002 0.0000 -0.0003 -22.7636 0.0000 13.0614
#
#
#
# Elastic Compliance Matrix: (Units=1/GPa)
#
#
# Indices 1 2 3 4 5 6 
#
# 1 0.011650 0.002098 0.002038 0.000000 -0.012602 0.000000
# 2 0.002098 0.026815 0.005389 0.000000 -0.009416 0.000000
# 3 0.002038 0.005389 0.020373 0.000000 -0.021540 0.000001
# 4 0.000000 0.000000 0.000000 -0.008550 -0.000001 -0.014902
# 5 -0.012602 -0.009416 -0.021540 -0.000001 0.057032 -0.000002
# 6 0.000000 0.000000 0.000001 -0.014902 -0.000002 0.050591
#
#
# Mechanical properties :
#
#
# Convention : Reuss Voigt Hill
#
# Bulk Modulus (GPa) = 12.83876 31.93673 22.38774
# Shear Modulus (GPa) = 30.33559 10.72977 20.53268
#
# Velocity S-wave (km/s) = 3.79253 2.25553 3.12015
# Velocity P-wave (km/s) = 5.02644 4.68248 4.85750
#
# Compressibility (1/GPa) = 0.07788914
#
# Stress axis : x y z
#
# Youngs Moduli (GPa) = 85.83423 37.29228 49.08561
#
# Poissons Ratio (x) = -0.07824 -0.10004
# Poissons Ratio (y) = -0.18008 -0.26455
# Poissons Ratio (z) = -0.17493 -0.20099
#
# Static dielectric constant tensor:
#      x y z
#    x 1.736820 0.000000 0.029040 
#    y 0.000000 1.811480 0.000000 
#    z 0.029040 0.000000 1.727320 
# 
# From -- ./inp_files/319977.got.cif
#   From: 2010.05.17/outbox.cif.g08.bks.cpg/sg12_160_cif.got.tgz:319977.got - 2010.06.03 13:09:07.
