data_PCOD9176232
_publ_section_title
;
Structure prediction by ZEFSAII (Michael W. Deem and Ramdas Pophale) SiO2 
 PCOD9176232
Probable space group: C 2/M
;
_chemical_formula_sum "Si O2"
_cell_formula_units_Z 48
_cell_length_a 8.218912
_cell_length_b 24.498252
_cell_length_c 15.235553
_cell_angle_alpha 90.000000
_cell_angle_beta 129.845299
_cell_angle_gamma 90.000000
_cell_volume 2355.281727
_symmetry_space_group_name_H-M "C 2/M"
_symmetry_group_IT_number 12
_symmetry_cell_setting 'monoclinic'
loop_
_space_group_symop_operation_xyz
x,y,z
-x,y,-z
-x,-y,-z
x,-y,z
1/2+x,1/2+y,z
1/2-x,1/2+y,-z
1/2-x,1/2-y,-z
1/2+x,1/2-y,z
loop_
_atom_site_type_symbol
_atom_site_label
_atom_site_fract_x
_atom_site_fract_y
_atom_site_fract_z
Si Si1 0.140675 0.000000 0.683240
Si Si2 0.173647 0.500000 0.453465
Si Si3 0.812410 0.613444 0.757307
Si Si4 0.167943 0.710983 0.126206
Si Si5 0.504802 0.115304 0.637350
Si Si6 0.640673 0.296979 0.268379
Si Si7 0.906191 0.184834 0.557130
O O1 0.228361 0.000000 0.612326
O O2 0.236370 0.054059 0.759483
O O3 0.885109 0.000000 0.586819
O O4 0.034195 0.554706 0.413423
O O5 0.913140 0.654109 0.862029
O O6 0.969375 0.610371 0.729318
O O7 0.592920 0.642503 0.649440
O O8 0.392784 0.696701 0.161397
O O9 0.209749 0.751616 0.222397
O O10 0.000000 0.734196 0.000000
O O11 0.717328 0.148741 0.689991
O O12 0.307385 0.151822 0.536376
O O13 0.641560 0.280610 0.371979
O O14 0.000000 0.209789 0.500000
#
# Coordination Sequence:
#
# PCOD9176232 Si02
#       7
#     4   4   8   8   8   8   8
#     4   9  14  30  60  91 122 161 202 236 280 359
#     4   9  16  28  60  90 127 170 195 224 284 352
#     4   9  18  34  60  89 118 158 204 242 292 351
#     4  11  24  44  63  81 109 154 209 265 310 351
#     4  10  18  34  57  92 129 159 194 235 287 361
#     4  11  23  39  60  86 115 152 206 250 301 355
#     4   9  18  35  57  84 124 160 190 233 290 360
#
# _framework density 20.379726999999999
#
# number of rings (size 3 to 8) (size 9 to 14) (size 15 to 20)
#    0.000    2.167    1.667    2.000    0.000    0.000 
#    0.000   33.750    0.000    0.000    0.000    4.083 
#    0.000    0.000    0.000    0.000    0.000    0.083 
#
# Total GULP energy -133917.226781 kJ/mol
# GULP energy per Si atom -5579.884449 kJ/mol
# Density = 2.033334 g / cm^3
# Si number density = 20.379727 Si / 1000 Ang^3
#
#
#
# Elastic Constant Matrix: (Units=GPa)
#
#
# Indices 1 2 3 4 5 6 
#
# 1 111.5462 58.7951 44.4654 0.0000 11.5921 0.0000
# 2 58.7951 122.3412 41.6174 0.0000 -4.3050 0.0000
# 3 44.4654 41.6174 60.7473 0.0000 2.3101 0.0000
# 4 0.0000 0.0000 0.0000 6.7488 0.0000 -7.4312
# 5 11.5921 -4.3050 2.3101 0.0000 23.9046 0.0000
# 6 0.0000 0.0000 0.0000 -7.4312 0.0000 14.1953
#
#
#
# Elastic Compliance Matrix: (Units=1/GPa)
#
#
# Indices 1 2 3 4 5 6 
#
# 1 0.015474 -0.005156 -0.007501 0.000000 -0.007707 0.000000
# 2 -0.005156 0.012544 -0.005019 0.000000 0.005244 0.000000
# 3 -0.007501 -0.005019 0.025380 0.000000 0.000281 0.000000
# 4 0.000000 0.000000 0.000000 0.349823 0.000000 0.183131
# 5 -0.007707 0.005244 0.000281 0.000000 0.046488 0.000000
# 6 0.000000 0.000000 0.000000 0.183131 0.000000 0.166314
#
#
# Mechanical properties :
#
#
# Convention : Reuss Voigt Hill
#
# Bulk Modulus (GPa) = 55.41539 64.93226 60.17383
# Shear Modulus (GPa) = 7.60586 18.95352 13.27969
#
# Velocity S-wave (km/s) = 1.93395 3.05293 2.55544
# Velocity P-wave (km/s) = 5.67779 6.66015 6.18849
#
# Compressibility (1/GPa) = 0.01804553
#
# Stress axis : x y z
#
# Youngs Moduli (GPa) = 64.62646 79.72219 39.40147
#
# Poissons Ratio (x) = 0.41104 0.29554
# Poissons Ratio (y) = 0.33321 0.19775
# Poissons Ratio (z) = 0.48475 0.40012
#
# Static dielectric constant tensor:
#      x y z
#    x 1.787340 0.000000 -0.033620 
#    y 0.000000 1.759990 0.000000 
#    z -0.033620 0.000000 1.718660 
# 
# From -- ./inp_files/259044.got.cif
#   From: 2010.05.17/outbox.cif.g08.bks.cpg/sg12_130_cif.got.tgz:259044.got - 2010.06.03 13:09:07.
