data_PCOD9176117
_publ_section_title
;
Structure prediction by ZEFSAII (Michael W. Deem and Ramdas Pophale) SiO2 
 PCOD9176117
Probable space group: C 2/M
;
_chemical_formula_sum "Si O2"
_cell_formula_units_Z 56
_cell_length_a 24.212122
_cell_length_b 19.805901
_cell_length_c 21.245188
_cell_angle_alpha 90.000000
_cell_angle_beta 162.306944
_cell_angle_gamma 90.000000
_cell_volume 3096.306093
_symmetry_space_group_name_H-M "C 2/M"
_symmetry_group_IT_number 12
_symmetry_cell_setting 'monoclinic'
loop_
_space_group_symop_operation_xyz
x,y,z
-x,y,-z
-x,-y,-z
x,-y,z
1/2+x,1/2+y,z
1/2-x,1/2+y,-z
1/2-x,1/2-y,-z
1/2+x,1/2-y,z
loop_
_atom_site_type_symbol
_atom_site_label
_atom_site_fract_x
_atom_site_fract_y
_atom_site_fract_z
Si Si1 0.286426 0.850214 0.757594
Si Si2 0.647841 0.224310 0.297604
Si Si3 0.279458 0.290839 0.181896
Si Si4 0.689164 0.851628 0.472762
Si Si5 0.308246 0.188341 0.109906
Si Si6 0.004581 0.925761 0.769207
Si Si7 0.016516 0.925461 0.633127
O O1 0.275045 0.808437 0.681129
O O2 0.213456 0.804045 0.735465
O O3 0.153430 0.912408 0.598193
O O4 0.500000 0.867299 0.000000
O O5 0.706016 0.184232 0.422864
O O6 0.712666 0.300426 0.373451
O O7 0.432594 0.218457 0.061939
O O8 0.361260 0.227138 0.232565
O O9 0.351358 0.361915 0.233080
O O10 0.479813 0.851188 0.266227
O O11 0.815403 0.916271 0.601082
O O12 0.250000 0.250000 0.000000
O O13 0.142171 0.135477 0.934717
O O14 0.966112 0.923934 0.652306
O O15 0.083517 0.000000 0.868451
O O16 0.095466 0.000000 0.706199
#
# Coordination Sequence:
#
# PCOD9176117 Si02
#       7
#     8   8   8   8   8   8   8
#     4  10  22  35  52  77 114 150 199 241 280 343
#     4  10  18  34  55  83 108 143 187 245 285 337
#     4  11  21  35  55  82 111 150 196 240 286 340
#     4  11  19  33  61  80 112 147 191 236 301 336
#     4  12  20  36  62  88 112 150 196 247 298 340
#     4  11  23  38  57  86 121 156 195 241 293 350
#     4  11  22  37  53  75 115 162 199 236 284 341
#
# _framework density 18.086067
#
# number of rings (size 3 to 8) (size 9 to 14) (size 15 to 20)
#    0.000    1.143    5.714    2.143    0.000    2.000 
#    0.000    2.857    0.000    0.000    0.000    2.000 
#    0.000    4.571    0.000    0.000    0.000    0.000 
#
# Total GULP energy -156049.841766 kJ/mol
# GULP energy per Si atom -5573.208634 kJ/mol
# Density = 1.804490 g / cm^3
# Si number density = 18.086067 Si / 1000 Ang^3
#
#
#
# Elastic Constant Matrix: (Units=GPa)
#
#
# Indices 1 2 3 4 5 6 
#
# 1 81.2890 31.1505 10.7740 0.0044 8.3675 0.0027
# 2 31.1505 77.8208 27.2642 0.0010 3.1486 -0.0006
# 3 10.7740 27.2642 75.5616 0.0039 12.5367 0.0040
# 4 0.0044 0.0010 0.0039 24.3487 0.0055 0.8006
# 5 8.3675 3.1486 12.5367 0.0055 26.8122 0.0034
# 6 0.0027 -0.0006 0.0040 0.8006 0.0034 19.4373
#
#
#
# Elastic Compliance Matrix: (Units=1/GPa)
#
#
# Indices 1 2 3 4 5 6 
#
# 1 0.014979 -0.006094 0.000781 -0.000002 -0.004324 -0.000002
# 2 -0.006094 0.017206 -0.005767 0.000001 0.002578 0.000002
# 3 0.000781 -0.005767 0.016404 -0.000001 -0.007237 -0.000002
# 4 -0.000002 0.000001 -0.000001 0.041126 -0.000007 -0.001694
# 5 -0.004324 0.002578 -0.007237 -0.000007 0.041727 -0.000005
# 6 -0.000002 0.000002 -0.000002 -0.001694 -0.000005 0.051517
#
#
# Mechanical properties :
#
#
# Convention : Reuss Voigt Hill
#
# Bulk Modulus (GPa) = 37.83929 41.44988 39.64459
# Shear Modulus (GPa) = 23.37225 25.15182 24.26204
#
# Velocity S-wave (km/s) = 3.59873 3.73322 3.66659
# Velocity P-wave (km/s) = 6.18345 6.44596 6.31607
#
# Compressibility (1/GPa) = 0.02642756
#
# Stress axis : x y z
#
# Youngs Moduli (GPa) = 66.76108 58.12057 60.95917
#
# Poissons Ratio (x) = 0.35421 -0.04758
# Poissons Ratio (y) = 0.40686 0.35155
# Poissons Ratio (z) = -0.05211 0.33518
#
# Static dielectric constant tensor:
#      x y z
#    x 1.687040 0.000000 0.018530 
#    y 0.000000 1.619810 0.000000 
#    z 0.018530 0.000000 1.661100 
# 
# From -- ./inp_files/326040.got.cif
#   From: 2010.05.17/outbox.cif.g08.bks.cpg/sg12_164_cif.got.tgz:326040.got - 2010.06.03 13:09:07.
