data_PCOD9176894
_publ_section_title
;
Structure prediction by ZEFSAII (Michael W. Deem and Ramdas Pophale) SiO2 
 PCOD9176894
Probable space group: C 2/M
;
_chemical_formula_sum "Si O2"
_cell_formula_units_Z 64
_cell_length_a 8.530581
_cell_length_b 13.844122
_cell_length_c 26.823009
_cell_angle_alpha 90.000000
_cell_angle_beta 106.751889
_cell_angle_gamma 90.000000
_cell_volume 3033.320940
_symmetry_space_group_name_H-M "C 2/M"
_symmetry_group_IT_number 12
_symmetry_cell_setting 'monoclinic'
loop_
_space_group_symop_operation_xyz
x,y,z
-x,y,-z
-x,-y,-z
x,-y,z
1/2+x,1/2+y,z
1/2-x,1/2+y,-z
1/2-x,1/2-y,-z
1/2+x,1/2-y,z
loop_
_atom_site_type_symbol
_atom_site_label
_atom_site_fract_x
_atom_site_fract_y
_atom_site_fract_z
Si Si1 0.616583 0.614343 0.057703
Si Si2 0.473164 0.390369 0.711036
Si Si3 0.983117 0.615220 0.056380
Si Si4 0.513588 0.302855 0.387900
Si Si5 0.657159 0.207348 0.538790
Si Si6 0.578066 0.889311 0.676864
Si Si7 0.414882 0.247832 0.858483
Si Si8 0.094854 0.705943 0.779753
O O1 0.622610 0.500000 0.067186
O O2 0.802502 0.644892 0.060150
O O3 0.544046 0.666501 0.099633
O O4 0.500000 0.631917 0.000000
O O5 0.503332 0.500000 0.728978
O O6 0.547407 0.368586 0.662864
O O7 0.275592 0.375475 0.690167
O O8 0.549244 0.310986 0.753968
O O9 0.995009 0.500000 0.060504
O O10 0.119831 0.664877 0.103680
O O11 0.000000 0.642417 0.000000
O O12 0.412188 0.288473 0.429360
O O13 0.695035 0.341359 0.417867
O O14 0.510497 0.193527 0.364112
O O15 0.500000 0.154768 0.500000
O O16 0.750000 0.250000 0.500000
O O17 0.541600 0.867465 0.731777
O O18 0.538725 0.000000 0.659934
O O19 0.285695 0.292853 0.808324
O O20 0.529190 0.194764 0.829257
#
# Coordination Sequence:
#
# PCOD9176894 Si02
#       8
#     8   8   8   8   8   8   8   8
#     4  10  23  41  61  85 113 151 193 229 279 352
#     4  10  21  38  61  86 116 154 196 243 288 340
#     4  10  23  41  60  85 116 149 189 235 282 341
#     4  10  18  36  60  88 115 157 203 237 279 347
#     4   9  18  32  58  88 123 161 192 234 297 338
#     4  10  21  38  62  85 114 157 198 238 286 348
#     4  12  23  39  61  84 115 152 188 235 294 345
#     4  11  24  39  58  89 117 148 192 243 290 347
#
# _framework density 21.098986
#
# number of rings (size 3 to 8) (size 9 to 14) (size 15 to 20)
#    0.000    1.750    3.750    0.375    1.750    3.000 
#    0.000    1.875    0.000   15.000    0.000    0.000 
#    0.000    0.000    0.000    0.000    0.000    0.000 
#
# Total GULP energy -178181.150815 kJ/mol
# GULP energy per Si atom -5568.160963 kJ/mol
# Density = 2.105096 g / cm^3
# Si number density = 21.098986 Si / 1000 Ang^3
#
#
#
# Elastic Constant Matrix: (Units=GPa)
#
#
# Indices 1 2 3 4 5 6 
#
# 1 20.6921 -10.7477 20.3763 0.0000 -8.1089 0.0000
# 2 -10.7477 64.8972 18.7907 0.0000 -6.2919 0.0000
# 3 20.3763 18.7907 131.2303 0.0000 -21.9624 0.0000
# 4 0.0000 0.0000 0.0000 12.2661 0.0000 7.0537
# 5 -8.1089 -6.2919 -21.9624 0.0000 23.5415 0.0000
# 6 0.0000 0.0000 0.0000 7.0537 0.0000 16.5919
#
#
#
# Elastic Compliance Matrix: (Units=1/GPa)
#
#
# Indices 1 2 3 4 5 6 
#
# 1 0.076617 0.017891 -0.010951 0.000000 0.020956 0.000000
# 2 0.017891 0.020383 -0.004448 0.000000 0.007461 0.000000
# 3 -0.010951 -0.004448 0.010816 0.000000 0.005129 0.000000
# 4 0.000000 0.000000 0.000000 0.107907 0.000000 -0.045875
# 5 0.020956 0.007461 0.005129 0.000000 0.056476 0.000000
# 6 0.000000 0.000000 0.000000 -0.045875 0.000000 0.079773
#
#
# Mechanical properties :
#
#
# Convention : Reuss Voigt Hill
#
# Bulk Modulus (GPa) = 8.86524 30.40647 19.63586
# Shear Modulus (GPa) = 13.00095 23.03992 18.02043
#
# Velocity S-wave (km/s) = 2.48501 3.30811 2.92565
# Velocity P-wave (km/s) = 3.52768 5.38833 4.55405
#
# Compressibility (1/GPa) = 0.11280014
#
# Stress axis : x y z
#
# Youngs Moduli (GPa) = 13.05199 49.05996 92.45621
#
# Poissons Ratio (x) = -0.87774 1.01249
# Poissons Ratio (y) = -0.23352 0.41125
# Poissons Ratio (z) = 0.14293 0.21822
#
# Static dielectric constant tensor:
#      x y z
#    x 2.766420 0.000000 0.052210 
#    y 0.000000 1.718750 0.000000 
#    z 0.052210 0.000000 1.811540 
# 
# From -- ./inp_files/356174.got.cif
#   From: 2010.05.17/outbox.cif.g08.bks.cpg/sg12_179_cif.got.tgz:356174.got - 2010.06.03 13:09:07.
