data_PCOD9176968
_publ_section_title
;
Structure prediction by ZEFSAII (Michael W. Deem and Ramdas Pophale) SiO2 
 PCOD9176968
Probable space group: C 2/M
;
_chemical_formula_sum "Si O2"
_cell_formula_units_Z 50
_cell_length_a 15.093306
_cell_length_b 7.505434
_cell_length_c 21.968386
_cell_angle_alpha 90.000000
_cell_angle_beta 57.040074
_cell_angle_gamma 90.000000
_cell_volume 2088.078639
_symmetry_space_group_name_H-M "C 2/M"
_symmetry_group_IT_number 12
_symmetry_cell_setting 'monoclinic'
loop_
_space_group_symop_operation_xyz
x,y,z
-x,y,-z
-x,-y,-z
x,-y,z
1/2+x,1/2+y,z
1/2-x,1/2+y,-z
1/2-x,1/2-y,-z
1/2+x,1/2-y,z
loop_
_atom_site_type_symbol
_atom_site_label
_atom_site_fract_x
_atom_site_fract_y
_atom_site_fract_z
Si Si1 0.880845 0.213636 0.165277
Si Si2 0.401797 0.282690 0.856254
Si Si3 0.712385 0.714121 0.581938
Si Si4 0.000000 0.000000 0.000000
Si Si5 0.019096 0.205608 0.301855
Si Si6 0.332291 0.797848 0.048125
Si Si7 0.307011 0.211856 0.669108
O O1 0.838095 0.301508 0.120289
O O2 0.798426 0.237392 0.250947
O O3 0.994521 0.274791 0.146116
O O4 0.889841 0.000000 0.145816
O O5 0.399043 0.500000 0.857903
O O6 0.421842 0.219064 0.779340
O O7 0.286036 0.230692 0.922035
O O8 0.709797 0.500000 0.588692
O O9 0.750000 0.750000 0.500000
O O10 0.594562 0.783980 0.639371
O O11 0.787344 0.779371 0.608415
O O12 0.077752 0.156263 0.000002
O O13 0.095492 0.210309 0.330780
O O14 0.998504 0.000000 0.292952
O O15 0.350502 0.000000 0.020036
O O16 0.325219 0.000000 0.660165
#
# Coordination Sequence:
#
# PCOD9176968 Si02
#       7
#     8   8   8   2   8   8   8
#     4  10  18  36  64  94 124 159 202 262 323 365
#     4   9  18  35  64  93 122 156 205 261 313 365
#     4  10  22  39  56  79 118 167 207 251 316 377
#     4  12  26  48  68  90 140 178 200 252 324 382
#     4  10  19  35  58  86 117 156 202 256 311 366
#     4  11  23  42  69  97 126 170 214 256 310 384
#     4  10  20  34  58  88 118 157 203 255 312 371
#
# _framework density 23.945460000000001
#
# number of rings (size 3 to 8) (size 9 to 14) (size 15 to 20)
#    0.000    1.920    4.000    0.240    0.000    1.920 
#    1.440    4.000    0.000    0.000    0.000    0.000 
#    0.000    0.000    0.000    0.000    0.000    0.000 
#
# Total GULP energy -139674.454812 kJ/mol
# GULP energy per Si atom -5586.978192 kJ/mol
# Density = 2.389096 g / cm^3
# Si number density = 23.945460 Si / 1000 Ang^3
#
#
#
# Elastic Constant Matrix: (Units=GPa)
#
#
# Indices 1 2 3 4 5 6 
#
# 1 91.7266 -14.5255 18.9658 -0.0001 2.1678 -0.0002
# 2 -14.5255 79.1893 10.6931 -0.0002 -1.7281 -0.0003
# 3 18.9658 10.6931 100.4081 0.0000 17.9585 0.0000
# 4 -0.0001 -0.0002 0.0000 24.8991 0.0000 2.0867
# 5 2.1678 -1.7281 17.9585 0.0000 40.3087 -0.0001
# 6 -0.0002 -0.0003 0.0000 2.0867 -0.0001 20.7439
#
#
#
# Elastic Compliance Matrix: (Units=1/GPa)
#
#
# Indices 1 2 3 4 5 6 
#
# 1 0.011830 0.002538 -0.002619 0.000000 0.000639 0.000000
# 2 0.002538 0.013415 -0.002158 0.000000 0.001400 0.000000
# 3 -0.002619 -0.002158 0.011600 0.000000 -0.005120 0.000000
# 4 0.000000 0.000000 0.000000 0.040504 0.000000 -0.004074
# 5 0.000639 0.001400 -0.005120 0.000000 0.027115 0.000000
# 6 0.000000 0.000000 0.000000 -0.004074 0.000000 0.048617
#
#
# Mechanical properties :
#
#
# Convention : Reuss Voigt Hill
#
# Bulk Modulus (GPa) = 30.89735 33.51009 32.20372
# Shear Modulus (GPa) = 29.70016 34.26972 31.98494
#
# Velocity S-wave (km/s) = 3.52565 3.78717 3.65874
# Velocity P-wave (km/s) = 5.43183 5.75745 5.59701
#
# Compressibility (1/GPa) = 0.03236523
#
# Stress axis : x y z
#
# Youngs Moduli (GPa) = 84.52899 74.54087 86.20972
#
# Poissons Ratio (x) = -0.18916 0.22580
# Poissons Ratio (y) = -0.21450 0.18608
# Poissons Ratio (z) = 0.22140 0.16089
#
# Static dielectric constant tensor:
#      x y z
#    x 1.884870 0.000000 0.013840 
#    y 0.000000 1.959900 0.000000 
#    z 0.013840 0.000000 1.810960 
# 
# From -- ./inp_files/308565.got.cif
#   From: 2010.05.17/outbox.cif.g08.bks.cpg/sg12_155_cif.got.tgz:308565.got - 2010.06.03 13:09:07.
