data_PCOD9176285
_publ_section_title
;
Structure prediction by ZEFSAII (Michael W. Deem and Ramdas Pophale) SiO2 
 PCOD9176285
Probable space group: C 2/M
;
_chemical_formula_sum "Si O2"
_cell_formula_units_Z 40
_cell_length_a 8.899799
_cell_length_b 17.063387
_cell_length_c 18.634763
_cell_angle_alpha 90.000000
_cell_angle_beta 50.683833
_cell_angle_gamma 90.000000
_cell_volume 2189.375609
_symmetry_space_group_name_H-M "C 2/M"
_symmetry_group_IT_number 12
_symmetry_cell_setting 'monoclinic'
loop_
_space_group_symop_operation_xyz
x,y,z
-x,y,-z
-x,-y,-z
x,-y,z
1/2+x,1/2+y,z
1/2-x,1/2+y,-z
1/2-x,1/2-y,-z
1/2+x,1/2-y,z
loop_
_atom_site_type_symbol
_atom_site_label
_atom_site_fract_x
_atom_site_fract_y
_atom_site_fract_z
Si Si1 0.605472 0.412878 0.335020
Si Si2 0.034240 0.214077 0.066643
Si Si3 0.336000 0.789578 0.360971
Si Si4 0.855545 0.814118 0.812460
Si Si5 0.175340 0.635310 0.486059
O O1 0.681290 0.500000 0.326017
O O2 0.709912 0.344865 0.348362
O O3 0.629831 0.387845 0.244809
O O4 0.379357 0.408602 0.424592
O O5 0.045118 0.170733 0.140114
O O6 0.864516 0.280317 0.118609
O O7 0.250000 0.250000 0.000000
O O8 0.000000 0.171746 0.000000
O O9 0.517929 0.754691 0.263325
O O10 0.218956 0.714697 0.426930
O O11 0.386601 0.839372 0.415874
O O12 0.000000 0.593009 0.500000
#
# Coordination Sequence:
#
# PCOD9176285 Si02
#       5
#     8   8   8   8   8
#     4  11  23  36  53  80 117 152 181 221 273 325
#     4   9  18  32  58  91 108 129 177 236 277 319
#     4  10  19  33  55  80 107 149 189 227 264 320
#     4  10  18  34  58  86 110 141 183 227 266 329
#     4  10  20  33  54  78 107 144 196 233 264 305
#
# _framework density 18.270050000000001
#
# number of rings (size 3 to 8) (size 9 to 14) (size 15 to 20)
#    0.000    2.000    2.000    4.200    2.800    2.000 
#    0.000    0.000    0.000    6.000    0.000    0.000 
#    0.000    0.000    0.000    0.000    0.000    0.000 
#
# Total GULP energy -111448.463700 kJ/mol
# GULP energy per Si atom -5572.423185 kJ/mol
# Density = 1.822847 g / cm^3
# Si number density = 18.270050 Si / 1000 Ang^3
#
#
#
# Elastic Constant Matrix: (Units=GPa)
#
#
# Indices 1 2 3 4 5 6 
#
# 1 106.5396 15.2543 39.1899 -0.0001 9.2416 -0.0001
# 2 15.2543 66.1262 9.4588 0.0000 5.2158 0.0000
# 3 39.1899 9.4588 86.7353 0.0000 9.1251 -0.0001
# 4 -0.0001 0.0000 0.0000 -7.5781 0.0000 -6.6178
# 5 9.2416 5.2158 9.1251 0.0000 50.8660 0.0000
# 6 -0.0001 0.0000 -0.0001 -6.6178 0.0000 5.4138
#
#
#
# Elastic Compliance Matrix: (Units=1/GPa)
#
#
# Indices 1 2 3 4 5 6 
#
# 1 0.011549 -0.001882 -0.004905 0.000000 -0.001025 0.000000
# 2 -0.001882 0.015754 -0.000748 0.000000 -0.001139 0.000000
# 3 -0.004905 -0.000748 0.013989 0.000000 -0.001542 0.000000
# 4 0.000000 0.000000 0.000000 -0.063825 0.000000 -0.078020
# 5 -0.001025 -0.001139 -0.001542 0.000000 0.020239 0.000000
# 6 0.000000 0.000000 0.000000 -0.078020 0.000000 0.089342
#
#
# Mechanical properties :
#
#
# Convention : Reuss Voigt Hill
#
# Bulk Modulus (GPa) = 38.13525 43.02298 40.57912
# Shear Modulus (GPa) = 45.10282 22.77353 33.93817
#
# Velocity S-wave (km/s) = 4.97397 3.53440 4.31465
# Velocity P-wave (km/s) = 7.34204 6.34472 6.86152
#
# Compressibility (1/GPa) = 0.02622246
#
# Stress axis : x y z
#
# Youngs Moduli (GPa) = 86.58880 63.47796 71.48283
#
# Poissons Ratio (x) = 0.11944 0.35063
# Poissons Ratio (y) = 0.16293 0.05346
# Poissons Ratio (z) = 0.42472 0.04748
#
# Static dielectric constant tensor:
#      x y z
#    x 1.671820 0.000000 0.028060 
#    y 0.000000 1.625800 0.000000 
#    z 0.028060 0.000000 1.682670 
# 
# From -- ./inp_files/195005.got.cif
#   From: 2010.05.17/outbox.cif.g08.bks.cpg/sg12_98_cif.got.tgz:195005.got - 2010.06.03 13:09:07.
