data_PCOD9176213
_publ_section_title
;
Structure prediction by ZEFSAII (Michael W. Deem and Ramdas Pophale) SiO2 
 PCOD9176213
Probable space group: C 2/M
;
_chemical_formula_sum "Si O2"
_cell_formula_units_Z 40
_cell_length_a 9.312666
_cell_length_b 25.362609
_cell_length_c 10.916189
_cell_angle_alpha 90.000000
_cell_angle_beta 45.655329
_cell_angle_gamma 90.000000
_cell_volume 1843.889639
_symmetry_space_group_name_H-M "C 2/M"
_symmetry_group_IT_number 12
_symmetry_cell_setting 'monoclinic'
loop_
_space_group_symop_operation_xyz
x,y,z
-x,y,-z
-x,-y,-z
x,-y,z
1/2+x,1/2+y,z
1/2-x,1/2+y,-z
1/2-x,1/2-y,-z
1/2+x,1/2-y,z
loop_
_atom_site_type_symbol
_atom_site_label
_atom_site_fract_x
_atom_site_fract_y
_atom_site_fract_z
Si Si1 0.311991 0.170868 0.367010
Si Si2 0.843612 0.356661 0.688485
Si Si3 0.239284 0.362247 0.861174
Si Si4 0.466750 0.561244 0.166708
Si Si5 0.047964 0.211424 0.755512
O O1 0.508699 0.136555 0.286745
O O2 0.210433 0.143321 0.312573
O O3 0.160359 0.185251 0.568427
O O4 0.404547 0.227459 0.274151
O O5 0.746357 0.409177 0.690921
O O6 0.660197 0.316204 0.802799
O O7 0.000000 0.331022 0.500000
O O8 0.363824 0.407561 0.857778
O O9 0.321617 0.308589 0.875888
O O10 0.000000 0.368115 0.000000
O O11 0.462511 0.500000 0.201779
O O12 0.500000 0.566035 0.000000
#
# Coordination Sequence:
#
# PCOD9176213 Si02
#       5
#     8   8   8   8   8
#     4  10  18  34  57  83 114 148 181 214 258 321
#     4   9  18  33  56  82 107 139 181 224 266 319
#     4  11  22  34  54  83 113 141 181 231 271 310
#     4  10  22  41  59  74 101 143 186 228 281 337
#     4   9  19  34  55  81 115 154 180 203 256 328
#
# _framework density 21.693273000000001
#
# number of rings (size 3 to 8) (size 9 to 14) (size 15 to 20)
#    0.000    2.200    0.000    3.000    0.000    4.800 
#    0.000    6.000    0.000   15.600    0.000    0.000 
#    0.000    0.000    0.000    0.000    0.000    0.000 
#
# Total GULP energy -111497.258757 kJ/mol
# GULP energy per Si atom -5574.862938 kJ/mol
# Density = 2.164390 g / cm^3
# Si number density = 21.693273 Si / 1000 Ang^3
#
#
#
# Elastic Constant Matrix: (Units=GPa)
#
#
# Indices 1 2 3 4 5 6 
#
# 1 195.2641 60.7186 32.8793 0.0000 -24.4469 0.0000
# 2 60.7186 115.6196 16.8284 0.0000 -11.1342 0.0000
# 3 32.8793 16.8284 68.3918 0.0000 -10.8046 0.0000
# 4 0.0000 0.0000 0.0000 56.2719 0.0000 40.5404
# 5 -24.4469 -11.1342 -10.8046 0.0000 35.5041 0.0000
# 6 0.0000 0.0000 0.0000 40.5404 0.0000 59.3717
#
#
#
# Elastic Compliance Matrix: (Units=1/GPa)
#
#
# Indices 1 2 3 4 5 6 
#
# 1 0.006775 -0.002962 -0.002036 0.000000 0.003117 0.000000
# 2 -0.002962 0.010439 -0.000998 0.000000 0.000931 0.000000
# 3 -0.002036 -0.000998 0.016362 0.000000 0.003264 0.000000
# 4 0.000000 0.000000 0.000000 0.034977 0.000000 -0.023883
# 5 0.003117 0.000931 0.003264 0.000000 0.031597 0.000000
# 6 0.000000 0.000000 0.000000 -0.023883 0.000000 0.033151
#
#
# Mechanical properties :
#
#
# Convention : Reuss Voigt Hill
#
# Bulk Modulus (GPa) = 46.32800 66.68092 56.50446
# Shear Modulus (GPa) = 32.78943 48.15280 40.47112
#
# Velocity S-wave (km/s) = 3.89202 4.71649 4.32395
# Velocity P-wave (km/s) = 6.44976 7.77594 7.14369
#
# Compressibility (1/GPa) = 0.02158522
#
# Stress axis : x y z
#
# Youngs Moduli (GPa) = 147.59581 95.79248 61.11833
#
# Poissons Ratio (x) = 0.28370 0.12444
# Poissons Ratio (y) = 0.43712 0.06099
# Poissons Ratio (z) = 0.30052 0.09558
#
# Static dielectric constant tensor:
#      x y z
#    x 1.888950 0.000000 0.055440 
#    y 0.000000 1.749940 0.000000 
#    z 0.055440 0.000000 1.937830 
# 
# From -- ./inp_files/39342.got.cif
#   From: 2010.05.17/outbox.cif.g08.bks.cpg/sg12_20_cif.got.tgz:39342.got - 2010.06.03 13:09:07.
