data_PCOD9176477
_publ_section_title
;
Structure prediction by ZEFSAII (Michael W. Deem and Ramdas Pophale) SiO2 
 PCOD9176477
Probable space group: C 2/M
;
_chemical_formula_sum "Si O2"
_cell_formula_units_Z 44
_cell_length_a 14.135925
_cell_length_b 17.348685
_cell_length_c 26.715860
_cell_angle_alpha 90.000000
_cell_angle_beta 158.894854
_cell_angle_gamma 90.000000
_cell_volume 2359.172385
_symmetry_space_group_name_H-M "C 2/M"
_symmetry_group_IT_number 12
_symmetry_cell_setting 'monoclinic'
loop_
_space_group_symop_operation_xyz
x,y,z
-x,y,-z
-x,-y,-z
x,-y,z
1/2+x,1/2+y,z
1/2-x,1/2+y,-z
1/2-x,1/2-y,-z
1/2+x,1/2-y,z
loop_
_atom_site_type_symbol
_atom_site_label
_atom_site_fract_x
_atom_site_fract_y
_atom_site_fract_z
Si Si1 0.301988 0.329791 0.056026
Si Si2 0.000000 0.232617 0.500000
Si Si3 0.612200 0.500000 0.916027
Si Si4 0.000000 0.267981 0.000000
Si Si5 0.097441 0.500000 0.605038
Si Si6 0.266827 0.500000 0.844705
Si Si7 0.433118 0.164047 0.370639
Si Si8 0.478111 0.165857 0.277867
O O1 0.237897 0.417647 0.006014
O O2 0.147525 0.317971 0.031244
O O3 0.616460 0.331955 0.214980
O O4 0.250000 0.250000 0.000000
O O5 0.982014 0.283818 0.541099
O O6 0.269410 0.185003 0.631006
O O7 0.417232 0.500000 0.770957
O O8 0.407261 0.500000 0.860397
O O9 0.225067 0.214980 0.135846
O O10 0.992777 0.576614 0.579766
O O11 0.000000 0.500000 0.500000
O O12 0.098342 0.576947 0.765585
O O13 0.500000 0.500000 0.000000
O O14 0.524793 0.183125 0.359873
#
# Coordination Sequence:
#
# PCOD9176477 Si02
#       8
#     8   4   4   4   4   4   8   8
#     4  11  21  39  66  94 127 167 214 269 314 377
#     4  12  26  38  62  94 132 162 206 258 320 382
#     4  10  22  39  61  96 124 160 217 262 317 384
#     4  12  22  38  68  92 128 168 212 257 324 377
#     4  10  18  34  64  87 112 160 215 255 300 377
#     4  12  22  39  67  90 120 166 216 261 312 382
#     4  11  21  40  63  91 122 166 215 254 314 384
#     4  12  24  41  63  96 123 169 215 260 315 383
#
# _framework density 18.650608999999999
#
# number of rings (size 3 to 8) (size 9 to 14) (size 15 to 20)
#    0.000    0.727    9.091    0.545    0.000    0.727 
#    0.000    0.000    0.000    0.000    0.000    0.000 
#    0.000    0.000    0.000    0.000    0.000    0.000 
#
# Total GULP energy -122689.695418 kJ/mol
# GULP energy per Si atom -5576.804337 kJ/mol
# Density = 1.860816 g / cm^3
# Si number density = 18.650609 Si / 1000 Ang^3
#
#
#
# Elastic Constant Matrix: (Units=GPa)
#
#
# Indices 1 2 3 4 5 6 
#
# 1 97.1568 54.7226 28.4973 0.0832 3.4593 -3.4857
# 2 54.7226 165.0370 34.6873 0.0515 1.3278 -1.9937
# 3 28.4973 34.6873 56.9416 0.0742 -9.6540 -2.4820
# 4 0.0832 0.0515 0.0742 21.5512 0.0741 101.2989
# 5 3.4593 1.3278 -9.6540 0.0741 32.3211 -2.9959
# 6 -3.4857 -1.9937 -2.4820 101.2989 -2.9959-4594.9863
#
#
#
# Elastic Compliance Matrix: (Units=1/GPa)
#
#
# Indices 1 2 3 4 5 6 
#
# 1 0.013921 -0.003467 -0.005355 0.000003 -0.002947 -0.000004
# 2 -0.003467 0.007895 -0.003230 0.000001 -0.000918 0.000002
# 3 -0.005355 -0.003230 0.023519 -0.000019 0.007730 -0.000013
# 4 0.000003 0.000001 -0.000019 0.042044 -0.000017 0.000927
# 5 -0.002947 -0.000918 0.007730 -0.000017 0.033599 -0.000024
# 6 -0.000004 0.000002 -0.000013 0.000927 -0.000024 -0.000197
#
#
# Mechanical properties :
#
#
# Convention : Reuss Voigt Hill
#
# Bulk Modulus (GPa) = 47.09892 61.66109 54.38001
# Shear Modulus (GPa) = 32.90296 -894.80758 -430.95231
#
# Velocity S-wave (km/s) = 4.20477 -21.92750 -15.21735
# Velocity P-wave (km/s) = 6.99153 24.65673 16.71934
#
# Compressibility (1/GPa) = 0.02123191
#
# Stress axis : x y z
#
# Youngs Moduli (GPa) = 71.83588 126.66248 42.51798
#
# Poissons Ratio (x) = 0.43909 0.22768
# Poissons Ratio (y) = 0.24903 0.13734
# Poissons Ratio (z) = 0.38467 0.40913
#
# Static dielectric constant tensor:
#      x y z
#    x 1.636820 0.000010 -0.059100 
#    y 0.000010 1.684380 0.000000 
#    z -0.059100 0.000000 1.669500 
# 
# From -- ./inp_files/361858.got.cif
#   From: 2010.05.17/outbox.cif.g08.bks.cpg/sg12_181_cif.got.tgz:361858.got - 2010.06.03 13:09:07.
