data_PCOD9176780
_publ_section_title
;
Structure prediction by ZEFSAII (Michael W. Deem and Ramdas Pophale) SiO2 
 PCOD9176780
Probable space group: C 2/M
;
_chemical_formula_sum "Si O2"
_cell_formula_units_Z 52
_cell_length_a 15.539108
_cell_length_b 25.231369
_cell_length_c 13.042830
_cell_angle_alpha 90.000000
_cell_angle_beta 150.479808
_cell_angle_gamma 90.000000
_cell_volume 2519.694953
_symmetry_space_group_name_H-M "C 2/M"
_symmetry_group_IT_number 12
_symmetry_cell_setting 'monoclinic'
loop_
_space_group_symop_operation_xyz
x,y,z
-x,y,-z
-x,-y,-z
x,-y,z
1/2+x,1/2+y,z
1/2-x,1/2+y,-z
1/2-x,1/2-y,-z
1/2+x,1/2-y,z
loop_
_atom_site_type_symbol
_atom_site_label
_atom_site_fract_x
_atom_site_fract_y
_atom_site_fract_z
Si Si1 0.553939 0.939773 0.167900
Si Si2 0.773535 0.765120 0.307396
Si Si3 0.956851 0.165472 0.669095
Si Si4 0.932472 0.261676 0.096438
Si Si5 0.431998 0.857248 0.646962
Si Si6 0.000000 0.663850 0.500000
Si Si7 0.026726 0.941484 0.406744
O O1 0.502128 0.900548 0.203967
O O2 0.763801 0.941971 0.389702
O O3 0.485951 0.000000 0.106448
O O4 0.500000 0.919010 0.000000
O O5 0.897530 0.803275 0.503257
O O6 0.604520 0.760806 0.203793
O O7 0.845470 0.706441 0.359782
O O8 0.714901 0.782856 0.133271
O O9 0.774693 0.153086 0.542534
O O10 0.038838 0.109365 0.722896
O O11 0.076194 0.203899 0.861441
O O12 0.975105 0.301917 0.230957
O O13 0.486199 0.870592 0.587955
O O14 0.000000 0.934354 0.500000
O O15 0.958950 0.000000 0.307433
#
# Coordination Sequence:
#
# PCOD9176780 Si02
#       7
#     8   8   8   8   8   4   8
#     4   9  19  36  56  78 104 137 177 217 268 326
#     4  10  21  32  53  74 108 138 179 216 264 313
#     4  10  18  36  53  76 109 145 175 214 270 328
#     4  10  19  36  52  75 101 149 179 209 266 327
#     4  10  20  32  54  76 108 141 175 217 270 308
#     4  12  20  36  47  78 115 136 176 230 250 318
#     4   9  19  33  53  78 102 132 170 219 271 310
#
# _framework density 20.637418
#
# number of rings (size 3 to 8) (size 9 to 14) (size 15 to 20)
#    0.000    2.154    3.077    0.923    7.538    0.615 
#    2.769    0.385    0.000    0.000    0.000    3.231 
#    0.000    0.000    0.000    0.000    0.000    0.000 
#
# Total GULP energy -145111.656784 kJ/mol
# GULP energy per Si atom -5581.217569 kJ/mol
# Density = 2.059045 g / cm^3
# Si number density = 20.637418 Si / 1000 Ang^3
#
#
#
# Elastic Constant Matrix: (Units=GPa)
#
#
# Indices 1 2 3 4 5 6 
#
# 1 116.4920 48.8466 40.1976 0.0000 -25.0048 0.0000
# 2 48.8466 108.3015 19.3778 0.0000 -24.4547 0.0000
# 3 40.1976 19.3778 46.9872 0.0000 -13.7640 0.0000
# 4 0.0000 0.0000 0.0000 17.2107 0.0000 -16.4803
# 5 -25.0048 -24.4547 -13.7640 0.0000 40.9557 0.0000
# 6 0.0000 0.0000 0.0000 -16.4803 0.0000 18.4154
#
#
#
# Elastic Compliance Matrix: (Units=1/GPa)
#
#
# Indices 1 2 3 4 5 6 
#
# 1 0.014250 -0.004010 -0.009639 0.000000 0.003066 0.000000
# 2 -0.004010 0.012147 -0.000190 0.000000 0.004741 0.000000
# 3 -0.009639 -0.000190 0.030891 0.000000 0.004383 0.000000
# 4 0.000000 0.000000 0.000000 0.406136 0.000000 0.363458
# 5 0.003066 0.004741 0.004383 0.000000 0.030592 0.000000
# 6 0.000000 0.000000 0.000000 0.363458 0.000000 0.379568
#
#
# Mechanical properties :
#
#
# Convention : Reuss Voigt Hill
#
# Bulk Modulus (GPa) = 33.77309 54.29164 44.03236
# Shear Modulus (GPa) = 5.48768 26.20694 15.84731
#
# Velocity S-wave (km/s) = 1.63244 3.56740 2.77409
# Velocity P-wave (km/s) = 4.46695 6.58277 5.62524
#
# Compressibility (1/GPa) = 0.02960938
#
# Stress axis : x y z
#
# Youngs Moduli (GPa) = 70.17545 82.32786 32.37212
#
# Poissons Ratio (x) = 0.33014 0.31203
# Poissons Ratio (y) = 0.28141 0.00615
# Poissons Ratio (z) = 0.67641 0.01564
#
# Static dielectric constant tensor:
#      x y z
#    x 1.769160 0.000000 0.025750 
#    y 0.000000 1.754000 0.000000 
#    z 0.025750 0.000000 1.801720 
# 
# From -- ./inp_files/149335.got.cif
#   From: 2010.05.17/outbox.cif.g08.bks.cpg/sg12_75_cif.got.tgz:149335.got - 2010.06.03 13:09:07.
