data_PCOD9176836
_publ_section_title
;
Structure prediction by ZEFSAII (Michael W. Deem and Ramdas Pophale) SiO2 
 PCOD9176836
Probable space group: C 2/M
;
_chemical_formula_sum "Si O2"
_cell_formula_units_Z 40
_cell_length_a 8.570694
_cell_length_b 25.915882
_cell_length_c 9.930373
_cell_angle_alpha 90.000000
_cell_angle_beta 120.230672
_cell_angle_gamma 90.000000
_cell_volume 1905.741541
_symmetry_space_group_name_H-M "C 2/M"
_symmetry_group_IT_number 12
_symmetry_cell_setting 'monoclinic'
loop_
_space_group_symop_operation_xyz
x,y,z
-x,y,-z
-x,-y,-z
x,-y,z
1/2+x,1/2+y,z
1/2-x,1/2+y,-z
1/2-x,1/2-y,-z
1/2+x,1/2-y,z
loop_
_atom_site_type_symbol
_atom_site_label
_atom_site_fract_x
_atom_site_fract_y
_atom_site_fract_z
Si Si1 0.957097 0.192823 0.323080
Si Si2 0.699333 0.100022 0.126067
Si Si3 0.192956 0.000000 0.166462
Si Si4 0.333671 0.197125 0.324906
Si Si5 0.924595 0.500000 0.814732
Si Si6 0.807074 0.894423 0.883072
O O1 0.145307 0.194447 0.324137
O O2 0.000000 0.187941 0.500000
O O3 0.831082 0.145634 0.225188
O O4 0.857461 0.247824 0.263720
O O5 0.685101 0.053900 0.229169
O O6 0.500000 0.119838 0.000000
O O7 0.761252 0.079334 0.006299
O O8 0.181619 0.058605 0.218532
O O9 0.405039 0.000000 0.210236
O O10 0.000000 0.000000 0.000000
O O11 0.500000 0.192147 0.500000
O O12 0.329238 0.149208 0.221317
O O13 0.000000 0.500000 0.000000
O O14 0.000000 0.869409 0.000000
#
# Coordination Sequence:
#
# PCOD9176836 Si02
#       6
#     8   8   4   8   4   8
#     4  11  25  43  61  87 119 161 200 245 305 357
#     4  11  22  37  64  92 121 156 199 247 291 352
#     4  10  20  34  61  88 125 158 191 244 299 350
#     4  11  25  42  63  85 120 161 199 246 305 358
#     4  10  18  36  57  92 121 158 195 235 305 351
#     4  11  21  39  60  93 122 153 201 246 292 351
#
# _framework density 20.989205999999999
#
# number of rings (size 3 to 8) (size 9 to 14) (size 15 to 20)
#    0.000    1.200    6.000    2.400    5.600    1.600 
#    0.000    1.000    0.000    0.000    0.000    0.000 
#    0.000    0.000    0.000    0.000    0.000    0.000 
#
# Total GULP energy -111353.985590 kJ/mol
# GULP energy per Si atom -5567.699279 kJ/mol
# Density = 2.094143 g / cm^3
# Si number density = 20.989206 Si / 1000 Ang^3
#
#
#
# Elastic Constant Matrix: (Units=GPa)
#
#
# Indices 1 2 3 4 5 6 
#
# 1 118.3778 33.9742 20.6127 0.0000 21.7908 0.0000
# 2 33.9742 183.8870 53.2693 0.0000 29.4191 0.0000
# 3 20.6127 53.2693 30.2793 0.0000 13.7915 0.0000
# 4 0.0000 0.0000 0.0000 207.5591 0.0000 59.7601
# 5 21.7908 29.4191 13.7915 0.0000 30.1712 0.0000
# 6 0.0000 0.0000 0.0000 59.7601 0.0000 51.0792
#
#
#
# Elastic Compliance Matrix: (Units=1/GPa)
#
#
# Indices 1 2 3 4 5 6 
#
# 1 0.010243 0.000571 -0.005499 0.000000 -0.005441 0.000000
# 2 0.000571 0.011260 -0.018957 0.000000 -0.002727 0.000000
# 3 -0.005499 -0.018957 0.075639 0.000000 -0.012119 0.000000
# 4 0.000000 0.000000 0.000000 0.007265 0.000000 -0.008500
# 5 -0.005441 -0.002727 -0.012119 0.000000 0.045272 0.000000
# 6 0.000000 0.000000 0.000000 -0.008500 0.000000 0.029522
#
#
# Mechanical properties :
#
#
# Convention : Reuss Voigt Hill
#
# Bulk Modulus (GPa) = 20.25414 60.91739 40.58576
# Shear Modulus (GPa) = 20.53990 72.74112 46.64051
#
# Velocity S-wave (km/s) = 3.13164 5.89336 4.71905
# Velocity P-wave (km/s) = 4.76938 8.68304 7.00507
#
# Compressibility (1/GPa) = 0.04937261
#
# Stress axis : x y z
#
# Youngs Moduli (GPa) = 97.63025 88.80773 13.22068
#
# Poissons Ratio (x) = -0.05072 0.07270
# Poissons Ratio (y) = -0.05576 0.25062
# Poissons Ratio (z) = 0.53690 1.68349
#
# Static dielectric constant tensor:
#      x y z
#    x 1.892660 0.000000 -0.051370 
#    y 0.000000 1.825910 0.000000 
#    z -0.051370 0.000000 1.748650 
# 
# From -- ./inp_files/123224.got.cif
#   From: 2010.05.17/outbox.cif.g08.bks.cpg/sg12_62_cif.got.tgz:123224.got - 2010.06.03 13:09:07.
