data_PCOD9176066
_publ_section_title
;
Structure prediction by ZEFSAII (Michael W. Deem and Ramdas Pophale) SiO2 
 PCOD9176066
Probable space group: C 2/M
;
_chemical_formula_sum "Si O2"
_cell_formula_units_Z 48
_cell_length_a 15.710685
_cell_length_b 30.083023
_cell_length_c 8.125217
_cell_angle_alpha 90.000000
_cell_angle_beta 35.110602
_cell_angle_gamma 90.000000
_cell_volume 2208.704915
_symmetry_space_group_name_H-M "C 2/M"
_symmetry_group_IT_number 12
_symmetry_cell_setting 'monoclinic'
loop_
_space_group_symop_operation_xyz
x,y,z
-x,y,-z
-x,-y,-z
x,-y,z
1/2+x,1/2+y,z
1/2-x,1/2+y,-z
1/2-x,1/2-y,-z
1/2+x,1/2-y,z
loop_
_atom_site_type_symbol
_atom_site_label
_atom_site_fract_x
_atom_site_fract_y
_atom_site_fract_z
Si Si1 0.214459 0.500000 0.538365
Si Si2 0.710263 0.098919 0.485039
Si Si3 0.335804 0.759515 0.195883
Si Si4 0.624973 0.000000 0.049162
Si Si5 0.686806 0.349853 0.349115
Si Si6 0.400838 0.665252 0.989002
Si Si7 0.595780 0.904142 0.190395
O O1 0.270713 0.548180 0.390357
O O2 0.045041 0.500000 0.742598
O O3 0.216400 0.500000 0.734451
O O4 0.753435 0.122842 0.586033
O O5 0.532626 0.098476 0.746374
O O6 0.783671 0.127623 0.222994
O O7 0.250000 0.750000 0.500000
O O8 0.256619 0.800938 0.238524
O O9 0.500000 0.771218 0.000000
O O10 0.336732 0.715130 0.083208
O O11 0.646947 0.044652 0.117151
O O12 0.512822 0.345477 0.664139
O O13 0.763119 0.375058 0.077698
O O14 0.500000 0.668057 0.000000
O O15 0.500000 0.891868 0.500000
#
# Coordination Sequence:
#
# PCOD9176066 Si02
#       7
#     4   8   8   4   8   8   8
#     4   9  16  28  54  82 104 136 167 219 268 310
#     4  10  18  34  54  78 107 136 174 216 265 308
#     4  11  17  29  50  83 109 133 167 220 270 310
#     4   9  17  32  51  77 108 134 176 217 263 299
#     4  11  20  33  54  80 108 133 176 221 264 310
#     4   9  19  32  49  81 111 132 169 220 265 315
#     4  11  22  34  53  78 106 143 181 215 255 313
#
# _framework density 21.732192000000001
#
# number of rings (size 3 to 8) (size 9 to 14) (size 15 to 20)
#    0.000    1.833    6.667    1.750    0.000    0.000 
#    0.000    5.417    0.000    4.000    0.000    4.667 
#    0.000    0.000    0.000    0.000    0.000    0.000 
#
# Total GULP energy -133990.320989 kJ/mol
# GULP energy per Si atom -5582.930041 kJ/mol
# Density = 2.168273 g / cm^3
# Si number density = 21.732192 Si / 1000 Ang^3
#
#
#
# Elastic Constant Matrix: (Units=GPa)
#
#
# Indices 1 2 3 4 5 6 
#
# 1 31.4770 18.5436 25.9137 0.0000 0.3293 0.0000
# 2 18.5436 179.0923 90.9980 0.0000 -11.4421 0.0000
# 3 25.9137 90.9980 170.7800 0.0000 1.5286 0.0000
# 4 0.0000 0.0000 0.0000 28.9875 0.0000 -13.2355
# 5 0.3293 -11.4421 1.5286 0.0000 35.9840 0.0000
# 6 0.0000 0.0000 0.0000 -13.2355 0.0000 -13.2226
#
#
#
# Elastic Compliance Matrix: (Units=1/GPa)
#
#
# Indices 1 2 3 4 5 6 
#
# 1 0.036543 -0.001378 -0.004805 0.000000 -0.000569 0.000000
# 2 -0.001378 0.007962 -0.004057 0.000000 0.002717 0.000000
# 3 -0.004805 -0.004057 0.008761 0.000000 -0.001618 0.000000
# 4 0.000000 0.000000 0.000000 0.023676 0.000000 -0.023700
# 5 -0.000569 0.002717 -0.001618 0.000000 0.028728 0.000000
# 6 0.000000 0.000000 0.000000 -0.023700 0.000000 -0.051905
#
#
# Mechanical properties :
#
#
# Convention : Reuss Voigt Hill
#
# Bulk Modulus (GPa) = 30.50319 72.47335 51.48827
# Shear Modulus (GPa) = 58.70255 26.74273 42.72264
#
# Velocity S-wave (km/s) = 5.20293 3.51174 4.43862
# Velocity P-wave (km/s) = 7.08240 7.06143 7.07192
#
# Compressibility (1/GPa) = 0.03278345
#
# Stress axis : x y z
#
# Youngs Moduli (GPa) = 27.36481 125.60311 114.14141
#
# Poissons Ratio (x) = 0.17314 0.54850
# Poissons Ratio (y) = 0.03772 0.46312
# Poissons Ratio (z) = 0.13150 0.50962
#
# Static dielectric constant tensor:
#      x y z
#    x 1.821650 0.000000 0.038460 
#    y 0.000000 1.823430 0.000000 
#    z 0.038460 0.000000 1.766330 
# 
# From -- ./inp_files/91395.got.cif
#   From: 2010.05.17/outbox.cif.g08.bks.cpg/sg12_46_cif.got.tgz:91395.got - 2010.06.03 13:09:07.
