data_PCOD9176790
_publ_section_title
;
Structure prediction by ZEFSAII (Michael W. Deem and Ramdas Pophale) SiO2 
 PCOD9176790
Probable space group: C 2/M
;
_chemical_formula_sum "Si O2"
_cell_formula_units_Z 60
_cell_length_a 5.562003
_cell_length_b 27.780963
_cell_length_c 27.625704
_cell_angle_alpha 90.000000
_cell_angle_beta 49.181972
_cell_angle_gamma 90.000000
_cell_volume 3230.478994
_symmetry_space_group_name_H-M "C 2/M"
_symmetry_group_IT_number 12
_symmetry_cell_setting 'monoclinic'
loop_
_space_group_symop_operation_xyz
x,y,z
-x,y,-z
-x,-y,-z
x,-y,z
1/2+x,1/2+y,z
1/2-x,1/2+y,-z
1/2-x,1/2-y,-z
1/2+x,1/2-y,z
loop_
_atom_site_type_symbol
_atom_site_label
_atom_site_fract_x
_atom_site_fract_y
_atom_site_fract_z
Si Si1 0.627089 0.052453 0.590471
Si Si2 0.957371 0.354195 0.561582
Si Si3 0.563759 0.553648 0.265222
Si Si4 0.866470 0.148541 0.247934
Si Si5 0.710159 0.401600 0.339782
Si Si6 0.000000 0.720146 0.000000
Si Si7 0.528810 0.718858 0.142676
Si Si8 0.271977 0.779032 0.656417
O O1 0.642841 0.097564 0.552840
O O2 0.280884 0.052605 0.662448
O O3 0.847018 0.062877 0.607640
O O4 0.670966 0.000000 0.562689
O O5 0.595925 0.368583 0.621106
O O6 0.004392 0.309136 0.590193
O O7 0.000000 0.343439 0.500000
O O8 0.625839 0.500000 0.238201
O O9 0.558673 0.598609 0.229321
O O10 0.780156 0.568065 0.282329
O O11 0.507423 0.132945 0.306971
O O12 0.935836 0.186401 0.281256
O O13 0.896524 0.176489 0.193870
O O14 0.769935 0.697017 0.070501
O O15 0.750000 0.750000 0.000000
O O16 0.249337 0.747140 0.149487
O O17 0.512186 0.749415 0.659021
#
# Coordination Sequence:
#
# PCOD9176790 Si02
#       8
#     8   8   8   8   8   4   8   8
#     4   9  18  35  57  80 101 132 173 225 290 350
#     4  11  24  40  55  74 104 140 183 232 284 347
#     4   9  18  32  55  80 109 140 174 225 286 341
#     4  11  21  35  57  84 112 141 186 232 280 330
#     4  10  18  36  55  77 108 138 177 231 283 340
#     4   8  16  34  52  80 123 160 193 230 268 324
#     4  10  21  34  57  88 123 161 194 229 277 327
#     4  12  25  41  59  78 106 139 182 230 275 323
#
# _framework density 18.573097000000001
#
# number of rings (size 3 to 8) (size 9 to 14) (size 15 to 20)
#    0.000    1.867    4.000    2.000    1.867    2.400 
#    0.000    0.667    0.000    0.000    0.000    0.467 
#    0.000    1.067    0.000    0.000    0.000    0.000 
#
# Total GULP energy -167135.692319 kJ/mol
# GULP energy per Si atom -5571.189744 kJ/mol
# Density = 1.853082 g / cm^3
# Si number density = 18.573097 Si / 1000 Ang^3
#
#
#
# Elastic Constant Matrix: (Units=GPa)
#
#
# Indices 1 2 3 4 5 6 
#
# 1 81.9124 35.3799 3.8257 0.0000 11.9204 0.0000
# 2 35.3799 107.2798 31.2744 0.0000 16.7910 0.0000
# 3 3.8257 31.2744 63.7888 0.0000 18.3689 0.0000
# 4 0.0000 0.0000 0.0000 31.3452 0.0000 -1.9327
# 5 11.9204 16.7910 18.3689 0.0000 25.7119 0.0000
# 6 0.0000 0.0000 0.0000 -1.9327 0.0000 26.5354
#
#
#
# Elastic Compliance Matrix: (Units=1/GPa)
#
#
# Indices 1 2 3 4 5 6 
#
# 1 0.015094 -0.004984 0.003294 0.000000 -0.006096 0.000000
# 2 -0.004984 0.012884 -0.005364 0.000000 -0.002271 0.000000
# 3 0.003294 -0.005364 0.022083 0.000000 -0.013801 0.000000
# 4 0.000000 0.000000 0.000000 0.032047 0.000000 0.002334
# 5 -0.006096 -0.002271 -0.013801 0.000000 0.053061 0.000000
# 6 0.000000 0.000000 0.000000 0.002334 0.000000 0.037856
#
#
# Mechanical properties :
#
#
# Convention : Reuss Voigt Hill
#
# Bulk Modulus (GPa) = 27.81387 43.77123 35.79255
# Shear Modulus (GPa) = 25.11074 28.88523 26.99799
#
# Velocity S-wave (km/s) = 3.68094 3.94790 3.81676
# Velocity P-wave (km/s) = 5.75097 6.66329 6.22387
#
# Compressibility (1/GPa) = 0.03595328
#
# Stress axis : x y z
#
# Youngs Moduli (GPa) = 66.25067 77.61389 45.28345
#
# Poissons Ratio (x) = 0.38683 -0.14915
# Poissons Ratio (y) = 0.33019 0.24290
# Poissons Ratio (z) = -0.21822 0.41632
#
# Static dielectric constant tensor:
#      x y z
#    x 1.848370 0.000000 0.017030 
#    y 0.000000 1.702430 0.000000 
#    z 0.017030 0.000000 1.646530 
# 
# From -- ./inp_files/355237.got.cif
#   From: 2010.05.17/outbox.cif.g08.bks.cpg/sg12_178_cif.got.tgz:355237.got - 2010.06.03 13:09:07.
