data_PCOD9176602
_publ_section_title
;
Structure prediction by ZEFSAII (Michael W. Deem and Ramdas Pophale) SiO2 
 PCOD9176602
Probable space group: C 2/M
;
_chemical_formula_sum "Si O2"
_cell_formula_units_Z 64
_cell_length_a 33.519455
_cell_length_b 17.430814
_cell_length_c 9.113161
_cell_angle_alpha 90.000000
_cell_angle_beta 37.456095
_cell_angle_gamma 90.000000
_cell_volume 3238.148326
_symmetry_space_group_name_H-M "C 2/M"
_symmetry_group_IT_number 12
_symmetry_cell_setting 'monoclinic'
loop_
_space_group_symop_operation_xyz
x,y,z
-x,y,-z
-x,-y,-z
x,-y,z
1/2+x,1/2+y,z
1/2-x,1/2+y,-z
1/2-x,1/2-y,-z
1/2+x,1/2-y,z
loop_
_atom_site_type_symbol
_atom_site_label
_atom_site_fract_x
_atom_site_fract_y
_atom_site_fract_z
Si Si1 0.077244 0.342782 0.533300
Si Si2 0.484214 0.369016 0.705488
Si Si3 0.067889 0.816563 0.710192
Si Si4 0.863942 0.913785 0.250257
Si Si5 0.432869 0.087950 0.973336
Si Si6 0.331260 0.913664 0.533509
Si Si7 0.775597 0.188583 0.307349
Si Si8 0.599356 0.222231 0.146381
O O1 0.084678 0.269600 0.618267
O O2 0.137942 0.396765 0.397673
O O3 0.079636 0.310704 0.361469
O O4 0.008167 0.384698 0.763650
O O5 0.500000 0.401744 0.500000
O O6 0.548870 0.359714 0.615343
O O7 0.452088 0.284576 0.769052
O O8 0.430101 0.412564 0.958441
O O9 0.120535 0.859098 0.657008
O O10 0.000000 0.814829 0.000000
O O11 0.808913 0.877931 0.307580
O O12 0.849244 0.000000 0.339662
O O13 0.398492 0.149934 0.968567
O O14 0.430857 0.000000 0.924531
O O15 0.393396 0.089618 0.240807
O O16 0.279410 0.850565 0.631815
O O17 0.303817 0.000000 0.605078
O O18 0.750000 0.250000 0.500000
O O19 0.832348 0.231770 0.050274
#
# Coordination Sequence:
#
# PCOD9176602 Si02
#       8
#     8   8   8   8   8   8   8   8
#     4  12  22  36  62  93 131 159 201 255 313 370
#     4  10  18  35  58  89 123 156 198 246 297 361
#     4  10  19  32  59  85 122 160 201 245 291 363
#     4  10  23  38  59  88 117 157 202 253 309 357
#     4  11  22  38  62  94 130 165 200 250 316 379
#     4  11  24  40  62  91 125 168 214 257 307 367
#     4  11  22  43  69  84 114 160 216 257 300 360
#     4  11  22  38  62  92 121 161 207 250 306 367
#
# _framework density 19.764381
#
# number of rings (size 3 to 8) (size 9 to 14) (size 15 to 20)
#    0.000    1.250    3.750    3.000    1.750    5.500 
#    0.000    0.000    0.000    1.500    0.000    0.000 
#    0.000    0.000    0.000    0.000    0.000    0.000 
#
# Total GULP energy -178763.426288 kJ/mol
# GULP energy per Si atom -5586.357071 kJ/mol
# Density = 1.971940 g / cm^3
# Si number density = 19.764381 Si / 1000 Ang^3
#
#
#
# Elastic Constant Matrix: (Units=GPa)
#
#
# Indices 1 2 3 4 5 6 
#
# 1 86.2257 23.0792 10.7788 0.0000 -4.1458 0.0000
# 2 23.0792 103.3942 6.4735 0.0000 -1.8631 0.0000
# 3 10.7788 6.4735 32.5509 0.0000 -4.8784 0.0000
# 4 0.0000 0.0000 0.0000 13.6502 0.0000 -2.6139
# 5 -4.1458 -1.8631 -4.8784 0.0000 29.0324 0.0000
# 6 0.0000 0.0000 0.0000 -2.6139 0.0000 16.5158
#
#
#
# Elastic Compliance Matrix: (Units=1/GPa)
#
#
# Indices 1 2 3 4 5 6 
#
# 1 0.012793 -0.002614 -0.003557 0.000000 0.001061 0.000000
# 2 -0.002614 0.010330 -0.001175 0.000000 0.000092 0.000000
# 3 -0.003557 -0.001175 0.032873 0.000000 0.004940 0.000000
# 4 0.000000 0.000000 0.000000 0.075549 0.000000 0.011957
# 5 0.001061 0.000092 0.004940 0.000000 0.035432 0.000000
# 6 0.000000 0.000000 0.000000 0.011957 0.000000 0.062440
#
#
# Mechanical properties :
#
#
# Convention : Reuss Voigt Hill
#
# Bulk Modulus (GPa) = 24.21067 33.64819 28.92943
# Shear Modulus (GPa) = 19.38903 23.96229 21.67566
#
# Velocity S-wave (km/s) = 3.13550 3.48573 3.31524
# Velocity P-wave (km/s) = 5.03833 5.76732 5.41511
#
# Compressibility (1/GPa) = 0.04130411
#
# Stress axis : x y z
#
# Youngs Moduli (GPa) = 78.16916 96.80187 30.41991
#
# Poissons Ratio (x) = 0.25301 0.10821
# Poissons Ratio (y) = 0.20431 0.03575
# Poissons Ratio (z) = 0.27807 0.11375
#
# Static dielectric constant tensor:
#      x y z
#    x 1.697300 0.000000 0.003310 
#    y 0.000000 1.707580 0.000000 
#    z 0.003310 0.000000 1.695050 
# 
# From -- ./inp_files/112820.got.cif
#   From: 2010.05.17/outbox.cif.g08.bks.cpg/sg12_57_cif.got.tgz:112820.got - 2010.06.03 13:09:07.
