data_PCOD9176179
_publ_section_title
;
Structure prediction by ZEFSAII (Michael W. Deem and Ramdas Pophale) SiO2 
 PCOD9176179
Probable space group: C 2/M
;
_chemical_formula_sum "Si O2"
_cell_formula_units_Z 56
_cell_length_a 16.381340
_cell_length_b 25.647554
_cell_length_c 9.419115
_cell_angle_alpha 90.000000
_cell_angle_beta 47.962862
_cell_angle_gamma 90.000000
_cell_volume 2939.174050
_symmetry_space_group_name_H-M "C 2/M"
_symmetry_group_IT_number 12
_symmetry_cell_setting 'monoclinic'
loop_
_space_group_symop_operation_xyz
x,y,z
-x,y,-z
-x,-y,-z
x,-y,z
1/2+x,1/2+y,z
1/2-x,1/2+y,-z
1/2-x,1/2-y,-z
1/2+x,1/2-y,z
loop_
_atom_site_type_symbol
_atom_site_label
_atom_site_fract_x
_atom_site_fract_y
_atom_site_fract_z
Si Si1 0.514490 0.774254 0.638126
Si Si2 0.597442 0.141389 0.772523
Si Si3 0.760848 0.937506 0.448387
Si Si4 0.768373 0.225377 0.633638
Si Si5 0.401266 0.285174 0.002470
Si Si6 0.105879 0.908789 0.969516
Si Si7 0.524014 0.561219 0.626168
O O1 0.500000 0.798081 0.500000
O O2 0.555095 0.819144 0.698953
O O3 0.601950 0.727525 0.506575
O O4 0.420211 0.744654 0.833892
O O5 0.653956 0.091490 0.633728
O O6 0.698358 0.173069 0.728101
O O7 0.500000 0.131892 0.000000
O O8 0.791348 0.922484 0.249998
O O9 0.867475 0.918676 0.417302
O O10 0.751827 0.000000 0.467821
O O11 0.750000 0.250000 0.500000
O O12 0.713399 0.266498 0.802156
O O13 0.500000 0.270123 0.000000
O O14 0.402281 0.347126 0.995416
O O15 0.000000 0.926213 0.000000
O O16 0.082622 0.933721 0.148906
O O17 0.500000 0.584794 0.500000
O O18 0.546992 0.500000 0.580041
#
# Coordination Sequence:
#
# PCOD9176179 Si02
#       7
#     8   8   8   8   8   8   8
#     4  11  23  36  56  87 121 146 187 240 284 337
#     4  11  21  41  61  77 109 158 199 238 284 338
#     4  10  21  37  59  87 110 151 203 239 282 339
#     4  10  18  34  57  75 107 151 185 216 274 337
#     4  11  18  34  54  84 111 152 191 221 274 348
#     4   9  18  29  53  81 116 146 185 224 277 346
#     4   9  18  34  55  84 122 150 178 235 299 345
#
# _framework density 19.052972
#
# number of rings (size 3 to 8) (size 9 to 14) (size 15 to 20)
#    0.000    1.857    4.286    2.143    4.000    3.143 
#    0.000    1.429    0.000    0.429    0.000    0.000 
#    0.000    0.000    0.000    0.000    0.000    0.000 
#
# Total GULP energy -155969.227651 kJ/mol
# GULP energy per Si atom -5570.329559 kJ/mol
# Density = 1.900961 g / cm^3
# Si number density = 19.052972 Si / 1000 Ang^3
#
#
#
# Elastic Constant Matrix: (Units=GPa)
#
#
# Indices 1 2 3 4 5 6 
#
# 1 26.2557 14.4538 44.4128 0.0000 11.2346 0.0000
# 2 14.4538 54.7554 30.9576 0.0000 -1.7586 0.0000
# 3 44.4128 30.9576 170.6178 0.0000 -2.0657 0.0000
# 4 0.0000 0.0000 0.0000 507.1644 0.0000 -20.9666
# 5 11.2346 -1.7586 -2.0657 0.0000 28.8925 0.0000
# 6 0.0000 0.0000 0.0000 -20.9666 0.0000 9.1761
#
#
#
# Elastic Compliance Matrix: (Units=1/GPa)
#
#
# Indices 1 2 3 4 5 6 
#
# 1 0.112273 -0.015923 -0.026900 0.000000 -0.046549 0.000000
# 2 -0.015923 0.022637 0.000129 0.000000 0.007579 0.000000
# 3 -0.026900 0.000129 0.012978 0.000000 0.011396 0.000000
# 4 0.000000 0.000000 0.000000 0.002177 0.000000 0.004975
# 5 -0.046549 0.007579 0.011396 0.000000 0.053987 0.000000
# 6 0.000000 0.000000 0.000000 0.004975 0.000000 0.120347
#
#
# Mechanical properties :
#
#
# Convention : Reuss Voigt Hill
#
# Bulk Modulus (GPa) = 15.99993 47.91969 31.95981
# Shear Modulus (GPa) = 11.61117 119.83358 65.72238
#
# Velocity S-wave (km/s) = 2.47131 7.93924 5.87958
# Velocity P-wave (km/s) = 4.06928 10.45215 7.93115
#
# Compressibility (1/GPa) = 0.06250028
#
# Stress axis : x y z
#
# Youngs Moduli (GPa) = 8.90685 44.17643 77.05507
#
# Poissons Ratio (x) = 0.70343 2.07277
# Poissons Ratio (y) = 0.14182 -0.00997
# Poissons Ratio (z) = 0.23959 -0.00572
#
# Static dielectric constant tensor:
#      x y z
#    x 1.764270 0.000000 0.021030 
#    y 0.000000 1.681480 0.000000 
#    z 0.021030 0.000000 1.668190 
# 
# From -- ./inp_files/79063.got.cif
#   From: 2010.05.17/outbox.cif.g08.bks.cpg/sg12_40_cif.got.tgz:79063.got - 2010.06.03 13:09:07.
