data_PCOD9176170
_publ_section_title
;
Structure prediction by ZEFSAII (Michael W. Deem and Ramdas Pophale) SiO2 
 PCOD9176170
Probable space group: C 2/M
;
_chemical_formula_sum "Si O2"
_cell_formula_units_Z 56
_cell_length_a 5.051189
_cell_length_b 26.306566
_cell_length_c 17.722971
_cell_angle_alpha 90.000000
_cell_angle_beta 110.329577
_cell_angle_gamma 90.000000
_cell_volume 2208.323640
_symmetry_space_group_name_H-M "C 2/M"
_symmetry_group_IT_number 12
_symmetry_cell_setting 'monoclinic'
loop_
_space_group_symop_operation_xyz
x,y,z
-x,y,-z
-x,-y,-z
x,-y,z
1/2+x,1/2+y,z
1/2-x,1/2+y,-z
1/2-x,1/2-y,-z
1/2+x,1/2-y,z
loop_
_atom_site_type_symbol
_atom_site_label
_atom_site_fract_x
_atom_site_fract_y
_atom_site_fract_z
Si Si1 0.456988 0.500000 0.692900
Si Si2 0.674548 0.623097 0.949175
Si Si3 0.794577 0.778659 0.874196
Si Si4 0.218539 0.610329 0.368034
Si Si5 0.757865 0.305832 0.297258
Si Si6 0.676367 0.689743 0.445510
Si Si7 0.881532 0.099115 0.223029
Si Si8 0.129066 0.500000 0.399297
O O1 0.425455 0.550804 0.737847
O O2 0.742424 0.500000 0.673553
O O3 0.197834 0.500000 0.610023
O O4 0.466386 0.671295 0.913473
O O5 0.702025 0.594487 0.871705
O O6 0.500000 0.596128 0.000000
O O7 0.000000 0.635260 0.000000
O O8 0.526462 0.766012 0.898367
O O9 0.676292 0.780395 0.776369
O O10 0.523430 0.635930 0.411786
O O11 0.172566 0.597928 0.273938
O O12 0.201410 0.560278 0.418970
O O13 0.002723 0.657063 0.352914
O O14 0.649170 0.279662 0.363664
O O15 0.517963 0.345797 0.246957
O O16 0.500000 0.710150 0.500000
O O17 0.000000 0.683569 0.500000
#
# Coordination Sequence:
#
# PCOD9176170 Si02
#       8
#     4   8   8   8   8   8   8   4
#     4  10  18  34  56  88 119 155 203 264 298 333
#     4  11  25  41  63  89 127 166 198 237 302 368
#     4  11  26  42  66  95 122 150 199 251 303 358
#     4  10  20  37  63  89 120 160 211 251 300 348
#     4  10  21  38  67  88 118 158 204 251 299 359
#     4  11  22  37  60  90 122 162 206 240 296 364
#     4   9  21  35  61  90 119 159 212 253 295 349
#     4  10  20  32  56  91 119 154 205 262 296 343
#
# _framework density 25.358602000000001
#
# number of rings (size 3 to 8) (size 9 to 14) (size 15 to 20)
#    0.000    1.714    2.857    0.857   10.000    1.714 
#    0.000    1.429    0.000    2.571    0.000    0.000 
#    0.000    0.000    0.000    0.000    0.000    0.000 
#
# Total GULP energy -156055.950865 kJ/mol
# GULP energy per Si atom -5573.426817 kJ/mol
# Density = 2.530089 g / cm^3
# Si number density = 25.358602 Si / 1000 Ang^3
#
#
#
# Elastic Constant Matrix: (Units=GPa)
#
#
# Indices 1 2 3 4 5 6 
#
# 1 105.9874 4.2092 33.1434 0.0000 -3.4135 0.0000
# 2 4.2092 31.1282 -28.9621 0.0000 -4.3685 0.0000
# 3 33.1434 -28.9621 87.2396 0.0000 -23.4335 0.0000
# 4 0.0000 0.0000 0.0000 10.8045 0.0000 1.2643
# 5 -3.4135 -4.3685 -23.4335 0.0000 38.0111 0.0000
# 6 0.0000 0.0000 0.0000 1.2643 0.0000 26.3105
#
#
#
# Elastic Compliance Matrix: (Units=1/GPa)
#
#
# Indices 1 2 3 4 5 6 
#
# 1 0.013393 -0.013754 -0.011692 0.000000 -0.007586 0.000000
# 2 -0.013754 0.073435 0.037799 0.000000 0.030507 0.000000
# 3 -0.011692 0.037799 0.035161 0.000000 0.024970 0.000000
# 4 0.000000 0.000000 0.000000 0.093077 0.000000 -0.004473
# 5 -0.007586 0.030507 0.024970 0.000000 0.044527 0.000000
# 6 0.000000 0.000000 0.000000 -0.004473 0.000000 0.038223
#
#
# Mechanical properties :
#
#
# Convention : Reuss Voigt Hill
#
# Bulk Modulus (GPa) = 6.81687 26.79292 16.80490
# Shear Modulus (GPa) = 15.52757 29.42287 22.47522
#
# Velocity S-wave (km/s) = 2.47719 3.40997 2.98030
# Velocity P-wave (km/s) = 3.29788 5.10807 4.29933
#
# Compressibility (1/GPa) = 0.14669481
#
# Stress axis : x y z
#
# Youngs Moduli (GPa) = 74.66465 13.61749 28.44095
#
# Poissons Ratio (x) = 0.18730 0.33253
# Poissons Ratio (y) = 1.02694 -1.07504
# Poissons Ratio (z) = 0.87298 -0.51473
#
# Static dielectric constant tensor:
#      x y z
#    x 2.073420 0.000000 -0.029500 
#    y 0.000000 2.099290 0.000000 
#    z -0.029500 0.000000 2.081310 
# 
# From -- ./inp_files/254062.got.cif
#   From: 2010.05.17/outbox.cif.g08.bks.cpg/sg12_128_cif.got.tgz:254062.got - 2010.06.03 13:09:07.
