data_PCOD9176141
_publ_section_title
;
Structure prediction by ZEFSAII (Michael W. Deem and Ramdas Pophale) SiO2 
 PCOD9176141
Probable space group: C 2/M
;
_chemical_formula_sum "Si O2"
_cell_formula_units_Z 64
_cell_length_a 15.133221
_cell_length_b 8.281128
_cell_length_c 30.494097
_cell_angle_alpha 90.000000
_cell_angle_beta 60.587265
_cell_angle_gamma 90.000000
_cell_volume 3328.947876
_symmetry_space_group_name_H-M "C 2/M"
_symmetry_group_IT_number 12
_symmetry_cell_setting 'monoclinic'
loop_
_space_group_symop_operation_xyz
x,y,z
-x,y,-z
-x,-y,-z
x,-y,z
1/2+x,1/2+y,z
1/2-x,1/2+y,-z
1/2-x,1/2-y,-z
1/2+x,1/2-y,z
loop_
_atom_site_type_symbol
_atom_site_label
_atom_site_fract_x
_atom_site_fract_y
_atom_site_fract_z
Si Si1 0.817051 0.305002 0.118528
Si Si2 0.148512 0.691655 0.499386
Si Si3 0.054974 0.304922 0.753515
Si Si4 0.220094 0.197435 0.310530
Si Si5 0.072544 0.193547 0.423789
Si Si6 0.776689 0.307543 0.945090
Si Si7 0.500617 0.803027 0.865324
Si Si8 0.844640 0.806110 0.770174
O O1 0.815267 0.500000 0.118585
O O2 0.801368 0.246358 0.073223
O O3 0.920648 0.252457 0.116535
O O4 0.725415 0.246944 0.172552
O O5 0.154942 0.500000 0.494109
O O6 0.250000 0.750000 0.500000
O O7 0.130573 0.762613 0.454864
O O8 0.041529 0.736627 0.548751
O O9 0.052485 0.500000 0.753733
O O10 0.164137 0.252658 0.709105
O O11 0.039709 0.253035 0.807887
O O12 0.959987 0.240828 0.750010
O O13 0.140072 0.250701 0.366428
O O14 0.192446 0.251358 0.268183
O O15 0.218334 0.000000 0.311073
O O16 0.063135 0.000000 0.424561
O O17 0.781051 0.500000 0.944422
O O18 0.887476 0.245465 0.902973
O O19 0.750000 0.250000 0.000000
O O20 0.499740 0.000000 0.865188
O O21 0.834995 0.000000 0.772407
#
# Coordination Sequence:
#
# PCOD9176141 Si02
#       8
#     8   8   8   8   8   8   8   8
#     4  10  19  35  59  81 104 140 182 223 267 325
#     4  11  22  39  62  86 114 155 201 246 294 346
#     4  10  18  34  56  80 108 146 188 223 264 326
#     4   9  19  35  57  83 117 153 186 225 276 336
#     4  10  20  37  59  88 121 155 193 241 294 347
#     4  11  23  39  57  81 109 140 179 229 280 330
#     4   9  18  34  58  79 103 142 183 216 262 332
#     4  10  19  33  54  82 111 143 181 224 273 323
#
# _framework density 19.225293000000001
#
# number of rings (size 3 to 8) (size 9 to 14) (size 15 to 20)
#    0.000    2.000    2.500    2.625    0.000    1.500 
#    0.000   10.000    0.000    0.000    0.000    0.000 
#    0.000    0.000    0.000    0.000    0.000    0.000 
#
# Total GULP energy -178622.396835 kJ/mol
# GULP energy per Si atom -5581.949901 kJ/mol
# Density = 1.918154 g / cm^3
# Si number density = 19.225293 Si / 1000 Ang^3
#
#
#
# Elastic Constant Matrix: (Units=GPa)
#
#
# Indices 1 2 3 4 5 6 
#
# 1 83.9728 -1.3660 -14.2680 0.0000 -1.4752 0.0000
# 2 -1.3660 18.4206 -0.7229 0.0000 -0.4916 0.0000
# 3 -14.2680 -0.7229 50.9550 0.0000 -3.1451 0.0000
# 4 0.0000 0.0000 0.0000 16.0980 0.0000 -2.7183
# 5 -1.4752 -0.4916 -3.1451 0.0000 19.9745 0.0000
# 6 0.0000 0.0000 0.0000 -2.7183 0.0000 28.8417
#
#
#
# Elastic Compliance Matrix: (Units=1/GPa)
#
#
# Indices 1 2 3 4 5 6 
#
# 1 0.012570 0.001115 0.003630 0.000000 0.001527 0.000000
# 2 0.001115 0.054459 0.001184 0.000000 0.001609 0.000000
# 3 0.003630 0.001184 0.020880 0.000000 0.003585 0.000000
# 4 0.000000 0.000000 0.000000 0.063124 0.000000 0.005949
# 5 0.001527 0.001609 0.003585 0.000000 0.050781 0.000000
# 6 0.000000 0.000000 0.000000 0.005949 0.000000 0.035233
#
#
# Mechanical properties :
#
#
# Convention : Reuss Voigt Hill
#
# Bulk Modulus (GPa) = 10.02323 13.40385 11.71354
# Shear Modulus (GPa) = 19.34657 24.29652 21.82154
#
# Velocity S-wave (km/s) = 3.17568 3.55882 3.37270
# Velocity P-wave (km/s) = 4.32105 4.88611 4.61224
#
# Compressibility (1/GPa) = 0.09976828
#
# Stress axis : x y z
#
# Youngs Moduli (GPa) = 79.55212 18.36237 47.89356
#
# Poissons Ratio (x) = -0.02048 -0.17385
# Poissons Ratio (y) = -0.08873 -0.05672
# Poissons Ratio (z) = -0.28877 -0.02174
#
# Static dielectric constant tensor:
#      x y z
#    x 1.654330 0.000000 -0.009810 
#    y 0.000000 1.676850 0.000000 
#    z -0.009810 0.000000 1.665530 
# 
# From -- ./inp_files/375010.got.cif
#   From: 2010.05.17/outbox.cif.g08.bks.cpg/sg12_188_cif.got.tgz:375010.got - 2010.06.03 13:09:07.
