data_PCOD9176488
_publ_section_title
;
Structure prediction by ZEFSAII (Michael W. Deem and Ramdas Pophale) SiO2 
 PCOD9176488
Probable space group: C 2/M
;
_chemical_formula_sum "Si O2"
_cell_formula_units_Z 24
_cell_length_a 13.532540
_cell_length_b 12.806215
_cell_length_c 7.534554
_cell_angle_alpha 90.000000
_cell_angle_beta 132.768426
_cell_angle_gamma 90.000000
_cell_volume 958.551279
_symmetry_space_group_name_H-M "C 2/M"
_symmetry_group_IT_number 12
_symmetry_cell_setting 'monoclinic'
loop_
_space_group_symop_operation_xyz
x,y,z
-x,y,-z
-x,-y,-z
x,-y,z
1/2+x,1/2+y,z
1/2-x,1/2+y,-z
1/2-x,1/2-y,-z
1/2+x,1/2-y,z
loop_
_atom_site_type_symbol
_atom_site_label
_atom_site_fract_x
_atom_site_fract_y
_atom_site_fract_z
Si Si1 0.136603 0.000000 0.062446
Si Si2 0.083047 0.500000 0.414083
Si Si3 0.858485 0.117747 0.275877
Si Si4 0.131842 0.301401 0.236730
O O1 0.261101 0.000000 0.342663
O O2 0.147469 0.096327 0.939229
O O3 0.000000 0.000000 0.000000
O O4 0.068854 0.397252 0.274607
O O5 0.000000 0.500000 0.500000
O O6 0.722505 0.164373 0.181132
O O7 0.000000 0.171055 0.500000
O O8 0.865103 0.000000 0.368513
O O9 0.250000 0.250000 0.500000
O O10 0.000000 0.243452 0.000000
#
# Coordination Sequence:
#
# PCOD9176488 Si02
#       4
#     4   4   8   8
#     4  10  18  34  68 108 132 177 232 287 355 431
#     4  12  24  44  74 104 139 191 242 299 365 433
#     4   9  19  40  70 102 143 182 234 294 361 422
#     4  12  27  48  72 106 147 196 243 303 362 435
#
# _framework density 25.037785
#
# number of rings (size 3 to 8) (size 9 to 14) (size 15 to 20)
#    1.000    0.333    1.667    4.500    0.000    5.333 
#    0.000    5.000    0.000    0.000    0.000    0.000 
#    0.000    0.000    0.000    0.000    0.000    0.000 
#
# Total GULP energy -67069.484556 kJ/mol
# GULP energy per Si atom -5589.123713 kJ/mol
# Density = 2.498080 g / cm^3
# Si number density = 25.037785 Si / 1000 Ang^3
#
#
#
# Elastic Constant Matrix: (Units=GPa)
#
#
# Indices 1 2 3 4 5 6 
#
# 1 243.3197 47.0180 59.5576 0.0000 12.1407 0.0000
# 2 47.0180 75.6913 21.1809 0.0000 -3.5283 0.0000
# 3 59.5576 21.1809 167.9201 0.0000 36.9977 0.0000
# 4 0.0000 0.0000 0.0000 -69.4044 0.0000 19.0314
# 5 12.1407 -3.5283 36.9977 0.0000 61.4184 0.0000
# 6 0.0000 0.0000 0.0000 19.0314 0.0000 23.0501
#
#
#
# Elastic Compliance Matrix: (Units=1/GPa)
#
#
# Indices 1 2 3 4 5 6 
#
# 1 0.004985 -0.002734 -0.001351 0.000000 -0.000329 0.000000
# 2 -0.002734 0.015435 -0.001489 0.000000 0.002324 0.000000
# 3 -0.001351 -0.001489 0.007590 0.000000 -0.004390 0.000000
# 4 0.000000 0.000000 0.000000 -0.011748 0.000000 0.009700
# 5 -0.000329 0.002324 -0.004390 0.000000 0.019125 0.000000
# 6 0.000000 0.000000 0.000000 0.009700 0.000000 0.035375
#
#
# Mechanical properties :
#
#
# Convention : Reuss Voigt Hill
#
# Bulk Modulus (GPa) = 59.30739 82.49378 70.90059
# Shear Modulus (GPa) = 57.12332 26.95777 42.04055
#
# Velocity S-wave (km/s) = 4.78167 3.28485 4.10211
# Velocity P-wave (km/s) = 7.36372 6.88522 7.12849
#
# Compressibility (1/GPa) = 0.01686131
#
# Stress axis : x y z
#
# Youngs Moduli (GPa) = 200.59465 64.78785 131.76069
#
# Poissons Ratio (x) = 0.17713 0.17799
# Poissons Ratio (y) = 0.54843 0.19624
# Poissons Ratio (z) = 0.27097 0.09649
#
# Static dielectric constant tensor:
#      x y z
#    x 1.922370 0.000000 -0.023040 
#    y 0.000000 2.171010 0.000000 
#    z -0.023040 0.000000 2.025960 
# 
# From -- ./inp_files/57566.got.cif
#   From: 2010.05.17/outbox.cif.g08.bks.cpg/sg12_29_cif.got.tgz:57566.got - 2010.06.03 13:09:07.
