data_PCOD9176467
_publ_section_title
;
Structure prediction by ZEFSAII (Michael W. Deem and Ramdas Pophale) SiO2 
 PCOD9176467
Probable space group: C 2/M
;
_chemical_formula_sum "Si O2"
_cell_formula_units_Z 44
_cell_length_a 17.161739
_cell_length_b 18.875055
_cell_length_c 5.866513
_cell_angle_alpha 90.000000
_cell_angle_beta 101.370898
_cell_angle_gamma 90.000000
_cell_volume 1863.031545
_symmetry_space_group_name_H-M "C 2/M"
_symmetry_group_IT_number 12
_symmetry_cell_setting 'monoclinic'
loop_
_space_group_symop_operation_xyz
x,y,z
-x,y,-z
-x,-y,-z
x,-y,z
1/2+x,1/2+y,z
1/2-x,1/2+y,-z
1/2-x,1/2-y,-z
1/2+x,1/2-y,z
loop_
_atom_site_type_symbol
_atom_site_label
_atom_site_fract_x
_atom_site_fract_y
_atom_site_fract_z
Si Si1 0.092382 0.635999 0.603260
Si Si2 0.641001 0.387720 0.264556
Si Si3 0.500000 0.619139 0.500000
Si Si4 0.273614 0.075357 0.019782
Si Si5 0.425353 0.727800 0.100889
Si Si6 0.274131 0.175897 0.631872
O O1 0.099777 0.707065 0.759361
O O2 0.138048 0.654905 0.397477
O O3 0.000000 0.618730 0.500000
O O4 0.150314 0.581545 0.767688
O O5 0.562899 0.414660 0.355664
O O6 0.708237 0.375965 0.489666
O O7 0.689150 0.428697 0.099538
O O8 0.622388 0.313139 0.124633
O O9 0.448857 0.668183 0.300055
O O10 0.270535 0.151563 0.890136
O O11 0.283056 0.000000 0.895270
O O12 0.500000 0.754535 0.000000
O O13 0.250000 0.250000 0.500000
#
# Coordination Sequence:
#
# PCOD9176467 Si02
#       6
#     8   8   4   8   8   8
#     4  11  24  39  64  98 134 171 224 279 332 397
#     4  10  21  38  63  96 131 169 218 273 340 406
#     4  10  18  34  63 102 135 166 202 274 348 402
#     4  11  26  45  64  90 135 188 230 273 332 401
#     4  10  20  34  64 101 137 164 206 280 349 394
#     4  11  23  40  66  97 133 171 227 285 342 389
#
# _framework density 23.617419999999999
#
# number of rings (size 3 to 8) (size 9 to 14) (size 15 to 20)
#    0.000    1.455    0.909    4.364    5.091    6.182 
#    0.000    1.364    0.000   10.364    0.000    0.000 
#    0.000    0.000    0.000    0.000    0.000    0.000 
#
# Total GULP energy -122482.139396 kJ/mol
# GULP energy per Si atom -5567.369973 kJ/mol
# Density = 2.356367 g / cm^3
# Si number density = 23.617420 Si / 1000 Ang^3
#
#
#
# Elastic Constant Matrix: (Units=GPa)
#
#
# Indices 1 2 3 4 5 6 
#
# 1 159.5939 35.1819 40.2897 0.0000 -29.7584 0.0000
# 2 35.1819 89.8767 12.6871 0.0000 -7.9693 0.0000
# 3 40.2897 12.6871 85.3301 0.0000 -5.1867 0.0000
# 4 0.0000 0.0000 0.0000 132.3027 0.0000 190.5904
# 5 -29.7584 -7.9693 -5.1867 0.0000 52.8985 0.0000
# 6 0.0000 0.0000 0.0000 190.5904 0.0000 278.1924
#
#
#
# Elastic Compliance Matrix: (Units=1/GPa)
#
#
# Indices 1 2 3 4 5 6 
#
# 1 0.008408 -0.002460 -0.003359 0.000000 0.004030 0.000000
# 2 -0.002460 0.012213 -0.000631 0.000000 0.000394 0.000000
# 3 -0.003359 -0.000631 0.013358 0.000000 -0.000675 0.000000
# 4 0.000000 0.000000 0.000000 0.578448 0.000000 -0.396296
# 5 0.004030 0.000394 -0.000675 0.000000 0.021164 0.000000
# 6 0.000000 0.000000 0.000000 -0.396296 0.000000 0.275098
#
#
# Mechanical properties :
#
#
# Convention : Reuss Voigt Hill
#
# Bulk Modulus (GPa) = 47.43807 56.79092 52.11450
# Shear Modulus (GPa) = 5.38437 109.12153 57.25295
#
# Velocity S-wave (km/s) = 1.51155 6.80471 4.92894
# Velocity P-wave (km/s) = 4.81415 9.26484 7.38286
#
# Compressibility (1/GPa) = 0.02108011
#
# Stress axis : x y z
#
# Youngs Moduli (GPa) = 118.94097 81.87903 74.86174
#
# Poissons Ratio (x) = 0.20139 0.25147
# Poissons Ratio (y) = 0.29255 0.04721
# Poissons Ratio (z) = 0.39953 0.05163
#
# Static dielectric constant tensor:
#      x y z
#    x 1.906620 0.000000 -0.026080 
#    y 0.000000 1.918600 0.000000 
#    z -0.026080 0.000000 1.935620 
# 
# From -- ./inp_files/16134.got.cif
#   From: 2010.05.17/outbox.cif.g08.bks.cpg/sg12_9_cif.got.tgz:16134.got - 2010.06.03 13:09:07.
