data_PCOD9176860
_publ_section_title
;
Structure prediction by ZEFSAII (Michael W. Deem and Ramdas Pophale) SiO2 
 PCOD9176860
Probable space group: C 2/M
;
_chemical_formula_sum "Si O2"
_cell_formula_units_Z 56
_cell_length_a 18.213319
_cell_length_b 17.959879
_cell_length_c 9.051002
_cell_angle_alpha 90.000000
_cell_angle_beta 108.629824
_cell_angle_gamma 90.000000
_cell_volume 2805.532130
_symmetry_space_group_name_H-M "C 2/M"
_symmetry_group_IT_number 12
_symmetry_cell_setting 'monoclinic'
loop_
_space_group_symop_operation_xyz
x,y,z
-x,y,-z
-x,-y,-z
x,-y,z
1/2+x,1/2+y,z
1/2-x,1/2+y,-z
1/2-x,1/2-y,-z
1/2+x,1/2-y,z
loop_
_atom_site_type_symbol
_atom_site_label
_atom_site_fract_x
_atom_site_fract_y
_atom_site_fract_z
Si Si1 0.577238 0.126705 0.644347
Si Si2 0.686028 0.194117 0.213831
Si Si3 0.785278 0.586365 0.487326
Si Si4 0.863747 0.211077 0.316288
Si Si5 0.917542 0.416889 0.023153
Si Si6 0.974127 0.915281 0.309832
Si Si7 0.373854 0.664571 0.666279
O O1 0.500000 0.116725 0.500000
O O2 0.650253 0.099757 0.595626
O O3 0.590212 0.213937 0.687648
O O4 0.571596 0.085420 0.795144
O O5 0.694888 0.140589 0.363199
O O6 0.772852 0.217463 0.225466
O O7 0.638469 0.266960 0.231220
O O8 0.643002 0.145269 0.065068
O O9 0.784200 0.500000 0.531127
O O10 0.700872 0.611092 0.375106
O O11 0.901872 0.140590 0.260067
O O12 0.872115 0.198058 0.498361
O O13 0.892365 0.500000 0.960597
O O14 0.000000 0.401669 0.000000
O O15 0.000000 0.916938 0.500000
O O16 0.046509 0.880382 0.268978
O O17 0.956926 0.000000 0.255044
#
# Coordination Sequence:
#
# PCOD9176860 Si02
#       7
#     8   8   8   8   8   8   8
#     4  12  23  40  65  91 121 163 210 260 314 371
#     4  11  21  40  62  89 126 168 205 254 314 375
#     4  11  21  35  61  92 123 164 210 258 312 366
#     4  10  20  35  61  93 123 157 212 256 300 369
#     4  11  27  44  60  90 128 163 206 258 317 380
#     4   9  18  30  53  89 125 160 203 258 312 359
#     4  10  18  36  58  89 128 163 206 260 304 372
#
# _framework density 19.960560999999998
#
# number of rings (size 3 to 8) (size 9 to 14) (size 15 to 20)
#    0.000    1.429    2.857    4.286    2.000    6.857 
#    0.000    0.000    0.000    0.000    0.000    1.000 
#    0.000    0.000    0.000    0.000    0.000    0.000 
#
# Total GULP energy -156536.842977 kJ/mol
# GULP energy per Si atom -5590.601535 kJ/mol
# Density = 1.991513 g / cm^3
# Si number density = 19.960561 Si / 1000 Ang^3
#
#
#
# Elastic Constant Matrix: (Units=GPa)
#
#
# Indices 1 2 3 4 5 6 
#
# 1 98.7505 25.0270 22.9571 0.0000 -7.8374 0.0000
# 2 25.0270 97.4179 0.8028 0.0000 0.5340 0.0000
# 3 22.9571 0.8028 48.8300 0.0000 1.0223 0.0000
# 4 0.0000 0.0000 0.0000 -16.3106 0.0000 23.2037
# 5 -7.8374 0.5340 1.0223 0.0000 9.8791 0.0000
# 6 0.0000 0.0000 0.0000 23.2037 0.0000 9.1570
#
#
#
# Elastic Compliance Matrix: (Units=1/GPa)
#
#
# Indices 1 2 3 4 5 6 
#
# 1 0.013427 -0.003459 -0.006497 0.000000 0.011511 0.000000
# 2 -0.003459 0.011160 0.001516 0.000000 -0.003504 0.000000
# 3 -0.006497 0.001516 0.023670 0.000000 -0.007685 0.000000
# 4 0.000000 0.000000 0.000000 -0.013314 0.000000 0.033738
# 5 0.011511 -0.003504 -0.007685 0.000000 0.111341 0.000000
# 6 0.000000 0.000000 0.000000 0.033738 0.000000 0.023715
#
#
# Mechanical properties :
#
#
# Convention : Reuss Voigt Hill
#
# Bulk Modulus (GPa) = 31.86977 38.06359 34.96668
# Shear Modulus (GPa) = 25.33728 13.62587 19.48158
#
# Velocity S-wave (km/s) = 3.56668 2.61557 3.12749
# Velocity P-wave (km/s) = 5.74131 5.31342 5.53150
#
# Compressibility (1/GPa) = 0.03137770
#
# Stress axis : x y z
#
# Youngs Moduli (GPa) = 74.47611 89.60245 42.24832
#
# Poissons Ratio (x) = 0.30994 0.27448
# Poissons Ratio (y) = 0.25762 -0.06405
# Poissons Ratio (z) = 0.48386 -0.13585
#
# Static dielectric constant tensor:
#      x y z
#    x 1.683430 0.000000 -0.001660 
#    y 0.000000 1.699450 0.000000 
#    z -0.001660 0.000000 1.677480 
# 
# From -- ./inp_files/76025.got.cif
#   From: 2010.05.17/outbox.cif.g08.bks.cpg/sg12_39_cif.got.tgz:76025.got - 2010.06.03 13:09:07.
