data_PCOD9176924
_publ_section_title
;
Structure prediction by ZEFSAII (Michael W. Deem and Ramdas Pophale) SiO2 
 PCOD9176924
Probable space group: C 2/M
;
_chemical_formula_sum "Si O2"
_cell_formula_units_Z 44
_cell_length_a 25.289988
_cell_length_b 12.783920
_cell_length_c 12.612313
_cell_angle_alpha 90.000000
_cell_angle_beta 150.188788
_cell_angle_gamma 90.000000
_cell_volume 2027.166410
_symmetry_space_group_name_H-M "C 2/M"
_symmetry_group_IT_number 12
_symmetry_cell_setting 'monoclinic'
loop_
_space_group_symop_operation_xyz
x,y,z
-x,y,-z
-x,-y,-z
x,-y,z
1/2+x,1/2+y,z
1/2-x,1/2+y,-z
1/2-x,1/2-y,-z
1/2+x,1/2-y,z
loop_
_atom_site_type_symbol
_atom_site_label
_atom_site_fract_x
_atom_site_fract_y
_atom_site_fract_z
Si Si1 0.820661 0.882640 0.170924
Si Si2 0.187925 0.500000 0.610707
Si Si3 0.877287 0.337419 0.318082
Si Si4 0.844457 0.878537 0.576401
Si Si5 0.191254 0.808156 0.265206
Si Si6 0.566480 0.618974 0.856298
O O1 0.847456 0.783507 0.288517
O O2 0.898155 0.869220 0.202954
O O3 0.835787 0.000000 0.240139
O O4 0.702280 0.870736 0.916184
O O5 0.149945 0.409737 0.631083
O O6 0.227340 0.405483 0.599882
O O7 0.000000 0.346816 0.500000
O O8 0.877817 0.837617 0.751476
O O9 0.750145 0.801052 0.381814
O O10 0.943685 0.871772 0.669036
O O11 0.814459 0.000000 0.527327
O O12 0.127395 0.808341 0.044250
O O13 0.605236 0.500000 0.953509
#
# Coordination Sequence:
#
# PCOD9176924 Si02
#       6
#     8   4   8   8   8   8
#     4  10  21  39  59  87 117 151 193 249 286 333
#     4  12  21  40  61  88 110 164 188 246 278 362
#     4  11  23  38  61  84 116 155 201 235 288 350
#     4  10  22  36  60  93 115 151 193 240 288 346
#     4  11  20  37  64  85 122 151 192 239 289 344
#     4  10  18  36  62  86 115 152 198 232 283 347
#
# _framework density 21.705174
#
# number of rings (size 3 to 8) (size 9 to 14) (size 15 to 20)
#    0.000    1.455    4.545    0.818    2.545    1.818 
#    0.000    0.909    4.000    2.182    0.000    0.000 
#    0.000    0.000    0.000    0.000    0.000    0.000 
#
# Total GULP energy -122504.619830 kJ/mol
# GULP energy per Si atom -5568.391810 kJ/mol
# Density = 2.165577 g / cm^3
# Si number density = 21.705174 Si / 1000 Ang^3
#
#
#
# Elastic Constant Matrix: (Units=GPa)
#
#
# Indices 1 2 3 4 5 6 
#
# 1 68.8482 41.7533 36.2601 0.0000 12.6639 0.0000
# 2 41.7533 179.0588 47.9570 0.0000 10.5160 0.0000
# 3 36.2601 47.9570 49.8644 0.0000 15.6640 0.0000
# 4 0.0000 0.0000 0.0000 19.5402 0.0000 2.1937
# 5 12.6639 10.5160 15.6640 0.0000 19.3043 0.0000
# 6 0.0000 0.0000 0.0000 2.1937 0.0000 18.2539
#
#
#
# Elastic Compliance Matrix: (Units=1/GPa)
#
#
# Indices 1 2 3 4 5 6 
#
# 1 0.023830 -0.001320 -0.015265 0.000000 -0.002527 0.000000
# 2 -0.001320 0.007678 -0.007224 0.000000 0.002545 0.000000
# 3 -0.015265 -0.007224 0.045256 0.000000 -0.022772 0.000000
# 4 0.000000 0.000000 0.000000 0.051877 0.000000 -0.006235
# 5 -0.002527 0.002545 -0.022772 0.000000 0.070551 0.000000
# 6 0.000000 0.000000 0.000000 -0.006235 0.000000 0.055532
#
#
# Mechanical properties :
#
#
# Convention : Reuss Voigt Hill
#
# Bulk Modulus (GPa) = 34.31033 61.07914 47.69473
# Shear Modulus (GPa) = 16.02276 22.87308 19.44792
#
# Velocity S-wave (km/s) = 2.71993 3.24976 2.99658
# Velocity P-wave (km/s) = 5.07009 6.50252 5.83046
#
# Compressibility (1/GPa) = 0.02914574
#
# Stress axis : x y z
#
# Youngs Moduli (GPa) = 41.96467 130.24572 22.09658
#
# Poissons Ratio (x) = 0.17190 0.33731
# Poissons Ratio (y) = 0.05538 0.15962
# Poissons Ratio (z) = 0.64060 0.94088
#
# Static dielectric constant tensor:
#      x y z
#    x 1.847130 0.000000 -0.080740 
#    y 0.000000 1.783060 0.000000 
#    z -0.080740 0.000000 1.967120 
# 
# From -- ./inp_files/245756.got.cif
#   From: 2010.05.17/outbox.cif.g08.bks.cpg/sg12_123_cif.got.tgz:245756.got - 2010.06.03 13:09:07.
