data_PCOD9176840
_publ_section_title
;
Structure prediction by ZEFSAII (Michael W. Deem and Ramdas Pophale) SiO2 
 PCOD9176840
Probable space group: C 2/M
;
_chemical_formula_sum "Si O2"
_cell_formula_units_Z 64
_cell_length_a 18.354319
_cell_length_b 15.985688
_cell_length_c 13.688162
_cell_angle_alpha 90.000000
_cell_angle_beta 120.094563
_cell_angle_gamma 90.000000
_cell_volume 3474.807551
_symmetry_space_group_name_H-M "C 2/M"
_symmetry_group_IT_number 12
_symmetry_cell_setting 'monoclinic'
loop_
_space_group_symop_operation_xyz
x,y,z
-x,y,-z
-x,-y,-z
x,-y,z
1/2+x,1/2+y,z
1/2-x,1/2+y,-z
1/2-x,1/2-y,-z
1/2+x,1/2-y,z
loop_
_atom_site_type_symbol
_atom_site_label
_atom_site_fract_x
_atom_site_fract_y
_atom_site_fract_z
Si Si1 0.127849 0.097049 0.341270
Si Si2 0.786675 0.707105 0.429374
Si Si3 0.039377 0.234347 0.420733
Si Si4 0.327473 0.905671 0.993814
Si Si5 0.640254 0.588153 0.946327
Si Si6 0.766559 0.717218 0.800832
Si Si7 0.914079 0.151962 0.894651
Si Si8 0.109872 0.263023 0.827917
O O1 0.223424 0.128271 0.377815
O O2 0.084892 0.156900 0.394231
O O3 0.078333 0.111199 0.206097
O O4 0.127615 0.000000 0.369163
O O5 0.750000 0.750000 0.500000
O O6 0.886424 0.697687 0.510850
O O7 0.775741 0.772824 0.332966
O O8 0.000000 0.211462 0.500000
O O9 0.966149 0.268504 0.300185
O O10 0.384115 0.837202 0.088579
O O11 0.361880 0.000000 0.011373
O O12 0.239952 0.909022 0.994710
O O13 0.297016 0.869513 0.868474
O O14 0.608585 0.500000 0.881948
O O15 0.604113 0.672655 0.875854
O O16 0.622388 0.589967 0.048803
O O17 0.849516 0.772356 0.846500
O O18 0.698952 0.757330 0.830124
O O19 0.000000 0.182112 0.000000
#
# Coordination Sequence:
#
# PCOD9176840 Si02
#       8
#     8   8   8   8   8   8   8   8
#     4  10  23  39  58  88 123 158 194 250 315 371
#     4   9  20  40  61  84 112 163 209 240 298 368
#     4  11  22  38  63  88 116 160 214 258 301 367
#     4  10  20  35  58  87 117 154 198 246 309 371
#     4  10  19  32  53  84 118 153 189 235 303 374
#     4  10  18  36  58  81 117 155 196 247 305 357
#     4  11  20  32  53  83 117 155 189 235 297 370
#     4  11  19  35  59  84 124 157 194 259 309 364
#
# _framework density 18.418286999999999
#
# number of rings (size 3 to 8) (size 9 to 14) (size 15 to 20)
#    0.000    1.750    3.750    1.875    0.000    2.750 
#    0.000    3.125    0.000    1.125    0.000    0.000 
#    0.000    0.000    0.000    0.000    0.000    0.000 
#
# Total GULP energy -178225.614128 kJ/mol
# GULP energy per Si atom -5569.550441 kJ/mol
# Density = 1.837637 g / cm^3
# Si number density = 18.418287 Si / 1000 Ang^3
#
#
#
# Elastic Constant Matrix: (Units=GPa)
#
#
# Indices 1 2 3 4 5 6 
#
# 1 43.0659 22.1059 -4.3701 0.0000 -6.6405 0.0000
# 2 22.1059 97.7958 42.7192 0.0000 8.8203 0.0000
# 3 -4.3701 42.7192 80.2796 0.0000 1.8917 0.0000
# 4 0.0000 0.0000 0.0000 6.2998 0.0000 -2.9504
# 5 -6.6405 8.8203 1.8917 0.0000 37.7356 0.0000
# 6 0.0000 0.0000 0.0000 -2.9504 0.0000 12.0042
#
#
#
# Elastic Compliance Matrix: (Units=1/GPa)
#
#
# Indices 1 2 3 4 5 6 
#
# 1 0.030637 -0.010757 0.007214 0.000000 0.007544 0.000000
# 2 -0.010757 0.017393 -0.009712 0.000000 -0.005471 0.000000
# 3 0.007214 -0.009712 0.017955 0.000000 0.002639 0.000000
# 4 0.000000 0.000000 0.000000 0.179384 0.000000 0.044089
# 5 0.007544 -0.005471 0.002639 0.000000 0.028974 0.000000
# 6 0.000000 0.000000 0.000000 0.044089 0.000000 0.094140
#
#
# Mechanical properties :
#
#
# Convention : Reuss Voigt Hill
#
# Bulk Modulus (GPa) = 25.33222 38.00569 31.66896
# Shear Modulus (GPa) = 12.25036 21.92034 17.08535
#
# Velocity S-wave (km/s) = 2.58179 3.45358 3.04901
# Velocity P-wave (km/s) = 4.76143 6.04835 5.44306
#
# Compressibility (1/GPa) = 0.03947543
#
# Stress axis : x y z
#
# Youngs Moduli (GPa) = 32.64015 57.49549 55.69506
#
# Poissons Ratio (x) = 0.61847 -0.40179
# Poissons Ratio (y) = 0.35111 0.54090
# Poissons Ratio (z) = -0.23547 0.55838
#
# Static dielectric constant tensor:
#      x y z
#    x 1.678870 0.000000 0.017620 
#    y 0.000000 1.639080 0.000000 
#    z 0.017620 0.000000 1.679820 
# 
# From -- ./inp_files/225324.got.cif
#   From: 2010.05.17/outbox.cif.g08.bks.cpg/sg12_113_cif.got.tgz:225324.got - 2010.06.03 13:09:07.
