data_PCOD9176214
_publ_section_title
;
Structure prediction by ZEFSAII (Michael W. Deem and Ramdas Pophale) SiO2 
 PCOD9176214
Probable space group: C 2/M
;
_chemical_formula_sum "Si O2"
_cell_formula_units_Z 64
_cell_length_a 12.508258
_cell_length_b 22.715200
_cell_length_c 11.497702
_cell_angle_alpha 90.000000
_cell_angle_beta 88.954800
_cell_angle_gamma 90.000000
_cell_volume 3266.270724
_symmetry_space_group_name_H-M "C 2/M"
_symmetry_group_IT_number 12
_symmetry_cell_setting 'monoclinic'
loop_
_space_group_symop_operation_xyz
x,y,z
-x,y,-z
-x,-y,-z
x,-y,z
1/2+x,1/2+y,z
1/2-x,1/2+y,-z
1/2-x,1/2-y,-z
1/2+x,1/2-y,z
loop_
_atom_site_type_symbol
_atom_site_label
_atom_site_fract_x
_atom_site_fract_y
_atom_site_fract_z
Si Si1 0.458358 0.428628 0.133293
Si Si2 0.377733 0.218117 0.015306
Si Si3 0.432807 0.934852 0.830022
Si Si4 0.265028 0.629138 0.272671
Si Si5 0.762555 0.759416 0.792308
Si Si6 0.345361 0.093123 0.075335
Si Si7 0.827757 0.107955 0.742454
Si Si8 0.374128 0.569077 0.489224
O O1 0.444723 0.500000 0.150254
O O2 0.350123 0.394026 0.172201
O O3 0.552593 0.403376 0.213349
O O4 0.500000 0.419455 0.000000
O O5 0.353049 0.243539 0.141956
O O6 0.316394 0.156443 0.022399
O O7 0.500000 0.205205 0.000000
O O8 0.339079 0.252747 0.903961
O O9 0.347936 0.901590 0.753047
O O10 0.546501 0.903663 0.849882
O O11 0.454835 0.000000 0.784443
O O12 0.378650 0.940488 0.959010
O O13 0.238176 0.698776 0.277851
O O14 0.317624 0.606498 0.390436
O O15 0.791809 0.822839 0.738515
O O16 0.249702 0.076437 0.161787
O O17 0.820879 0.080914 0.614956
O O18 0.500000 0.584078 0.500000
O O19 0.367721 0.500000 0.458687
#
# Coordination Sequence:
#
# PCOD9176214 Si02
#       8
#     8   8   8   8   8   8   8   8
#     4  11  24  38  62  99 133 165 209 274 338 387
#     4  10  18  34  57  83 126 166 198 240 307 382
#     4  11  21  35  59  90 123 166 206 247 310 375
#     4  12  23  42  62  91 129 166 212 265 315 380
#     4  10  24  34  57  94 121 164 207 254 315 379
#     4  10  19  37  58  90 127 163 202 250 310 373
#     4  11  24  41  63  92 125 164 214 264 317 378
#     4  11  24  44  68  90 119 167 216 264 322 382
#
# _framework density 19.594211000000001
#
# number of rings (size 3 to 8) (size 9 to 14) (size 15 to 20)
#    0.000    1.250    3.750    3.000    5.250    3.500 
#    0.000    0.625    0.000    1.500    0.000    0.000 
#    0.000    0.000    0.000    0.000    0.000    0.000 
#
# Total GULP energy -178400.576553 kJ/mol
# GULP energy per Si atom -5575.018017 kJ/mol
# Density = 1.954961 g / cm^3
# Si number density = 19.594211 Si / 1000 Ang^3
#
#
#
# Elastic Constant Matrix: (Units=GPa)
#
#
# Indices 1 2 3 4 5 6 
#
# 1 58.7432 0.8161 -1.7631 0.0000 10.5541 0.0000
# 2 0.8161 80.9246 8.8064 0.0000 18.2413 0.0000
# 3 -1.7631 8.8064 51.1553 0.0000 10.7453 0.0000
# 4 0.0000 0.0000 0.0000 23.3600 0.0000 10.0631
# 5 10.5541 18.2413 10.7453 0.0000 31.2274 0.0000
# 6 0.0000 0.0000 0.0000 10.0631 0.0000 22.5972
#
#
#
# Elastic Compliance Matrix: (Units=1/GPa)
#
#
# Indices 1 2 3 4 5 6 
#
# 1 0.018451 0.001332 0.002026 0.000000 -0.007711 0.000000
# 2 0.001332 0.014354 -0.000614 0.000000 -0.008624 0.000000
# 3 0.002026 -0.000614 0.021334 0.000000 -0.007667 0.000000
# 4 0.000000 0.000000 0.000000 0.052970 0.000000 -0.023589
# 5 -0.007711 -0.008624 -0.007667 0.000000 0.042305 0.000000
# 6 0.000000 0.000000 0.000000 -0.023589 0.000000 0.054758
#
#
# Mechanical properties :
#
#
# Convention : Reuss Voigt Hill
#
# Bulk Modulus (GPa) = 16.77057 22.94913 19.85985
# Shear Modulus (GPa) = 22.87692 27.63448 25.25570
#
# Velocity S-wave (km/s) = 3.42063 3.75952 3.59407
# Velocity P-wave (km/s) = 4.91716 5.53019 5.23266
#
# Compressibility (1/GPa) = 0.05962826
#
# Stress axis : x y z
#
# Youngs Moduli (GPa) = 54.19763 69.66478 46.87269
#
# Poissons Ratio (x) = -0.09276 -0.09498
# Poissons Ratio (y) = -0.07217 0.02877
# Poissons Ratio (z) = -0.10983 0.04276
#
# Static dielectric constant tensor:
#      x y z
#    x 1.710410 0.000000 -0.024820 
#    y 0.000000 1.762970 0.000000 
#    z -0.024820 0.000000 1.702610 
# 
# From -- ./inp_files/135430.got.cif
#   From: 2010.05.17/outbox.cif.g08.bks.cpg/sg12_68_cif.got.tgz:135430.got - 2010.06.03 13:09:07.
