data_PCOD9176591
_publ_section_title
;
Structure prediction by ZEFSAII (Michael W. Deem and Ramdas Pophale) SiO2 
 PCOD9176591
Probable space group: C 2/M
;
_chemical_formula_sum "Si O2"
_cell_formula_units_Z 56
_cell_length_a 22.494069
_cell_length_b 14.946469
_cell_length_c 17.398303
_cell_angle_alpha 90.000000
_cell_angle_beta 157.650652
_cell_angle_gamma 90.000000
_cell_volume 2224.262500
_symmetry_space_group_name_H-M "C 2/M"
_symmetry_group_IT_number 12
_symmetry_cell_setting 'monoclinic'
loop_
_space_group_symop_operation_xyz
x,y,z
-x,y,-z
-x,-y,-z
x,-y,z
1/2+x,1/2+y,z
1/2-x,1/2+y,-z
1/2-x,1/2-y,-z
1/2+x,1/2-y,z
loop_
_atom_site_type_symbol
_atom_site_label
_atom_site_fract_x
_atom_site_fract_y
_atom_site_fract_z
Si Si1 0.522000 0.106702 0.936770
Si Si2 0.387530 0.599636 0.509030
Si Si3 0.635480 0.853666 0.810732
Si Si4 0.288375 0.650852 0.146620
Si Si5 0.822824 0.600154 0.297903
Si Si6 0.224474 0.897232 0.467388
Si Si7 0.278269 0.199124 0.381118
O O1 0.378980 0.123756 0.705155
O O2 0.540228 0.000000 0.957876
O O3 0.500000 0.133388 0.000000
O O4 0.679373 0.146889 0.089653
O O5 0.312550 0.500000 0.407048
O O6 0.545720 0.603313 0.650134
O O7 0.411137 0.604747 0.629987
O O8 0.307892 0.696405 0.402124
O O9 0.677446 0.751450 0.839659
O O10 0.719323 0.903854 0.841300
O O11 0.447348 0.850907 0.590866
O O12 0.694471 0.888295 0.962332
O O13 0.838770 0.500000 0.347746
O O14 0.716707 0.656202 0.228473
O O15 0.000000 0.640383 0.500000
O O16 0.199718 0.829498 0.367316
O O17 0.238411 0.000000 0.456092
#
# Coordination Sequence:
#
# PCOD9176591 Si02
#       7
#     8   8   8   8   8   8   8
#     4  10  21  36  57  84 113 148 198 249 290 341
#     4  10  22  36  56  86 118 156 198 237 291 363
#     4   9  19  33  57  85 115 149 197 242 285 351
#     4  10  19  37  59  82 117 159 192 237 296 349
#     4   9  18  31  52  86 117 144 189 245 296 342
#     4  10  20  36  57  84 115 152 199 247 296 350
#     4  10  18  35  58  83 117 154 195 243 298 343
#
# _framework density 25.176883
#
# number of rings (size 3 to 8) (size 9 to 14) (size 15 to 20)
#    0.000    2.286    1.429    1.286    0.000    2.857 
#    0.000    2.143    0.000   17.571    0.000    3.000 
#    0.000    0.000    0.000    0.000    0.000    0.000 
#
# Total GULP energy -156252.909434 kJ/mol
# GULP energy per Si atom -5580.461051 kJ/mol
# Density = 2.511958 g / cm^3
# Si number density = 25.176883 Si / 1000 Ang^3
#
#
#
# Elastic Constant Matrix: (Units=GPa)
#
#
# Indices 1 2 3 4 5 6 
#
# 1 164.4151 30.8105 18.9734 0.0006 -8.0016 0.0002
# 2 30.8105 121.8026 3.5492 0.0008 -10.7673 0.0003
# 3 18.9734 3.5492 32.5527 0.0010 -0.9024 0.0005
# 4 0.0006 0.0008 0.0010 4.9768 0.0005 -1.7900
# 5 -8.0016 -10.7673 -0.9024 0.0005 35.0322 0.0002
# 6 0.0002 0.0003 0.0005 -1.7900 0.0002 37.0319
#
#
#
# Elastic Compliance Matrix: (Units=1/GPa)
#
#
# Indices 1 2 3 4 5 6 
#
# 1 0.006857 -0.001536 -0.003802 0.000000 0.000996 0.000000
# 2 -0.001536 0.008807 0.000000 -0.000002 0.002356 0.000000
# 3 -0.003802 0.000000 0.032935 -0.000006 -0.000020 -0.000001
# 4 0.000000 -0.000002 -0.000006 0.204488 -0.000004 0.009884
# 5 0.000996 0.002356 -0.000020 -0.000004 0.029496 0.000000
# 6 0.000000 0.000000 -0.000001 0.009884 0.000000 0.027481
#
#
# Mechanical properties :
#
#
# Convention : Reuss Voigt Hill
#
# Bulk Modulus (GPa) = 26.36832 47.27071 36.81952
# Shear Modulus (GPa) = 14.99788 33.10400 24.05094
#
# Velocity S-wave (km/s) = 2.44334 3.63003 3.09411
# Velocity P-wave (km/s) = 4.29603 6.03205 5.23649
#
# Compressibility (1/GPa) = 0.03792429
#
# Stress axis : x y z
#
# Youngs Moduli (GPa) = 145.83332 113.54944 30.36312
#
# Poissons Ratio (x) = 0.17438 0.11543
# Poissons Ratio (y) = 0.22396 -0.00001
# Poissons Ratio (z) = 0.55441 -0.00002
#
# Static dielectric constant tensor:
#      x y z
#    x 2.058900 0.000000 -0.043890 
#    y 0.000000 2.001480 0.000000 
#    z -0.043890 0.000000 2.101150 
# 
# From -- ./inp_files/284597.got.cif
#   From: 2010.05.17/outbox.cif.g08.bks.cpg/sg12_143_cif.got.tgz:284597.got - 2010.06.03 13:09:07.
