data_PCOD9176766
_publ_section_title
;
Structure prediction by ZEFSAII (Michael W. Deem and Ramdas Pophale) SiO2 
 PCOD9176766
Probable space group: C 2/M
;
_chemical_formula_sum "Si O2"
_cell_formula_units_Z 48
_cell_length_a 8.876022
_cell_length_b 28.105961
_cell_length_c 17.891267
_cell_angle_alpha 90.000000
_cell_angle_beta 148.538021
_cell_angle_gamma 90.000000
_cell_volume 2329.551776
_symmetry_space_group_name_H-M "C 2/M"
_symmetry_group_IT_number 12
_symmetry_cell_setting 'monoclinic'
loop_
_space_group_symop_operation_xyz
x,y,z
-x,y,-z
-x,-y,-z
x,-y,z
1/2+x,1/2+y,z
1/2-x,1/2+y,-z
1/2-x,1/2-y,-z
1/2+x,1/2-y,z
loop_
_atom_site_type_symbol
_atom_site_label
_atom_site_fract_x
_atom_site_fract_y
_atom_site_fract_z
Si Si1 0.737034 0.895625 0.534753
Si Si2 0.939882 0.500000 0.565237
Si Si3 0.507977 0.500000 0.911719
Si Si4 0.448951 0.840661 0.291689
Si Si5 0.419800 0.756342 0.883799
Si Si6 0.095175 0.896733 0.952238
Si Si7 0.319487 0.851779 0.775071
O O1 0.500000 0.893870 0.500000
O O2 0.672173 0.851017 0.452072
O O3 0.067144 0.885886 0.696530
O O4 0.713575 0.948547 0.488384
O O5 0.000000 0.500000 0.500000
O O6 0.209335 0.500000 0.737652
O O7 0.656964 0.450501 0.955806
O O8 0.500000 0.500000 0.000000
O O9 0.279460 0.791013 0.205166
O O10 0.610691 0.855211 0.283777
O O11 0.190283 0.876330 0.205725
O O12 0.262996 0.797287 0.771469
O O13 0.500000 0.772881 0.000000
O O14 0.750000 0.750000 0.000000
O O15 0.374294 0.865331 0.058905
O O16 0.000000 0.895054 0.000000
#
# Coordination Sequence:
#
# PCOD9176766 Si02
#       7
#     8   4   4   8   8   8   8
#     4  11  26  43  67  93 136 181 221 269 343 414
#     4  10  22  45  67  92 141 186 218 270 360 411
#     4  10  18  35  68 101 124 171 225 283 329 398
#     4  11  21  42  65  93 130 170 218 277 328 399
#     4  12  23  41  68  97 131 174 217 277 346 402
#     4   9  18  34  62  92 127 159 216 272 327 376
#     4  11  24  41  64 100 129 173 223 278 330 401
#
# _framework density 20.604823
#
# number of rings (size 3 to 8) (size 9 to 14) (size 15 to 20)
#    0.000    1.333    5.000    1.000    2.333    1.333 
#    0.000    2.500    0.000    2.000    0.000    0.000 
#    0.000    0.000    0.000    0.000    0.000    0.000 
#
# Total GULP energy -133608.726679 kJ/mol
# GULP energy per Si atom -5567.030278 kJ/mol
# Density = 2.055793 g / cm^3
# Si number density = 20.604823 Si / 1000 Ang^3
#
#
#
# Elastic Constant Matrix: (Units=GPa)
#
#
# Indices 1 2 3 4 5 6 
#
# 1 74.4431 14.3229 19.1775 0.0000 13.4025 0.0000
# 2 14.3229 101.0800 6.7620 0.0000 10.2930 0.0000
# 3 19.1775 6.7620 53.2754 0.0001 3.3662 0.0001
# 4 0.0000 0.0000 0.0001 22.9362 0.0000 -0.8705
# 5 13.4025 10.2930 3.3662 0.0000 32.5439 0.0000
# 6 0.0000 0.0000 0.0001 -0.8705 0.0000 18.6614
#
#
#
# Elastic Compliance Matrix: (Units=1/GPa)
#
#
# Indices 1 2 3 4 5 6 
#
# 1 0.016063 -0.001350 -0.005254 0.000000 -0.005645 0.000000
# 2 -0.001350 0.010400 -0.000666 0.000000 -0.002665 0.000000
# 3 -0.005254 -0.000666 0.020732 0.000000 0.000230 0.000000
# 4 0.000000 0.000000 0.000000 0.043677 0.000000 0.002037
# 5 -0.005645 -0.002665 0.000230 0.000000 0.033871 0.000000
# 6 0.000000 0.000000 0.000000 0.002037 0.000000 0.053682
#
#
# Mechanical properties :
#
#
# Convention : Reuss Voigt Hill
#
# Bulk Modulus (GPa) = 30.62295 34.36925 32.49610
# Shear Modulus (GPa) = 24.52804 27.39736 25.96270
#
# Velocity S-wave (km/s) = 3.45396 3.65040 3.55354
# Velocity P-wave (km/s) = 5.54985 5.87228 5.71334
#
# Compressibility (1/GPa) = 0.03265524
#
# Stress axis : x y z
#
# Youngs Moduli (GPa) = 62.25680 96.15106 48.23540
#
# Poissons Ratio (x) = 0.12978 0.25343
# Poissons Ratio (y) = 0.08403 0.03212
# Poissons Ratio (z) = 0.32710 0.06402
#
# Static dielectric constant tensor:
#      x y z
#    x 1.716670 0.000000 -0.039160 
#    y 0.000000 1.746810 0.000000 
#    z -0.039160 0.000000 1.747190 
# 
# From -- ./inp_files/260442.got.cif
#   From: 2010.05.17/outbox.cif.g08.bks.cpg/sg12_131_cif.got.tgz:260442.got - 2010.06.03 13:09:07.
