data_PCOD9176384
_publ_section_title
;
Structure prediction by ZEFSAII (Michael W. Deem and Ramdas Pophale) SiO2 
 PCOD9176384
Probable space group: C 2/M
;
_chemical_formula_sum "Si O2"
_cell_formula_units_Z 64
_cell_length_a 18.479164
_cell_length_b 20.270940
_cell_length_c 15.278446
_cell_angle_alpha 90.000000
_cell_angle_beta 34.229031
_cell_angle_gamma 90.000000
_cell_volume 3219.287424
_symmetry_space_group_name_H-M "C 2/M"
_symmetry_group_IT_number 12
_symmetry_cell_setting 'monoclinic'
loop_
_space_group_symop_operation_xyz
x,y,z
-x,y,-z
-x,-y,-z
x,-y,z
1/2+x,1/2+y,z
1/2-x,1/2+y,-z
1/2-x,1/2-y,-z
1/2+x,1/2-y,z
loop_
_atom_site_type_symbol
_atom_site_label
_atom_site_fract_x
_atom_site_fract_y
_atom_site_fract_z
Si Si1 0.939943 0.574249 0.156519
Si Si2 0.439941 0.925751 0.463597
Si Si3 0.656020 0.166565 0.194858
Si Si4 0.433091 0.691093 0.709745
Si Si5 0.717196 0.673444 0.638920
Si Si6 0.843979 0.666566 0.006899
Si Si7 0.566909 0.308908 0.075927
Si Si8 0.782804 0.826557 0.573311
O O1 0.907547 0.500000 0.217036
O O2 0.818977 0.622986 0.284383
O O3 0.058218 0.606860 0.089290
O O4 0.000000 0.572346 0.000000
O O5 0.500000 0.927653 0.500000
O O6 0.558217 0.893141 0.294275
O O7 0.318976 0.877014 0.577665
O O8 0.407545 0.000000 0.467874
O O9 0.588159 0.232780 0.298899
O O10 0.678393 0.183354 0.071607
O O11 0.800341 0.156145 0.085789
O O12 0.444117 0.689940 0.805883
O O13 0.570068 0.663344 0.543474
O O14 0.300342 0.656146 0.813528
O O15 0.570068 0.663344 0.816391
O O16 0.750000 0.750000 0.624973
O O17 0.727143 0.665845 0.522858
O O18 0.911841 0.732781 0.975217
#
# Coordination Sequence:
#
# PCOD9176384 Si02
#       8
#     8   8   8   8   8   8   8   8
#     4  11  24  39  51  74 117 158 191 229 276 338
#     4  11  24  39  51  74 117 158 191 229 276 338
#     4   9  16  32  56  81 107 140 181 226 279 336
#     4   8  15  29  54  86 112 128 165 236 291 322
#     4  10  18  34  60  87 110 138 184 240 288 333
#     4   9  16  32  56  81 107 140 181 226 279 336
#     4   8  15  29  54  86 112 128 165 236 291 322
#     4  10  18  34  60  87 110 138 184 240 288 333
#
# _framework density 19.880175999999999
#
# number of rings (size 3 to 8) (size 9 to 14) (size 15 to 20)
#    0.000    2.500    2.500    2.250    0.000    2.000 
#    4.500    2.500    0.000    7.500    0.000    0.000 
#    0.000    0.000    0.000    0.000    0.000    0.000 
#
# Total GULP energy -178304.064041 kJ/mol
# GULP energy per Si atom -5572.002001 kJ/mol
# Density = 1.983493 g / cm^3
# Si number density = 19.880176 Si / 1000 Ang^3
#
#
#
# Elastic Constant Matrix: (Units=GPa)
#
#
# Indices 1 2 3 4 5 6 
#
# 1 41.4653 36.2887 47.8513 -0.0013 -27.7313 0.0006
# 2 36.2887 126.9622 74.8852 -0.0016 -34.7319 0.0010
# 3 47.8513 74.8852 136.5825 -0.0025 -57.8517 0.0017
# 4 -0.0013 -0.0016 -0.0025 26.6364 0.0017 -4.0879
# 5 -27.7313 -34.7319 -57.8517 0.0017 39.3231 -0.0009
# 6 0.0006 0.0010 0.0017 -4.0879 -0.0009 22.0937
#
#
#
# Elastic Compliance Matrix: (Units=1/GPa)
#
#
# Indices 1 2 3 4 5 6 
#
# 1 0.049781 -0.004982 -0.004519 0.000000 0.024058 0.000000
# 2 -0.004982 0.012223 -0.004966 0.000000 -0.000024 0.000000
# 3 -0.004519 -0.004966 0.022343 0.000000 0.025297 0.000000
# 4 0.000000 0.000000 0.000000 0.038640 -0.000001 0.007149
# 5 0.024058 -0.000024 0.025297 -0.000001 0.079592 0.000000
# 6 0.000000 0.000000 0.000000 0.007149 0.000000 0.046585
#
#
# Mechanical properties :
#
#
# Convention : Reuss Voigt Hill
#
# Bulk Modulus (GPa) = 18.04659 69.22893 43.63776
# Shear Modulus (GPa) = 16.85954 27.34295 22.10124
#
# Velocity S-wave (km/s) = 2.91530 3.71265 3.33787
# Velocity P-wave (km/s) = 4.51989 7.29911 6.07068
#
# Compressibility (1/GPa) = 0.05541213
#
# Stress axis : x y z
#
# Youngs Moduli (GPa) = 20.08797 81.81292 44.75756
#
# Poissons Ratio (x) = 0.40757 0.20227
# Poissons Ratio (y) = 0.10007 0.22228
# Poissons Ratio (z) = 0.09078 0.40630
#
# Static dielectric constant tensor:
#      x y z
#    x 1.920470 0.000000 0.109460 
#    y 0.000000 1.678240 0.000000 
#    z 0.109460 0.000000 1.798840 
# 
# From -- ./inp_files/285181.got.cif
#   From: 2010.05.17/outbox.cif.g08.bks.cpg/sg12_143_cif.got.tgz:285181.got - 2010.06.03 13:09:07.
