data_PCOD9176560
_publ_section_title
;
Structure prediction by ZEFSAII (Michael W. Deem and Ramdas Pophale) SiO2 
 PCOD9176560
Probable space group: C 2/M
;
_chemical_formula_sum "Si O2"
_cell_formula_units_Z 58
_cell_length_a 28.289548
_cell_length_b 20.973492
_cell_length_c 9.787623
_cell_angle_alpha 90.000000
_cell_angle_beta 146.615958
_cell_angle_gamma 90.000000
_cell_volume 3195.454326
_symmetry_space_group_name_H-M "C 2/M"
_symmetry_group_IT_number 12
_symmetry_cell_setting 'monoclinic'
loop_
_space_group_symop_operation_xyz
x,y,z
-x,y,-z
-x,-y,-z
x,-y,z
1/2+x,1/2+y,z
1/2-x,1/2+y,-z
1/2-x,1/2-y,-z
1/2+x,1/2-y,z
loop_
_atom_site_type_symbol
_atom_site_label
_atom_site_fract_x
_atom_site_fract_y
_atom_site_fract_z
Si Si1 0.317942 0.861104 0.708566
Si Si2 0.416676 0.284135 0.589475
Si Si3 0.336312 0.147312 0.432920
Si Si4 0.494528 0.073927 0.152643
Si Si5 0.613947 0.271243 0.027705
Si Si6 0.627499 0.379662 0.279118
Si Si7 0.309793 0.304295 0.077922
Si Si8 0.000000 0.000000 0.000000
O O1 0.315821 0.871227 0.539433
O O2 0.229183 0.887043 0.555368
O O3 0.403752 0.894911 0.971732
O O4 0.332291 0.786258 0.775340
O O5 0.361161 0.222194 0.495454
O O6 0.512563 0.259050 0.795942
O O7 0.412390 0.333994 0.701328
O O8 0.378226 0.317678 0.361678
O O9 0.420890 0.109681 0.590036
O O10 0.255185 0.142039 0.136122
O O11 0.496460 0.000000 0.193900
O O12 0.500000 0.079217 0.000000
O O13 0.642426 0.278273 0.940541
O O14 0.627011 0.337374 0.139920
O O15 0.572579 0.443610 0.142190
O O16 0.250000 0.250000 0.000000
#
# Coordination Sequence:
#
# PCOD9176560 Si02
#       8
#     8   8   8   8   8   8   8   2
#     4  11  20  33  63  90 117 154 205 254 312 366
#     4  11  21  37  60  91 123 158 198 259 310 374
#     4  10  18  35  56  88 124 153 196 250 314 365
#     4   9  19  32  51  82 118 152 192 248 304 360
#     4  12  20  38  62  95 117 158 202 261 316 367
#     4  12  24  40  64  89 124 161 214 254 309 371
#     4  10  22  35  57  92 127 155 197 253 318 374
#     4  12  28  44  60  94 130 174 206 272 310 360
#
# _framework density 18.150783000000001
#
# number of rings (size 3 to 8) (size 9 to 14) (size 15 to 20)
#    0.000    1.241    5.517    2.483    0.966    0.000 
#    0.000    0.000    1.517    0.828    0.000    8.690 
#    0.000    0.000    0.000    0.000    0.000    0.000 
#
# Total GULP energy -161498.731590 kJ/mol
# GULP energy per Si atom -5568.921779 kJ/mol
# Density = 1.810947 g / cm^3
# Si number density = 18.150783 Si / 1000 Ang^3
#
#
#
# Elastic Constant Matrix: (Units=GPa)
#
#
# Indices 1 2 3 4 5 6 
#
# 1 95.7125 16.8256 21.1934 0.0000 13.6074 0.0000
# 2 16.8256 93.7734 12.3728 0.0000 11.6961 0.0000
# 3 21.1934 12.3728 72.4473 0.0000 18.0298 0.0000
# 4 0.0000 0.0000 0.0000 17.9286 0.0000 9.2504
# 5 13.6074 11.6961 18.0298 0.0000 38.3970 0.0000
# 6 0.0000 0.0000 0.0000 9.2504 0.0000 11.3843
#
#
#
# Elastic Compliance Matrix: (Units=1/GPa)
#
#
# Indices 1 2 3 4 5 6 
#
# 1 0.011616 -0.001440 -0.002533 0.000000 -0.002489 0.000000
# 2 -0.001440 0.011355 -0.000888 0.000000 -0.002532 0.000000
# 3 -0.002533 -0.000888 0.016311 0.000000 -0.006491 0.000000
# 4 0.000000 0.000000 0.000000 0.096043 0.000000 -0.078041
# 5 -0.002489 -0.002532 -0.006491 0.000000 0.030745 0.000000
# 6 0.000000 0.000000 0.000000 -0.078041 0.000000 0.151253
#
#
# Mechanical properties :
#
#
# Convention : Reuss Voigt Hill
#
# Bulk Modulus (GPa) = 33.82821 40.30187 37.06504
# Shear Modulus (GPa) = 14.84132 27.64472 21.24302
#
# Velocity S-wave (km/s) = 2.86259 3.90687 3.42477
# Velocity P-wave (km/s) = 5.44093 6.52715 6.00863
#
# Compressibility (1/GPa) = 0.02956112
#
# Stress axis : x y z
#
# Youngs Moduli (GPa) = 86.09060 88.06489 61.30773
#
# Poissons Ratio (x) = 0.12678 0.15528
# Poissons Ratio (y) = 0.12394 0.05445
# Poissons Ratio (z) = 0.21805 0.07821
#
# Static dielectric constant tensor:
#      x y z
#    x 1.622090 0.000000 0.027940 
#    y 0.000000 1.603660 0.000000 
#    z 0.027940 0.000000 1.696720 
# 
# From -- ./inp_files/99281.got.cif
#   From: 2010.05.17/outbox.cif.g08.bks.cpg/sg12_50_cif.got.tgz:99281.got - 2010.06.03 13:09:07.
