data_PCOD9176531
_publ_section_title
;
Structure prediction by ZEFSAII (Michael W. Deem and Ramdas Pophale) SiO2 
 PCOD9176531
Probable space group: C 2/M
;
_chemical_formula_sum "Si O2"
_cell_formula_units_Z 64
_cell_length_a 33.788051
_cell_length_b 20.764149
_cell_length_c 17.269400
_cell_angle_alpha 90.000000
_cell_angle_beta 161.999273
_cell_angle_gamma 90.000000
_cell_volume 3744.155265
_symmetry_space_group_name_H-M "C 2/M"
_symmetry_group_IT_number 12
_symmetry_cell_setting 'monoclinic'
loop_
_space_group_symop_operation_xyz
x,y,z
-x,y,-z
-x,-y,-z
x,-y,z
1/2+x,1/2+y,z
1/2-x,1/2+y,-z
1/2-x,1/2-y,-z
1/2+x,1/2-y,z
loop_
_atom_site_type_symbol
_atom_site_label
_atom_site_fract_x
_atom_site_fract_y
_atom_site_fract_z
Si Si1 0.472025 0.804744 0.538050
Si Si2 0.659922 0.785872 0.428150
Si Si3 0.166020 0.856425 0.128237
Si Si4 0.457453 0.424674 0.836307
Si Si5 0.578305 0.925236 0.444157
Si Si6 0.718808 0.848431 0.380841
Si Si7 0.414801 0.154583 0.030236
Si Si8 0.196257 0.251468 0.062036
O O1 0.500000 0.814079 0.500000
O O2 0.450724 0.873054 0.542456
O O3 0.592947 0.769883 0.804257
O O4 0.340514 0.764123 0.303750
O O5 0.778625 0.811593 0.699571
O O6 0.648819 0.829055 0.330062
O O7 0.686295 0.712729 0.454982
O O8 0.534240 0.795809 0.245504
O O9 0.279696 0.907528 0.322915
O O10 0.151911 0.811612 0.027184
O O11 0.038150 0.889405 0.920350
O O12 0.485380 0.500000 0.884052
O O13 0.307712 0.410235 0.553576
O O14 0.500000 0.400097 0.000000
O O15 0.476506 0.906812 0.187363
O O16 0.569909 0.000000 0.450202
O O17 0.635249 0.855423 0.148896
O O18 0.309908 0.189146 0.888670
#
# Coordination Sequence:
#
# PCOD9176531 Si02
#       8
#     8   8   8   8   8   8   8   8
#     4  10  21  37  59  87 115 139 165 212 271 337
#     4  10  20  32  50  76 103 138 178 228 273 309
#     4  10  18  35  55  75 103 138 180 228 264 309
#     4  11  23  35  48  70 105 147 187 224 264 308
#     4   9  20  36  56  78 104 142 179 216 260 313
#     4  11  21  31  51  73 105 140 182 225 271 315
#     4  10  20  33  51  75 108 136 176 223 267 309
#     4  10  20  34  57  86 111 136 172 213 276 327
#
# _framework density 17.093308
#
# number of rings (size 3 to 8) (size 9 to 14) (size 15 to 20)
#    0.000    1.875    2.500    2.625    1.750    0.750 
#    0.000    0.000    0.000    2.250    0.000    0.000 
#    0.000   10.000    0.000    0.000    0.000    0.000 
#
# Total GULP energy -178495.331333 kJ/mol
# GULP energy per Si atom -5577.979104 kJ/mol
# Density = 1.705440 g / cm^3
# Si number density = 17.093308 Si / 1000 Ang^3
#
#
#
# Elastic Constant Matrix: (Units=GPa)
#
#
# Indices 1 2 3 4 5 6 
#
# 1 86.1774 22.9102 32.7314 0.0000 -8.8945 0.0000
# 2 22.9102 57.3217 27.5533 0.0000 -0.5254 0.0000
# 3 32.7314 27.5533 69.8916 0.0000 -6.9770 0.0000
# 4 0.0000 0.0000 0.0000 15.0500 0.0000 2.4215
# 5 -8.8945 -0.5254 -6.9770 0.0000 28.8099 0.0000
# 6 0.0000 0.0000 0.0000 2.4215 0.0000 10.7872
#
#
#
# Elastic Compliance Matrix: (Units=1/GPa)
#
#
# Indices 1 2 3 4 5 6 
#
# 1 0.014845 -0.003352 -0.005308 0.000000 0.003237 0.000000
# 2 -0.003352 0.022363 -0.007490 0.000000 -0.002441 0.000000
# 3 -0.005308 -0.007490 0.020054 0.000000 0.003081 0.000000
# 4 0.000000 0.000000 0.000000 0.068935 0.000000 -0.015474
# 5 0.003237 -0.002441 0.003081 0.000000 0.036411 0.000000
# 6 0.000000 0.000000 0.000000 -0.015474 0.000000 0.096176
#
#
# Mechanical properties :
#
#
# Convention : Reuss Voigt Hill
#
# Bulk Modulus (GPa) = 40.06012 42.19782 41.12897
# Shear Modulus (GPa) = 16.69979 19.60913 18.15446
#
# Velocity S-wave (km/s) = 3.12906 3.39068 3.26249
# Velocity P-wave (km/s) = 6.04497 6.33003 6.18914
#
# Compressibility (1/GPa) = 0.02496248
#
# Stress axis : x y z
#
# Youngs Moduli (GPa) = 67.36220 44.71648 49.86587
#
# Poissons Ratio (x) = 0.14991 0.26466
# Poissons Ratio (y) = 0.22582 0.37349
# Poissons Ratio (z) = 0.35753 0.33492
#
# Static dielectric constant tensor:
#      x y z
#    x 1.574730 0.000000 -0.003560 
#    y 0.000000 1.571480 0.000000 
#    z -0.003560 0.000000 1.594270 
# 
# From -- ./inp_files/251948.got.cif
#   From: 2010.05.17/outbox.cif.g08.bks.cpg/sg12_126_cif.got.tgz:251948.got - 2010.06.03 13:09:07.
