data_PCOD9176995
_publ_section_title
;
Structure prediction by ZEFSAII (Michael W. Deem and Ramdas Pophale) SiO2 
 PCOD9176995
Probable space group: C 2/M
;
_chemical_formula_sum "Si O2"
_cell_formula_units_Z 44
_cell_length_a 18.872347
_cell_length_b 13.202805
_cell_length_c 10.855177
_cell_angle_alpha 90.000000
_cell_angle_beta 52.882186
_cell_angle_gamma 90.000000
_cell_volume 2156.767210
_symmetry_space_group_name_H-M "C 2/M"
_symmetry_group_IT_number 12
_symmetry_cell_setting 'monoclinic'
loop_
_space_group_symop_operation_xyz
x,y,z
-x,y,-z
-x,-y,-z
x,-y,z
1/2+x,1/2+y,z
1/2-x,1/2+y,-z
1/2-x,1/2-y,-z
1/2+x,1/2-y,z
loop_
_atom_site_type_symbol
_atom_site_label
_atom_site_fract_x
_atom_site_fract_y
_atom_site_fract_z
Si Si1 0.156480 0.293544 0.648396
Si Si2 0.934647 0.000000 0.449998
Si Si3 0.106517 0.500000 0.846911
Si Si4 0.166067 0.178469 0.081674
Si Si5 0.485670 0.720992 0.369134
Si Si6 0.716708 0.500000 0.209960
Si Si7 0.606415 0.389502 0.878741
O O1 0.250000 0.250000 0.500000
O O2 0.137457 0.400117 0.737187
O O3 0.091118 0.291598 0.599954
O O4 0.129699 0.207011 0.773600
O O5 0.957535 0.894534 0.362200
O O6 0.000000 0.000000 0.500000
O O7 0.834302 0.000000 0.605499
O O8 0.177171 0.500000 0.886549
O O9 0.000000 0.500000 0.000000
O O10 0.180480 0.095987 0.173303
O O11 0.077676 0.241105 0.205086
O O12 0.250000 0.250000 0.000000
O O13 0.150037 0.126206 0.967282
O O14 0.500000 0.725691 0.500000
O O15 0.635202 0.500000 0.798648
O O16 0.500000 0.391330 0.000000
#
# Coordination Sequence:
#
# PCOD9176995 Si02
#       7
#     8   4   4   8   8   4   8
#     4  12  28  47  73 100 146 191 242 294 355 442
#     4  10  18  36  69 101 133 162 223 295 350 400
#     4  12  30  52  72 102 150 206 246 279 364 456
#     4  12  24  39  66 101 141 179 231 289 350 424
#     4  11  23  41  67 104 136 175 234 292 355 412
#     4  12  22  44  69 100 133 181 237 287 342 422
#     4  11  24  43  70 104 139 177 229 304 371 410
#
# _framework density 20.400903
#
# number of rings (size 3 to 8) (size 9 to 14) (size 15 to 20)
#    0.000    0.545    6.364    2.727    7.636    0.000 
#    0.000    0.455    0.000    0.000    0.000    0.000 
#    0.000    0.000    0.000    0.000    0.000    0.000 
#
# Total GULP energy -122857.029412 kJ/mol
# GULP energy per Si atom -5584.410428 kJ/mol
# Density = 2.035447 g / cm^3
# Si number density = 20.400903 Si / 1000 Ang^3
#
#
#
# Elastic Constant Matrix: (Units=GPa)
#
#
# Indices 1 2 3 4 5 6 
#
# 1 124.9413 30.7587 30.9430 0.0000 -13.9153 0.0000
# 2 30.7587 125.0800 48.4260 0.0000 -2.1117 0.0000
# 3 30.9430 48.4260 97.5966 0.0000 -25.4568 0.0000
# 4 0.0000 0.0000 0.0000 26.3498 0.0000 0.5543
# 5 -13.9153 -2.1117 -25.4568 0.0000 42.9779 0.0000
# 6 0.0000 0.0000 0.0000 0.5543 0.0000 7.6873
#
#
#
# Elastic Compliance Matrix: (Units=1/GPa)
#
#
# Indices 1 2 3 4 5 6 
#
# 1 0.008992 -0.001569 -0.001577 0.000000 0.001900 0.000000
# 2 -0.001569 0.010477 -0.005558 0.000000 -0.003285 0.000000
# 3 -0.001577 -0.005558 0.015730 0.000000 0.008534 0.000000
# 4 0.000000 0.000000 0.000000 0.038009 0.000000 -0.002740
# 5 0.001900 -0.003285 0.008534 0.000000 0.028776 0.000000
# 6 0.000000 0.000000 0.000000 -0.002740 0.000000 0.130283
#
#
# Mechanical properties :
#
#
# Convention : Reuss Voigt Hill
#
# Bulk Modulus (GPa) = 56.20616 63.09704 59.65160
# Shear Modulus (GPa) = 19.56144 31.23567 25.39856
#
# Velocity S-wave (km/s) = 3.09989 3.91716 3.53224
# Velocity P-wave (km/s) = 6.35791 7.17319 6.77782
#
# Compressibility (1/GPa) = 0.01779164
#
# Stress axis : x y z
#
# Youngs Moduli (GPa) = 111.20836 95.44655 63.57294
#
# Poissons Ratio (x) = 0.14972 0.10025
# Poissons Ratio (y) = 0.17445 0.35335
# Poissons Ratio (z) = 0.17537 0.53051
#
# Static dielectric constant tensor:
#      x y z
#    x 1.779030 0.000000 0.000420 
#    y 0.000000 1.890280 0.000000 
#    z 0.000420 0.000000 1.727680 
# 
# From -- ./inp_files/155846.got.cif
#   From: 2010.05.17/outbox.cif.g08.bks.cpg/sg12_78_cif.got.tgz:155846.got - 2010.06.03 13:09:07.
