data_PCOD9176821
_publ_section_title
;
Structure prediction by ZEFSAII (Michael W. Deem and Ramdas Pophale) SiO2 
 PCOD9176821
Probable space group: C 2/M
;
_chemical_formula_sum "Si O2"
_cell_formula_units_Z 64
_cell_length_a 29.600195
_cell_length_b 15.873039
_cell_length_c 20.317782
_cell_angle_alpha 90.000000
_cell_angle_beta 22.501702
_cell_angle_gamma 90.000000
_cell_volume 3653.438126
_symmetry_space_group_name_H-M "C 2/M"
_symmetry_group_IT_number 12
_symmetry_cell_setting 'monoclinic'
loop_
_space_group_symop_operation_xyz
x,y,z
-x,y,-z
-x,-y,-z
x,-y,z
1/2+x,1/2+y,z
1/2-x,1/2+y,-z
1/2-x,1/2-y,-z
1/2+x,1/2-y,z
loop_
_atom_site_type_symbol
_atom_site_label
_atom_site_fract_x
_atom_site_fract_y
_atom_site_fract_z
Si Si1 0.945821 0.169377 0.505342
Si Si2 0.761749 0.314046 0.796344
Si Si3 0.743532 0.405058 0.685037
Si Si4 0.147887 0.289052 0.182125
Si Si5 0.379507 0.760714 0.203694
Si Si6 0.549839 0.812616 0.079277
Si Si7 0.277694 0.903860 0.255575
Si Si8 0.992091 0.596100 0.727014
O O1 0.858111 0.246676 0.640962
O O2 0.856605 0.106476 0.589289
O O3 0.000000 0.133674 0.500000
O O4 0.054302 0.213643 0.322055
O O5 0.753017 0.383104 0.750381
O O6 0.804131 0.328365 0.813957
O O7 0.635914 0.267575 0.969056
O O8 0.695497 0.500000 0.741361
O O9 0.673269 0.330325 0.742763
O O10 0.873498 0.402606 0.478710
O O11 0.083883 0.360744 0.227182
O O12 0.250000 0.250000 0.000000
O O13 0.427056 0.783282 0.211723
O O14 0.296416 0.834474 0.287341
O O15 0.500000 0.766031 0.000000
O O16 0.526238 0.853456 0.181107
O O17 0.626914 0.876376 0.929195
O O18 0.300589 0.000000 0.244680
O O19 0.955925 0.500000 0.786509
#
# Coordination Sequence:
#
# PCOD9176821 Si02
#       8
#     8   8   8   8   8   8   8   8
#     4   9  18  33  53  77 113 145 186 231 280 349
#     4  10  18  36  57  83 110 148 193 231 286 342
#     4  11  22  38  60  86 117 152 194 241 286 348
#     4  11  20  34  60  81 109 155 190 235 293 345
#     4  10  19  36  59  85 113 147 197 240 291 340
#     4  10  20  36  56  82 116 150 187 239 289 343
#     4  10  19  33  56  83 112 148 194 240 285 341
#     4  11  23  37  55  86 120 150 191 240 291 351
#
# _framework density 17.517745999999999
#
# number of rings (size 3 to 8) (size 9 to 14) (size 15 to 20)
#    0.000    1.750    6.250    0.375    0.000    4.250 
#    0.000    1.875    0.000    0.000    0.000    0.000 
#    0.000    0.000    0.000    0.000    0.000    0.000 
#
# Total GULP energy -178304.070803 kJ/mol
# GULP energy per Si atom -5572.002213 kJ/mol
# Density = 1.747787 g / cm^3
# Si number density = 17.517746 Si / 1000 Ang^3
#
#
#
# Elastic Constant Matrix: (Units=GPa)
#
#
# Indices 1 2 3 4 5 6 
#
# 1 98.7205 48.2002 40.8237 0.0000 -3.5819 0.0000
# 2 48.2002 103.2452 29.5384 0.0000 -7.1275 0.0000
# 3 40.8237 29.5384 65.0764 0.0000 -3.2131 0.0000
# 4 0.0000 0.0000 0.0000 20.5414 0.0000 0.0592
# 5 -3.5819 -7.1275 -3.2131 0.0000 32.0557 0.0000
# 6 0.0000 0.0000 0.0000 0.0592 0.0000 -1.2229
#
#
#
# Elastic Compliance Matrix: (Units=1/GPa)
#
#
# Indices 1 2 3 4 5 6 
#
# 1 0.015796 -0.005226 -0.007544 0.000000 -0.000153 0.000000
# 2 -0.005226 0.012987 -0.002515 0.000000 0.002052 0.000000
# 3 -0.007544 -0.002515 0.021277 0.000000 0.000731 0.000000
# 4 0.000000 0.000000 0.000000 0.048675 0.000000 0.002357
# 5 -0.000153 0.002052 0.000731 0.000000 0.031708 0.000000
# 6 0.000000 0.000000 0.000000 0.002357 0.000000 -0.817629
#
#
# Mechanical properties :
#
#
# Convention : Reuss Voigt Hill
#
# Bulk Modulus (GPa) = 51.31289 56.01852 53.66570
# Shear Modulus (GPa) = -7.69089 20.17349 6.24130
#
# Velocity S-wave (km/s) = -2.09759 3.39721 1.88960
# Velocity P-wave (km/s) = 4.84655 6.88735 5.95503
#
# Compressibility (1/GPa) = 0.01948828
#
# Stress axis : x y z
#
# Youngs Moduli (GPa) = 63.30905 77.00162 46.99974
#
# Poissons Ratio (x) = 0.40244 0.35457
# Poissons Ratio (y) = 0.33088 0.11820
# Poissons Ratio (z) = 0.47761 0.19365
#
# Static dielectric constant tensor:
#      x y z
#    x 1.658520 0.000000 -0.031410 
#    y 0.000000 1.593010 0.000000 
#    z -0.031410 0.000000 1.608940 
# 
# From -- ./inp_files/330351.got.cif
#   From: 2010.05.17/outbox.cif.g08.bks.cpg/sg12_166_cif.got.tgz:330351.got - 2010.06.03 13:09:07.
