data_PCOD9176352
_publ_section_title
;
Structure prediction by ZEFSAII (Michael W. Deem and Ramdas Pophale) SiO2 
 PCOD9176352
Probable space group: C 2/M
;
_chemical_formula_sum "Si O2"
_cell_formula_units_Z 64
_cell_length_a 17.642865
_cell_length_b 19.905989
_cell_length_c 16.645260
_cell_angle_alpha 90.000000
_cell_angle_beta 148.716652
_cell_angle_gamma 90.000000
_cell_volume 3035.549502
_symmetry_space_group_name_H-M "C 2/M"
_symmetry_group_IT_number 12
_symmetry_cell_setting 'monoclinic'
loop_
_space_group_symop_operation_xyz
x,y,z
-x,y,-z
-x,-y,-z
x,-y,z
1/2+x,1/2+y,z
1/2-x,1/2+y,-z
1/2-x,1/2-y,-z
1/2+x,1/2-y,z
loop_
_atom_site_type_symbol
_atom_site_label
_atom_site_fract_x
_atom_site_fract_y
_atom_site_fract_z
Si Si1 0.581908 0.377156 0.992870
Si Si2 0.954832 0.295791 0.623504
Si Si3 0.131132 0.328687 0.224787
Si Si4 0.159144 0.076808 0.631154
Si Si5 0.774663 0.751398 0.206545
Si Si6 0.857820 0.574322 0.150748
Si Si7 0.312258 0.882505 0.933180
Si Si8 0.883439 0.803481 0.688764
O O1 0.474030 0.357667 0.821522
O O2 0.500000 0.401475 0.000000
O O3 0.659129 0.307084 0.087025
O O4 0.716452 0.419967 0.080376
O O5 0.932308 0.221847 0.645168
O O6 0.788589 0.318757 0.460142
O O7 0.063956 0.278675 0.649109
O O8 0.040240 0.359445 0.742206
O O9 0.247463 0.385395 0.351599
O O10 0.216674 0.290026 0.231551
O O11 0.094699 0.269693 0.251183
O O12 0.981941 0.366421 0.070091
O O13 0.242034 0.081407 0.792330
O O14 0.000000 0.107747 0.500000
O O15 0.141783 0.000000 0.591993
O O16 0.760540 0.808704 0.125682
O O17 0.926128 0.500000 0.224089
O O18 0.804396 0.580161 0.010233
#
# Coordination Sequence:
#
# PCOD9176352 Si02
#       8
#     8   8   8   8   8   8   8   8
#     4  11  20  39  63  87 118 149 198 260 306 357
#     4  10  23  38  60  88 127 157 192 256 309 364
#     4  11  21  34  59  92 120 156 199 245 293 368
#     4  10  23  38  53  83 127 170 207 241 288 353
#     4  10  18  34  59  91 119 153 191 246 302 355
#     4  11  24  42  62  87 117 165 212 241 295 366
#     4  11  20  37  62  87 121 161 202 250 285 354
#     4  11  21  38  60  95 121 149 197 253 324 356
#
# _framework density 21.083497000000001
#
# number of rings (size 3 to 8) (size 9 to 14) (size 15 to 20)
#    0.000    1.375    3.750    2.625    3.500    3.750 
#    0.000    0.625    0.000    0.750    0.000    0.000 
#    0.000    0.000    0.000    0.000    0.000    0.000 
#
# Total GULP energy -178289.012190 kJ/mol
# GULP energy per Si atom -5571.531631 kJ/mol
# Density = 2.103551 g / cm^3
# Si number density = 21.083497 Si / 1000 Ang^3
#
#
#
# Elastic Constant Matrix: (Units=GPa)
#
#
# Indices 1 2 3 4 5 6 
#
# 1 63.4230 8.6147 24.5762 0.0001 17.1544 0.0000
# 2 8.6147 60.3030 1.3512 0.0000 4.5211 0.0000
# 3 24.5762 1.3512 84.7755 0.0005 27.6983 0.0004
# 4 0.0001 0.0000 0.0005 17.3089 0.0002 4.0726
# 5 17.1544 4.5211 27.6983 0.0002 32.7838 0.0001
# 6 0.0000 0.0000 0.0004 4.0726 0.0001 13.7424
#
#
#
# Elastic Compliance Matrix: (Units=1/GPa)
#
#
# Indices 1 2 3 4 5 6 
#
# 1 0.019213 -0.002146 -0.003243 0.000000 -0.007018 0.000000
# 2 -0.002146 0.017024 0.001037 0.000000 -0.002101 0.000000
# 3 -0.003243 0.001037 0.016868 0.000000 -0.012698 0.000000
# 4 0.000000 0.000000 0.000000 0.062104 0.000000 -0.018405
# 5 -0.007018 -0.002101 -0.012698 0.000000 0.045193 0.000000
# 6 0.000000 0.000000 0.000000 -0.018405 0.000000 0.078222
#
#
# Mechanical properties :
#
#
# Convention : Reuss Voigt Hill
#
# Bulk Modulus (GPa) = 22.52139 30.84285 26.68212
# Shear Modulus (GPa) = 19.07469 24.36432 21.71951
#
# Velocity S-wave (km/s) = 3.01112 3.40312 3.21310
# Velocity P-wave (km/s) = 4.77434 5.48655 5.14279
#
# Compressibility (1/GPa) = 0.04440224
#
# Stress axis : x y z
#
# Youngs Moduli (GPa) = 52.04710 58.74133 59.28369
#
# Poissons Ratio (x) = 0.12606 0.19225
# Poissons Ratio (y) = 0.11169 -0.06149
# Poissons Ratio (z) = 0.16878 -0.06093
#
# Static dielectric constant tensor:
#      x y z
#    x 1.866590 0.000000 -0.037050 
#    y 0.000000 1.780380 0.000000 
#    z -0.037050 0.000000 1.793880 
# 
# From -- ./inp_files/279157.got.cif
#   From: 2010.05.17/outbox.cif.g08.bks.cpg/sg12_140_cif.got.tgz:279157.got - 2010.06.03 13:09:07.
