data_PCOD9176052
_publ_section_title
;
Structure prediction by ZEFSAII (Michael W. Deem and Ramdas Pophale) SiO2 
 PCOD9176052
Probable space group: C 2/M
;
_chemical_formula_sum "Si O2"
_cell_formula_units_Z 56
_cell_length_a 21.233638
_cell_length_b 19.659108
_cell_length_c 9.195389
_cell_angle_alpha 90.000000
_cell_angle_beta 49.831613
_cell_angle_gamma 90.000000
_cell_volume 2933.175867
_symmetry_space_group_name_H-M "C 2/M"
_symmetry_group_IT_number 12
_symmetry_cell_setting 'monoclinic'
loop_
_space_group_symop_operation_xyz
x,y,z
-x,y,-z
-x,-y,-z
x,-y,z
1/2+x,1/2+y,z
1/2-x,1/2+y,-z
1/2-x,1/2-y,-z
1/2+x,1/2-y,z
loop_
_atom_site_type_symbol
_atom_site_label
_atom_site_fract_x
_atom_site_fract_y
_atom_site_fract_z
Si Si1 0.341553 0.577697 0.919308
Si Si2 0.710535 0.851121 0.560390
Si Si3 0.237318 0.168445 0.191010
Si Si4 0.371302 0.790906 0.746952
Si Si5 0.331585 0.923811 0.649434
Si Si6 0.539230 0.697844 0.173533
Si Si7 0.119400 0.218648 0.746077
O O1 0.368474 0.500000 0.874204
O O2 0.312290 0.607188 0.808769
O O3 0.412196 0.628733 0.865831
O O4 0.259916 0.581872 0.142387
O O5 0.729561 0.855085 0.703130
O O6 0.680443 0.912159 0.504865
O O7 0.796320 0.823074 0.367056
O O8 0.642867 0.792132 0.651319
O O9 0.178775 0.235463 0.275739
O O10 0.310372 0.188779 0.971433
O O11 0.382871 0.860734 0.640896
O O12 0.444637 0.750648 0.719467
O O13 0.362617 0.000000 0.634674
O O14 0.445198 0.685804 0.268959
O O15 0.580384 0.725537 0.963545
#
# Coordination Sequence:
#
# PCOD9176052 Si02
#       7
#     8   8   8   8   8   8   8
#     4   9  18  34  53  78 111 147 177 207 252 322
#     4  11  19  34  50  81 107 137 168 228 269 307
#     4   9  17  28  54  76 100 139 181 214 259 300
#     4   9  16  32  51  75 100 136 180 223 253 306
#     4  10  20  33  53  79 110 143 177 213 266 324
#     4  10  18  34  53  81 104 139 180 220 257 317
#     4  10  20  30  54  79 107 133 175 220 271 308
#
# _framework density 19.091933999999998
#
# number of rings (size 3 to 8) (size 9 to 14) (size 15 to 20)
#    0.000    2.286    2.857    2.571    0.000    0.571 
#    0.000    8.571    0.000    2.571    0.000    2.000 
#    0.000    0.000    0.000    0.000    0.000    0.000 
#
# Total GULP energy -156141.162894 kJ/mol
# GULP energy per Si atom -5576.470103 kJ/mol
# Density = 1.904848 g / cm^3
# Si number density = 19.091934 Si / 1000 Ang^3
#
#
#
# Elastic Constant Matrix: (Units=GPa)
#
#
# Indices 1 2 3 4 5 6 
#
# 1 70.9302 50.6764 10.7514 0.0000 29.3042 0.0000
# 2 50.6764 120.0171 15.7958 0.0000 10.8379 0.0000
# 3 10.7514 15.7958 50.7090 0.0000 22.3897 0.0000
# 4 0.0000 0.0000 0.0000 15.6552 0.0000 7.9141
# 5 29.3042 10.8379 22.3897 0.0000 28.4126 0.0000
# 6 0.0000 0.0000 0.0000 7.9141 0.0000 12.3456
#
#
#
# Elastic Compliance Matrix: (Units=1/GPa)
#
#
# Indices 1 2 3 4 5 6 
#
# 1 0.048747 -0.018002 0.022144 0.000000 -0.060859 0.000000
# 2 -0.018002 0.015397 -0.010097 0.000000 0.020650 0.000000
# 3 0.022144 -0.010097 0.040723 0.000000 -0.051078 0.000000
# 4 0.000000 0.000000 0.000000 0.094501 0.000000 -0.060579
# 5 -0.060859 0.020650 -0.051078 0.000000 0.130338 0.000000
# 6 0.000000 0.000000 0.000000 -0.060579 0.000000 0.119835
#
#
# Mechanical properties :
#
#
# Convention : Reuss Voigt Hill
#
# Bulk Modulus (GPa) = 10.75765 44.01149 27.38457
# Shear Modulus (GPa) = 10.15358 22.24486 16.19922
#
# Velocity S-wave (km/s) = 2.30864 3.41712 2.91604
# Velocity P-wave (km/s) = 3.57117 6.21864 5.07074
#
# Compressibility (1/GPa) = 0.09295714
#
# Stress axis : x y z
#
# Youngs Moduli (GPa) = 20.51420 64.94629 24.55595
#
# Poissons Ratio (x) = 1.16913 -0.54376
# Poissons Ratio (y) = 0.36929 0.24795
# Poissons Ratio (z) = -0.45426 0.65578
#
# Static dielectric constant tensor:
#      x y z
#    x 1.671770 0.000000 0.010030 
#    y 0.000000 1.638340 0.000000 
#    z 0.010030 0.000000 1.705990 
# 
# From -- ./inp_files/89515.got.cif
#   From: 2010.05.17/outbox.cif.g08.bks.cpg/sg12_45_cif.got.tgz:89515.got - 2010.06.03 13:09:07.
