data_PCOD9176620
_publ_section_title
;
Structure prediction by ZEFSAII (Michael W. Deem and Ramdas Pophale) SiO2 
 PCOD9176620
Probable space group: C 2/M
;
_chemical_formula_sum "Si O2"
_cell_formula_units_Z 64
_cell_length_a 26.520840
_cell_length_b 22.580338
_cell_length_c 14.961467
_cell_angle_alpha 90.000000
_cell_angle_beta 22.124315
_cell_angle_gamma 90.000000
_cell_volume 3374.366916
_symmetry_space_group_name_H-M "C 2/M"
_symmetry_group_IT_number 12
_symmetry_cell_setting 'monoclinic'
loop_
_space_group_symop_operation_xyz
x,y,z
-x,y,-z
-x,-y,-z
x,-y,z
1/2+x,1/2+y,z
1/2-x,1/2+y,-z
1/2-x,1/2-y,-z
1/2+x,1/2-y,z
loop_
_atom_site_type_symbol
_atom_site_label
_atom_site_fract_x
_atom_site_fract_y
_atom_site_fract_z
Si Si1 0.777940 0.570282 0.533582
Si Si2 0.281239 0.196875 0.849674
Si Si3 0.113761 0.827077 0.883583
Si Si4 0.500442 0.657117 0.265921
Si Si5 0.905996 0.429755 0.952533
Si Si6 0.352815 0.177228 0.922611
Si Si7 0.128638 0.726212 0.487861
Si Si8 0.778337 0.929563 0.578794
O O1 0.751028 0.500000 0.584170
O O2 0.677759 0.608322 0.759001
O O3 0.753766 0.589792 0.470092
O O4 0.933217 0.579302 0.306012
O O5 0.369098 0.175869 0.788462
O O6 0.339556 0.190493 0.655209
O O7 0.252074 0.268110 0.899236
O O8 0.140094 0.161898 0.089521
O O9 0.241629 0.784271 0.665923
O O10 0.000000 0.813930 0.000000
O O11 0.046779 0.823489 0.090600
O O12 0.400266 0.704585 0.474254
O O13 0.415047 0.598394 0.391812
O O14 0.884065 0.500000 0.970316
O O15 0.835435 0.386426 0.996422
O O16 0.840619 0.415962 0.156354
O O17 0.485901 0.201565 0.752796
O O18 0.790788 0.000000 0.555070
#
# Coordination Sequence:
#
# PCOD9176620 Si02
#       8
#     8   8   8   8   8   8   8   8
#     4  10  20  36  58  82 111 152 196 232 273 332
#     4   9  20  34  57  84 105 144 189 234 281 342
#     4  11  21  36  54  83 116 148 186 230 280 336
#     4  10  21  36  55  82 115 145 189 232 282 340
#     4  10  20  35  58  86 114 147 190 237 282 332
#     4  10  18  35  59  81 109 143 188 235 284 329
#     4  10  20  36  55  78 112 148 183 229 281 337
#     4  10  20  36  57  81 113 151 190 232 277 333
#
# _framework density 18.966521
#
# number of rings (size 3 to 8) (size 9 to 14) (size 15 to 20)
#    0.000    2.000    2.500    1.500    0.000    2.750 
#    0.000    2.500    0.000    3.750    0.000    0.000 
#    0.000    0.000    0.000    0.000    0.000    0.000 
#
# Total GULP energy -178199.523997 kJ/mol
# GULP energy per Si atom -5568.735125 kJ/mol
# Density = 1.892335 g / cm^3
# Si number density = 18.966521 Si / 1000 Ang^3
#
#
#
# Elastic Constant Matrix: (Units=GPa)
#
#
# Indices 1 2 3 4 5 6 
#
# 1 64.1459 23.8827 28.5326 -0.0013 -8.9638 0.0003
# 2 23.8827 36.0622 14.6565 0.0006 -1.5148 -0.0003
# 3 28.5326 14.6565 58.9035 -0.0001 -16.8593 0.0008
# 4 -0.0013 0.0006 -0.0001 26.1552 0.0007 -0.2189
# 5 -8.9638 -1.5148 -16.8593 0.0007 30.6556 -0.0004
# 6 0.0003 -0.0003 0.0008 -0.2189 -0.0004 29.2421
#
#
#
# Elastic Compliance Matrix: (Units=1/GPa)
#
#
# Indices 1 2 3 4 5 6 
#
# 1 0.024126 -0.012662 -0.007947 0.000001 0.002058 0.000000
# 2 -0.012662 0.037761 -0.004496 -0.000001 -0.004309 0.000001
# 3 -0.007947 -0.004496 0.025180 0.000000 0.011302 0.000000
# 4 0.000001 -0.000001 0.000000 0.038236 -0.000001 0.000286
# 5 0.002058 -0.004309 0.011302 -0.000001 0.039225 0.000000
# 6 0.000000 0.000001 0.000000 0.000286 0.000000 0.034199
#
#
# Mechanical properties :
#
#
# Convention : Reuss Voigt Hill
#
# Bulk Modulus (GPa) = 27.13081 32.58393 29.85737
# Shear Modulus (GPa) = 19.14074 23.34657 21.24365
#
# Velocity S-wave (km/s) = 3.18021 3.51228 3.35036
# Velocity P-wave (km/s) = 5.27453 5.80216 5.54463
#
# Compressibility (1/GPa) = 0.03685847
#
# Stress axis : x y z
#
# Youngs Moduli (GPa) = 41.44886 26.48202 39.71414
#
# Poissons Ratio (x) = 0.33530 0.31561
# Poissons Ratio (y) = 0.52481 0.17856
# Poissons Ratio (z) = 0.32939 0.11906
#
# Static dielectric constant tensor:
#      x y z
#    x 1.689590 0.000000 0.005260 
#    y 0.000000 1.680470 0.000000 
#    z 0.005260 0.000000 1.711950 
# 
# From -- ./inp_files/297068.got.cif
#   From: 2010.05.17/outbox.cif.g08.bks.cpg/sg12_149_cif.got.tgz:297068.got - 2010.06.03 13:09:07.
