data_PCOD9176787
_publ_section_title
;
Structure prediction by ZEFSAII (Michael W. Deem and Ramdas Pophale) SiO2 
 PCOD9176787
Probable space group: C 2/M
;
_chemical_formula_sum "Si O2"
_cell_formula_units_Z 58
_cell_length_a 18.301677
_cell_length_b 17.798404
_cell_length_c 16.165861
_cell_angle_alpha 90.000000
_cell_angle_beta 148.279903
_cell_angle_gamma 90.000000
_cell_volume 2768.640891
_symmetry_space_group_name_H-M "C 2/M"
_symmetry_group_IT_number 12
_symmetry_cell_setting 'monoclinic'
loop_
_space_group_symop_operation_xyz
x,y,z
-x,y,-z
-x,-y,-z
x,-y,z
1/2+x,1/2+y,z
1/2-x,1/2+y,-z
1/2-x,1/2-y,-z
1/2+x,1/2-y,z
loop_
_atom_site_type_symbol
_atom_site_label
_atom_site_fract_x
_atom_site_fract_y
_atom_site_fract_z
Si Si1 0.516279 0.419652 0.655346
Si Si2 0.799947 0.631455 0.238046
Si Si3 0.515622 0.260380 0.398826
Si Si4 0.500000 0.000000 0.500000
Si Si5 0.989771 0.696177 0.782692
Si Si6 0.271671 0.084895 0.023994
Si Si7 0.749498 0.414359 0.485822
Si Si8 0.678340 0.302298 0.272158
O O1 0.534038 0.500000 0.629221
O O2 0.529043 0.343063 0.618086
O O3 0.366818 0.417721 0.555671
O O4 0.629880 0.417293 0.837380
O O5 0.911233 0.697734 0.330506
O O6 0.885574 0.565357 0.364313
O O7 0.751903 0.605444 0.101089
O O8 0.680932 0.663069 0.183445
O O9 0.504112 0.254194 0.287939
O O10 0.673376 0.240577 0.573763
O O11 0.875564 0.635161 0.642491
O O12 0.938836 0.743493 0.812204
O O13 0.130207 0.648335 0.922089
O O14 0.333618 0.000000 0.079869
O O15 0.792060 0.500000 0.504742
O O16 0.689278 0.370591 0.348559
#
# Coordination Sequence:
#
# PCOD9176787 Si02
#       8
#     8   8   8   2   8   8   8   8
#     4  10  20  37  59  80 111 149 191 238 285 336
#     4  11  23  32  58  83 124 155 186 232 285 355
#     4  10  18  36  54  82 109 151 193 233 279 336
#     4  12  20  36  52  92 120 164 184 224 292 344
#     4  10  19  32  55  81 111 144 193 240 275 332
#     4  10  22  38  58  87 114 148 195 241 283 340
#     4  10  19  31  54  81 110 147 184 231 285 328
#     4  11  19  34  51  86 114 150 182 236 283 344
#
# _framework density 20.948906999999998
#
# number of rings (size 3 to 8) (size 9 to 14) (size 15 to 20)
#    0.000    1.655    4.828    1.241    0.966    2.207 
#    0.000    0.690    0.000    5.793    0.000    1.931 
#    0.000    0.000    0.000    0.000    0.000    0.000 
#
# Total GULP energy -161750.261343 kJ/mol
# GULP energy per Si atom -5577.595219 kJ/mol
# Density = 2.090123 g / cm^3
# Si number density = 20.948907 Si / 1000 Ang^3
#
#
#
# Elastic Constant Matrix: (Units=GPa)
#
#
# Indices 1 2 3 4 5 6 
#
# 1 82.1979 39.0934 12.3133 0.0000 -3.1483 0.0000
# 2 39.0934 184.3429 19.3175 0.0000 -2.7620 0.0000
# 3 12.3133 19.3175 32.0643 0.0000 -1.8711 0.0000
# 4 0.0000 0.0000 0.0000 17.3134 0.0000 7.2142
# 5 -3.1483 -2.7620 -1.8711 0.0000 13.2710 0.0000
# 6 0.0000 0.0000 0.0000 7.2142 0.0000 6.1559
#
#
#
# Elastic Compliance Matrix: (Units=1/GPa)
#
#
# Indices 1 2 3 4 5 6 
#
# 1 0.014022 -0.002550 -0.003716 0.000000 0.002272 0.000000
# 2 -0.002550 0.006261 -0.002775 0.000000 0.000307 0.000000
# 3 -0.003716 -0.002775 0.034484 0.000000 0.003403 0.000000
# 4 0.000000 0.000000 0.000000 0.112881 0.000000 -0.132287
# 5 0.002272 0.000307 0.003403 0.000000 0.076435 0.000000
# 6 0.000000 0.000000 0.000000 -0.132287 0.000000 0.317476
#
#
# Mechanical properties :
#
#
# Convention : Reuss Voigt Hill
#
# Bulk Modulus (GPa) = 27.25824 48.89484 38.07654
# Shear Modulus (GPa) = 8.44780 22.54011 15.49396
#
# Velocity S-wave (km/s) = 2.01031 3.28374 2.72252
# Velocity P-wave (km/s) = 4.29284 6.14556 5.30077
#
# Compressibility (1/GPa) = 0.03668615
#
# Stress axis : x y z
#
# Youngs Moduli (GPa) = 71.31487 159.72228 28.99856
#
# Poissons Ratio (x) = 0.40734 0.10775
# Poissons Ratio (y) = 0.18187 0.08046
# Poissons Ratio (z) = 0.26499 0.44318
#
# Static dielectric constant tensor:
#      x y z
#    x 1.784180 0.000000 -0.004870 
#    y 0.000000 1.790650 0.000000 
#    z -0.004870 0.000000 1.721040 
# 
# From -- ./inp_files/278824.got.cif
#   From: 2010.05.17/outbox.cif.g08.bks.cpg/sg12_140_cif.got.tgz:278824.got - 2010.06.03 13:09:07.
