data_PCOD9176363
_publ_section_title
;
Structure prediction by ZEFSAII (Michael W. Deem and Ramdas Pophale) SiO2 
 PCOD9176363
Probable space group: C 2/M
;
_chemical_formula_sum "Si O2"
_cell_formula_units_Z 56
_cell_length_a 15.439908
_cell_length_b 7.528201
_cell_length_c 21.255330
_cell_angle_alpha 90.000000
_cell_angle_beta 86.555467
_cell_angle_gamma 90.000000
_cell_volume 2466.144238
_symmetry_space_group_name_H-M "C 2/M"
_symmetry_group_IT_number 12
_symmetry_cell_setting 'monoclinic'
loop_
_space_group_symop_operation_xyz
x,y,z
-x,y,-z
-x,-y,-z
x,-y,z
1/2+x,1/2+y,z
1/2-x,1/2+y,-z
1/2-x,1/2-y,-z
1/2+x,1/2-y,z
loop_
_atom_site_type_symbol
_atom_site_label
_atom_site_fract_x
_atom_site_fract_y
_atom_site_fract_z
Si Si1 0.115776 0.795145 0.162638
Si Si2 0.031921 0.284745 0.928853
Si Si3 0.098167 0.214238 0.509963
Si Si4 0.657355 0.207166 0.373396
Si Si5 0.227833 0.713470 0.928029
Si Si6 0.982072 0.795961 0.715198
Si Si7 0.346929 0.281869 0.353069
O O1 0.198053 0.716116 0.122135
O O2 0.078668 0.713214 0.228505
O O3 0.035405 0.789469 0.118158
O O4 0.139349 0.000000 0.175795
O O5 0.029446 0.500000 0.924239
O O6 0.130940 0.224152 0.916576
O O7 0.000000 0.236943 0.000000
O O8 0.156116 0.272741 0.448645
O O9 0.129227 0.274148 0.576957
O O10 0.000000 0.274744 0.500000
O O11 0.098162 0.000000 0.510496
O O12 0.573788 0.296765 0.346301
O O13 0.749017 0.274907 0.343054
O O14 0.649703 0.000000 0.358854
O O15 0.227271 0.500000 0.922798
O O16 0.250000 0.750000 0.000000
O O17 0.076555 0.719048 0.696151
O O18 0.997555 0.000000 0.734025
O O19 0.347549 0.500000 0.352694
#
# Coordination Sequence:
#
# PCOD9176363 Si02
#       7
#     8   8   8   8   8   8   8
#     4  10  22  37  58  84 109 141 188 235 266 314
#     4  10  20  35  56  81 112 147 175 214 279 336
#     4  10  18  34  60  82 105 149 190 221 273 336
#     4  11  22  35  55  85 114 140 180 237 280 316
#     4  10  20  35  55  83 112 142 178 222 273 325
#     4  10  21  41  59  75 108 153 189 220 269 336
#     4   9  19  36  57  79 109 147 185 222 272 335
#
# _framework density 22.707512999999999
#
# number of rings (size 3 to 8) (size 9 to 14) (size 15 to 20)
#    0.000    2.000    2.857    0.857    0.000    2.857 
#    0.000    2.143    0.000    0.000    0.000    0.000 
#    0.000    0.000    0.000    0.000    0.000    0.000 
#
# Total GULP energy -156458.309829 kJ/mol
# GULP energy per Si atom -5587.796780 kJ/mol
# Density = 2.265583 g / cm^3
# Si number density = 22.707513 Si / 1000 Ang^3
#
#
#
# Elastic Constant Matrix: (Units=GPa)
#
#
# Indices 1 2 3 4 5 6 
#
# 1 146.7881 3.5125 13.2099 0.0000 -44.6462 0.0000
# 2 3.5125 61.3081 -1.9737 0.0000 -5.5318 0.0000
# 3 13.2099 -1.9737 71.9218 0.0000 -38.6922 0.0000
# 4 0.0000 0.0000 0.0000 58.8590 0.0000 72.2472
# 5 -44.6462 -5.5318 -38.6922 0.0000 44.1554 0.0000
# 6 0.0000 0.0000 0.0000 72.2472 0.0000 113.1007
#
#
#
# Elastic Compliance Matrix: (Units=1/GPa)
#
#
# Indices 1 2 3 4 5 6 
#
# 1 0.012016 0.001362 0.008435 0.000000 0.019711 0.000000
# 2 0.001362 0.016992 0.003977 0.000000 0.006990 0.000000
# 3 0.008435 0.003977 0.032767 0.000000 0.037739 0.000000
# 4 0.000000 0.000000 0.000000 0.078688 0.000000 -0.050265
# 5 0.019711 0.006990 0.037739 0.000000 0.076523 0.000000
# 6 0.000000 0.000000 0.000000 -0.050265 0.000000 0.040950
#
#
# Mechanical properties :
#
#
# Convention : Reuss Voigt Hill
#
# Bulk Modulus (GPa) = 11.19566 34.39061 22.79314
# Shear Modulus (GPa) = 19.21874 60.90765 40.06320
#
# Velocity S-wave (km/s) = 2.91238 5.18468 4.20493
# Velocity P-wave (km/s) = 4.03118 7.14277 5.79955
#
# Compressibility (1/GPa) = 0.08932029
#
# Stress axis : x y z
#
# Youngs Moduli (GPa) = 83.22130 58.85199 30.51890
#
# Poissons Ratio (x) = -0.08013 -0.25741
# Poissons Ratio (y) = -0.11332 -0.12137
# Poissons Ratio (z) = -0.70193 -0.23404
#
# Static dielectric constant tensor:
#      x y z
#    x 1.839130 0.000000 -0.039680 
#    y 0.000000 1.893740 0.000000 
#    z -0.039680 0.000000 1.833060 
# 
# From -- ./inp_files/308917.got.cif
#   From: 2010.05.17/outbox.cif.g08.bks.cpg/sg12_155_cif.got.tgz:308917.got - 2010.06.03 13:09:07.
