data_PCOD9176789
_publ_section_title
;
Structure prediction by ZEFSAII (Michael W. Deem and Ramdas Pophale) SiO2 
 PCOD9176789
Probable space group: C 2/M
;
_chemical_formula_sum "Si O2"
_cell_formula_units_Z 44
_cell_length_a 8.724194
_cell_length_b 16.337619
_cell_length_c 15.359876
_cell_angle_alpha 90.000000
_cell_angle_beta 89.694012
_cell_angle_gamma 90.000000
_cell_volume 2189.251191
_symmetry_space_group_name_H-M "C 2/M"
_symmetry_group_IT_number 12
_symmetry_cell_setting 'monoclinic'
loop_
_space_group_symop_operation_xyz
x,y,z
-x,y,-z
-x,-y,-z
x,-y,z
1/2+x,1/2+y,z
1/2-x,1/2+y,-z
1/2-x,1/2-y,-z
1/2+x,1/2-y,z
loop_
_atom_site_type_symbol
_atom_site_label
_atom_site_fract_x
_atom_site_fract_y
_atom_site_fract_z
Si Si1 0.966408 0.000000 0.344125
Si Si2 0.556498 0.154958 0.400231
Si Si3 0.755883 0.365277 0.054960
Si Si4 0.000000 0.739499 0.000000
Si Si5 0.752680 0.500000 0.904768
Si Si6 0.888308 0.500000 0.715269
Si Si7 0.421242 0.679940 0.408751
Si Si8 0.600904 0.500000 0.163559
O O1 0.982860 0.089136 0.386789
O O2 0.082736 0.000000 0.264988
O O3 0.790535 0.000000 0.312703
O O4 0.500000 0.133370 0.500000
O O5 0.473096 0.236049 0.361565
O O6 0.737955 0.174246 0.408822
O O7 0.540788 0.079804 0.332248
O O8 0.626813 0.297274 0.040673
O O9 0.694440 0.422962 0.129589
O O10 0.914162 0.318765 0.068373
O O11 0.771761 0.421414 0.967889
O O12 0.867227 0.500000 0.821051
O O13 0.572844 0.500000 0.875597
O O14 0.500000 0.697192 0.500000
#
# Coordination Sequence:
#
# PCOD9176789 Si02
#       8
#     4   8   8   4   4   4   8   4
#     4   9  20  35  53  81 110 146 177 219 270 321
#     4  10  19  35  57  79 106 141 180 223 267 320
#     4  10  19  36  59  77 109 139 185 214 269 316
#     4  10  20  34  56  90  98 134 186 230 260 314
#     4  10  18  36  55  76 109 151 175 213 269 330
#     4   9  20  35  53  81 110 146 177 219 270 321
#     4  10  19  35  57  79 106 141 180 223 267 320
#     4  10  18  36  55  76 109 151 175 213 269 330
#
# _framework density 20.098195
#
# number of rings (size 3 to 8) (size 9 to 14) (size 15 to 20)
#    0.000    2.182    1.818    3.273    0.000    1.455 
#    6.545    2.727   12.000    0.000    0.000    0.000 
#    0.000    0.000    0.000    0.000    0.000    0.000 
#
# Total GULP energy -122514.071027 kJ/mol
# GULP energy per Si atom -5568.821410 kJ/mol
# Density = 2.005245 g / cm^3
# Si number density = 20.098195 Si / 1000 Ang^3
#
#
#
# Elastic Constant Matrix: (Units=GPa)
#
#
# Indices 1 2 3 4 5 6 
#
# 1 70.5377 56.3083 20.9029 0.0000 -25.5922 0.0000
# 2 56.3083 165.6889 52.4807 0.0000 -35.4378 0.0000
# 3 20.9029 52.4807 73.9379 0.0000 -33.6412 0.0000
# 4 0.0000 0.0000 0.0000 2.2854 0.0000 -33.7265
# 5 -25.5922 -35.4378 -33.6412 0.0000 26.4979 0.0000
# 6 0.0000 0.0000 0.0000 -33.7265 0.0000 89.6381
#
#
#
# Elastic Compliance Matrix: (Units=1/GPa)
#
#
# Indices 1 2 3 4 5 6 
#
# 1 0.027613 -0.005893 0.011660 0.000000 0.033592 0.000000
# 2 -0.005893 0.009841 -0.004547 0.000000 0.001697 0.000000
# 3 0.011660 -0.004547 0.037441 0.000000 0.052714 0.000000
# 4 0.000000 0.000000 0.000000 -0.096115 0.000000 -0.036163
# 5 0.033592 0.001697 0.052714 0.000000 0.139378 0.000000
# 6 0.000000 0.000000 0.000000 -0.036163 0.000000 -0.002451
#
#
# Mechanical properties :
#
#
# Convention : Reuss Voigt Hill
#
# Bulk Modulus (GPa) = 12.93053 63.28315 38.10684
# Shear Modulus (GPa) = 35.95940 35.71580 35.83760
#
# Velocity S-wave (km/s) = 4.23447 4.22010 4.22729
# Velocity P-wave (km/s) = 5.50956 7.43646 6.54432
#
# Compressibility (1/GPa) = 0.07733636
#
# Stress axis : x y z
#
# Youngs Moduli (GPa) = 36.21446 101.61258 26.70904
#
# Poissons Ratio (x) = 0.59877 -0.31144
# Poissons Ratio (y) = 0.21340 0.12145
# Poissons Ratio (z) = -0.42228 0.46204
#
# Static dielectric constant tensor:
#      x y z
#    x 1.702240 0.000000 -0.029970 
#    y 0.000000 1.828520 0.000000 
#    z -0.029970 0.000000 1.720250 
# 
# From -- ./inp_files/195496.got.cif
#   From: 2010.05.17/outbox.cif.g08.bks.cpg/sg12_98_cif.got.tgz:195496.got - 2010.06.03 13:09:07.
