data_PCOD9176597
_publ_section_title
;
Structure prediction by ZEFSAII (Michael W. Deem and Ramdas Pophale) SiO2 
 PCOD9176597
Probable space group: C 2/M
;
_chemical_formula_sum "Si O2"
_cell_formula_units_Z 56
_cell_length_a 23.094793
_cell_length_b 14.459803
_cell_length_c 25.861738
_cell_angle_alpha 90.000000
_cell_angle_beta 20.450912
_cell_angle_gamma 90.000000
_cell_volume 3017.609073
_symmetry_space_group_name_H-M "C 2/M"
_symmetry_group_IT_number 12
_symmetry_cell_setting 'monoclinic'
loop_
_space_group_symop_operation_xyz
x,y,z
-x,y,-z
-x,-y,-z
x,-y,z
1/2+x,1/2+y,z
1/2-x,1/2+y,-z
1/2-x,1/2-y,-z
1/2+x,1/2-y,z
loop_
_atom_site_type_symbol
_atom_site_label
_atom_site_fract_x
_atom_site_fract_y
_atom_site_fract_z
Si Si1 0.072826 0.892195 0.381495
Si Si2 0.318141 0.646282 0.937505
Si Si3 0.915549 0.598393 0.959034
Si Si4 0.692571 0.892960 0.151899
Si Si5 0.789012 0.603117 0.355387
Si Si6 0.578537 0.760438 0.672412
Si Si7 0.674137 0.248403 0.882914
O O1 0.200446 0.812685 0.257297
O O2 0.000000 0.879139 0.500000
O O3 0.906705 0.884692 0.485542
O O4 0.132732 0.000000 0.327842
O O5 0.189318 0.598300 0.006514
O O6 0.490428 0.664811 0.763477
O O7 0.250000 0.750000 0.000000
O O8 0.314340 0.608710 0.999144
O O9 0.885283 0.500000 0.011041
O O10 0.856756 0.682895 0.041796
O O11 0.110222 0.604598 0.782844
O O12 0.543344 0.825529 0.258894
O O13 0.762905 0.844197 0.144612
O O14 0.645919 0.000000 0.199093
O O15 0.820444 0.500000 0.351006
O O16 0.874939 0.682224 0.315802
O O17 0.750000 0.750000 0.500000
O O18 0.500000 0.261259 0.000000
#
# Coordination Sequence:
#
# PCOD9176597 Si02
#       7
#     8   8   8   8   8   8   8
#     4  10  22  39  57  84 120 157 197 241 302 370
#     4  10  18  35  58  85 119 156 198 238 291 353
#     4  11  20  35  59  88 118 150 193 247 299 355
#     4  11  22  41  63  86 120 162 204 251 297 351
#     4  10  19  32  53  80 112 150 187 228 290 355
#     4  11  20  34  57  85 122 154 192 240 298 353
#     4  12  24  39  60  86 115 153 204 255 299 354
#
# _framework density 18.557738000000001
#
# number of rings (size 3 to 8) (size 9 to 14) (size 15 to 20)
#    0.000    1.286    5.714    3.000    0.000    2.571 
#    0.000    2.143    0.000    0.429    0.000    0.000 
#    0.000    0.000    0.000    0.000    0.000    0.000 
#
# Total GULP energy -156052.516301 kJ/mol
# GULP energy per Si atom -5573.304154 kJ/mol
# Density = 1.851550 g / cm^3
# Si number density = 18.557738 Si / 1000 Ang^3
#
#
#
# Elastic Constant Matrix: (Units=GPa)
#
#
# Indices 1 2 3 4 5 6 
#
# 1 74.8370 27.6967 26.3017 0.0025 -7.2517 0.0002
# 2 27.6967 83.7448 30.8734 0.0005 -3.7503 0.0008
# 3 26.3017 30.8734 118.1522 -0.0072 0.8186 -0.0021
# 4 0.0025 0.0005 -0.0072 13.3448 -0.0002 -0.6768
# 5 -7.2517 -3.7503 0.8186 -0.0002 26.1201 0.0007
# 6 0.0002 0.0008 -0.0021 -0.6768 0.0007 7.5660
#
#
#
# Elastic Compliance Matrix: (Units=1/GPa)
#
#
# Indices 1 2 3 4 5 6 
#
# 1 0.016208 -0.004252 -0.002524 -0.000004 0.003968 -0.000001
# 2 -0.004252 0.014435 -0.002832 -0.000001 0.000981 -0.000002
# 3 -0.002524 -0.002832 0.009775 0.000006 -0.001414 0.000004
# 4 -0.000004 -0.000001 0.000006 0.075277 -0.000001 0.006734
# 5 0.003968 0.000981 -0.001414 -0.000001 0.039572 -0.000005
# 6 -0.000001 -0.000002 0.000004 0.006734 -0.000005 0.132772
#
#
# Mechanical properties :
#
#
# Convention : Reuss Voigt Hill
#
# Bulk Modulus (GPa) = 47.16698 49.60862 48.38780
# Shear Modulus (GPa) = 15.90715 22.19698 19.05207
#
# Velocity S-wave (km/s) = 2.93092 3.46223 3.20759
# Velocity P-wave (km/s) = 6.07662 6.54009 6.31261
#
# Compressibility (1/GPa) = 0.02120127
#
# Stress axis : x y z
#
# Youngs Moduli (GPa) = 61.69884 69.27437 102.29660
#
# Poissons Ratio (x) = 0.29455 0.25824
# Poissons Ratio (y) = 0.26234 0.28973
# Poissons Ratio (z) = 0.15575 0.19620
#
# Static dielectric constant tensor:
#      x y z
#    x 1.678710 0.000000 0.022220 
#    y 0.000000 1.663340 0.000010 
#    z 0.022220 0.000010 1.710380 
# 
# From -- ./inp_files/368060.got.cif
#   From: 2010.05.17/outbox.cif.g08.bks.cpg/sg12_185_cif.got.tgz:368060.got - 2010.06.03 13:09:07.
