data_PCOD9176616
_publ_section_title
;
Structure prediction by ZEFSAII (Michael W. Deem and Ramdas Pophale) SiO2 
 PCOD9176616
Probable space group: C 2/M
;
_chemical_formula_sum "Si O2"
_cell_formula_units_Z 48
_cell_length_a 25.726785
_cell_length_b 8.517077
_cell_length_c 12.922358
_cell_angle_alpha 90.000000
_cell_angle_beta 109.136263
_cell_angle_gamma 90.000000
_cell_volume 2675.043874
_symmetry_space_group_name_H-M "C 2/M"
_symmetry_group_IT_number 12
_symmetry_cell_setting 'monoclinic'
loop_
_space_group_symop_operation_xyz
x,y,z
-x,y,-z
-x,-y,-z
x,-y,z
1/2+x,1/2+y,z
1/2-x,1/2+y,-z
1/2-x,1/2-y,-z
1/2+x,1/2-y,z
loop_
_atom_site_type_symbol
_atom_site_label
_atom_site_fract_x
_atom_site_fract_y
_atom_site_fract_z
Si Si1 0.494580 0.189768 0.116733
Si Si2 0.112466 0.691202 0.267349
Si Si3 0.808721 0.311693 0.498162
Si Si4 0.687300 0.189676 0.120488
Si Si5 0.310004 0.310169 0.268339
Si Si6 0.621917 0.687711 0.882670
O O1 0.549605 0.242544 0.212189
O O2 0.438256 0.249566 0.128743
O O3 0.493087 0.000000 0.116389
O O4 0.500000 0.238566 0.000000
O O5 0.112166 0.500000 0.267621
O O6 0.144197 0.742834 0.390949
O O7 0.147788 0.738003 0.189653
O O8 0.807212 0.500000 0.499817
O O9 0.750000 0.250000 0.500000
O O10 0.818608 0.255319 0.388286
O O11 0.749519 0.237012 0.187519
O O12 0.685600 0.000000 0.113018
O O13 0.663838 0.257240 0.999178
O O14 0.310126 0.500000 0.274416
O O15 0.354960 0.259334 0.213423
O O16 0.620612 0.500000 0.881717
#
# Coordination Sequence:
#
# PCOD9176616 Si02
#       6
#     8   8   8   8   8   8
#     4  10  19  36  60  80 104 148 191 224 270 331
#     4   9  18  34  57  84 109 139 185 230 269 322
#     4  11  21  36  59  85 114 146 185 231 276 327
#     4  10  18  35  59  80 111 149 183 224 273 334
#     4  10  22  39  56  79 116 153 185 226 277 331
#     4  11  23  36  53  84 119 146 180 232 285 330
#
# _framework density 17.943631
#
# number of rings (size 3 to 8) (size 9 to 14) (size 15 to 20)
#    0.000    1.833    3.333    1.500    0.000    2.333 
#    0.000    2.500    0.000    5.000    0.000    0.000 
#    0.000    0.000    0.000    0.000    0.000    0.000 
#
# Total GULP energy -134015.414902 kJ/mol
# GULP energy per Si atom -5583.975621 kJ/mol
# Density = 1.790279 g / cm^3
# Si number density = 17.943631 Si / 1000 Ang^3
#
#
#
# Elastic Constant Matrix: (Units=GPa)
#
#
# Indices 1 2 3 4 5 6 
#
# 1 115.2754 29.8960 95.0274 0.0000 -10.5798 0.0000
# 2 29.8960 15.3305 29.7554 0.0000 -0.8432 0.0000
# 3 95.0274 29.7554 179.1170 0.0000 -5.1002 0.0000
# 4 0.0000 0.0000 0.0000 27.8054 0.0000 -0.8896
# 5 -10.5798 -0.8432 -5.1002 0.0000 35.4834 0.0000
# 6 0.0000 0.0000 0.0000 -0.8896 0.0000 22.4530
#
#
#
# Elastic Compliance Matrix: (Units=1/GPa)
#
#
# Indices 1 2 3 4 5 6 
#
# 1 0.022760 -0.030918 -0.006794 0.000000 0.005075 0.000000
# 2 -0.030918 0.138270 -0.006764 0.000000 -0.006905 0.000000
# 3 -0.006794 -0.006764 0.010291 0.000000 -0.000707 0.000000
# 4 0.000000 0.000000 0.000000 0.036010 0.000000 0.001427
# 5 0.005075 -0.006905 -0.000707 0.000000 0.029430 0.000000
# 6 0.000000 0.000000 0.000000 0.001427 0.000000 0.044594
#
#
# Mechanical properties :
#
#
# Convention : Reuss Voigt Hill
#
# Bulk Modulus (GPa) = 12.14034 68.78674 40.46354
# Shear Modulus (GPa) = 12.57033 27.48463 20.02748
#
# Velocity S-wave (km/s) = 2.64965 3.91797 3.34448
# Velocity P-wave (km/s) = 4.01764 7.67368 6.12482
#
# Compressibility (1/GPa) = 0.08237000
#
# Stress axis : x y z
#
# Youngs Moduli (GPa) = 43.93732 7.23221 97.17317
#
# Poissons Ratio (x) = 0.22360 0.66021
# Poissons Ratio (y) = 1.35844 0.65724
# Poissons Ratio (z) = 0.29852 0.04892
#
# Static dielectric constant tensor:
#      x y z
#    x 1.598830 0.000000 0.005550 
#    y 0.000000 1.619880 0.000000 
#    z 0.005550 0.000000 1.596800 
# 
# From -- ./inp_files/172092.got.cif
#   From: 2010.05.17/outbox.cif.g08.bks.cpg/sg12_87_cif.got.tgz:172092.got - 2010.06.03 13:09:07.
