data_PCOD9176318
_publ_section_title
;
Structure prediction by ZEFSAII (Michael W. Deem and Ramdas Pophale) SiO2 
 PCOD9176318
Probable space group: C 2/M
;
_chemical_formula_sum "Si O2"
_cell_formula_units_Z 32
_cell_length_a 27.774140
_cell_length_b 10.783408
_cell_length_c 7.847600
_cell_angle_alpha 90.000000
_cell_angle_beta 46.198479
_cell_angle_gamma 90.000000
_cell_volume 1696.349781
_symmetry_space_group_name_H-M "C 2/M"
_symmetry_group_IT_number 12
_symmetry_cell_setting 'monoclinic'
loop_
_space_group_symop_operation_xyz
x,y,z
-x,y,-z
-x,-y,-z
x,-y,z
1/2+x,1/2+y,z
1/2-x,1/2+y,-z
1/2-x,1/2-y,-z
1/2+x,1/2-y,z
loop_
_atom_site_type_symbol
_atom_site_label
_atom_site_fract_x
_atom_site_fract_y
_atom_site_fract_z
Si Si1 0.219219 0.500000 0.934305
Si Si2 0.688069 0.238822 0.786075
Si Si3 0.578120 0.241583 0.772952
Si Si4 0.213881 0.000000 0.735686
Si Si5 0.145187 0.500000 0.474190
Si Si6 0.141644 0.000000 0.540172
O O1 0.198559 0.622995 0.881582
O O2 0.299454 0.500000 0.741254
O O3 0.183630 0.500000 0.202154
O O4 0.750000 0.250000 0.500000
O O5 0.620593 0.230438 0.843506
O O6 0.691123 0.371120 0.873845
O O7 0.599447 0.373700 0.640370
O O8 0.602181 0.123814 0.604326
O O9 0.500000 0.237885 0.000000
O O10 0.294332 0.000000 0.535829
O O11 0.180601 0.000000 0.628650
#
# Coordination Sequence:
#
# PCOD9176318 Si02
#       6
#     4   8   8   4   4   4
#     4  12  22  35  61  91 114 147 191 254 285 334
#     4  11  18  38  62  81 112 151 203 230 279 344
#     4  11  22  38  60  86 118 156 194 235 280 350
#     4  10  18  34  59  83 109 147 194 240 269 335
#     4  12  23  35  55  91 125 146 189 241 298 328
#     4  10  19  38  62  87 110 147 206 235 285 332
#
# _framework density 18.864034
#
# number of rings (size 3 to 8) (size 9 to 14) (size 15 to 20)
#    0.000    1.000    7.500    1.500    0.000    4.000 
#    0.000    2.500    0.000    0.000    0.000   10.500 
#    0.000    0.000    0.000    0.000    0.000    0.000 
#
# Total GULP energy -89350.112838 kJ/mol
# GULP energy per Si atom -5584.382052 kJ/mol
# Density = 1.882110 g / cm^3
# Si number density = 18.864034 Si / 1000 Ang^3
#
#
#
# Elastic Constant Matrix: (Units=GPa)
#
#
# Indices 1 2 3 4 5 6 
#
# 1 59.1783 39.4650 64.1837 0.0000 -23.4580 0.0000
# 2 39.4650 216.7528 93.2201 0.0000 0.5364 0.0000
# 3 64.1837 93.2201 156.1202 0.0000 -25.8593 0.0000
# 4 0.0000 0.0000 0.0000 24.3809 0.0000 -4.2082
# 5 -23.4580 0.5364 -25.8593 0.0000 33.2819 0.0000
# 6 0.0000 0.0000 0.0000 -4.2082 0.0000 9.6343
#
#
#
# Elastic Compliance Matrix: (Units=1/GPa)
#
#
# Indices 1 2 3 4 5 6 
#
# 1 0.037488 -0.002020 -0.011275 0.000000 0.017695 0.000000
# 2 -0.002020 0.006675 -0.003913 0.000000 -0.004572 0.000000
# 3 -0.011275 -0.003913 0.013854 0.000000 0.002881 0.000000
# 4 0.000000 0.000000 0.000000 0.044360 0.000000 0.019376
# 5 0.017695 -0.004572 0.002881 0.000000 0.044830 0.000000
# 6 0.000000 0.000000 0.000000 0.019376 0.000000 0.112260
#
#
# Mechanical properties :
#
#
# Convention : Reuss Voigt Hill
#
# Bulk Modulus (GPa) = 42.36920 91.75432 67.06176
# Shear Modulus (GPa) = 16.57005 29.13824 22.85415
#
# Velocity S-wave (km/s) = 2.96699 3.93446 3.48447
# Velocity P-wave (km/s) = 5.85204 8.32979 7.19833
#
# Compressibility (1/GPa) = 0.02360205
#
# Stress axis : x y z
#
# Youngs Moduli (GPa) = 26.67530 149.80363 72.18246
#
# Poissons Ratio (x) = 0.30267 0.81383
# Poissons Ratio (y) = 0.05390 0.28241
# Poissons Ratio (z) = 0.30075 0.58611
#
# Static dielectric constant tensor:
#      x y z
#    x 1.651430 0.000000 0.011430 
#    y 0.000000 1.726060 0.000000 
#    z 0.011430 0.000000 1.622410 
# 
# From -- ./inp_files/101799.got.cif
#   From: 2010.05.17/outbox.cif.g08.bks.cpg/sg12_51_cif.got.tgz:101799.got - 2010.06.03 13:09:07.
