data_PCOD9176800
_publ_section_title
;
Structure prediction by ZEFSAII (Michael W. Deem and Ramdas Pophale) SiO2 
 PCOD9176800
Probable space group: C 2/M
;
_chemical_formula_sum "Si O2"
_cell_formula_units_Z 64
_cell_length_a 16.547718
_cell_length_b 22.044702
_cell_length_c 11.470508
_cell_angle_alpha 90.000000
_cell_angle_beta 51.926093
_cell_angle_gamma 90.000000
_cell_volume 3293.964219
_symmetry_space_group_name_H-M "C 2/M"
_symmetry_group_IT_number 12
_symmetry_cell_setting 'monoclinic'
loop_
_space_group_symop_operation_xyz
x,y,z
-x,y,-z
-x,-y,-z
x,-y,z
1/2+x,1/2+y,z
1/2-x,1/2+y,-z
1/2-x,1/2-y,-z
1/2+x,1/2-y,z
loop_
_atom_site_type_symbol
_atom_site_label
_atom_site_fract_x
_atom_site_fract_y
_atom_site_fract_z
Si Si1 0.061941 0.928128 0.564218
Si Si2 0.683537 0.320735 0.680019
Si Si3 0.602182 0.070965 0.987196
Si Si4 0.255979 0.857535 0.305027
Si Si5 0.712546 0.256824 0.868137
Si Si6 0.886985 0.320180 0.845885
Si Si7 0.551321 0.428381 0.829942
Si Si8 0.114978 0.292017 0.609991
O O1 0.163398 0.887482 0.457963
O O2 0.004108 0.916599 0.740612
O O3 0.000000 0.916944 0.500000
O O4 0.088081 0.000000 0.542398
O O5 0.645181 0.287997 0.830116
O O6 0.653985 0.389743 0.721791
O O7 0.804937 0.310095 0.560940
O O8 0.634118 0.278773 0.623025
O O9 0.606947 0.115007 0.094929
O O10 0.606502 0.000000 0.013218
O O11 0.500000 0.081778 0.000000
O O12 0.694774 0.091508 0.821139
O O13 0.230110 0.800605 0.243587
O O14 0.340971 0.830828 0.319052
O O15 0.791641 0.306494 0.846466
O O16 0.638460 0.228851 0.030651
O O17 0.997303 0.306058 0.693299
O O18 0.567831 0.500000 0.823148
O O19 0.500000 0.410976 0.000000
#
# Coordination Sequence:
#
# PCOD9176800 Si02
#       8
#     8   8   8   8   8   8   8   8
#     4  10  21  38  60  87 122 159 202 259 316 367
#     4  10  21  37  55  86 112 152 206 246 302 372
#     4  10  19  32  57  87 114 149 194 246 300 364
#     4  10  18  36  55  86 114 149 196 250 302 374
#     4   9  22  36  56  83 118 153 199 244 313 370
#     4  10  20  39  55  83 120 154 193 251 311 373
#     4  10  22  40  61  87 121 166 215 255 305 379
#     4  10  20  34  60  84 111 148 197 254 304 361
#
# _framework density 19.429476000000001
#
# number of rings (size 3 to 8) (size 9 to 14) (size 15 to 20)
#    0.000    2.125    2.500    0.375    1.750    1.500 
#    4.500    1.250    0.000    0.000    0.000    1.750 
#    0.000    0.000    0.000    0.000    0.000    0.000 
#
# Total GULP energy -178149.949782 kJ/mol
# GULP energy per Si atom -5567.185931 kJ/mol
# Density = 1.938525 g / cm^3
# Si number density = 19.429476 Si / 1000 Ang^3
#
#
#
# Elastic Constant Matrix: (Units=GPa)
#
#
# Indices 1 2 3 4 5 6 
#
# 1 28.0888 32.2757 13.5033 0.0000 3.2371 0.0000
# 2 32.2757 77.7630 33.8732 0.0000 -7.4591 0.0000
# 3 13.5033 33.8732 96.7247 0.0000 6.0982 0.0000
# 4 0.0000 0.0000 0.0000 21.0245 0.0000 0.7429
# 5 3.2371 -7.4591 6.0982 0.0000 26.6489 0.0000
# 6 0.0000 0.0000 0.0000 0.7429 0.0000 23.1953
#
#
#
# Elastic Compliance Matrix: (Units=1/GPa)
#
#
# Indices 1 2 3 4 5 6 
#
# 1 0.076666 -0.034918 0.002769 0.000000 -0.019720 0.000000
# 2 -0.034918 0.031930 -0.007243 0.000000 0.014836 0.000000
# 3 0.002769 -0.007243 0.012823 0.000000 -0.005298 0.000000
# 4 0.000000 0.000000 0.000000 0.047617 0.000000 -0.001525
# 5 -0.019720 0.014836 -0.005298 0.000000 0.045286 0.000000
# 6 0.000000 0.000000 0.000000 -0.001525 0.000000 0.043161
#
#
# Mechanical properties :
#
#
# Convention : Reuss Voigt Hill
#
# Bulk Modulus (GPa) = 23.45506 40.20901 31.83204
# Shear Modulus (GPa) = 14.26620 22.36868 18.31744
#
# Velocity S-wave (km/s) = 2.71265 3.39673 3.07378
# Velocity P-wave (km/s) = 4.68075 6.01028 5.38669
#
# Compressibility (1/GPa) = 0.04263473
#
# Stress axis : x y z
#
# Youngs Moduli (GPa) = 13.04360 31.31810 77.98763
#
# Poissons Ratio (x) = 1.09356 -0.21592
# Poissons Ratio (y) = 0.45546 0.56485
# Poissons Ratio (z) = -0.03611 0.22683
#
# Static dielectric constant tensor:
#      x y z
#    x 1.713220 0.000000 0.052170 
#    y 0.000000 1.676880 0.000000 
#    z 0.052170 0.000000 1.733920 
# 
# From -- ./inp_files/159544.got.cif
#   From: 2010.05.17/outbox.cif.g08.bks.cpg/sg12_80_cif.got.tgz:159544.got - 2010.06.03 13:09:07.
