data_PCOD9176979
_publ_section_title
;
Structure prediction by ZEFSAII (Michael W. Deem and Ramdas Pophale) SiO2 
 PCOD9176979
Probable space group: C 2/M
;
_chemical_formula_sum "Si O2"
_cell_formula_units_Z 52
_cell_length_a 22.027846
_cell_length_b 24.057981
_cell_length_c 6.628238
_cell_angle_alpha 90.000000
_cell_angle_beta 44.813383
_cell_angle_gamma 90.000000
_cell_volume 2475.683692
_symmetry_space_group_name_H-M "C 2/M"
_symmetry_group_IT_number 12
_symmetry_cell_setting 'monoclinic'
loop_
_space_group_symop_operation_xyz
x,y,z
-x,y,-z
-x,-y,-z
x,-y,z
1/2+x,1/2+y,z
1/2-x,1/2+y,-z
1/2-x,1/2-y,-z
1/2+x,1/2-y,z
loop_
_atom_site_type_symbol
_atom_site_label
_atom_site_fract_x
_atom_site_fract_y
_atom_site_fract_z
Si Si1 0.269605 0.892766 0.132117
Si Si2 0.543776 0.341786 0.201589
Si Si3 0.837089 0.561428 0.581543
Si Si4 0.500000 0.258033 0.000000
Si Si5 0.645452 0.166992 0.695038
Si Si6 0.213357 0.199308 0.959848
Si Si7 0.841035 0.062033 0.252556
O O1 0.325368 0.856045 0.157091
O O2 0.220778 0.852368 0.094154
O O3 0.202996 0.926417 0.427374
O O4 0.327091 0.929224 0.844409
O O5 0.500000 0.367865 0.500000
O O6 0.616849 0.299562 0.109854
O O7 0.481192 0.301728 0.223479
O O8 0.592129 0.389501 0.960799
O O9 0.871897 0.500000 0.455356
O O10 0.885079 0.613160 0.363533
O O11 0.740613 0.563565 0.709539
O O12 0.578123 0.216630 0.859882
O O13 0.727215 0.189189 0.375700
O O14 0.250000 0.250000 0.000000
O O15 0.878423 0.000000 0.156586
#
# Coordination Sequence:
#
# PCOD9176979 Si02
#       7
#     8   8   8   4   8   8   8
#     4  10  18  36  65  93 120 156 207 250 308 360
#     4  12  26  41  59  90 125 166 205 251 309 360
#     4   9  18  37  66  95 123 153 201 259 306 363
#     4  12  28  42  62  86 130 168 202 256 306 362
#     4  10  22  40  61  93 122 161 206 253 305 367
#     4  11  22  38  63  88 120 161 208 257 304 361
#     4  10  21  39  63  92 122 160 209 253 301 366
#
# _framework density 21.004297000000001
#
# number of rings (size 3 to 8) (size 9 to 14) (size 15 to 20)
#    0.000    1.538    4.615    2.308    4.308    3.385 
#    0.000    0.769    0.000    0.923    0.000    0.000 
#    0.000    0.000    0.000    0.000    0.000    0.000 
#
# Total GULP energy -145145.132435 kJ/mol
# GULP energy per Si atom -5582.505094 kJ/mol
# Density = 2.095649 g / cm^3
# Si number density = 21.004297 Si / 1000 Ang^3
#
#
#
# Elastic Constant Matrix: (Units=GPa)
#
#
# Indices 1 2 3 4 5 6 
#
# 1 34.0141 21.7685 20.5095 0.0000 15.2542 0.0000
# 2 21.7685 119.1041 16.3511 0.0000 10.1237 0.0000
# 3 20.5095 16.3511 71.6616 0.0000 24.3283 0.0000
# 4 0.0000 0.0000 0.0000 18.1193 0.0000 5.3795
# 5 15.2542 10.1237 24.3283 0.0000 27.3127 0.0000
# 6 0.0000 0.0000 0.0000 5.3795 0.0000 11.6343
#
#
#
# Elastic Compliance Matrix: (Units=1/GPa)
#
#
# Indices 1 2 3 4 5 6 
#
# 1 0.044363 -0.005862 -0.005283 0.000000 -0.017899 0.000000
# 2 -0.005862 0.009525 -0.000586 0.000000 0.000265 0.000000
# 3 -0.005283 -0.000586 0.020821 0.000000 -0.015378 0.000000
# 4 0.000000 0.000000 0.000000 0.063971 0.000000 -0.029579
# 5 -0.017899 0.000265 -0.015378 0.000000 0.060209 0.000000
# 6 0.000000 0.000000 0.000000 -0.029579 0.000000 0.099629
#
#
# Mechanical properties :
#
#
# Convention : Reuss Voigt Hill
#
# Bulk Modulus (GPa) = 19.51262 38.00422 28.75842
# Shear Modulus (GPa) = 14.74655 22.48999 18.61827
#
# Velocity S-wave (km/s) = 2.65254 3.27576 2.98048
# Velocity P-wave (km/s) = 4.32334 5.69563 5.05626
#
# Compressibility (1/GPa) = 0.05124890
#
# Stress axis : x y z
#
# Youngs Moduli (GPa) = 22.54118 104.98439 48.02898
#
# Poissons Ratio (x) = 0.61537 0.25373
# Poissons Ratio (y) = 0.13213 0.02813
# Poissons Ratio (z) = 0.11908 0.06149
#
# Static dielectric constant tensor:
#      x y z
#    x 1.774040 0.000000 0.009760 
#    y 0.000000 1.788660 0.000000 
#    z 0.009760 0.000000 1.745800 
# 
# From -- ./inp_files/22422.got.cif
#   From: 2010.05.17/outbox.cif.g08.bks.cpg/sg12_12_cif.got.tgz:22422.got - 2010.06.03 13:09:07.
