data_PCOD9176640
_publ_section_title
;
Structure prediction by ZEFSAII (Michael W. Deem and Ramdas Pophale) SiO2 
 PCOD9176640
Probable space group: C 2/M
;
_chemical_formula_sum "Si O2"
_cell_formula_units_Z 52
_cell_length_a 9.342268
_cell_length_b 29.612413
_cell_length_c 16.474691
_cell_angle_alpha 90.000000
_cell_angle_beta 35.339203
_cell_angle_gamma 90.000000
_cell_volume 2636.231990
_symmetry_space_group_name_H-M "C 2/M"
_symmetry_group_IT_number 12
_symmetry_cell_setting 'monoclinic'
loop_
_space_group_symop_operation_xyz
x,y,z
-x,y,-z
-x,-y,-z
x,-y,z
1/2+x,1/2+y,z
1/2-x,1/2+y,-z
1/2-x,1/2-y,-z
1/2+x,1/2-y,z
loop_
_atom_site_type_symbol
_atom_site_label
_atom_site_fract_x
_atom_site_fract_y
_atom_site_fract_z
Si Si1 0.000000 0.358137 0.500000
Si Si2 0.248177 0.000000 0.011993
Si Si3 0.354570 0.398481 0.936649
Si Si4 0.197283 0.668256 0.242205
Si Si5 0.816354 0.000000 0.762896
Si Si6 0.001319 0.903222 0.317764
Si Si7 0.384919 0.151361 0.234450
Si Si8 0.525503 0.238233 0.900430
O O1 0.106805 0.329448 0.376492
O O2 0.220875 0.388652 0.432789
O O3 0.539173 0.000000 0.855599
O O4 0.139110 0.048941 0.038560
O O5 0.222206 0.000000 0.121845
O O6 0.587949 0.369651 0.859822
O O7 0.367478 0.397146 0.831916
O O8 0.107552 0.374444 0.083614
O O9 0.316729 0.716170 0.163330
O O10 0.977730 0.654157 0.283658
O O11 0.962762 0.045023 0.674627
O O12 0.137146 0.873744 0.322834
O O13 0.364011 0.202385 0.212080
O O14 0.500000 0.215629 0.000000
O O15 0.250000 0.250000 0.000000
#
# Coordination Sequence:
#
# PCOD9176640 Si02
#       8
#     4   4   8   8   4   8   8   8
#     4  10  26  45  60  80 118 166 212 241 288 346
#     4   9  16  28  56  94 129 151 189 239 309 369
#     4  10  18  35  59  94 126 155 189 246 307 358
#     4  11  24  42  58  87 125 160 202 248 289 359
#     4   9  16  31  57  92 121 152 199 245 294 355
#     4  10  21  37  62  87 121 163 200 244 293 359
#     4  12  22  36  64  92 122 154 195 250 309 351
#     4  12  22  38  64  97 125 153 191 243 305 363
#
# _framework density 19.725124000000001
#
# number of rings (size 3 to 8) (size 9 to 14) (size 15 to 20)
#    0.000    1.385    4.615    1.846    2.154    0.923 
#    0.000    6.154    0.000    0.923    0.000    0.000 
#    0.000    0.000    0.000    0.000    0.000    0.000 
#
# Total GULP energy -145205.948454 kJ/mol
# GULP energy per Si atom -5584.844171 kJ/mol
# Density = 1.968023 g / cm^3
# Si number density = 19.725124 Si / 1000 Ang^3
#
#
#
# Elastic Constant Matrix: (Units=GPa)
#
#
# Indices 1 2 3 4 5 6 
#
# 1 128.0761 41.2914 15.4961 0.0000 -14.5271 0.0000
# 2 41.2914 114.9883 8.1897 0.0000 -3.1278 0.0000
# 3 15.4961 8.1897 46.4893 0.0000 -6.8229 0.0000
# 4 0.0000 0.0000 0.0000 -4.3612 0.0000 5.3785
# 5 -14.5271 -3.1278 -6.8229 0.0000 22.9233 0.0000
# 6 0.0000 0.0000 0.0000 5.3785 0.0000 19.5273
#
#
#
# Elastic Compliance Matrix: (Units=1/GPa)
#
#
# Indices 1 2 3 4 5 6 
#
# 1 0.009646 -0.003189 -0.001903 0.000000 0.005111 0.000000
# 2 -0.003189 0.009875 -0.000811 0.000000 -0.000915 0.000000
# 3 -0.001903 -0.000811 0.023104 0.000000 0.005560 0.000000
# 4 0.000000 0.000000 0.000000 -0.171155 0.000000 0.047142
# 5 0.005111 -0.000915 0.005560 0.000000 0.048393 0.000000
# 6 0.000000 0.000000 0.000000 0.047142 0.000000 0.038226
#
#
# Mechanical properties :
#
#
# Convention : Reuss Voigt Hill
#
# Bulk Modulus (GPa) = 32.44902 46.61200 39.53051
# Shear Modulus (GPa) = -252.10736 22.58964 -114.75886
#
# Velocity S-wave (km/s) = -11.31759 3.38778 -7.63579
# Velocity P-wave (km/s) = 12.42165 6.24378 7.59317
#
# Compressibility (1/GPa) = 0.03081757
#
# Stress axis : x y z
#
# Youngs Moduli (GPa) = 103.66874 101.26964 43.28340
#
# Poissons Ratio (x) = 0.32297 0.08238
# Poissons Ratio (y) = 0.33063 0.03509
# Poissons Ratio (z) = 0.19731 0.08211
#
# Static dielectric constant tensor:
#      x y z
#    x 1.607610 0.000000 0.003400 
#    y 0.000000 1.683400 0.000000 
#    z 0.003400 0.000000 1.692430 
# 
# From -- ./inp_files/123794.got.cif
#   From: 2010.05.17/outbox.cif.g08.bks.cpg/sg12_62_cif.got.tgz:123794.got - 2010.06.03 13:09:07.
