data_PCOD9176415
_publ_section_title
;
Structure prediction by ZEFSAII (Michael W. Deem and Ramdas Pophale) SiO2 
 PCOD9176415
Probable space group: C 2/M
;
_chemical_formula_sum "Si O2"
_cell_formula_units_Z 58
_cell_length_a 8.874516
_cell_length_b 25.532841
_cell_length_c 13.804073
_cell_angle_alpha 90.000000
_cell_angle_beta 91.499112
_cell_angle_gamma 90.000000
_cell_volume 3126.816490
_symmetry_space_group_name_H-M "C 2/M"
_symmetry_group_IT_number 12
_symmetry_cell_setting 'monoclinic'
loop_
_space_group_symop_operation_xyz
x,y,z
-x,y,-z
-x,-y,-z
x,-y,z
1/2+x,1/2+y,z
1/2-x,1/2+y,-z
1/2-x,1/2-y,-z
1/2+x,1/2-y,z
loop_
_atom_site_type_symbol
_atom_site_label
_atom_site_fract_x
_atom_site_fract_y
_atom_site_fract_z
Si Si1 0.000000 0.500000 0.500000
Si Si2 0.412611 0.263578 0.741911
Si Si3 0.273503 0.135511 0.255688
Si Si4 0.761541 0.082939 0.436669
Si Si5 0.958149 0.666583 0.611827
Si Si6 0.920819 0.060656 0.635870
Si Si7 0.819752 0.785168 0.122191
Si Si8 0.843604 0.668727 0.042562
O O1 0.882201 0.545614 0.542791
O O2 0.297645 0.309012 0.712372
O O3 0.455076 0.224376 0.657474
O O4 0.332127 0.226952 0.820928
O O5 0.550348 0.292584 0.797127
O O6 0.425718 0.132556 0.321190
O O7 0.155601 0.089919 0.276310
O O8 0.305279 0.140700 0.142147
O O9 0.700702 0.136581 0.390486
O O10 0.844136 0.088605 0.541805
O O11 0.898776 0.062525 0.371987
O O12 0.000000 0.668611 0.500000
O O13 0.873676 0.000000 0.630153
O O14 0.860355 0.730313 0.070641
O O15 0.786132 0.828930 0.041634
O O16 0.000000 0.649810 0.000000
#
# Coordination Sequence:
#
# PCOD9176415 Si02
#       8
#     2   8   8   8   8   8   8   8
#     4  12  16  38  60  92 100 158 210 270 282 352
#     4  11  22  39  55  86 127 165 205 244 303 371
#     4  11  24  39  58  91 124 165 210 251 313 367
#     4  11  22  36  66  85 117 158 214 252 307 346
#     4  12  23  39  54  85 129 172 205 243 298 375
#     4  11  22  43  61  91 119 156 210 273 307 353
#     4  10  19  34  57  83 114 158 204 255 299 353
#     4  10  18  34  61  86 117 152 205 261 305 354
#
# _framework density 18.549216999999999
#
# number of rings (size 3 to 8) (size 9 to 14) (size 15 to 20)
#    0.000    1.103    7.586    0.414    1.931    0.552 
#    2.483    0.000    0.000    0.414    0.000    1.931 
#    0.000    0.000    0.000    0.000    0.000    0.000 
#
# Total GULP energy -161450.049687 kJ/mol
# GULP energy per Si atom -5567.243093 kJ/mol
# Density = 1.850700 g / cm^3
# Si number density = 18.549217 Si / 1000 Ang^3
#
#
#
# Elastic Constant Matrix: (Units=GPa)
#
#
# Indices 1 2 3 4 5 6 
#
# 1 100.6752 32.1632 51.5028 0.0000 -0.6791 0.0000
# 2 32.1632 39.6438 31.4370 0.0000 4.8144 0.0000
# 3 51.5028 31.4370 99.2686 0.0000 -2.7805 0.0000
# 4 0.0000 0.0000 0.0000 3.4798 0.0000 -0.0236
# 5 -0.6791 4.8144 -2.7805 0.0000 29.4010 0.0000
# 6 0.0000 0.0000 0.0000 -0.0236 0.0000 23.5753
#
#
#
# Elastic Compliance Matrix: (Units=1/GPa)
#
#
# Indices 1 2 3 4 5 6 
#
# 1 0.015313 -0.008414 -0.005245 0.000000 0.001235 0.000000
# 2 -0.008414 0.039610 -0.008388 0.000000 -0.007474 0.000000
# 3 -0.005245 -0.008388 0.015528 0.000000 0.002721 0.000000
# 4 0.000000 0.000000 0.000000 0.287378 0.000000 0.000287
# 5 0.001235 -0.007474 0.002721 0.000000 0.035522 0.000000
# 6 0.000000 0.000000 0.000000 0.000287 0.000000 0.042417
#
#
# Mechanical properties :
#
#
# Convention : Reuss Voigt Hill
#
# Bulk Modulus (GPa) = 37.94208 52.19927 45.07068
# Shear Modulus (GPa) = 10.23232 19.59019 14.91125
#
# Velocity S-wave (km/s) = 2.35123 3.25332 2.83835
# Velocity P-wave (km/s) = 5.27923 6.50494 5.92387
#
# Compressibility (1/GPa) = 0.02635596
#
# Stress axis : x y z
#
# Youngs Moduli (GPa) = 65.30537 25.24621 64.40094
#
# Poissons Ratio (x) = 0.21241 0.33781
# Poissons Ratio (y) = 0.54946 0.54020
# Poissons Ratio (z) = 0.34256 0.21177
#
# Static dielectric constant tensor:
#      x y z
#    x 1.734550 0.000000 0.015650 
#    y 0.000000 1.600400 0.000000 
#    z 0.015650 0.000000 1.676490 
# 
# From -- ./inp_files/124321.got.cif
#   From: 2010.05.17/outbox.cif.g08.bks.cpg/sg12_63_cif.got.tgz:124321.got - 2010.06.03 13:09:07.
