data_PCOD9176634
_publ_section_title
;
Structure prediction by ZEFSAII (Michael W. Deem and Ramdas Pophale) SiO2 
 PCOD9176634
Probable space group: C 2/M
;
_chemical_formula_sum "Si O2"
_cell_formula_units_Z 40
_cell_length_a 7.365340
_cell_length_b 25.238151
_cell_length_c 8.889154
_cell_angle_alpha 90.000000
_cell_angle_beta 92.657808
_cell_angle_gamma 90.000000
_cell_volume 1650.605695
_symmetry_space_group_name_H-M "C 2/M"
_symmetry_group_IT_number 12
_symmetry_cell_setting 'monoclinic'
loop_
_space_group_symop_operation_xyz
x,y,z
-x,y,-z
-x,-y,-z
x,-y,z
1/2+x,1/2+y,z
1/2-x,1/2+y,-z
1/2-x,1/2-y,-z
1/2+x,1/2-y,z
loop_
_atom_site_type_symbol
_atom_site_label
_atom_site_fract_x
_atom_site_fract_y
_atom_site_fract_z
Si Si1 0.148933 0.789616 0.613904
Si Si2 0.784797 0.500000 0.648545
Si Si3 0.729803 0.000000 0.696392
Si Si4 0.794478 0.608725 0.796443
Si Si5 0.357497 0.786322 0.118871
Si Si6 0.229924 0.605715 0.859567
O O1 0.250000 0.750000 0.500000
O O2 0.253446 0.837525 0.702356
O O3 0.074784 0.750557 0.743175
O O4 0.000000 0.815436 0.500000
O O5 0.723879 0.500000 0.475167
O O6 0.724393 0.555505 0.715879
O O7 0.006475 0.500000 0.680045
O O8 0.797367 0.053202 0.781086
O O9 0.012228 0.602623 0.820884
O O10 0.720310 0.607095 0.963078
O O11 0.236933 0.833411 0.185610
O O12 0.500000 0.808815 0.000000
O O13 0.250000 0.750000 0.000000
#
# Coordination Sequence:
#
# PCOD9176634 Si02
#       6
#     8   4   4   8   8   8
#     4  12  26  42  63  94 131 169 210 260 320 375
#     4   9  19  33  54  86 127 152 204 255 322 368
#     4   9  19  31  55  90 119 160 198 265 310 365
#     4  10  19  37  57  87 118 163 202 256 309 369
#     4  12  22  41  62  91 123 164 207 254 307 372
#     4  10  18  35  59  87 119 157 210 252 306 363
#
# _framework density 24.233529999999998
#
# number of rings (size 3 to 8) (size 9 to 14) (size 15 to 20)
#    0.000    1.400    4.000    3.000    2.800    2.400 
#    0.000    0.500    0.000    0.000    0.000    2.800 
#    0.000    0.000    0.000    0.000    0.000    0.000 
#
# Total GULP energy -111617.225774 kJ/mol
# GULP energy per Si atom -5580.861289 kJ/mol
# Density = 2.417837 g / cm^3
# Si number density = 24.233530 Si / 1000 Ang^3
#
#
#
# Elastic Constant Matrix: (Units=GPa)
#
#
# Indices 1 2 3 4 5 6 
#
# 1 44.5141 23.8126 32.8379 0.0000 -3.8130 0.0000
# 2 23.8126 231.7037 105.2914 0.0000 -0.3078 0.0000
# 3 32.8379 105.2914 187.8121 0.0000 14.5986 0.0000
# 4 0.0000 0.0000 0.0000 61.4025 0.0000 11.7838
# 5 -3.8130 -0.3078 14.5986 0.0000 17.3163 0.0000
# 6 0.0000 0.0000 0.0000 11.7838 0.0000 8.0877
#
#
#
# Elastic Compliance Matrix: (Units=1/GPa)
#
#
# Indices 1 2 3 4 5 6 
#
# 1 0.027591 -0.000338 -0.005464 0.000000 0.010676 0.000000
# 2 -0.000338 0.005949 -0.003508 0.000000 0.002989 0.000000
# 3 -0.005464 -0.003508 0.008930 0.000000 -0.008794 0.000000
# 4 0.000000 0.000000 0.000000 0.022607 0.000000 -0.032939
# 5 0.010676 0.002989 -0.008794 0.000000 0.067567 0.000000
# 6 0.000000 0.000000 0.000000 -0.032939 0.000000 0.171636
#
#
# Mechanical properties :
#
#
# Convention : Reuss Voigt Hill
#
# Bulk Modulus (GPa) = 41.93120 87.54596 64.73858
# Shear Modulus (GPa) = 15.11251 37.50051 26.30651
#
# Velocity S-wave (km/s) = 2.49995 3.93805 3.29833
# Velocity P-wave (km/s) = 5.06690 7.54202 6.42478
#
# Compressibility (1/GPa) = 0.02384859
#
# Stress axis : x y z
#
# Youngs Moduli (GPa) = 36.24326 168.10123 111.97903
#
# Poissons Ratio (x) = 0.05686 0.61190
# Poissons Ratio (y) = 0.01226 0.39284
# Poissons Ratio (z) = 0.19805 0.58973
#
# Static dielectric constant tensor:
#      x y z
#    x 2.213880 0.000000 0.001390 
#    y 0.000000 2.064670 0.000000 
#    z 0.001390 0.000000 1.853110 
# 
# From -- ./inp_files/50065.got.cif
#   From: 2010.05.17/outbox.cif.g08.bks.cpg/sg12_26_cif.got.tgz:50065.got - 2010.06.03 13:09:07.
