data_PCOD9176184
_publ_section_title
;
Structure prediction by ZEFSAII (Michael W. Deem and Ramdas Pophale) SiO2 
 PCOD9176184
Probable space group: C 2/M
;
_chemical_formula_sum "Si O2"
_cell_formula_units_Z 56
_cell_length_a 21.149050
_cell_length_b 7.632901
_cell_length_c 31.104944
_cell_angle_alpha 90.000000
_cell_angle_beta 146.225323
_cell_angle_gamma 90.000000
_cell_volume 2791.442543
_symmetry_space_group_name_H-M "C 2/M"
_symmetry_group_IT_number 12
_symmetry_cell_setting 'monoclinic'
loop_
_space_group_symop_operation_xyz
x,y,z
-x,y,-z
-x,-y,-z
x,-y,z
1/2+x,1/2+y,z
1/2-x,1/2+y,-z
1/2-x,1/2-y,-z
1/2+x,1/2-y,z
loop_
_atom_site_type_symbol
_atom_site_label
_atom_site_fract_x
_atom_site_fract_y
_atom_site_fract_z
Si Si1 0.172025 0.212002 0.738396
Si Si2 0.925977 0.704826 0.997379
Si Si3 0.675819 0.713636 0.840749
Si Si4 0.913873 0.204868 0.834799
Si Si5 0.943870 0.214963 0.754878
Si Si6 0.424232 0.289626 0.579670
Si Si7 0.205707 0.790424 0.408188
O O1 0.168881 0.264456 0.786745
O O2 0.286344 0.274422 0.780410
O O3 0.053930 0.271844 0.650132
O O4 0.175820 0.000000 0.739747
O O5 0.910208 0.500000 0.977596
O O6 0.797822 0.775262 0.927390
O O7 0.000000 0.782947 0.000000
O O8 0.998370 0.715884 0.081509
O O9 0.671230 0.500000 0.839273
O O10 0.566003 0.771321 0.805277
O O11 0.924325 0.275498 0.792393
O O12 0.941729 0.000000 0.849127
O O13 0.848012 0.273086 0.666621
O O14 0.941626 0.000000 0.754194
O O15 0.428715 0.500000 0.585508
O O16 0.337081 0.247182 0.492364
O O17 0.366301 0.223073 0.591313
O O18 0.192328 0.000000 0.400802
#
# Coordination Sequence:
#
# PCOD9176184 Si02
#       7
#     8   8   8   8   8   8   8
#     4  10  18  34  57  78 100 136 182 216 249 303
#     4  10  19  34  57  80 100 132 179 218 252 304
#     4   9  16  31  57  78  96 132 182 217 240 299
#     4  11  23  35  51  77 111 139 166 213 268 312
#     4   9  18  34  53  76 105 142 176 205 254 316
#     4   9  17  29  52  82 104 127 170 222 260 293
#     4   9  16  30  53  77 104 135 169 210 256 308
#
# _framework density 20.061311
#
# number of rings (size 3 to 8) (size 9 to 14) (size 15 to 20)
#    0.000    2.429    2.857    0.429    0.000    1.429 
#    0.000    2.143    0.000    7.714    0.000    0.000 
#    0.000    0.000    0.000    0.000    0.000    0.000 
#
# Total GULP energy -156238.971550 kJ/mol
# GULP energy per Si atom -5579.963270 kJ/mol
# Density = 2.001565 g / cm^3
# Si number density = 20.061311 Si / 1000 Ang^3
#
#
#
# Elastic Constant Matrix: (Units=GPa)
#
#
# Indices 1 2 3 4 5 6 
#
# 1 123.2979 -9.2210 76.3263 -0.0001 -4.6656 0.0019
# 2 -9.2210 31.8011 -13.5570 0.0000 -0.9711 0.0024
# 3 76.3263 -13.5570 179.3694 -0.0001 8.0305 0.0007
# 4 -0.0001 0.0000 -0.0001 20.4970 -0.0001 -1.0994
# 5 -4.6656 -0.9711 8.0305 -0.0001 31.0746 0.0001
# 6 0.0019 0.0024 0.0007 -1.0994 0.0001 7.1353
#
#
#
# Elastic Compliance Matrix: (Units=1/GPa)
#
#
# Indices 1 2 3 4 5 6 
#
# 1 0.011327 0.001306 -0.004855 0.000000 0.002996 -0.000003
# 2 0.001306 0.032647 0.001879 -0.000001 0.000731 -0.000012
# 3 -0.004855 0.001879 0.007905 0.000000 -0.002713 0.000000
# 4 0.000000 -0.000001 0.000000 0.049194 0.000000 0.007580
# 5 0.002996 0.000731 -0.002713 0.000000 0.033354 -0.000001
# 6 -0.000003 -0.000012 0.000000 0.007580 -0.000001 0.141316
#
#
# Mechanical properties :
#
#
# Convention : Reuss Voigt Hill
#
# Bulk Modulus (GPa) = 20.60213 49.06279 34.83246
# Shear Modulus (GPa) = 16.93400 30.46941 23.70170
#
# Velocity S-wave (km/s) = 2.90851 3.90142 3.44097
# Velocity P-wave (km/s) = 4.64447 6.69360 5.76088
#
# Compressibility (1/GPa) = 0.04853867
#
# Stress axis : x y z
#
# Youngs Moduli (GPa) = 88.28298 30.63024 126.50705
#
# Poissons Ratio (x) = -0.04000 0.61425
# Poissons Ratio (y) = -0.11530 -0.23772
# Poissons Ratio (z) = 0.42865 -0.05756
#
# Static dielectric constant tensor:
#      x y z
#    x 1.679860 0.000000 0.007940 
#    y 0.000000 1.781850 0.000000 
#    z 0.007940 0.000000 1.709150 
# 
# From -- ./inp_files/363097.got.cif
#   From: 2010.05.17/outbox.cif.g08.bks.cpg/sg12_182_cif.got.tgz:363097.got - 2010.06.03 13:09:07.
