data_PCOD9176173
_publ_section_title
;
Structure prediction by ZEFSAII (Michael W. Deem and Ramdas Pophale) SiO2 
 PCOD9176173
Probable space group: C 2/M
;
_chemical_formula_sum "Si O2"
_cell_formula_units_Z 56
_cell_length_a 8.956978
_cell_length_b 19.396570
_cell_length_c 25.623955
_cell_angle_alpha 90.000000
_cell_angle_beta 140.776436
_cell_angle_gamma 90.000000
_cell_volume 2815.066966
_symmetry_space_group_name_H-M "C 2/M"
_symmetry_group_IT_number 12
_symmetry_cell_setting 'monoclinic'
loop_
_space_group_symop_operation_xyz
x,y,z
-x,y,-z
-x,-y,-z
x,-y,z
1/2+x,1/2+y,z
1/2-x,1/2+y,-z
1/2-x,1/2-y,-z
1/2+x,1/2-y,z
loop_
_atom_site_type_symbol
_atom_site_label
_atom_site_fract_x
_atom_site_fract_y
_atom_site_fract_z
Si Si1 0.654305 0.205879 0.815882
Si Si2 0.002077 0.922487 0.300572
Si Si3 0.134822 0.824962 0.427639
Si Si4 0.094132 0.344919 0.143430
Si Si5 0.962302 0.581022 0.583385
Si Si6 0.127497 0.823510 0.978511
Si Si7 0.189926 0.312946 0.376135
O O1 0.754521 0.284205 0.843350
O O2 0.509838 0.185644 0.829319
O O3 0.491059 0.198030 0.721011
O O4 0.903227 0.163317 0.880622
O O5 0.778391 0.904566 0.205188
O O6 0.006337 0.870434 0.349434
O O7 0.254638 0.913249 0.341169
O O8 0.991290 0.000000 0.317402
O O9 0.351389 0.870171 0.508357
O O10 0.175114 0.751437 0.411634
O O11 0.950121 0.815025 0.423697
O O12 0.862986 0.368713 0.048616
O O13 0.900143 0.500000 0.560015
O O14 0.869574 0.615998 0.610922
O O15 0.250000 0.750000 0.000000
O O16 0.000000 0.819824 0.000000
#
# Coordination Sequence:
#
# PCOD9176173 Si02
#       7
#     8   8   8   8   8   8   8
#     4  10  18  34  56  90 119 147 184 240 293 344
#     4  11  23  40  61  82 114 160 202 245 295 350
#     4  12  24  42  62  89 118 152 200 250 296 351
#     4  10  19  35  56  88 119 151 191 235 287 352
#     4  11  27  45  60  82 117 160 202 246 298 353
#     4   8  16  29  53  81 120 147 181 228 286 347
#     4  12  23  39  64  92 119 151 195 248 298 347
#
# _framework density 19.892955000000001
#
# number of rings (size 3 to 8) (size 9 to 14) (size 15 to 20)
#    0.000    1.429    2.857    2.571    2.000    4.000 
#    0.000    0.000    0.000    4.714    0.000    2.000 
#    0.000    0.000    0.000    0.000    0.000    0.000 
#
# Total GULP energy -156223.182891 kJ/mol
# GULP energy per Si atom -5579.399389 kJ/mol
# Density = 1.984768 g / cm^3
# Si number density = 19.892955 Si / 1000 Ang^3
#
#
#
# Elastic Constant Matrix: (Units=GPa)
#
#
# Indices 1 2 3 4 5 6 
#
# 1 82.6688 45.8114 17.8123 0.0000 15.1513 0.0000
# 2 45.8114 84.1323 35.8142 0.0001 10.8567 0.0000
# 3 17.8123 35.8142 119.3779 0.0002 29.7844 0.0000
# 4 0.0000 0.0001 0.0002 13.9069 0.0001 16.1887
# 5 15.1513 10.8567 29.7844 0.0001 24.6078 0.0000
# 6 0.0000 0.0000 0.0000 16.1887 0.0000 6.2752
#
#
#
# Elastic Compliance Matrix: (Units=1/GPa)
#
#
# Indices 1 2 3 4 5 6 
#
# 1 0.019135 -0.010269 0.002915 0.000000 -0.010779 0.000000
# 2 -0.010269 0.019177 -0.005283 0.000000 0.004256 0.000000
# 3 0.002915 -0.005283 0.013457 0.000000 -0.015752 0.000000
# 4 0.000000 0.000000 0.000000 -0.035898 0.000000 0.092610
# 5 -0.010779 0.004256 -0.015752 0.000000 0.064462 -0.000001
# 6 0.000000 0.000000 0.000000 0.092610 -0.000001 -0.079557
#
#
# Mechanical properties :
#
#
# Convention : Reuss Voigt Hill
#
# Bulk Modulus (GPa) = 37.74350 53.89499 45.81925
# Shear Modulus (GPa) = 143.34396 21.40739 82.37567
#
# Velocity S-wave (km/s) = 8.49789 3.28400 6.44200
# Velocity P-wave (km/s) = 10.73778 6.44444 8.85525
#
# Compressibility (1/GPa) = 0.02649463
#
# Stress axis : x y z
#
# Youngs Moduli (GPa) = 52.26153 52.14481 74.31224
#
# Poissons Ratio (x) = 0.53548 -0.21663
# Poissons Ratio (y) = 0.53667 0.39260
# Poissons Ratio (z) = -0.15235 0.27548
#
# Static dielectric constant tensor:
#      x y z
#    x 1.713520 0.000000 -0.004940 
#    y 0.000000 1.672440 0.000000 
#    z -0.004940 0.000000 1.790370 
# 
# From -- ./inp_files/356767.got.cif
#   From: 2010.05.17/outbox.cif.g08.bks.cpg/sg12_179_cif.got.tgz:356767.got - 2010.06.03 13:09:07.
