data_PCOD9176121
_publ_section_title
;
Structure prediction by ZEFSAII (Michael W. Deem and Ramdas Pophale) SiO2 
 PCOD9176121
Probable space group: C 2/M
;
_chemical_formula_sum "Si O2"
_cell_formula_units_Z 64
_cell_length_a 12.510386
_cell_length_b 15.637914
_cell_length_c 16.681212
_cell_angle_alpha 90.000000
_cell_angle_beta 101.303207
_cell_angle_gamma 90.000000
_cell_volume 3200.152354
_symmetry_space_group_name_H-M "C 2/M"
_symmetry_group_IT_number 12
_symmetry_cell_setting 'monoclinic'
loop_
_space_group_symop_operation_xyz
x,y,z
-x,y,-z
-x,-y,-z
x,-y,z
1/2+x,1/2+y,z
1/2-x,1/2+y,-z
1/2-x,1/2-y,-z
1/2+x,1/2-y,z
loop_
_atom_site_type_symbol
_atom_site_label
_atom_site_fract_x
_atom_site_fract_y
_atom_site_fract_z
Si Si1 0.130457 0.595092 0.522558
Si Si2 0.665909 0.227966 0.665005
Si Si3 0.290365 0.903900 0.648096
Si Si4 0.460258 0.267259 0.216272
Si Si5 0.950823 0.406119 0.820029
Si Si6 0.243526 0.664388 0.109551
Si Si7 0.375799 0.595549 0.984796
Si Si8 0.175993 0.834534 0.176981
O O1 0.163117 0.500000 0.557517
O O2 0.165717 0.670644 0.586471
O O3 0.174129 0.603512 0.438836
O O4 0.000000 0.596948 0.500000
O O5 0.720031 0.320320 0.658415
O O6 0.550600 0.245282 0.691376
O O7 0.729467 0.175742 0.744285
O O8 0.391981 0.902200 0.724459
O O9 0.240604 0.000000 0.651462
O O10 0.471622 0.177395 0.168530
O O11 0.355162 0.323262 0.176758
O O12 0.566279 0.320275 0.210134
O O13 0.002268 0.500000 0.837841
O O14 0.849030 0.396891 0.866916
O O15 0.187519 0.755543 0.116167
O O16 0.288443 0.641101 0.029417
O O17 0.388419 0.500000 0.020908
O O18 0.333049 0.590898 0.887643
O O19 0.500000 0.633019 0.000000
#
# Coordination Sequence:
#
# PCOD9176121 Si02
#       8
#     8   8   8   8   8   8   8   8
#     4  10  22  37  59  89 117 150 196 245 296 354
#     4  11  21  37  61  86 117 160 191 244 305 356
#     4  10  19  35  56  85 117 150 197 242 287 352
#     4  10  18  34  55  84 115 146 198 239 289 354
#     4  10  19  34  59  87 117 152 196 250 297 353
#     4  10  19  36  58  79 113 153 193 240 291 357
#     4  11  22  35  55  82 113 151 195 242 291 350
#     4  10  21  37  56  83 113 151 197 237 295 349
#
# _framework density 19.999047000000001
#
# number of rings (size 3 to 8) (size 9 to 14) (size 15 to 20)
#    0.000    1.750    5.000    1.875    0.000    2.000 
#    0.000    2.500    0.000    0.375    0.000   12.250 
#    0.000    0.000    0.000    0.000    0.000    0.000 
#
# Total GULP energy -178227.351317 kJ/mol
# GULP energy per Si atom -5569.604729 kJ/mol
# Density = 1.995353 g / cm^3
# Si number density = 19.999047 Si / 1000 Ang^3
#
#
#
# Elastic Constant Matrix: (Units=GPa)
#
#
# Indices 1 2 3 4 5 6 
#
# 1 51.3858 9.2187 18.2203 0.0000 -22.8287 0.0000
# 2 9.2187 63.4647 22.6049 0.0000 1.2212 0.0000
# 3 18.2203 22.6049 95.6853 0.0000 -18.6583 0.0000
# 4 0.0000 0.0000 0.0000 13.2060 0.0000 11.5649
# 5 -22.8287 1.2212 -18.6583 0.0000 25.4106 0.0000
# 6 0.0000 0.0000 0.0000 11.5649 0.0000 2.0279
#
#
#
# Elastic Compliance Matrix: (Units=1/GPa)
#
#
# Indices 1 2 3 4 5 6 
#
# 1 0.034338 -0.005998 0.001109 0.000000 0.031952 0.000000
# 2 -0.005998 0.018694 -0.005252 0.000000 -0.010143 0.000000
# 3 0.001109 -0.005252 0.013683 0.000000 0.011296 0.000000
# 4 0.000000 0.000000 0.000000 -0.018958 0.000000 0.108116
# 5 0.031952 -0.010143 0.011296 0.000000 0.076840 0.000000
# 6 0.000000 0.000000 0.000000 0.108116 0.000000 -0.123458
#
#
# Mechanical properties :
#
#
# Convention : Reuss Voigt Hill
#
# Bulk Modulus (GPa) = 21.53626 34.51372 28.02499
# Shear Modulus (GPa) = 135.50621 18.82837 77.16729
#
# Velocity S-wave (km/s) = 8.24035 3.07166 6.21846
# Velocity P-wave (km/s) = 10.06628 5.46583 8.09954
#
# Compressibility (1/GPa) = 0.04643332
#
# Stress axis : x y z
#
# Youngs Moduli (GPa) = 29.12200 53.49360 73.08253
#
# Poissons Ratio (x) = 0.32083 -0.08102
# Poissons Ratio (y) = 0.17466 0.38383
# Poissons Ratio (z) = -0.03229 0.28095
#
# Static dielectric constant tensor:
#      x y z
#    x 1.722020 0.000000 -0.005290 
#    y 0.000000 1.789960 0.000000 
#    z -0.005290 0.000000 1.723180 
# 
# From -- ./inp_files/263355.got.cif
#   From: 2010.05.17/outbox.cif.g08.bks.cpg/sg12_132_cif.got.tgz:263355.got - 2010.06.03 13:09:07.
