data_PCOD9176680
_publ_section_title
;
Structure prediction by ZEFSAII (Michael W. Deem and Ramdas Pophale) SiO2 
 PCOD9176680
Probable space group: C 2/M
;
_chemical_formula_sum "Si O2"
_cell_formula_units_Z 64
_cell_length_a 15.710219
_cell_length_b 7.761613
_cell_length_c 34.936292
_cell_angle_alpha 90.000000
_cell_angle_beta 44.166792
_cell_angle_gamma 90.000000
_cell_volume 2968.162549
_symmetry_space_group_name_H-M "C 2/M"
_symmetry_group_IT_number 12
_symmetry_cell_setting 'monoclinic'
loop_
_space_group_symop_operation_xyz
x,y,z
-x,y,-z
-x,-y,-z
x,-y,z
1/2+x,1/2+y,z
1/2-x,1/2+y,-z
1/2-x,1/2-y,-z
1/2+x,1/2-y,z
loop_
_atom_site_type_symbol
_atom_site_label
_atom_site_fract_x
_atom_site_fract_y
_atom_site_fract_z
Si Si1 0.816614 0.792772 0.939235
Si Si2 0.290260 0.799022 0.253422
Si Si3 0.408055 0.703504 0.140363
Si Si4 0.968480 0.792671 0.630621
Si Si5 0.082844 0.706675 0.438586
Si Si6 0.860966 0.788281 0.357504
Si Si7 0.243266 0.291223 0.880675
Si Si8 0.992488 0.200240 0.762825
O O1 0.748045 0.731828 0.923050
O O2 0.956297 0.728043 0.894894
O O3 0.823462 0.000000 0.934624
O O4 0.750000 0.750000 0.000000
O O5 0.311551 0.782060 0.201312
O O6 0.160239 0.730497 0.309861
O O7 0.402655 0.710212 0.238795
O O8 0.296510 0.000000 0.261704
O O9 0.407572 0.500000 0.147581
O O10 0.368537 0.736680 0.109707
O O11 0.972728 0.744015 0.585004
O O12 0.079959 0.734730 0.621359
O O13 0.966703 0.000000 0.633556
O O14 0.089291 0.500000 0.440475
O O15 0.222473 0.771080 0.395735
O O16 0.000000 0.773709 0.500000
O O17 0.948677 0.727052 0.294832
O O18 0.859308 0.000000 0.356597
O O19 0.245369 0.500000 0.880380
O O20 0.367273 0.226158 0.819926
O O21 0.966383 0.000000 0.763103
#
# Coordination Sequence:
#
# PCOD9176680 Si02
#       8
#     8   8   8   8   8   8   8   8
#     4  10  23  42  62  84 116 155 197 240 286 338
#     4  11  21  34  57  88 118 147 188 237 285 342
#     4  11  23  40  61  88 119 154 192 233 288 347
#     4  10  21  37  57  82 112 149 188 228 281 344
#     4  10  21  37  57  81 109 146 194 241 284 335
#     4   9  18  34  57  80 110 151 183 221 286 344
#     4  10  21  39  61  87 117 151 192 236 285 346
#     4  10  18  35  61  83 114 155 188 225 288 353
#
# _framework density 21.562159999999999
#
# number of rings (size 3 to 8) (size 9 to 14) (size 15 to 20)
#    0.000    1.875    2.500    1.500    0.000    5.750 
#    0.000    3.750    0.000    0.000    0.000    0.000 
#    0.000    0.000    0.000    0.000    0.000    0.000 
#
# Total GULP energy -178806.481511 kJ/mol
# GULP energy per Si atom -5587.702547 kJ/mol
# Density = 2.151308 g / cm^3
# Si number density = 21.562160 Si / 1000 Ang^3
#
#
#
# Elastic Constant Matrix: (Units=GPa)
#
#
# Indices 1 2 3 4 5 6 
#
# 1 101.5478 -6.1182 22.6469 -0.0029 38.8808 -0.0018
# 2 -6.1182 30.4934 0.7317 0.0016 -3.6852 0.0033
# 3 22.6469 0.7317 102.9983 -0.0001 35.8021 -0.0011
# 4 -0.0029 0.0016 -0.0001 13.8567 0.0012 8.4566
# 5 38.8808 -3.6852 35.8021 0.0012 27.0823 0.0006
# 6 -0.0018 0.0033 -0.0011 8.4566 0.0006 21.7315
#
#
#
# Elastic Compliance Matrix: (Units=1/GPa)
#
#
# Indices 1 2 3 4 5 6 
#
# 1 0.032539 -0.002285 0.017036 0.000012 -0.069546 0.000001
# 2 -0.002285 0.034142 -0.004617 -0.000002 0.014030 -0.000005
# 3 0.017036 -0.004617 0.027227 0.000008 -0.061080 0.000002
# 4 0.000012 -0.000002 0.000008 0.094644 -0.000032 -0.036830
# 5 -0.069546 0.014030 -0.061080 -0.000032 0.219424 -0.000004
# 6 0.000001 -0.000005 0.000002 -0.036830 -0.000004 0.060348
#
#
# Mechanical properties :
#
#
# Convention : Reuss Voigt Hill
#
# Bulk Modulus (GPa) = 8.75844 29.95114 19.35479
# Shear Modulus (GPa) = 10.28565 27.05271 18.66918
#
# Velocity S-wave (km/s) = 2.18646 3.54593 2.94569
# Velocity P-wave (km/s) = 3.23185 5.53946 4.53489
#
# Compressibility (1/GPa) = 0.11417556
#
# Stress axis : x y z
#
# Youngs Moduli (GPa) = 30.73268 29.28952 36.72809
#
# Poissons Ratio (x) = 0.06693 -0.62570
# Poissons Ratio (y) = 0.07023 0.16957
# Poissons Ratio (z) = -0.52356 0.13523
#
# Static dielectric constant tensor:
#      x y z
#    x 1.771840 0.000000 0.002990 
#    y 0.000000 1.817540 -0.000010 
#    z 0.002990 -0.000010 1.770160 
# 
# From -- ./inp_files/375510.got.cif
#   From: 2010.05.17/outbox.cif.g08.bks.cpg/sg12_188_cif.got.tgz:375510.got - 2010.06.03 13:09:07.
