data_PCOD9176730
_publ_section_title
;
Structure prediction by ZEFSAII (Michael W. Deem and Ramdas Pophale) SiO2 
 PCOD9176730
Probable space group: C 2/M
;
_chemical_formula_sum "Si O2"
_cell_formula_units_Z 56
_cell_length_a 18.802287
_cell_length_b 16.434135
_cell_length_c 9.917301
_cell_angle_alpha 90.000000
_cell_angle_beta 93.401842
_cell_angle_gamma 90.000000
_cell_volume 3059.039509
_symmetry_space_group_name_H-M "C 2/M"
_symmetry_group_IT_number 12
_symmetry_cell_setting 'monoclinic'
loop_
_space_group_symop_operation_xyz
x,y,z
-x,y,-z
-x,-y,-z
x,-y,z
1/2+x,1/2+y,z
1/2-x,1/2+y,-z
1/2-x,1/2-y,-z
1/2+x,1/2-y,z
loop_
_atom_site_type_symbol
_atom_site_label
_atom_site_fract_x
_atom_site_fract_y
_atom_site_fract_z
Si Si1 0.173475 0.753377 0.563709
Si Si2 0.714784 0.405683 0.705066
Si Si3 0.320181 0.405278 0.982107
Si Si4 0.917608 0.232079 0.952517
Si Si5 0.601531 0.000000 0.909347
Si Si6 0.624099 0.837331 0.310162
Si Si7 0.940042 0.500000 0.791308
Si Si8 0.177371 0.334083 0.850002
O O1 0.250000 0.750000 0.500000
O O2 0.165264 0.847046 0.608952
O O3 0.121473 0.711255 0.450410
O O4 0.176700 0.701864 0.700880
O O5 0.716022 0.500000 0.662395
O O6 0.794714 0.368569 0.706165
O O7 0.690450 0.402342 0.857675
O O8 0.314889 0.500000 0.940892
O O9 0.257137 0.351538 0.909743
O O10 0.393112 0.361558 0.948308
O O11 0.866901 0.274674 0.057789
O O12 0.900264 0.277600 0.811544
O O13 0.000000 0.242619 0.000000
O O14 0.638759 0.920365 0.857404
O O15 0.520291 0.000000 0.852978
O O16 0.605804 0.000000 0.073721
O O17 0.577641 0.919025 0.293331
#
# Coordination Sequence:
#
# PCOD9176730 Si02
#       8
#     8   8   8   8   4   8   4   8
#     4  10  23  38  58  90 126 160 202 261 311 366
#     4  10  18  35  62  90 115 154 207 259 307 358
#     4  11  21  37  65  93 118 156 206 267 311 356
#     4  12  24  39  63  91 124 167 210 254 307 371
#     4  11  22  35  63  97 126 161 207 254 300 374
#     4  11  21  38  59  88 127 168 198 246 315 372
#     4  11  20  37  59  91 135 169 198 240 315 382
#     4  12  21  41  63  93 125 157 213 258 309 370
#
# _framework density 18.306401000000001
#
# number of rings (size 3 to 8) (size 9 to 14) (size 15 to 20)
#    0.000    1.000    5.714    3.000    0.000    0.857 
#    1.286    4.286    0.000    0.000    0.000    2.000 
#    0.000    0.000    0.000    0.000    0.000    0.000 
#
# Total GULP energy -156364.945863 kJ/mol
# GULP energy per Si atom -5584.462352 kJ/mol
# Density = 1.826473 g / cm^3
# Si number density = 18.306401 Si / 1000 Ang^3
#
#
#
# Elastic Constant Matrix: (Units=GPa)
#
#
# Indices 1 2 3 4 5 6 
#
# 1 47.9109 50.2635 35.6760 0.0000 16.1285 0.0000
# 2 50.2635 125.6515 62.6694 0.0000 16.5805 0.0000
# 3 35.6760 62.6694 130.6875 0.0000 19.2033 0.0000
# 4 0.0000 0.0000 0.0000 27.7536 0.0000 28.0583
# 5 16.1285 16.5805 19.2033 0.0000 17.0460 0.0000
# 6 0.0000 0.0000 0.0000 28.0583 0.0000 -71.3437
#
#
#
# Elastic Compliance Matrix: (Units=1/GPa)
#
#
# Indices 1 2 3 4 5 6 
#
# 1 0.046313 -0.013884 -0.001834 0.000000 -0.028250 0.000000
# 2 -0.013884 0.015058 -0.003845 0.000000 0.002822 0.000000
# 3 -0.001834 -0.003845 0.011015 0.000000 -0.006934 0.000000
# 4 0.000000 0.000000 0.000000 0.025781 0.000000 0.010139
# 5 -0.028250 0.002822 -0.006934 0.000000 0.090460 0.000000
# 6 0.000000 0.000000 0.000000 0.010139 0.000000 -0.010029
#
#
# Mechanical properties :
#
#
# Convention : Reuss Voigt Hill
#
# Bulk Modulus (GPa) = 30.06623 66.82976 48.44800
# Shear Modulus (GPa) = 21.85198 5.06725 13.45962
#
# Velocity S-wave (km/s) = 3.45872 1.66554 2.71447
# Velocity P-wave (km/s) = 5.69296 6.34698 6.02885
#
# Compressibility (1/GPa) = 0.03325991
#
# Stress axis : x y z
#
# Youngs Moduli (GPa) = 21.59205 66.41009 90.78235
#
# Poissons Ratio (x) = 0.92204 0.16650
# Poissons Ratio (y) = 0.29978 0.34909
# Poissons Ratio (z) = 0.03960 0.25537
#
# Static dielectric constant tensor:
#      x y z
#    x 1.629570 0.000000 0.009060 
#    y 0.000000 1.675110 0.000000 
#    z 0.009060 0.000000 1.617540 
# 
# From -- ./inp_files/86409.got.cif
#   From: 2010.05.17/outbox.cif.g08.bks.cpg/sg12_44_cif.got.tgz:86409.got - 2010.06.03 13:09:07.
