data_PCOD9176715
_publ_section_title
;
Structure prediction by ZEFSAII (Michael W. Deem and Ramdas Pophale) SiO2 
 PCOD9176715
Probable space group: C 2/M
;
_chemical_formula_sum "Si O2"
_cell_formula_units_Z 58
_cell_length_a 24.662383
_cell_length_b 7.542748
_cell_length_c 12.699859
_cell_angle_alpha 90.000000
_cell_angle_beta 82.403977
_cell_angle_gamma 90.000000
_cell_volume 2341.723741
_symmetry_space_group_name_H-M "C 2/M"
_symmetry_group_IT_number 12
_symmetry_cell_setting 'monoclinic'
loop_
_space_group_symop_operation_xyz
x,y,z
-x,y,-z
-x,-y,-z
x,-y,z
1/2+x,1/2+y,z
1/2-x,1/2+y,-z
1/2-x,1/2-y,-z
1/2+x,1/2-y,z
loop_
_atom_site_type_symbol
_atom_site_label
_atom_site_fract_x
_atom_site_fract_y
_atom_site_fract_z
Si Si1 0.624884 0.793680 0.511672
Si Si2 0.500407 0.715052 0.157602
Si Si3 0.708974 0.714441 0.656765
Si Si4 0.000000 0.500000 0.000000
Si Si5 0.813072 0.790046 0.952992
Si Si6 0.487655 0.297630 0.390936
Si Si7 0.326483 0.788661 0.706291
Si Si8 0.875084 0.784745 0.140776
O O1 0.683569 0.775366 0.553088
O O2 0.578483 0.700605 0.592915
O O3 0.629235 0.723464 0.390776
O O4 0.610364 0.000000 0.515398
O O5 0.508202 0.500000 0.142572
O O6 0.511018 0.770213 0.275397
O O7 0.436617 0.764593 0.153622
O O8 0.528151 0.841893 0.067042
O O9 0.710402 0.500000 0.654161
O O10 0.767902 0.779206 0.679519
O O11 0.666046 0.771638 0.757086
O O12 0.829548 0.740167 0.830019
O O13 0.818435 0.000000 0.954953
O O14 0.750000 0.750000 0.000000
O O15 0.851178 0.718118 0.036485
O O16 0.500000 0.210273 0.500000
O O17 0.507054 0.500000 0.390945
O O18 0.326434 0.000000 0.691605
O O19 0.874810 0.000000 0.138827
#
# Coordination Sequence:
#
# PCOD9176715 Si02
#       8
#     8   8   8   2   8   8   8   8
#     4  11  23  37  58  92 127 158 202 263 317 365
#     4  10  22  45  69  96 134 166 213 278 328 394
#     4  10  18  35  62  83 120 166 205 246 300 368
#     4  12  26  44  70 106 124 168 222 266 340 406
#     4  11  21  36  57  84 119 164 211 251 303 372
#     4  10  22  43  70  94 121 167 216 260 328 403
#     4  10  22  39  54  85 129 167 203 255 310 357
#     4   9  18  36  62  85 116 166 206 249 308 368
#
# _framework density 24.768079
#
# number of rings (size 3 to 8) (size 9 to 14) (size 15 to 20)
#    0.000    1.793    2.759    1.448    0.966    1.931 
#    4.966    0.000    0.000    0.000    0.000    0.000 
#    0.000    0.000    0.000    0.000    0.000    0.000 
#
# Total GULP energy -161842.319548 kJ/mol
# GULP energy per Si atom -5580.769640 kJ/mol
# Density = 2.471171 g / cm^3
# Si number density = 24.768079 Si / 1000 Ang^3
#
#
#
# Elastic Constant Matrix: (Units=GPa)
#
#
# Indices 1 2 3 4 5 6 
#
# 1 38.2126 5.6502 8.7556 0.0000 8.6118 0.0000
# 2 5.6502 88.6917 20.0333 0.0000 -1.0066 0.0000
# 3 8.7556 20.0333 203.6504 0.0000 11.0863 0.0000
# 4 0.0000 0.0000 0.0000 9.0884 0.0000 -5.9826
# 5 8.6118 -1.0066 11.0863 0.0000 40.6829 0.0000
# 6 0.0000 0.0000 0.0000 -5.9826 0.0000 -4.3375
#
#
#
# Elastic Compliance Matrix: (Units=1/GPa)
#
#
# Indices 1 2 3 4 5 6 
#
# 1 0.027878 -0.001678 -0.000721 0.000000 -0.005746 0.000000
# 2 -0.001678 0.011647 -0.001125 0.000000 0.000950 0.000000
# 3 -0.000721 -0.001125 0.005121 0.000000 -0.001271 0.000000
# 4 0.000000 0.000000 0.000000 0.057670 0.000000 -0.079543
# 5 -0.005746 0.000950 -0.001271 0.000000 0.026167 0.000000
# 6 0.000000 0.000000 0.000000 -0.079543 0.000000 -0.120838
#
#
# Mechanical properties :
#
#
# Convention : Reuss Voigt Hill
#
# Bulk Modulus (GPa) = 26.59773 44.38143 35.48958
# Shear Modulus (GPa) = 183.64818 28.82781 106.23800
#
# Velocity S-wave (km/s) = 8.62021 3.41531 6.55639
# Velocity P-wave (km/s) = 10.48043 5.78880 8.46610
#
# Compressibility (1/GPa) = 0.03759720
#
# Stress axis : x y z
#
# Youngs Moduli (GPa) = 35.87094 85.85981 195.26540
#
# Poissons Ratio (x) = 0.14411 0.14071
# Poissons Ratio (y) = 0.06021 0.21973
# Poissons Ratio (z) = 0.02585 0.09662
#
# Static dielectric constant tensor:
#      x y z
#    x 2.010920 0.000000 -0.008440 
#    y 0.000000 1.913340 0.000000 
#    z -0.008440 0.000000 2.005400 
# 
# From -- ./inp_files/186643.got.cif
#   From: 2010.05.17/outbox.cif.g08.bks.cpg/sg12_94_cif.got.tgz:186643.got - 2010.06.03 13:09:07.
