data_PCOD9176361
_publ_section_title
;
Structure prediction by ZEFSAII (Michael W. Deem and Ramdas Pophale) SiO2 
 PCOD9176361
Probable space group: C 2/M
;
_chemical_formula_sum "Si O2"
_cell_formula_units_Z 56
_cell_length_a 23.859068
_cell_length_b 17.497851
_cell_length_c 18.779254
_cell_angle_alpha 90.000000
_cell_angle_beta 161.132181
_cell_angle_gamma 90.000000
_cell_volume 2535.348819
_symmetry_space_group_name_H-M "C 2/M"
_symmetry_group_IT_number 12
_symmetry_cell_setting 'monoclinic'
loop_
_space_group_symop_operation_xyz
x,y,z
-x,y,-z
-x,-y,-z
x,-y,z
1/2+x,1/2+y,z
1/2-x,1/2+y,-z
1/2-x,1/2-y,-z
1/2+x,1/2-y,z
loop_
_atom_site_type_symbol
_atom_site_label
_atom_site_fract_x
_atom_site_fract_y
_atom_site_fract_z
Si Si1 0.818320 0.707787 0.743415
Si Si2 0.495736 0.389353 0.813147
Si Si3 0.399349 0.882317 0.305682
Si Si4 0.367487 0.699855 0.275866
Si Si5 0.552425 0.414181 0.407572
Si Si6 0.823180 0.633566 0.469570
Si Si7 0.487165 0.792053 0.803655
O O1 0.711763 0.632338 0.633822
O O2 0.736289 0.792665 0.649680
O O3 0.842908 0.696951 0.689033
O O4 0.000000 0.711145 0.000000
O O5 0.439782 0.419268 0.668513
O O6 0.352176 0.402324 0.704160
O O7 0.498710 0.298144 0.807512
O O8 0.699291 0.411122 0.069342
O O9 0.500000 0.896383 0.500000
O O10 0.382239 0.789727 0.275349
O O11 0.533875 0.909824 0.406332
O O12 0.500000 0.685893 0.500000
O O13 0.402937 0.644708 0.251618
O O14 0.169311 0.683833 0.056437
O O15 0.532264 0.500000 0.411343
O O16 0.933525 0.665645 0.668352
#
# Coordination Sequence:
#
# PCOD9176361 Si02
#       7
#     8   8   8   8   8   8   8
#     4  11  21  34  55  84 116 148 188 237 291 337
#     4  10  20  36  56  85 114 144 190 239 291 340
#     4  10  21  33  59  95 120 139 178 237 307 362
#     4  10  20  35  54  84 118 151 185 238 291 340
#     4  12  23  38  55  75 113 162 206 233 267 335
#     4  11  19  34  60  85 117 149 179 237 305 351
#     4  10  18  34  60  80 110 146 182 239 301 349
#
# _framework density 22.087691
#
# number of rings (size 3 to 8) (size 9 to 14) (size 15 to 20)
#    0.000    1.429    4.286    2.571    6.000    2.857 
#    0.000    0.714    0.000    0.429    0.000    1.000 
#    0.000    0.000    0.000    0.000    0.000    0.000 
#
# Total GULP energy -156069.355922 kJ/mol
# GULP energy per Si atom -5573.905569 kJ/mol
# Density = 2.203742 g / cm^3
# Si number density = 22.087691 Si / 1000 Ang^3
#
#
#
# Elastic Constant Matrix: (Units=GPa)
#
#
# Indices 1 2 3 4 5 6 
#
# 1 104.9702 19.1230 29.8577 0.0020 25.1711 0.0028
# 2 19.1230 86.0231 19.6673 0.0040 -1.1622 0.0059
# 3 29.8577 19.6673 154.4568 0.0036 23.4767 0.0069
# 4 0.0020 0.0040 0.0036 -20.1836 -0.0001 -6.8080
# 5 25.1711 -1.1622 23.4767 -0.0001 36.8619 0.0008
# 6 0.0028 0.0059 0.0069 -6.8080 0.0008 -3.8152
#
#
#
# Elastic Compliance Matrix: (Units=1/GPa)
#
#
# Indices 1 2 3 4 5 6 
#
# 1 0.012113 -0.002611 -0.000819 0.000000 -0.007833 0.000002
# 2 -0.002611 0.012611 -0.001586 -0.000008 0.003191 0.000030
# 3 -0.000819 -0.001586 0.007481 -0.000006 -0.004256 0.000020
# 4 0.000000 -0.000008 -0.000006 -0.124457 -0.000002 0.222088
# 5 -0.007833 0.003191 -0.004256 -0.000002 0.035288 0.000001
# 6 0.000002 0.000030 0.000020 0.222088 0.000001 -0.658418
#
#
# Mechanical properties :
#
#
# Convention : Reuss Voigt Hill
#
# Bulk Modulus (GPa) = 45.09857 53.63845 49.36851
# Shear Modulus (GPa) = -7.16376 21.02610 6.93117
#
# Velocity S-wave (km/s) = -1.80288 3.08870 1.77337
# Velocity P-wave (km/s) = 4.01603 6.08745 5.15682
#
# Compressibility (1/GPa) = 0.02217365
#
# Stress axis : x y z
#
# Youngs Moduli (GPa) = 82.55405 79.29574 133.66590
#
# Poissons Ratio (x) = 0.20708 0.10941
# Poissons Ratio (y) = 0.21559 0.21199
# Poissons Ratio (z) = 0.06757 0.12576
#
# Static dielectric constant tensor:
#      x y z
#    x 1.952130 -0.000010 0.098210 
#    y -0.000010 1.838970 0.000000 
#    z 0.098210 0.000000 1.831900 
# 
# From -- ./inp_files/290838.got.cif
#   From: 2010.05.17/outbox.cif.g08.bks.cpg/sg12_146_cif.got.tgz:290838.got - 2010.06.03 13:09:07.
