data_PCOD9176001
_publ_section_title
;
Structure prediction by ZEFSAII (Michael W. Deem and Ramdas Pophale) SiO2 
 PCOD9176001
Probable space group: C 2/M
;
_chemical_formula_sum "Si O2"
_cell_formula_units_Z 56
_cell_length_a 20.210589
_cell_length_b 19.210926
_cell_length_c 7.919527
_cell_angle_alpha 90.000000
_cell_angle_beta 56.329952
_cell_angle_gamma 90.000000
_cell_volume 2559.040842
_symmetry_space_group_name_H-M "C 2/M"
_symmetry_group_IT_number 12
_symmetry_cell_setting 'monoclinic'
loop_
_space_group_symop_operation_xyz
x,y,z
-x,y,-z
-x,-y,-z
x,-y,z
1/2+x,1/2+y,z
1/2-x,1/2+y,-z
1/2-x,1/2-y,-z
1/2+x,1/2-y,z
loop_
_atom_site_type_symbol
_atom_site_label
_atom_site_fract_x
_atom_site_fract_y
_atom_site_fract_z
Si Si1 0.842940 0.576250 0.395571
Si Si2 0.344424 0.796355 0.898655
Si Si3 0.750141 0.577443 0.863014
Si Si4 0.248559 0.191325 0.356973
Si Si5 0.092560 0.154553 0.087724
Si Si6 0.579368 0.682202 0.702408
Si Si7 0.013827 0.337162 0.781007
O O1 0.854878 0.500000 0.305953
O O2 0.774419 0.574302 0.632658
O O3 0.812675 0.632324 0.306146
O O4 0.924442 0.604097 0.361627
O O5 0.298824 0.855071 0.856490
O O6 0.380789 0.718178 0.827538
O O7 0.427375 0.835355 0.823672
O O8 0.279188 0.780058 0.137311
O O9 0.769205 0.500000 0.907288
O O10 0.657271 0.594669 0.016113
O O11 0.250000 0.250000 0.500000
O O12 0.159529 0.162793 0.492660
O O13 0.998949 0.139659 0.240273
O O14 0.094232 0.178040 0.884960
O O15 0.556795 0.762524 0.695067
O O16 0.000000 0.345382 0.000000
#
# Coordination Sequence:
#
# PCOD9176001 Si02
#       7
#     8   8   8   8   8   8   8
#     4  11  23  36  56  86 122 161 200 240 289 353
#     4  11  22  36  63  88 118 156 197 240 301 358
#     4  11  25  42  56  82 126 168 199 234 292 357
#     4  12  18  36  64  90 115 149 195 251 300 342
#     4  10  18  37  61  89 115 150 195 247 294 352
#     4  10  18  33  65  95 116 138 194 258 303 340
#     4  11  18  37  59  92 119 149 192 252 303 345
#
# _framework density 21.883198
#
# number of rings (size 3 to 8) (size 9 to 14) (size 15 to 20)
#    0.000    1.143    8.571    0.429    0.000    2.000 
#    0.000    4.286    0.000    0.857    0.000    0.000 
#    0.000    0.000    0.000    0.000    0.000    0.000 
#
# Total GULP energy -156179.211360 kJ/mol
# GULP energy per Si atom -5577.828977 kJ/mol
# Density = 2.183339 g / cm^3
# Si number density = 21.883198 Si / 1000 Ang^3
#
#
#
# Elastic Constant Matrix: (Units=GPa)
#
#
# Indices 1 2 3 4 5 6 
#
# 1 94.4184 23.8666 9.7468 0.0000 -30.8068 0.0000
# 2 23.8666 89.1043 0.4479 0.0000 2.1901 0.0000
# 3 9.7468 0.4479 43.3941 0.0000 -27.0588 0.0000
# 4 0.0000 0.0000 0.0000 18.1591 0.0000 -0.2268
# 5 -30.8068 2.1901 -27.0588 0.0000 43.3438 0.0000
# 6 0.0000 0.0000 0.0000 -0.2268 0.0000 10.4238
#
#
#
# Elastic Compliance Matrix: (Units=1/GPa)
#
#
# Indices 1 2 3 4 5 6 
#
# 1 0.016266 -0.004772 0.006149 0.000000 0.015641 0.000000
# 2 -0.004772 0.012653 -0.002575 0.000000 -0.005638 0.000000
# 3 0.006149 -0.002575 0.040110 0.000000 0.029540 0.000000
# 4 0.000000 0.000000 0.000000 0.055084 0.000000 0.001198
# 5 0.015641 -0.005638 0.029540 0.000000 0.052915 0.000000
# 6 0.000000 0.000000 0.000000 0.001198 0.000000 0.095960
#
#
# Mechanical properties :
#
#
# Convention : Reuss Voigt Hill
#
# Bulk Modulus (GPa) = 15.00766 32.78216 23.89491
# Shear Modulus (GPa) = 16.80138 27.24238 22.02188
#
# Velocity S-wave (km/s) = 2.77388 3.53214 3.17572
# Velocity P-wave (km/s) = 4.13911 5.62563 4.93862
#
# Compressibility (1/GPa) = 0.06663263
#
# Stress axis : x y z
#
# Youngs Moduli (GPa) = 61.47810 79.03542 24.93121
#
# Poissons Ratio (x) = 0.37717 -0.15329
# Poissons Ratio (y) = 0.29338 0.06419
# Poissons Ratio (z) = -0.37801 0.20349
#
# Static dielectric constant tensor:
#      x y z
#    x 1.875030 0.000000 0.034280 
#    y 0.000000 1.812170 0.000000 
#    z 0.034280 0.000000 1.838790 
# 
# From -- ./inp_files/98040.got.cif
#   From: 2010.05.17/outbox.cif.g08.bks.cpg/sg12_50_cif.got.tgz:98040.got - 2010.06.03 13:09:07.
