data_PCOD9176468
_publ_section_title
;
Structure prediction by ZEFSAII (Michael W. Deem and Ramdas Pophale) SiO2 
 PCOD9176468
Probable space group: C 2/M
;
_chemical_formula_sum "Si O2"
_cell_formula_units_Z 44
_cell_length_a 8.506592
_cell_length_b 16.580701
_cell_length_c 16.010072
_cell_angle_alpha 90.000000
_cell_angle_beta 53.869467
_cell_angle_gamma 90.000000
_cell_volume 1823.848830
_symmetry_space_group_name_H-M "C 2/M"
_symmetry_group_IT_number 12
_symmetry_cell_setting 'monoclinic'
loop_
_space_group_symop_operation_xyz
x,y,z
-x,y,-z
-x,-y,-z
x,-y,z
1/2+x,1/2+y,z
1/2-x,1/2+y,-z
1/2-x,1/2-y,-z
1/2+x,1/2-y,z
loop_
_atom_site_type_symbol
_atom_site_label
_atom_site_fract_x
_atom_site_fract_y
_atom_site_fract_z
Si Si1 0.808073 0.653760 0.678732
Si Si2 0.404177 0.095661 0.272875
Si Si3 0.000000 0.217859 0.500000
Si Si4 0.965889 0.092820 0.106903
Si Si5 0.902886 0.594059 0.956071
Si Si6 0.557116 0.591123 0.607402
O O1 0.870479 0.728024 0.601789
O O2 0.650548 0.656274 0.802315
O O3 0.687953 0.598566 0.649594
O O4 0.999336 0.627989 0.671446
O O5 0.177887 0.107784 0.315053
O O6 0.419714 0.000000 0.277921
O O7 0.543711 0.124668 0.152609
O O8 0.122072 0.158213 0.521033
O O9 0.188613 0.087652 0.061320
O O10 0.881634 0.000000 0.137910
O O11 0.000000 0.113456 0.000000
O O12 0.971523 0.500000 0.928000
O O13 0.000000 0.642831 0.000000
O O14 0.580295 0.500000 0.568670
#
# Coordination Sequence:
#
# PCOD9176468 Si02
#       6
#     8   8   4   8   8   8
#     4  12  25  44  74 107 151 193 243 298 379 433
#     4  10  21  39  69 110 149 186 241 303 359 435
#     4  12  31  52  73 106 152 196 240 312 383 442
#     4  10  18  34  63 102 146 185 233 292 350 424
#     4   9  16  29  57 100 145 186 230 291 357 418
#     4  11  26  49  76 105 142 192 252 306 361 442
#
# _framework density 24.124804999999999
#
# number of rings (size 3 to 8) (size 9 to 14) (size 15 to 20)
#    0.000    1.455    1.818    3.545    5.091    2.909 
#    0.000    3.182    0.000    5.455    0.000    0.000 
#    0.000    2.182    0.000    0.000    0.000    1.091 
#
# Total GULP energy -122516.230588 kJ/mol
# GULP energy per Si atom -5568.919572 kJ/mol
# Density = 2.406990 g / cm^3
# Si number density = 24.124805 Si / 1000 Ang^3
#
#
#
# Elastic Constant Matrix: (Units=GPa)
#
#
# Indices 1 2 3 4 5 6 
#
# 1 144.2498 31.3536 62.1535 0.0000 6.7530 0.0000
# 2 31.3536 87.3605 69.0447 0.0000 -5.2006 0.0000
# 3 62.1535 69.0447 155.5813 0.0000 -7.8553 0.0000
# 4 0.0000 0.0000 0.0000 36.3142 0.0000 34.6520
# 5 6.7530 -5.2006 -7.8553 0.0000 41.1057 0.0000
# 6 0.0000 0.0000 0.0000 34.6520 0.0000 28.9466
#
#
#
# Elastic Compliance Matrix: (Units=1/GPa)
#
#
# Indices 1 2 3 4 5 6 
#
# 1 0.008568 -0.000633 -0.003248 0.000000 -0.002109 0.000000
# 2 -0.000633 0.017700 -0.007557 0.000000 0.000899 0.000000
# 3 -0.003248 -0.007557 0.011165 0.000000 0.001711 0.000000
# 4 0.000000 0.000000 0.000000 -0.193512 0.000000 0.231654
# 5 -0.002109 0.000899 0.001711 0.000000 0.025115 0.000000
# 6 0.000000 0.000000 0.000000 0.231654 0.000000 -0.242766
#
#
# Mechanical properties :
#
#
# Convention : Reuss Voigt Hill
#
# Bulk Modulus (GPa) = 68.69618 79.14392 73.92005
# Shear Modulus (GPa) = -14.45081 36.24930 10.89925
#
# Velocity S-wave (km/s) = -2.45011 3.88051 2.12783
# Velocity P-wave (km/s) = 4.53135 7.27702 6.06169
#
# Compressibility (1/GPa) = 0.01455685
#
# Stress axis : x y z
#
# Youngs Moduli (GPa) = 116.70721 56.49740 89.56479
#
# Poissons Ratio (x) = 0.03578 0.29094
# Poissons Ratio (y) = 0.07392 0.67680
# Poissons Ratio (z) = 0.37911 0.42692
#
# Static dielectric constant tensor:
#      x y z
#    x -2.681340 0.000000 1.028780 
#    y 0.000000 1.934980 0.000000 
#    z 1.028780 0.000000 1.756070 
# 
# From -- ./inp_files/195872.got.cif
#   From: 2010.05.17/outbox.cif.g08.bks.cpg/sg12_98_cif.got.tgz:195872.got - 2010.06.03 13:09:07.
