data_PCOD9176611
_publ_section_title
;
Structure prediction by ZEFSAII (Michael W. Deem and Ramdas Pophale) SiO2 
 PCOD9176611
Probable space group: C 2/M
;
_chemical_formula_sum "Si O2"
_cell_formula_units_Z 64
_cell_length_a 14.951597
_cell_length_b 7.815557
_cell_length_c 27.703711
_cell_angle_alpha 90.000000
_cell_angle_beta 66.928748
_cell_angle_gamma 90.000000
_cell_volume 2978.392305
_symmetry_space_group_name_H-M "C 2/M"
_symmetry_group_IT_number 12
_symmetry_cell_setting 'monoclinic'
loop_
_space_group_symop_operation_xyz
x,y,z
-x,y,-z
-x,-y,-z
x,-y,z
1/2+x,1/2+y,z
1/2-x,1/2+y,-z
1/2-x,1/2-y,-z
1/2+x,1/2-y,z
loop_
_atom_site_type_symbol
_atom_site_label
_atom_site_fract_x
_atom_site_fract_y
_atom_site_fract_z
Si Si1 0.488468 0.701141 0.852358
Si Si2 0.390218 0.206399 0.509657
Si Si3 0.875300 0.800329 0.785958
Si Si4 0.930803 0.200461 0.397117
Si Si5 0.173607 0.800403 0.869959
Si Si6 0.754590 0.209787 0.375206
Si Si7 0.284185 0.794616 0.939410
Si Si8 0.374049 0.195607 0.680383
O O1 0.510485 0.500000 0.840479
O O2 0.455728 0.769458 0.806542
O O3 0.581568 0.775725 0.860809
O O4 0.390523 0.721229 0.904558
O O5 0.500000 0.257156 0.500000
O O6 0.374077 0.274355 0.459233
O O7 0.317305 0.265845 0.566583
O O8 0.385483 0.000000 0.508814
O O9 0.771578 0.713052 0.817666
O O10 0.899935 0.784841 0.724752
O O11 0.861670 0.000000 0.800717
O O12 0.861982 0.260106 0.368236
O O13 0.032401 0.297590 0.374281
O O14 0.951802 0.000000 0.387094
O O15 0.207822 0.730049 0.914824
O O16 0.150162 0.000000 0.883440
O O17 0.714294 0.269271 0.332379
O O18 0.751765 0.000000 0.375089
O O19 0.291242 0.000000 0.932977
O O20 0.250000 0.750000 0.000000
O O21 0.351511 0.000000 0.697258
#
# Coordination Sequence:
#
# PCOD9176611 Si02
#       8
#     8   8   8   8   8   8   8   8
#     4   9  19  37  59  80 109 147 187 226 273 322
#     4  10  18  35  59  78 104 142 179 207 254 327
#     4  10  21  37  57  83 110 136 174 232 281 313
#     4  11  22  36  55  82 109 133 173 224 269 308
#     4   9  19  37  59  81 106 148 192 222 262 330
#     4   9  20  37  56  77 105 142 176 211 260 322
#     4  10  20  34  54  82 117 150 188 229 271 318
#     4  11  22  40  59  76 105 146 181 212 264 331
#
# _framework density 21.488101
#
# number of rings (size 3 to 8) (size 9 to 14) (size 15 to 20)
#    0.000    2.125    1.250    1.875    0.000    3.250 
#    0.000   10.625    0.000    0.000    0.000    0.000 
#    0.000    0.000    0.000    0.000    0.000    0.000 
#
# Total GULP energy -178618.032597 kJ/mol
# GULP energy per Si atom -5581.813519 kJ/mol
# Density = 2.143919 g / cm^3
# Si number density = 21.488101 Si / 1000 Ang^3
#
#
#
# Elastic Constant Matrix: (Units=GPa)
#
#
# Indices 1 2 3 4 5 6 
#
# 1 149.8074 6.8625 26.5067 0.0000 34.1212 0.0000
# 2 6.8625 28.7923 -7.7269 0.0000 7.4072 -0.0001
# 3 26.5067 -7.7269 85.0082 0.0000 27.3901 0.0000
# 4 0.0000 0.0000 0.0000 27.1891 0.0000 -2.8417
# 5 34.1212 7.4072 27.3901 0.0000 19.1755 0.0000
# 6 0.0000 -0.0001 0.0000 -2.8417 0.0000 10.8678
#
#
#
# Elastic Compliance Matrix: (Units=1/GPa)
#
#
# Indices 1 2 3 4 5 6 
#
# 1 0.015166 0.012367 0.012283 0.000000 -0.049309 0.000000
# 2 0.012367 0.063771 0.031436 0.000000 -0.091543 0.000000
# 3 0.012283 0.031436 0.040288 0.000000 -0.091546 0.000000
# 4 0.000000 0.000000 0.000000 0.037813 0.000000 0.009887
# 5 -0.049309 -0.091543 -0.091546 0.000000 0.306018 0.000000
# 6 0.000000 0.000000 0.000000 0.009887 0.000000 0.094600
#
#
# Mechanical properties :
#
#
# Convention : Reuss Voigt Hill
#
# Bulk Modulus (GPa) = 4.32159 34.98805 19.65482
# Shear Modulus (GPa) = 9.56724 27.31085 18.43904
#
# Velocity S-wave (km/s) = 2.11235 3.56894 2.93252
# Velocity P-wave (km/s) = 2.82221 5.77070 4.54235
#
# Compressibility (1/GPa) = 0.23139654
#
# Stress axis : x y z
#
# Youngs Moduli (GPa) = 65.93484 15.68110 24.82147
#
# Poissons Ratio (x) = -0.19393 -0.30488
# Poissons Ratio (y) = -0.81541 -0.78029
# Poissons Ratio (z) = -0.80986 -0.49295
#
# Static dielectric constant tensor:
#      x y z
#    x 1.802890 0.000000 0.038090 
#    y 0.000000 1.808620 0.000000 
#    z 0.038090 0.000000 1.783850 
# 
# From -- ./inp_files/359738.got.cif
#   From: 2010.05.17/outbox.cif.g08.bks.cpg/sg12_180_cif.got.tgz:359738.got - 2010.06.03 13:09:07.
