data_PCOD9176485
_publ_section_title
;
Structure prediction by ZEFSAII (Michael W. Deem and Ramdas Pophale) SiO2 
 PCOD9176485
Probable space group: C 2/M
;
_chemical_formula_sum "Si O2"
_cell_formula_units_Z 40
_cell_length_a 7.333680
_cell_length_b 23.438745
_cell_length_c 14.032300
_cell_angle_alpha 90.000000
_cell_angle_beta 48.061376
_cell_angle_gamma 90.000000
_cell_volume 1794.225671
_symmetry_space_group_name_H-M "C 2/M"
_symmetry_group_IT_number 12
_symmetry_cell_setting 'monoclinic'
loop_
_space_group_symop_operation_xyz
x,y,z
-x,y,-z
-x,-y,-z
x,-y,z
1/2+x,1/2+y,z
1/2-x,1/2+y,-z
1/2-x,1/2-y,-z
1/2+x,1/2-y,z
loop_
_atom_site_type_symbol
_atom_site_label
_atom_site_fract_x
_atom_site_fract_y
_atom_site_fract_z
Si Si1 0.505232 0.191612 0.281536
Si Si2 0.001607 0.873794 0.113937
Si Si3 0.402014 0.000000 0.424468
Si Si4 0.181135 0.178737 0.222398
Si Si5 0.757648 0.622316 0.517769
Si Si6 0.415503 0.500000 0.140060
O O1 0.739682 0.154354 0.228462
O O2 0.420018 0.177967 0.204323
O O3 0.572005 0.257574 0.266990
O O4 0.292821 0.171238 0.426495
O O5 0.197215 0.838471 0.106364
O O6 0.014218 0.939577 0.141827
O O7 0.000000 0.871141 0.000000
O O8 0.500000 0.000000 0.500000
O O9 0.259929 0.059882 0.468383
O O10 0.627900 0.000000 0.270336
O O11 0.983443 0.135717 0.337938
O O12 0.000000 0.624965 0.500000
O O13 0.500000 0.500000 0.000000
#
# Coordination Sequence:
#
# PCOD9176485 Si02
#       6
#     8   8   4   8   8   4
#     4  12  23  42  64  95 133 169 216 266 330 391
#     4  11  24  44  68  94 128 174 220 267 321 386
#     4  10  18  34  65  94 128 168 218 272 322 381
#     4  12  24  41  63  96 130 172 212 268 327 391
#     4  11  20  38  64  92 130 167 211 263 328 386
#     4  10  20  42  70  93 129 178 216 263 332 395
#
# _framework density 22.293738000000001
#
# number of rings (size 3 to 8) (size 9 to 14) (size 15 to 20)
#    0.000    0.800    6.000    2.400    0.000    1.600 
#    0.000    5.000    0.000    3.600    0.000    0.000 
#    0.000    0.000    0.000    0.000    0.000    0.000 
#
# Total GULP energy -111739.471897 kJ/mol
# GULP energy per Si atom -5586.973595 kJ/mol
# Density = 2.224300 g / cm^3
# Si number density = 22.293738 Si / 1000 Ang^3
#
#
#
# Elastic Constant Matrix: (Units=GPa)
#
#
# Indices 1 2 3 4 5 6 
#
# 1 114.2703 16.1142 8.1164 0.0000 20.6586 0.0000
# 2 16.1142 147.9105 29.5583 0.0000 17.1346 0.0000
# 3 8.1164 29.5583 98.4104 0.0000 10.1698 0.0000
# 4 0.0000 0.0000 0.0000 16.2010 0.0000 13.1661
# 5 20.6586 17.1346 10.1698 0.0000 29.6034 0.0000
# 6 0.0000 0.0000 0.0000 13.1661 0.0000 -16.2616
#
#
#
# Elastic Compliance Matrix: (Units=1/GPa)
#
#
# Indices 1 2 3 4 5 6 
#
# 1 0.010027 -0.000296 -0.000034 0.000000 -0.006814 0.000000
# 2 -0.000296 0.007579 -0.001887 0.000000 -0.003532 0.000000
# 3 -0.000034 -0.001887 0.011007 0.000000 -0.002665 0.000000
# 4 0.000000 0.000000 0.000000 0.037229 0.000000 0.030142
# 5 -0.006814 -0.003532 -0.002665 0.000000 0.041495 0.000000
# 6 0.000000 0.000000 0.000000 0.030142 0.000000 -0.037090
#
#
# Mechanical properties :
#
#
# Convention : Reuss Voigt Hill
#
# Bulk Modulus (GPa) = 41.35832 52.01879 46.68855
# Shear Modulus (GPa) = 60.42922 26.36203 43.39563
#
# Velocity S-wave (km/s) = 5.21198 3.44246 4.41675
# Velocity P-wave (km/s) = 7.40348 6.25977 6.85552
#
# Compressibility (1/GPa) = 0.02417893
#
# Stress axis : x y z
#
# Youngs Moduli (GPa) = 99.72748 131.93663 90.85501
#
# Poissons Ratio (x) = 0.03909 0.00307
# Poissons Ratio (y) = 0.02955 0.17145
# Poissons Ratio (z) = 0.00337 0.24898
#
# Static dielectric constant tensor:
#      x y z
#    x 1.839880 0.000000 0.055020 
#    y 0.000000 1.796570 0.000000 
#    z 0.055020 0.000000 1.924310 
# 
# From -- ./inp_files/196801.got.cif
#   From: 2010.05.17/outbox.cif.g08.bks.cpg/sg12_99_cif.got.tgz:196801.got - 2010.06.03 13:09:07.
