data_PCOD9176237
_publ_section_title
;
Structure prediction by ZEFSAII (Michael W. Deem and Ramdas Pophale) SiO2 
 PCOD9176237
Probable space group: C 2/M
;
_chemical_formula_sum "Si O2"
_cell_formula_units_Z 48
_cell_length_a 15.393297
_cell_length_b 7.574332
_cell_length_c 29.658577
_cell_angle_alpha 90.000000
_cell_angle_beta 41.042326
_cell_angle_gamma 90.000000
_cell_volume 2270.586259
_symmetry_space_group_name_H-M "C 2/M"
_symmetry_group_IT_number 12
_symmetry_cell_setting 'monoclinic'
loop_
_space_group_symop_operation_xyz
x,y,z
-x,y,-z
-x,-y,-z
x,-y,z
1/2+x,1/2+y,z
1/2-x,1/2+y,-z
1/2-x,1/2-y,-z
1/2+x,1/2-y,z
loop_
_atom_site_type_symbol
_atom_site_label
_atom_site_fract_x
_atom_site_fract_y
_atom_site_fract_z
Si Si1 0.892008 0.710910 0.505351
Si Si2 0.878060 0.703276 0.843563
Si Si3 0.107846 0.712668 0.995925
Si Si4 0.551551 0.217039 0.854565
Si Si5 0.595604 0.713409 0.604727
Si Si6 0.843683 0.798176 0.756688
O O1 0.886049 0.500000 0.514599
O O2 0.739199 0.778461 0.566390
O O3 0.927884 0.742626 0.438738
O O4 0.000000 0.777969 0.500000
O O5 0.903301 0.500000 0.822098
O O6 0.747203 0.712521 0.925634
O O7 0.859245 0.800500 0.804245
O O8 0.995767 0.771845 0.828392
O O9 0.121911 0.500000 0.991738
O O10 0.000000 0.755165 0.000000
O O11 0.047632 0.773815 0.066846
O O12 0.699934 0.281837 0.803850
O O13 0.550751 0.000000 0.856794
O O14 0.601353 0.500000 0.605676
O O15 0.472314 0.779949 0.682395
O O16 0.835631 0.000000 0.743151
#
# Coordination Sequence:
#
# PCOD9176237 Si02
#       6
#     8   8   8   8   8   8
#     4   9  18  34  55  80 111 140 166 207 261 305
#     4  11  22  34  51  78 106 130 168 221 270 302
#     4  10  18  34  58  74  94 137 180 209 258 316
#     4   9  19  35  53  73 100 136 172 213 262 311
#     4   9  19  34  55  80 103 137 179 213 244 298
#     4  10  20  38  56  72 103 142 178 208 249 314
#
# _framework density 21.139914999999998
#
# number of rings (size 3 to 8) (size 9 to 14) (size 15 to 20)
#    0.000    2.333    1.667    1.000    0.000    2.667 
#    0.000    2.500    0.000    0.000    0.000    0.000 
#    0.000    0.000    0.000    0.000    0.000    0.000 
#
# Total GULP energy -133937.503625 kJ/mol
# GULP energy per Si atom -5580.729318 kJ/mol
# Density = 2.109180 g / cm^3
# Si number density = 21.139915 Si / 1000 Ang^3
#
#
#
# Elastic Constant Matrix: (Units=GPa)
#
#
# Indices 1 2 3 4 5 6 
#
# 1 162.2446 -1.5452 74.3142 -0.0010 15.4275 -0.0012
# 2 -1.5452 41.6043 -5.1288 -0.0031 11.9631 0.0038
# 3 74.3142 -5.1288 154.5534 0.0002 -17.2073 0.0000
# 4 -0.0010 -0.0031 0.0002 10.6742 0.0007 9.8689
# 5 15.4275 11.9631 -17.2073 0.0007 -61.1533 -0.0006
# 6 -0.0012 0.0038 0.0000 9.8689 -0.0006 7.0670
#
#
#
# Elastic Compliance Matrix: (Units=1/GPa)
#
#
# Indices 1 2 3 4 5 6 
#
# 1 0.007419 -0.000887 -0.003304 0.000005 0.002628 -0.000005
# 2 -0.000887 0.023099 0.001621 -0.000061 0.003839 0.000073
# 3 -0.003304 0.001621 0.007811 -0.000006 -0.002714 0.000006
# 4 0.000005 -0.000061 -0.000006 -0.321809 -0.000017 0.449397
# 5 0.002628 0.003839 -0.002714 -0.000017 -0.014175 0.000021
# 6 -0.000005 0.000073 0.000006 0.449397 0.000021 -0.486067
#
#
# Mechanical properties :
#
#
# Convention : Reuss Voigt Hill
#
# Bulk Modulus (GPa) = 30.13267 54.85364 42.49315
# Shear Modulus (GPa) = -6.51450 10.70173 2.09361
#
# Velocity S-wave (km/s) = -1.75736 2.25240 0.99625
# Velocity P-wave (km/s) = 3.18859 5.72439 4.63335
#
# Compressibility (1/GPa) = 0.03318657
#
# Stress axis : x y z
#
# Youngs Moduli (GPa) = 134.79670 43.29202 128.03267
#
# Poissons Ratio (x) = 0.03841 0.42302
# Poissons Ratio (y) = 0.11961 -0.20749
# Poissons Ratio (z) = 0.44537 -0.07016
#
# Static dielectric constant tensor:
#      x y z
#    x 1.747000 0.000000 -0.030050 
#    y 0.000000 1.814680 0.000000 
#    z -0.030050 0.000000 1.747110 
# 
# From -- ./inp_files/308576.got.cif
#   From: 2010.05.17/outbox.cif.g08.bks.cpg/sg12_155_cif.got.tgz:308576.got - 2010.06.03 13:09:07.
