data_PCOD9176582
_publ_section_title
;
Structure prediction by ZEFSAII (Michael W. Deem and Ramdas Pophale) SiO2 
 PCOD9176582
Probable space group: C 2/M
;
_chemical_formula_sum "Si O2"
_cell_formula_units_Z 44
_cell_length_a 8.114578
_cell_length_b 24.887735
_cell_length_c 10.854689
_cell_angle_alpha 90.000000
_cell_angle_beta 109.900497
_cell_angle_gamma 90.000000
_cell_volume 2061.238694
_symmetry_space_group_name_H-M "C 2/M"
_symmetry_group_IT_number 12
_symmetry_cell_setting 'monoclinic'
loop_
_space_group_symop_operation_xyz
x,y,z
-x,y,-z
-x,-y,-z
x,-y,z
1/2+x,1/2+y,z
1/2-x,1/2+y,-z
1/2-x,1/2-y,-z
1/2+x,1/2-y,z
loop_
_atom_site_type_symbol
_atom_site_label
_atom_site_fract_x
_atom_site_fract_y
_atom_site_fract_z
Si Si1 0.239244 0.674740 0.809563
Si Si2 0.168608 0.407810 0.608820
Si Si3 0.603199 0.208018 0.157254
Si Si4 0.459908 0.000000 0.240949
Si Si5 0.825524 0.000000 0.040010
Si Si6 0.714054 0.113346 0.058143
Si Si7 0.703597 0.500000 0.538447
O O1 0.278886 0.637117 0.704512
O O2 0.327095 0.732243 0.814279
O O3 0.033133 0.689063 0.774638
O O4 0.275258 0.640939 0.944722
O O5 0.103071 0.447586 0.700678
O O6 0.250480 0.447579 0.530464
O O7 0.000000 0.382604 0.500000
O O8 0.738271 0.159464 0.167111
O O9 0.500000 0.210435 0.000000
O O10 0.351830 0.000000 0.088509
O O11 0.669484 0.000000 0.309892
O O12 0.812681 0.942619 0.104059
O O13 0.000000 0.000000 0.000000
O O14 0.500000 0.102848 0.000000
O O15 0.500000 0.500000 0.500000
#
# Coordination Sequence:
#
# PCOD9176582 Si02
#       7
#     8   8   8   4   4   8   4
#     4  10  18  35  58  79 111 148 209 231 297 347
#     4   9  18  36  62  81 112 156 185 238 313 356
#     4   9  19  34  55  79 110 160 198 240 286 347
#     4   9  18  38  57  83 121 155 179 238 303 351
#     4  12  22  32  55  88 122 154 197 237 285 357
#     4   9  19  35  53  75 119 159 198 236 295 342
#     4   9  19  38  67  91 113 146 205 249 297 363
#
# _framework density 21.346388000000001
#
# number of rings (size 3 to 8) (size 9 to 14) (size 15 to 20)
#    0.000    2.909    1.818    3.545    0.000    2.182 
#    0.000    8.182    4.000    0.000    0.000    0.000 
#    0.000    0.000    0.000    0.000    0.000    0.000 
#
# Total GULP energy -122665.427316 kJ/mol
# GULP energy per Si atom -5575.701242 kJ/mol
# Density = 2.129780 g / cm^3
# Si number density = 21.346388 Si / 1000 Ang^3
#
#
#
# Elastic Constant Matrix: (Units=GPa)
#
#
# Indices 1 2 3 4 5 6 
#
# 1 63.0886 31.9161 14.5770 0.0000 8.2678 0.0000
# 2 31.9161 175.4122 17.7332 0.0000 1.3128 0.0000
# 3 14.5770 17.7332 34.9984 0.0000 -0.7371 0.0000
# 4 0.0000 0.0000 0.0000 23.6379 0.0000 14.2940
# 5 8.2678 1.3128 -0.7371 0.0000 13.2659 0.0000
# 6 0.0000 0.0000 0.0000 14.2940 0.0000 20.8488
#
#
#
# Elastic Compliance Matrix: (Units=1/GPa)
#
#
# Indices 1 2 3 4 5 6 
#
# 1 0.020763 -0.002928 -0.007439 0.000000 -0.013064 0.000000
# 2 -0.002928 0.006429 -0.002015 0.000000 0.001077 0.000000
# 3 -0.007439 -0.002015 0.032833 0.000000 0.006660 0.000000
# 4 0.000000 0.000000 0.000000 0.072265 0.000000 -0.049545
# 5 -0.013064 0.001077 0.006660 0.000000 0.083786 0.000000
# 6 0.000000 0.000000 0.000000 -0.049545 0.000000 0.081933
#
#
# Mechanical properties :
#
#
# Convention : Reuss Voigt Hill
#
# Bulk Modulus (GPa) = 28.36131 44.66133 36.51132
# Shear Modulus (GPa) = 14.94644 25.50205 20.22425
#
# Velocity S-wave (km/s) = 2.64897 3.46016 3.08138
# Velocity P-wave (km/s) = 4.76142 6.07711 5.45905
#
# Compressibility (1/GPa) = 0.03525930
#
# Stress axis : x y z
#
# Youngs Moduli (GPa) = 48.16288 155.53821 30.45739
#
# Poissons Ratio (x) = 0.45541 0.22658
# Poissons Ratio (y) = 0.14102 0.06139
# Poissons Ratio (z) = 0.35830 0.31348
#
# Static dielectric constant tensor:
#      x y z
#    x 1.833800 0.000000 0.017600 
#    y 0.000000 1.788220 0.000000 
#    z 0.017600 0.000000 1.800200 
# 
# From -- ./inp_files/122693.got.cif
#   From: 2010.05.17/outbox.cif.g08.bks.cpg/sg12_62_cif.got.tgz:122693.got - 2010.06.03 13:09:07.
