data_PCOD9176226
_publ_section_title
;
Structure prediction by ZEFSAII (Michael W. Deem and Ramdas Pophale) SiO2 
 PCOD9176226
Probable space group: C 2/M
;
_chemical_formula_sum "Si O2"
_cell_formula_units_Z 56
_cell_length_a 9.832170
_cell_length_b 31.615112
_cell_length_c 24.626345
_cell_angle_alpha 90.000000
_cell_angle_beta 154.705980
_cell_angle_gamma 90.000000
_cell_volume 3270.693578
_symmetry_space_group_name_H-M "C 2/M"
_symmetry_group_IT_number 12
_symmetry_cell_setting 'monoclinic'
loop_
_space_group_symop_operation_xyz
x,y,z
-x,y,-z
-x,-y,-z
x,-y,z
1/2+x,1/2+y,z
1/2-x,1/2+y,-z
1/2-x,1/2-y,-z
1/2+x,1/2-y,z
loop_
_atom_site_type_symbol
_atom_site_label
_atom_site_fract_x
_atom_site_fract_y
_atom_site_fract_z
Si Si1 0.190707 0.346180 0.925203
Si Si2 0.740164 0.000000 0.953993
Si Si3 0.760758 0.925407 0.245210
Si Si4 0.873386 0.000000 0.122755
Si Si5 0.132212 0.838611 0.885589
Si Si6 0.132584 0.949290 0.487172
Si Si7 0.170430 0.082202 0.285816
Si Si8 0.658873 0.246390 0.904689
O O1 0.026881 0.300879 0.851715
O O2 0.929122 0.381731 0.822915
O O3 0.500000 0.352910 0.000000
O O4 0.332948 0.346969 0.037622
O O5 0.502465 0.960139 0.866600
O O6 0.000000 0.000000 0.000000
O O7 0.926284 0.000000 0.077712
O O8 0.890087 0.938287 0.351035
O O9 0.039764 0.921623 0.300513
O O10 0.014561 0.042237 0.199224
O O11 0.500000 0.000000 0.000000
O O12 0.998901 0.790607 0.829646
O O13 0.950795 0.874660 0.786541
O O14 0.500000 0.838526 0.000000
O O15 0.454692 0.924378 0.588166
O O16 0.000000 0.939505 0.500000
O O17 0.195762 0.000000 0.508699
O O18 0.750000 0.250000 0.000000
O O19 0.000000 0.244772 0.000000
#
# Coordination Sequence:
#
# PCOD9176226 Si02
#       8
#     8   4   8   4   8   8   8   8
#     4  10  20  33  55  89 121 151 184 231 286 338
#     4  12  26  35  56  87 121 150 177 232 292 336
#     4  12  23  40  58  82 115 151 197 234 276 339
#     4  12  22  37  56  87 119 144 181 224 292 346
#     4  10  18  34  57  87 121 148 186 227 286 346
#     4  11  27  45  61  78 105 153 202 243 285 329
#     4  12  23  38  61  82 113 153 192 237 276 341
#     4   8  16  30  51  81 119 153 180 220 276 345
#
# _framework density 17.121749999999999
#
# number of rings (size 3 to 8) (size 9 to 14) (size 15 to 20)
#    0.000    1.286    4.286    2.143    4.000    0.571 
#    0.000    0.000    0.000    0.857    0.000    0.000 
#    0.000    0.000    0.000    0.000    0.000    0.000 
#
# Total GULP energy -156079.381068 kJ/mol
# GULP energy per Si atom -5574.263610 kJ/mol
# Density = 1.708278 g / cm^3
# Si number density = 17.121750 Si / 1000 Ang^3
#
#
#
# Elastic Constant Matrix: (Units=GPa)
#
#
# Indices 1 2 3 4 5 6 
#
# 1 153.6121 25.9230 23.3845 0.0356 -12.3416 0.0150
# 2 25.9230 149.8949 30.9015 0.0471 0.1268 0.0202
# 3 23.3845 30.9015 45.3255 0.0551 -5.4418 0.0264
# 4 0.0356 0.0471 0.0551 -26.5361 0.0129 -16.8843
# 5 -12.3416 0.1268 -5.4418 0.0129 29.2290 0.0081
# 6 0.0150 0.0202 0.0264 -16.8843 0.0081 15.0107
#
#
#
# Elastic Compliance Matrix: (Units=1/GPa)
#
#
# Indices 1 2 3 4 5 6 
#
# 1 0.007279 -0.000639 -0.003018 0.000003 0.002514 0.000001
# 2 -0.000639 0.007850 -0.005174 0.000001 -0.001267 0.000001
# 3 -0.003018 -0.005174 0.027614 0.000042 0.003889 0.000006
# 4 0.000003 0.000001 0.000042 -0.021965 0.000026 -0.024706
# 5 0.002514 -0.001267 0.003889 0.000026 0.036004 0.000002
# 6 0.000001 0.000001 0.000006 -0.024706 0.000002 0.038829
#
#
# Mechanical properties :
#
#
# Convention : Reuss Voigt Hill
#
# Bulk Modulus (GPa) = 39.87108 56.58338 48.22723
# Shear Modulus (GPa) = 41.10695 21.44896 31.27796
#
# Velocity S-wave (km/s) = 4.90517 3.54323 4.27874
# Velocity P-wave (km/s) = 7.44435 7.06107 7.25524
#
# Compressibility (1/GPa) = 0.02508084
#
# Stress axis : x y z
#
# Youngs Moduli (GPa) = 137.37833 127.39569 36.21325
#
# Poissons Ratio (x) = 0.08138 0.10930
# Poissons Ratio (y) = 0.08776 0.18737
# Poissons Ratio (z) = 0.41462 0.65916
#
# Static dielectric constant tensor:
#      x y z
#    x 1.677620 0.000060 -0.026150 
#    y 0.000060 1.626930 -0.000020 
#    z -0.026150 -0.000020 1.554300 
# 
# From -- ./inp_files/125667.got.cif
#   From: 2010.05.17/outbox.cif.g08.bks.cpg/sg12_63_cif.got.tgz:125667.got - 2010.06.03 13:09:07.
