data_PCOD9176463
_publ_section_title
;
Structure prediction by ZEFSAII (Michael W. Deem and Ramdas Pophale) SiO2 
 PCOD9176463
Probable space group: C 2/M
;
_chemical_formula_sum "Si O2"
_cell_formula_units_Z 32
_cell_length_a 28.698654
_cell_length_b 7.648078
_cell_length_c 11.847711
_cell_angle_alpha 90.000000
_cell_angle_beta 32.981501
_cell_angle_gamma 90.000000
_cell_volume 1415.601640
_symmetry_space_group_name_H-M "C 2/M"
_symmetry_group_IT_number 12
_symmetry_cell_setting 'monoclinic'
loop_
_space_group_symop_operation_xyz
x,y,z
-x,y,-z
-x,-y,-z
x,-y,z
1/2+x,1/2+y,z
1/2-x,1/2+y,-z
1/2-x,1/2-y,-z
1/2+x,1/2-y,z
loop_
_atom_site_type_symbol
_atom_site_label
_atom_site_fract_x
_atom_site_fract_y
_atom_site_fract_z
Si Si1 0.384330 0.805325 0.684455
Si Si2 0.700565 0.204794 0.486035
Si Si3 0.213009 0.710334 0.916512
Si Si4 0.946808 0.000000 0.224842
Si Si5 0.014037 0.000000 0.610031
O O1 0.289224 0.805266 0.827392
O O2 0.432564 0.679388 0.503553
O O3 0.418263 0.000000 0.614573
O O4 0.372639 0.741638 0.839096
O O5 0.750000 0.250000 0.500000
O O6 0.770018 0.240425 0.245703
O O7 0.619007 0.333732 0.638974
O O8 0.676101 0.000000 0.532119
O O9 0.221133 0.500000 0.911824
O O10 0.010309 0.000000 0.206162
O O11 0.000000 0.000000 0.000000
O O12 0.000000 0.000000 0.500000
#
# Coordination Sequence:
#
# PCOD9176463 Si02
#       5
#     8   8   8   4   4
#     4  10  20  35  61  94 126 162 210 273 336 395
#     4  12  23  41  71 102 134 180 237 295 348 416
#     4  10  18  34  62  98 129 156 205 275 348 398
#     4  12  28  50  66 100 149 192 235 290 353 424
#     4  12  26  44  64  94 138 186 231 270 342 426
#
# _framework density 22.605228
#
# number of rings (size 3 to 8) (size 9 to 14) (size 15 to 20)
#    0.000    1.000    6.250    0.750    3.500    3.000 
#    0.000    0.000    0.000    0.000    0.000    0.000 
#    0.000    0.000    0.000    0.000    0.000    0.000 
#
# Total GULP energy -89093.114561 kJ/mol
# GULP energy per Si atom -5568.319660 kJ/mol
# Density = 2.255378 g / cm^3
# Si number density = 22.605228 Si / 1000 Ang^3
#
#
#
# Elastic Constant Matrix: (Units=GPa)
#
#
# Indices 1 2 3 4 5 6 
#
# 1 137.4996 10.3488 40.5102 0.0000 48.4492 0.0000
# 2 10.3488 117.5423 38.5625 -0.0001 12.3473 0.0001
# 3 40.5102 38.5625 104.0635 0.0000 45.7727 0.0000
# 4 0.0000 -0.0001 0.0000 -70.5127 0.0000 34.0329
# 5 48.4492 12.3473 45.7727 0.0000 55.1458 0.0000
# 6 0.0000 0.0001 0.0000 34.0329 0.0000 10.6258
#
#
#
# Elastic Compliance Matrix: (Units=1/GPa)
#
#
# Indices 1 2 3 4 5 6 
#
# 1 0.010534 0.000064 -0.000075 0.000000 -0.009207 0.000000
# 2 0.000064 0.009743 -0.004175 0.000000 0.001228 0.000000
# 3 -0.000075 -0.004175 0.016925 0.000000 -0.013048 0.000000
# 4 0.000000 0.000000 0.000000 -0.005571 0.000000 0.017842
# 5 -0.009207 0.001228 -0.013048 0.000000 0.036778 0.000000
# 6 0.000000 0.000000 0.000000 0.017842 0.000000 0.036966
#
#
# Mechanical properties :
#
#
# Convention : Reuss Voigt Hill
#
# Bulk Modulus (GPa) = 34.68592 59.77204 47.22898
# Shear Modulus (GPa) = 40.53255 17.03069 28.78162
#
# Velocity S-wave (km/s) = 4.23905 2.74778 3.57210
# Velocity P-wave (km/s) = 6.27191 6.04700 6.16048
#
# Compressibility (1/GPa) = 0.02883014
#
# Stress axis : x y z
#
# Youngs Moduli (GPa) = 94.92863 102.64004 59.08439
#
# Poissons Ratio (x) = -0.00659 0.00441
# Poissons Ratio (y) = -0.00610 0.24670
# Poissons Ratio (z) = 0.00709 0.42857
#
# Static dielectric constant tensor:
#      x y z
#    x 1.957900 0.000000 0.007300 
#    y 0.000000 1.780310 0.000000 
#    z 0.007300 0.000000 1.965210 
# 
# From -- ./inp_files/187117.got.cif
#   From: 2010.05.17/outbox.cif.g08.bks.cpg/sg12_94_cif.got.tgz:187117.got - 2010.06.03 13:09:07.
