data_PCOD9176392
_publ_section_title
;
Structure prediction by ZEFSAII (Michael W. Deem and Ramdas Pophale) SiO2 
 PCOD9176392
Probable space group: C 2/M
;
_chemical_formula_sum "Si O2"
_cell_formula_units_Z 48
_cell_length_a 27.100761
_cell_length_b 23.868577
_cell_length_c 11.685733
_cell_angle_alpha 90.000000
_cell_angle_beta 19.764325
_cell_angle_gamma 90.000000
_cell_volume 2556.088920
_symmetry_space_group_name_H-M "C 2/M"
_symmetry_group_IT_number 12
_symmetry_cell_setting 'monoclinic'
loop_
_space_group_symop_operation_xyz
x,y,z
-x,y,-z
-x,-y,-z
x,-y,z
1/2+x,1/2+y,z
1/2-x,1/2+y,-z
1/2-x,1/2-y,-z
1/2+x,1/2-y,z
loop_
_atom_site_type_symbol
_atom_site_label
_atom_site_fract_x
_atom_site_fract_y
_atom_site_fract_z
Si Si1 0.107648 0.500000 0.376685
Si Si2 0.827418 0.384394 0.846918
Si Si3 0.141229 0.375260 0.608491
Si Si4 0.586460 0.000000 0.686114
Si Si5 0.594583 0.204727 0.493612
Si Si6 0.740639 0.183425 0.805816
Si Si7 0.671106 0.308010 0.639693
O O1 0.199119 0.442717 0.159604
O O2 0.031914 0.500000 0.669142
O O3 0.000000 0.500000 0.500000
O O4 0.810650 0.329497 0.805374
O O5 0.000000 0.386051 0.500000
O O6 0.746006 0.370491 0.142063
O O7 0.162779 0.439536 0.525089
O O8 0.105744 0.333696 0.582072
O O9 0.281755 0.351746 0.367021
O O10 0.000000 0.372677 0.000000
O O11 0.500000 0.000000 0.000000
O O12 0.654091 0.266195 0.387406
O O13 0.426169 0.205316 0.822776
O O14 0.770236 0.170581 0.609543
O O15 0.750000 0.250000 0.500000
O O16 0.500000 0.298426 0.000000
#
# Coordination Sequence:
#
# PCOD9176392 Si02
#       7
#     4   8   8   4   8   8   8
#     4  10  18  34  60  88 119 161 204 255 310 353
#     4   9  20  34  54  83 117 152 194 247 296 353
#     4  11  21  37  59  89 120 153 198 250 301 363
#     4  10  22  36  63  92 124 161 206 259 312 361
#     4  11  20  35  56  83 120 151 191 244 289 360
#     4  11  22  35  55  86 120 153 196 240 304 357
#     4  12  23  37  59  89 120 159 197 248 308 370
#
# _framework density 18.778690000000001
#
# number of rings (size 3 to 8) (size 9 to 14) (size 15 to 20)
#    0.000    1.333    5.000    2.000    0.000    0.000 
#    0.000    0.417    0.000    0.000    0.000    2.333 
#    0.000    0.000    0.000    0.000    0.000    0.000 
#
# Total GULP energy -133724.748049 kJ/mol
# GULP energy per Si atom -5571.864502 kJ/mol
# Density = 1.873595 g / cm^3
# Si number density = 18.778690 Si / 1000 Ang^3
#
#
#
# Elastic Constant Matrix: (Units=GPa)
#
#
# Indices 1 2 3 4 5 6 
#
# 1 92.0966 24.6793 22.3212 -0.0012 15.1457 0.0009
# 2 24.6793 89.5789 13.1091 -0.0002 -2.0440 0.0007
# 3 22.3212 13.1091 52.8498 -0.0051 -6.3268 0.0022
# 4 -0.0012 -0.0002 -0.0051 10.9162 -0.0002 7.6445
# 5 15.1457 -2.0440 -6.3268 -0.0002 37.3225 -0.0009
# 6 0.0009 0.0007 0.0022 7.6445 -0.0009 24.8155
#
#
#
# Elastic Compliance Matrix: (Units=1/GPa)
#
#
# Indices 1 2 3 4 5 6 
#
# 1 0.014360 -0.003223 -0.006108 -0.000002 -0.007039 0.000000
# 2 -0.003223 0.012308 -0.001485 -0.000001 0.001730 0.000000
# 3 -0.006108 -0.001485 0.022616 0.000014 0.006231 -0.000006
# 4 -0.000002 -0.000001 0.000014 0.116805 0.000003 -0.035982
# 5 -0.007039 0.001730 0.006231 0.000003 0.030801 0.000000
# 6 0.000000 0.000000 -0.000006 -0.035982 0.000000 0.051382
#
#
# Mechanical properties :
#
#
# Convention : Reuss Voigt Hill
#
# Bulk Modulus (GPa) = 36.16370 39.41606 37.78988
# Shear Modulus (GPa) = 17.91344 26.23856 22.07600
#
# Velocity S-wave (km/s) = 3.09192 3.74204 3.43240
# Velocity P-wave (km/s) = 5.66094 6.30126 5.98966
#
# Compressibility (1/GPa) = 0.02765204
#
# Stress axis : x y z
#
# Youngs Moduli (GPa) = 69.63839 81.24789 44.21733
#
# Poissons Ratio (x) = 0.26186 0.27009
# Poissons Ratio (y) = 0.22444 0.06564
# Poissons Ratio (z) = 0.42536 0.12062
#
# Static dielectric constant tensor:
#      x y z
#    x 1.793330 0.000000 0.047560 
#    y 0.000000 1.656250 0.000000 
#    z 0.047560 0.000000 1.657160 
# 
# From -- ./inp_files/178623.got.cif
#   From: 2010.05.17/outbox.cif.g08.bks.cpg/sg12_90_cif.got.tgz:178623.got - 2010.06.03 13:09:07.
