data_PCOD9176652
_publ_section_title
;
Structure prediction by ZEFSAII (Michael W. Deem and Ramdas Pophale) SiO2 
 PCOD9176652
Probable space group: C 2/M
;
_chemical_formula_sum "Si O2"
_cell_formula_units_Z 40
_cell_length_a 17.396269
_cell_length_b 10.267803
_cell_length_c 18.755140
_cell_angle_alpha 90.000000
_cell_angle_beta 34.031759
_cell_angle_gamma 90.000000
_cell_volume 1874.874862
_symmetry_space_group_name_H-M "C 2/M"
_symmetry_group_IT_number 12
_symmetry_cell_setting 'monoclinic'
loop_
_space_group_symop_operation_xyz
x,y,z
-x,y,-z
-x,-y,-z
x,-y,z
1/2+x,1/2+y,z
1/2-x,1/2+y,-z
1/2-x,1/2-y,-z
1/2+x,1/2-y,z
loop_
_atom_site_type_symbol
_atom_site_label
_atom_site_fract_x
_atom_site_fract_y
_atom_site_fract_z
Si Si1 0.057505 0.649304 0.651210
Si Si2 0.609310 0.364001 0.138028
Si Si3 0.681988 0.149011 0.799613
Si Si4 0.126875 0.722036 0.991576
Si Si5 0.167842 0.147966 0.462676
O O1 0.013126 0.500000 0.673459
O O2 0.076850 0.736612 0.565290
O O3 0.200678 0.642492 0.585304
O O4 0.960606 0.737350 0.774987
O O5 0.540848 0.500000 0.212546
O O6 0.607781 0.349122 0.054290
O O7 0.763696 0.360473 0.048038
O O8 0.522282 0.156948 0.899429
O O9 0.776368 0.179067 0.659354
O O10 0.711255 0.000000 0.799323
O O11 0.688316 0.236713 0.865287
O O12 0.108225 0.000000 0.507058
#
# Coordination Sequence:
#
# PCOD9176652 Si02
#       5
#     8   8   8   8   8
#     4  10  20  35  57  82 110 147 188 231 277 329
#     4  11  22  36  56  85 118 150 183 227 278 336
#     4  10  18  35  60  84 110 145 188 234 274 325
#     4  10  21  35  56  84 113 147 186 229 276 327
#     4   9  18  34  57  84 108 139 186 237 279 322
#
# _framework density 21.334758000000001
#
# number of rings (size 3 to 8) (size 9 to 14) (size 15 to 20)
#    0.000    2.000    2.000    3.000    0.000    4.800 
#    0.000    4.000    0.000    4.800    0.000    0.000 
#    0.000    0.000    0.000    0.000    0.000    0.000 
#
# Total GULP energy -111547.343087 kJ/mol
# GULP energy per Si atom -5577.367154 kJ/mol
# Density = 2.128620 g / cm^3
# Si number density = 21.334758 Si / 1000 Ang^3
#
#
#
# Elastic Constant Matrix: (Units=GPa)
#
#
# Indices 1 2 3 4 5 6 
#
# 1 53.8802 24.0548 31.1494 0.0000 25.8884 0.0000
# 2 24.0548 168.5534 78.3596 0.0000 20.4688 0.0000
# 3 31.1494 78.3596 109.3616 0.0000 51.9374 0.0000
# 4 0.0000 0.0000 0.0000 44.6148 0.0000 -63.2127
# 5 25.8884 20.4688 51.9374 0.0000 38.8349 0.0000
# 6 0.0000 0.0000 0.0000 -63.2127 0.0000 282.1581
#
#
#
# Elastic Compliance Matrix: (Units=1/GPa)
#
#
# Indices 1 2 3 4 5 6 
#
# 1 0.029464 -0.004724 0.008601 0.000000 -0.028655 0.000000
# 2 -0.004724 0.011554 -0.015175 0.000000 0.017354 0.000000
# 3 0.008601 -0.015175 0.045201 0.000000 -0.058187 0.000000
# 4 0.000000 0.000000 0.000000 0.032837 0.000000 0.007357
# 5 -0.028655 0.017354 -0.058187 0.000000 0.113524 0.000000
# 6 0.000000 0.000000 0.000000 0.007357 0.000000 0.005192
#
#
# Mechanical properties :
#
#
# Convention : Reuss Voigt Hill
#
# Bulk Modulus (GPa) = 15.71737 66.54697 41.13217
# Shear Modulus (GPa) = 17.75708 86.33698 52.04703
#
# Velocity S-wave (km/s) = 2.88810 6.36833 4.94453
# Velocity P-wave (km/s) = 4.30169 9.23762 7.20549
#
# Compressibility (1/GPa) = 0.06362389
#
# Stress axis : x y z
#
# Youngs Moduli (GPa) = 33.93945 86.54724 22.12320
#
# Poissons Ratio (x) = 0.40882 -0.19028
# Poissons Ratio (y) = 0.16032 0.33572
# Poissons Ratio (z) = -0.29190 1.31337
#
# Static dielectric constant tensor:
#      x y z
#    x 1.781270 0.000000 0.010390 
#    y 0.000000 1.784090 0.000000 
#    z 0.010390 0.000000 1.807650 
# 
# From -- ./inp_files/318956.got.cif
#   From: 2010.05.17/outbox.cif.g08.bks.cpg/sg12_160_cif.got.tgz:318956.got - 2010.06.03 13:09:07.
