data_PCOD9176219
_publ_section_title
;
Structure prediction by ZEFSAII (Michael W. Deem and Ramdas Pophale) SiO2 
 PCOD9176219
Probable space group: C 2/M
;
_chemical_formula_sum "Si O2"
_cell_formula_units_Z 56
_cell_length_a 31.689291
_cell_length_b 11.072672
_cell_length_c 26.405713
_cell_angle_alpha 90.000000
_cell_angle_beta 162.110830
_cell_angle_gamma 90.000000
_cell_volume 2846.106764
_symmetry_space_group_name_H-M "C 2/M"
_symmetry_group_IT_number 12
_symmetry_cell_setting 'monoclinic'
loop_
_space_group_symop_operation_xyz
x,y,z
-x,y,-z
-x,-y,-z
x,-y,z
1/2+x,1/2+y,z
1/2-x,1/2+y,-z
1/2-x,1/2-y,-z
1/2+x,1/2-y,z
loop_
_atom_site_type_symbol
_atom_site_label
_atom_site_fract_x
_atom_site_fract_y
_atom_site_fract_z
Si Si1 0.425351 0.642639 0.781604
Si Si2 0.186933 0.236487 0.564060
Si Si3 0.941010 0.364091 0.340955
Si Si4 0.216136 0.146337 0.165562
Si Si5 0.096446 0.863771 0.352574
Si Si6 0.772414 0.870969 0.994747
Si Si7 0.336860 0.131648 0.822129
O O1 0.428667 0.500000 0.777199
O O2 0.311491 0.672370 0.693478
O O3 0.377119 0.696467 0.672220
O O4 0.578555 0.674274 0.975221
O O5 0.131153 0.197737 0.445436
O O6 0.259790 0.134488 0.680404
O O7 0.063211 0.286806 0.456923
O O8 0.994614 0.500000 0.409878
O O9 0.856223 0.330479 0.294295
O O10 0.823222 0.367283 0.163488
O O11 0.208408 0.246034 0.200817
O O12 0.211216 0.000000 0.171957
O O13 0.931381 0.873511 0.162271
O O14 0.156332 0.000000 0.422633
O O15 0.741161 0.000000 0.985829
O O16 0.750000 0.750000 0.000000
O O17 0.308701 0.000000 0.814914
O O18 0.500000 0.139608 0.000000
#
# Coordination Sequence:
#
# PCOD9176219 Si02
#       7
#     8   8   8   8   8   8   8
#     4  10  20  36  60  90 121 155 204 258 307 365
#     4  12  22  37  61  91 122 161 208 253 311 361
#     4  10  21  37  62  93 127 158 200 261 312 360
#     4  10  21  42  68  91 118 164 211 251 309 370
#     4  10  20  35  58  87 122 161 203 249 302 369
#     4  10  18  34  57  84 120 162 196 235 298 368
#     4  11  25  45  65  90 126 166 207 257 309 364
#
# _framework density 19.676000999999999
#
# number of rings (size 3 to 8) (size 9 to 14) (size 15 to 20)
#    0.000    1.571    4.286    1.286    0.000    2.000 
#    0.000    4.286    0.000    1.714    0.000    0.000 
#    0.000    0.000    0.000    0.000    0.000    0.000 
#
# Total GULP energy -155958.389861 kJ/mol
# GULP energy per Si atom -5569.942495 kJ/mol
# Density = 1.963122 g / cm^3
# Si number density = 19.676001 Si / 1000 Ang^3
#
#
#
# Elastic Constant Matrix: (Units=GPa)
#
#
# Indices 1 2 3 4 5 6 
#
# 1 92.0271 54.5977 39.1115 -0.0044 9.0032 -0.0004
# 2 54.5977 82.4393 21.6348 -0.0240 -2.0339 -0.0025
# 3 39.1115 21.6348 108.1723 -0.0010 1.8940 -0.0001
# 4 -0.0044 -0.0240 -0.0010-2335.6882 0.0003 -253.2044
# 5 9.0032 -2.0339 1.8940 0.0003 31.1902 0.0002
# 6 -0.0004 -0.0025 -0.0001 -253.2044 0.0002 2.4161
#
#
#
# Elastic Compliance Matrix: (Units=1/GPa)
#
#
# Indices 1 2 3 4 5 6 
#
# 1 0.021363 -0.013000 -0.005007 0.000000 -0.006710 0.000000
# 2 -0.013000 0.020744 0.000463 0.000000 0.005077 0.000000
# 3 -0.005007 0.000463 0.010948 0.000000 0.000811 0.000000
# 4 0.000000 0.000000 0.000000 -0.000035 0.000000 -0.003630
# 5 -0.006710 0.005077 0.000811 0.000000 0.034280 0.000000
# 6 0.000000 0.000000 0.000000 -0.003630 0.000000 0.033484
#
#
# Mechanical properties :
#
#
# Convention : Reuss Voigt Hill
#
# Bulk Modulus (GPa) = 55.65816 57.03628 56.34722
# Shear Modulus (GPa) = 30.89059 -449.26339 -209.18640
#
# Velocity S-wave (km/s) = 3.96657 -15.12701 -10.32213
# Velocity P-wave (km/s) = 7.02332 16.61479 10.64716
#
# Compressibility (1/GPa) = 0.01796682
#
# Stress axis : x y z
#
# Youngs Moduli (GPa) = 46.80905 48.20755 91.34055
#
# Poissons Ratio (x) = 0.62670 0.45732
# Poissons Ratio (y) = 0.60852 -0.04226
# Poissons Ratio (z) = 0.23436 -0.02231
#
# Static dielectric constant tensor:
#      x y z
#    x 1.731530 0.000000 -0.026730 
#    y 0.000000 1.742180 0.000000 
#    z -0.026730 0.000000 1.706700 
# 
# From -- ./inp_files/353985.got.cif
#   From: 2010.05.17/outbox.cif.g08.bks.cpg/sg12_177_cif.got.tgz:353985.got - 2010.06.03 13:09:07.
