data_PCOD9176846
_publ_section_title
;
Structure prediction by ZEFSAII (Michael W. Deem and Ramdas Pophale) SiO2 
 PCOD9176846
Probable space group: C 2/M
;
_chemical_formula_sum "Si O2"
_cell_formula_units_Z 56
_cell_length_a 19.422920
_cell_length_b 15.359839
_cell_length_c 12.114904
_cell_angle_alpha 90.000000
_cell_angle_beta 128.041496
_cell_angle_gamma 90.000000
_cell_volume 2846.475050
_symmetry_space_group_name_H-M "C 2/M"
_symmetry_group_IT_number 12
_symmetry_cell_setting 'monoclinic'
loop_
_space_group_symop_operation_xyz
x,y,z
-x,y,-z
-x,-y,-z
x,-y,z
1/2+x,1/2+y,z
1/2-x,1/2+y,-z
1/2-x,1/2-y,-z
1/2+x,1/2-y,z
loop_
_atom_site_type_symbol
_atom_site_label
_atom_site_fract_x
_atom_site_fract_y
_atom_site_fract_z
Si Si1 0.358510 0.405726 0.591275
Si Si2 0.776443 0.622144 0.355270
Si Si3 0.529311 0.907496 0.403454
Si Si4 0.958204 0.736465 0.754206
Si Si5 0.646868 0.779920 0.992801
Si Si6 0.748328 0.897366 0.929276
Si Si7 0.721139 0.185054 0.304498
O O1 0.397806 0.500000 0.607472
O O2 0.305810 0.408316 0.655054
O O3 0.428796 0.329728 0.678203
O O4 0.284678 0.384104 0.425651
O O5 0.866088 0.588045 0.491420
O O6 0.771658 0.601385 0.221388
O O7 0.774476 0.725505 0.371296
O O8 0.500000 0.897848 0.500000
O O9 0.510137 0.823524 0.314515
O O10 0.493427 0.000000 0.325234
O O11 0.871551 0.695494 0.724286
O O12 0.044178 0.733966 0.915043
O O13 0.671464 0.852503 0.925185
O O14 0.680133 0.682163 0.991582
O O15 0.696817 0.814892 0.151372
O O16 0.766127 0.000000 0.977803
#
# Coordination Sequence:
#
# PCOD9176846 Si02
#       7
#     8   8   8   8   8   8   8
#     4  11  21  36  62  89 118 159 198 240 296 355
#     4  10  18  36  58  84 110 144 196 245 285 336
#     4  11  21  32  54  84 112 142 183 243 296 333
#     4  11  21  38  57  89 118 149 195 249 295 344
#     4  10  23  38  60  86 118 157 196 243 293 353
#     4  10  21  39  61  84 114 156 198 238 293 351
#     4  10  20  38  59  83 118 160 194 235 292 357
#
# _framework density 19.673456000000002
#
# number of rings (size 3 to 8) (size 9 to 14) (size 15 to 20)
#    0.000    1.571    2.857    3.429    0.000    2.857 
#    0.000    0.000    0.000    8.143    0.000    0.000 
#    0.000    0.000    0.000    0.000    0.000    0.000 
#
# Total GULP energy -155940.713629 kJ/mol
# GULP energy per Si atom -5569.311201 kJ/mol
# Density = 1.962868 g / cm^3
# Si number density = 19.673456 Si / 1000 Ang^3
#
#
#
# Elastic Constant Matrix: (Units=GPa)
#
#
# Indices 1 2 3 4 5 6 
#
# 1 62.2831 32.4496 28.8540 0.0000 -9.9758 0.0000
# 2 32.4496 128.6455 35.0065 0.0000 -24.7020 0.0000
# 3 28.8540 35.0065 63.1029 0.0000 -1.6093 0.0000
# 4 0.0000 0.0000 0.0000 -5.8345 0.0000 -13.4367
# 5 -9.9758 -24.7020 -1.6093 0.0000 16.3920 0.0000
# 6 0.0000 0.0000 0.0000 -13.4367 0.0000 25.1384
#
#
#
# Elastic Compliance Matrix: (Units=1/GPa)
#
#
# Indices 1 2 3 4 5 6 
#
# 1 0.022858 -0.000916 -0.009648 0.000000 0.011583 0.000000
# 2 -0.000916 0.013449 -0.006556 0.000000 0.019067 0.000000
# 3 -0.009648 -0.006556 0.023553 0.000000 -0.013439 0.000000
# 4 0.000000 0.000000 0.000000 -0.076826 0.000000 -0.041064
# 5 0.011583 0.019067 -0.013439 0.000000 0.095468 0.000000
# 6 0.000000 0.000000 0.000000 -0.041064 0.000000 0.017831
#
#
# Mechanical properties :
#
#
# Convention : Reuss Voigt Hill
#
# Bulk Modulus (GPa) = 39.03233 49.62796 44.33014
# Shear Modulus (GPa) = 35.94160 17.65394 26.79777
#
# Velocity S-wave (km/s) = 4.27887 2.99883 3.69471
# Velocity P-wave (km/s) = 6.65544 6.10502 6.38616
#
# Compressibility (1/GPa) = 0.02561979
#
# Stress axis : x y z
#
# Youngs Moduli (GPa) = 43.74819 74.35242 42.45724
#
# Poissons Ratio (x) = 0.06811 0.40964
# Poissons Ratio (y) = 0.04008 0.27835
# Poissons Ratio (z) = 0.42210 0.48745
#
# Static dielectric constant tensor:
#      x y z
#    x 1.697500 0.000000 0.006640 
#    y 0.000000 1.732280 0.000000 
#    z 0.006640 0.000000 1.722850 
# 
# From -- ./inp_files/156752.got.cif
#   From: 2010.05.17/outbox.cif.g08.bks.cpg/sg12_79_cif.got.tgz:156752.got - 2010.06.03 13:09:07.
