data_PCOD9176524
_publ_section_title
;
Structure prediction by ZEFSAII (Michael W. Deem and Ramdas Pophale) SiO2 
 PCOD9176524
Probable space group: C 2/M
;
_chemical_formula_sum "Si O2"
_cell_formula_units_Z 56
_cell_length_a 13.832838
_cell_length_b 18.885018
_cell_length_c 13.023078
_cell_angle_alpha 90.000000
_cell_angle_beta 112.359683
_cell_angle_gamma 90.000000
_cell_volume 3146.275206
_symmetry_space_group_name_H-M "C 2/M"
_symmetry_group_IT_number 12
_symmetry_cell_setting 'monoclinic'
loop_
_space_group_symop_operation_xyz
x,y,z
-x,y,-z
-x,-y,-z
x,-y,z
1/2+x,1/2+y,z
1/2-x,1/2+y,-z
1/2-x,1/2-y,-z
1/2+x,1/2-y,z
loop_
_atom_site_type_symbol
_atom_site_label
_atom_site_fract_x
_atom_site_fract_y
_atom_site_fract_z
Si Si1 0.418483 0.195648 0.048840
Si Si2 0.893880 0.236837 0.612107
Si Si3 0.224983 0.582389 0.132023
Si Si4 0.584084 0.119568 0.260158
Si Si5 0.434407 0.925899 0.369497
Si Si6 0.877439 0.198496 0.211891
Si Si7 0.690461 0.213507 0.634651
O O1 0.494561 0.148574 0.149047
O O2 0.372073 0.255590 0.104945
O O3 0.500000 0.228917 0.000000
O O4 0.339917 0.139954 0.962961
O O5 0.877235 0.313826 0.657483
O O6 0.799041 0.193228 0.623938
O O7 0.876392 0.249281 0.483870
O O8 0.006683 0.208788 0.693006
O O9 0.221973 0.500000 0.096414
O O10 0.171465 0.585676 0.223357
O O11 0.339291 0.618309 0.182094
O O12 0.519850 0.074082 0.314755
O O13 0.500000 0.923127 0.500000
O O14 0.366271 0.855344 0.342836
O O15 0.373454 0.000000 0.340968
O O16 0.800633 0.233941 0.265276
#
# Coordination Sequence:
#
# PCOD9176524 Si02
#       7
#     8   8   8   8   8   8   8
#     4   9  20  35  58  80 105 136 184 236 274 312
#     4  10  20  33  58  87 110 139 189 225 260 320
#     4  11  23  37  54  81 113 145 181 227 282 324
#     4  10  18  35  54  83 110 140 176 229 275 322
#     4  11  20  31  51  82 115 142 172 219 278 330
#     4  11  20  37  59  82 108 144 187 221 272 329
#     4  11  19  35  58  83 112 145 182 223 268 324
#
# _framework density 17.798825000000001
#
# number of rings (size 3 to 8) (size 9 to 14) (size 15 to 20)
#    0.000    1.571    5.714    1.286    0.000    3.143 
#    0.000    0.714    0.000    2.143    0.000    0.000 
#    0.000    0.000    0.000    0.000    0.000    0.000 
#
# Total GULP energy -155947.972981 kJ/mol
# GULP energy per Si atom -5569.570464 kJ/mol
# Density = 1.775831 g / cm^3
# Si number density = 17.798825 Si / 1000 Ang^3
#
#
#
# Elastic Constant Matrix: (Units=GPa)
#
#
# Indices 1 2 3 4 5 6 
#
# 1 78.2071 37.2454 21.3689 0.0000 -18.5205 0.0000
# 2 37.2454 90.9149 18.5578 0.0000 -7.0076 0.0000
# 3 21.3689 18.5578 74.2410 0.0000 -23.9020 0.0000
# 4 0.0000 0.0000 0.0000 16.2797 0.0000 -2.3786
# 5 -18.5205 -7.0076 -23.9020 0.0000 23.8160 0.0000
# 6 0.0000 0.0000 0.0000 -2.3786 0.0000 14.2808
#
#
#
# Elastic Compliance Matrix: (Units=1/GPa)
#
#
# Indices 1 2 3 4 5 6 
#
# 1 0.019088 -0.006899 0.000526 0.000000 0.013341 0.000000
# 2 -0.006899 0.014093 -0.002850 0.000000 -0.004079 0.000000
# 3 0.000526 -0.002850 0.020524 0.000000 0.020168 0.000000
# 4 0.000000 0.000000 0.000000 0.062958 0.000000 0.010486
# 5 0.013341 -0.004079 0.020168 0.000000 0.071405 0.000000
# 6 0.000000 0.000000 0.000000 0.010486 0.000000 0.071771
#
#
# Mechanical properties :
#
#
# Convention : Reuss Voigt Hill
#
# Bulk Modulus (GPa) = 28.36224 44.18968 36.27596
# Shear Modulus (GPa) = 17.23914 21.95468 19.59691
#
# Velocity S-wave (km/s) = 3.11554 3.51592 3.32177
# Velocity P-wave (km/s) = 5.37695 6.43144 5.92769
#
# Compressibility (1/GPa) = 0.03525814
#
# Stress axis : x y z
#
# Youngs Moduli (GPa) = 52.38946 70.95753 48.72346
#
# Poissons Ratio (x) = 0.48952 -0.02561
# Poissons Ratio (y) = 0.36142 0.13887
# Poissons Ratio (z) = -0.02754 0.20224
#
# Static dielectric constant tensor:
#      x y z
#    x 1.614220 0.000000 0.023320 
#    y 0.000000 1.627580 0.000000 
#    z 0.023320 0.000000 1.612400 
# 
# From -- ./inp_files/145474.got.cif
#   From: 2010.05.17/outbox.cif.g08.bks.cpg/sg12_73_cif.got.tgz:145474.got - 2010.06.03 13:09:07.
