data_PCOD9176668
_publ_section_title
;
Structure prediction by ZEFSAII (Michael W. Deem and Ramdas Pophale) SiO2 
 PCOD9176668
Probable space group: C 2/M
;
_chemical_formula_sum "Si O2"
_cell_formula_units_Z 64
_cell_length_a 22.143816
_cell_length_b 27.160139
_cell_length_c 9.056266
_cell_angle_alpha 90.000000
_cell_angle_beta 30.726994
_cell_angle_gamma 90.000000
_cell_volume 2782.981363
_symmetry_space_group_name_H-M "C 2/M"
_symmetry_group_IT_number 12
_symmetry_cell_setting 'monoclinic'
loop_
_space_group_symop_operation_xyz
x,y,z
-x,y,-z
-x,-y,-z
x,-y,z
1/2+x,1/2+y,z
1/2-x,1/2+y,-z
1/2-x,1/2-y,-z
1/2+x,1/2-y,z
loop_
_atom_site_type_symbol
_atom_site_label
_atom_site_fract_x
_atom_site_fract_y
_atom_site_fract_z
Si Si1 0.571900 0.653979 0.690711
Si Si2 0.806384 0.255862 0.539653
Si Si3 0.343701 0.656527 0.983012
Si Si4 0.999322 0.684103 0.263277
Si Si5 0.219573 0.054450 0.426502
Si Si6 0.696975 0.803092 0.071891
Si Si7 0.243256 0.553105 0.295944
Si Si8 0.517193 0.073129 0.134961
O O1 0.661683 0.699607 0.482078
O O2 0.641035 0.601597 0.548377
O O3 0.500000 0.657720 0.000000
O O4 0.476234 0.658924 0.761767
O O5 0.750000 0.250000 0.500000
O O6 0.724780 0.298793 0.787122
O O7 0.937048 0.279447 0.281193
O O8 0.305249 0.662299 0.892902
O O9 0.299658 0.602732 0.119879
O O10 0.121561 0.700023 0.080875
O O11 0.015723 0.631732 0.154777
O O12 0.905067 0.681763 0.595757
O O13 0.240110 0.056421 0.561042
O O14 0.169147 0.000000 0.497808
O O15 0.353886 0.057131 0.081412
O O16 0.750000 0.750000 0.000000
O O17 0.293054 0.500000 0.144896
O O18 0.105071 0.554553 0.539685
O O19 0.500000 0.059137 0.000000
#
# Coordination Sequence:
#
# PCOD9176668 Si02
#       8
#     8   8   8   8   8   8   8   8
#     4  12  23  35  55  85 127 166 209 251 320 389
#     4  11  21  35  54  86 125 161 195 250 315 380
#     4  11  22  41  57  90 124 166 213 262 315 383
#     4  10  22  39  60  88 121 167 209 256 318 370
#     4  10  22  37  57  88 128 169 210 259 326 400
#     4  10  21  40  61  82 119 166 216 256 302 375
#     4  10  18  35  60  88 122 166 208 258 322 385
#     4  10  20  36  60  91 125 158 208 263 321 386
#
# _framework density 22.996919999999999
#
# number of rings (size 3 to 8) (size 9 to 14) (size 15 to 20)
#    0.000    1.500    5.000    1.125    1.750    5.750 
#    0.000    0.000    0.000    2.250    0.000    0.875 
#    0.000    0.000    0.000    0.000    0.000    0.000 
#
# Total GULP energy -178502.834877 kJ/mol
# GULP energy per Si atom -5578.213590 kJ/mol
# Density = 2.294458 g / cm^3
# Si number density = 22.996920 Si / 1000 Ang^3
#
#
#
# Elastic Constant Matrix: (Units=GPa)
#
#
# Indices 1 2 3 4 5 6 
#
# 1 127.8165 51.0720 48.1858 0.0003 -55.9258 0.0000
# 2 51.0720 212.9319 58.0733 0.0002 -28.5440 0.0001
# 3 48.1858 58.0733 120.9634 0.0014 -33.8364 0.0002
# 4 0.0003 0.0002 0.0014 12.1357 -0.0005 -14.3242
# 5 -55.9258 -28.5440 -33.8364 -0.0005 43.9290 0.0000
# 6 0.0000 0.0001 0.0002 -14.3242 0.0000 15.5638
#
#
#
# Elastic Compliance Matrix: (Units=1/GPa)
#
#
# Indices 1 2 3 4 5 6 
#
# 1 0.018038 -0.001277 -0.000485 -0.000006 0.021761 -0.000005
# 2 -0.001277 0.005626 -0.002070 -0.000002 0.000435 -0.000002
# 3 -0.000485 -0.002070 0.011351 0.000014 0.006780 0.000012
# 4 -0.000006 -0.000002 0.000014 -0.954504 -0.000008 -0.878483
# 5 0.021761 0.000435 0.006780 -0.000008 0.055972 -0.000008
# 6 -0.000005 -0.000002 0.000012 -0.878483 -0.000008 -0.744264
#
#
# Mechanical properties :
#
#
# Convention : Reuss Voigt Hill
#
# Bulk Modulus (GPa) = 36.56450 86.26378 61.41414
# Shear Modulus (GPa) = -3.14268 34.61772 15.73752
#
# Velocity S-wave (km/s) = -1.17027 3.88405 2.61881
# Velocity P-wave (km/s) = 3.75609 7.59651 5.99229
#
# Compressibility (1/GPa) = 0.02734893
#
# Stress axis : x y z
#
# Youngs Moduli (GPa) = 55.43709 177.75860 88.09968
#
# Poissons Ratio (x) = 0.22701 0.04277
# Poissons Ratio (y) = 0.07080 0.18241
# Poissons Ratio (z) = 0.02691 0.36804
#
# Static dielectric constant tensor:
#      x y z
#    x 1.984810 0.000000 0.138510 
#    y 0.000000 1.846910 0.000000 
#    z 0.138510 0.000000 1.949320 
# 
# From -- ./inp_files/178545.got.cif
#   From: 2010.05.17/outbox.cif.g08.bks.cpg/sg12_90_cif.got.tgz:178545.got - 2010.06.03 13:09:07.
