data_PCOD9176447
_publ_section_title
;
Structure prediction by ZEFSAII (Michael W. Deem and Ramdas Pophale) SiO2 
 PCOD9176447
Probable space group: C 2/M
;
_chemical_formula_sum "Si O2"
_cell_formula_units_Z 64
_cell_length_a 14.150038
_cell_length_b 18.173313
_cell_length_c 14.001710
_cell_angle_alpha 90.000000
_cell_angle_beta 58.606398
_cell_angle_gamma 90.000000
_cell_volume 3073.489698
_symmetry_space_group_name_H-M "C 2/M"
_symmetry_group_IT_number 12
_symmetry_cell_setting 'monoclinic'
loop_
_space_group_symop_operation_xyz
x,y,z
-x,y,-z
-x,-y,-z
x,-y,z
1/2+x,1/2+y,z
1/2-x,1/2+y,-z
1/2-x,1/2-y,-z
1/2+x,1/2-y,z
loop_
_atom_site_type_symbol
_atom_site_label
_atom_site_fract_x
_atom_site_fract_y
_atom_site_fract_z
Si Si1 0.284222 0.278742 0.582337
Si Si2 0.183416 0.588176 0.154313
Si Si3 0.561743 0.827183 0.383703
Si Si4 0.350669 0.296328 0.992990
Si Si5 0.809979 0.702758 0.187351
Si Si6 0.020361 0.418944 0.876058
Si Si7 0.550198 0.303793 0.258144
Si Si8 0.914109 0.915628 0.457758
O O1 0.250000 0.250000 0.500000
O O2 0.385827 0.233323 0.572193
O O3 0.195040 0.257354 0.708880
O O4 0.315699 0.363924 0.549867
O O5 0.194190 0.500000 0.152769
O O6 0.143405 0.622697 0.276385
O O7 0.294871 0.628171 0.059429
O O8 0.087377 0.606972 0.126086
O O9 0.500000 0.873399 0.500000
O O10 0.512136 0.773609 0.326389
O O11 0.374950 0.247619 0.073279
O O12 0.250000 0.250000 0.000000
O O13 0.439477 0.304321 0.862037
O O14 0.871682 0.629495 0.183722
O O15 0.681587 0.689641 0.222519
O O16 0.043273 0.500000 0.825686
O O17 0.000000 0.422858 0.000000
O O18 0.476560 0.368874 0.341860
O O19 0.000000 0.919257 0.500000
O O20 0.885029 0.000000 0.446647
#
# Coordination Sequence:
#
# PCOD9176447 Si02
#       8
#     8   8   8   8   8   8   8   8
#     4  11  22  39  61  89 113 156 197 243 298 353
#     4  11  23  39  60  87 123 161 197 247 299 354
#     4  11  20  38  61  82 113 152 208 241 286 357
#     4  10  18  35  62  85 116 152 205 246 286 360
#     4  10  20  35  56  89 113 149 201 243 290 344
#     4  10  22  36  52  85 128 157 184 237 305 352
#     4  10  18  34  62  89 112 155 195 245 294 362
#     4  11  21  38  61  91 122 150 191 250 310 355
#
# _framework density 20.823236000000001
#
# number of rings (size 3 to 8) (size 9 to 14) (size 15 to 20)
#    0.000    1.500    7.500    1.500    1.750    1.750 
#    0.000    0.625    0.000    0.000    0.000    0.875 
#    0.000    0.000    0.000    0.000    0.000    0.000 
#
# Total GULP energy -178199.398453 kJ/mol
# GULP energy per Si atom -5568.731202 kJ/mol
# Density = 2.077584 g / cm^3
# Si number density = 20.823236 Si / 1000 Ang^3
#
#
#
# Elastic Constant Matrix: (Units=GPa)
#
#
# Indices 1 2 3 4 5 6 
#
# 1 48.7308 12.4748 26.0561 0.0000 8.5612 0.0000
# 2 12.4748 102.7612 42.4590 0.0000 2.8266 0.0000
# 3 26.0561 42.4590 190.7991 0.0000 17.6338 0.0000
# 4 0.0000 0.0000 0.0000 27.2244 0.0000 22.9139
# 5 8.5612 2.8266 17.6338 0.0000 27.4095 0.0000
# 6 0.0000 0.0000 0.0000 22.9139 0.0000 -178.2130
#
#
#
# Elastic Compliance Matrix: (Units=1/GPa)
#
#
# Indices 1 2 3 4 5 6 
#
# 1 0.023155 -0.001723 -0.002261 0.000000 -0.005600 0.000000
# 2 -0.001723 0.010850 -0.002260 0.000000 0.000873 0.000000
# 3 -0.002261 -0.002260 0.006343 0.000000 -0.003142 0.000000
# 4 0.000000 0.000000 0.000000 0.033145 0.000000 0.004262
# 5 -0.005600 0.000873 -0.003142 0.000000 0.040164 0.000000
# 6 0.000000 0.000000 0.000000 0.004262 0.000000 -0.005063
#
#
# Mechanical properties :
#
#
# Convention : Reuss Voigt Hill
#
# Bulk Modulus (GPa) = 35.89299 56.03010 45.96154
# Shear Modulus (GPa) = 38.35300 -7.29574 15.52863
#
# Velocity S-wave (km/s) = 4.29632 -1.87384 2.73378
# Velocity P-wave (km/s) = 6.47190 4.72062 5.66435
#
# Compressibility (1/GPa) = 0.02786059
#
# Stress axis : x y z
#
# Youngs Moduli (GPa) = 43.18772 92.16437 157.64980
#
# Poissons Ratio (x) = 0.15876 0.35648
# Poissons Ratio (y) = 0.07439 0.35628
# Poissons Ratio (z) = 0.09766 0.20829
#
# Static dielectric constant tensor:
#      x y z
#    x 1.827150 0.000000 -0.269180 
#    y 0.000000 1.773380 0.000000 
#    z -0.269180 0.000000 2.089670 
# 
# From -- ./inp_files/216351.got.cif
#   From: 2010.05.17/outbox.cif.g08.bks.cpg/sg12_109_cif.got.tgz:216351.got - 2010.06.03 13:09:07.
