data_PCOD9176217
_publ_section_title
;
Structure prediction by ZEFSAII (Michael W. Deem and Ramdas Pophale) SiO2 
 PCOD9176217
Probable space group: C 2/M
;
_chemical_formula_sum "Si O2"
_cell_formula_units_Z 40
_cell_length_a 8.364541
_cell_length_b 27.554056
_cell_length_c 15.520985
_cell_angle_alpha 90.000000
_cell_angle_beta 28.739825
_cell_angle_gamma 90.000000
_cell_volume 1720.050729
_symmetry_space_group_name_H-M "C 2/M"
_symmetry_group_IT_number 12
_symmetry_cell_setting 'monoclinic'
loop_
_space_group_symop_operation_xyz
x,y,z
-x,y,-z
-x,-y,-z
x,-y,z
1/2+x,1/2+y,z
1/2-x,1/2+y,-z
1/2-x,1/2-y,-z
1/2+x,1/2-y,z
loop_
_atom_site_type_symbol
_atom_site_label
_atom_site_fract_x
_atom_site_fract_y
_atom_site_fract_z
Si Si1 0.275789 0.500000 0.294159
Si Si2 0.769681 0.894437 0.294775
Si Si3 0.220683 0.204178 0.310666
Si Si4 0.609046 0.104678 0.708686
Si Si5 0.607176 0.000000 0.707616
Si Si6 0.105844 0.203166 0.180247
O O1 0.442562 0.447288 0.221922
O O2 0.000000 0.500000 0.500000
O O3 0.086862 0.500000 0.291578
O O4 0.500000 0.891525 0.500000
O O5 0.589000 0.891613 0.287447
O O6 0.002611 0.848346 0.192399
O O7 0.426087 0.153651 0.219688
O O8 0.994737 0.203932 0.332867
O O9 0.443677 0.252025 0.207893
O O10 0.000000 0.205565 0.500000
O O11 0.526359 0.051966 0.788549
O O12 0.000000 0.102485 0.500000
O O13 0.000000 0.000000 0.500000
O O14 0.500000 0.208299 0.000000
#
# Coordination Sequence:
#
# PCOD9176217 Si02
#       6
#     4   8   8   8   4   8
#     4   8  16  28  51  82 112 147 189 232 278 325
#     4  10  18  34  57  84 116 152 192 236 279 336
#     4  11  22  39  60  84 111 149 194 238 283 338
#     4   9  17  30  53  84 112 142 182 231 280 327
#     4   8  14  26  46  78 115 139 170 226 283 325
#     4  12  25  40  58  85 117 152 189 236 293 345
#
# _framework density 23.255127000000002
#
# number of rings (size 3 to 8) (size 9 to 14) (size 15 to 20)
#    0.000    2.000    0.000    5.400    0.000    1.600 
#    0.000    0.500    0.000    0.000    0.000    4.900 
#    0.000    0.000    0.000    0.000    0.000    0.000 
#
# Total GULP energy -111754.079332 kJ/mol
# GULP energy per Si atom -5587.703967 kJ/mol
# Density = 2.320220 g / cm^3
# Si number density = 23.255127 Si / 1000 Ang^3
#
#
#
# Elastic Constant Matrix: (Units=GPa)
#
#
# Indices 1 2 3 4 5 6 
#
# 1 77.6144 54.9117 -0.2086 0.0000 -3.4561 0.0000
# 2 54.9117 290.7858 23.3287 0.0000 -21.7120 0.0000
# 3 -0.2086 23.3287 51.7164 0.0000 7.0859 0.0000
# 4 0.0000 0.0000 0.0000 -45.1653 0.0000 4.8091
# 5 -3.4561 -21.7120 7.0859 0.0000 24.3794 0.0000
# 6 0.0000 0.0000 0.0000 4.8091 0.0000 26.3798
#
#
#
# Elastic Compliance Matrix: (Units=1/GPa)
#
#
# Indices 1 2 3 4 5 6 
#
# 1 0.014989 -0.003034 0.001570 0.000000 -0.001033 0.000000
# 2 -0.003034 0.004555 -0.002670 0.000000 0.004402 0.000000
# 3 0.001570 -0.002670 0.021707 0.000000 -0.008464 0.000000
# 4 0.000000 0.000000 0.000000 -0.021719 0.000000 0.003960
# 5 -0.001033 0.004402 -0.008464 0.000000 0.047253 0.000000
# 6 0.000000 0.000000 0.000000 0.003960 0.000000 0.037186
#
#
# Mechanical properties :
#
#
# Convention : Reuss Voigt Hill
#
# Bulk Modulus (GPa) = 30.31795 64.02004 47.16899
# Shear Modulus (GPa) = 40.57447 23.92444 32.24946
#
# Velocity S-wave (km/s) = 4.18156 3.21094 3.72797
# Velocity P-wave (km/s) = 6.03152 6.42931 6.23359
#
# Compressibility (1/GPa) = 0.03298376
#
# Stress axis : x y z
#
# Youngs Moduli (GPa) = 66.71708 219.55192 46.06875
#
# Poissons Ratio (x) = 0.66603 -0.07235
# Poissons Ratio (y) = 0.20239 0.12300
# Poissons Ratio (z) = -0.10477 0.58621
#
# Static dielectric constant tensor:
#      x y z
#    x 1.848020 0.000000 0.051390 
#    y 0.000000 1.927120 0.000000 
#    z 0.051390 0.000000 1.893430 
# 
# From -- ./inp_files/41131.got.cif
#   From: 2010.05.17/outbox.cif.g08.bks.cpg/sg12_21_cif.got.tgz:41131.got - 2010.06.03 13:09:07.
