data_PCOD9176446
_publ_section_title
;
Structure prediction by ZEFSAII (Michael W. Deem and Ramdas Pophale) SiO2 
 PCOD9176446
Probable space group: C 2/M
;
_chemical_formula_sum "Si O2"
_cell_formula_units_Z 56
_cell_length_a 25.123367
_cell_length_b 9.101877
_cell_length_c 17.450640
_cell_angle_alpha 90.000000
_cell_angle_beta 136.250953
_cell_angle_gamma 90.000000
_cell_volume 2759.389466
_symmetry_space_group_name_H-M "C 2/M"
_symmetry_group_IT_number 12
_symmetry_cell_setting 'monoclinic'
loop_
_space_group_symop_operation_xyz
x,y,z
-x,y,-z
-x,-y,-z
x,-y,z
1/2+x,1/2+y,z
1/2-x,1/2+y,-z
1/2-x,1/2-y,-z
1/2+x,1/2-y,z
loop_
_atom_site_type_symbol
_atom_site_label
_atom_site_fract_x
_atom_site_fract_y
_atom_site_fract_z
Si Si1 0.192433 0.678538 0.266355
Si Si2 0.601678 0.333981 0.654930
Si Si3 0.007580 0.327310 0.672607
Si Si4 0.856853 0.828955 0.482229
Si Si5 0.776203 0.327011 0.876335
Si Si6 0.402516 0.326128 0.098983
Si Si7 0.020393 0.671200 0.111159
O O1 0.196183 0.500000 0.268520
O O2 0.268584 0.726310 0.391405
O O3 0.198651 0.722929 0.183312
O O4 0.109304 0.717891 0.212529
O O5 0.572764 0.500000 0.640499
O O6 0.541561 0.219485 0.625535
O O7 0.620569 0.324670 0.584678
O O8 0.684232 0.315359 0.781860
O O9 0.007916 0.500000 0.683224
O O10 0.064443 0.248992 0.790979
O O11 0.921539 0.264077 0.591950
O O12 0.859880 0.000000 0.509319
O O13 0.796551 0.500000 0.904601
O O14 0.820669 0.236176 0.986281
O O15 0.400140 0.500000 0.105059
O O16 0.462505 0.274023 0.096159
O O17 0.011987 0.500000 0.127643
O O18 0.000000 0.673774 0.000000
#
# Coordination Sequence:
#
# PCOD9176446 Si02
#       7
#     8   8   8   8   8   8   8
#     4   8  15  31  59  89 112 142 179 222 273 328
#     4   9  19  36  62  88 112 144 184 229 279 333
#     4  12  25  39  55  77 111 153 194 232 278 330
#     4   9  18  36  61  86 113 144 185 228 273 328
#     4   9  17  35  59  85 113 145 184 223 274 336
#     4  12  25  38  54  80 116 151 188 231 280 330
#     4  10  18  34  62  88 114 145 182 223 272 335
#
# _framework density 20.294343999999999
#
# number of rings (size 3 to 8) (size 9 to 14) (size 15 to 20)
#    0.000    2.143    1.429    4.714    0.000    3.714 
#    0.000    3.571    0.000    0.000    0.000    0.000 
#    0.000    0.000    0.000    0.000    0.000    0.000 
#
# Total GULP energy -156408.077953 kJ/mol
# GULP energy per Si atom -5586.002784 kJ/mol
# Density = 2.024815 g / cm^3
# Si number density = 20.294344 Si / 1000 Ang^3
#
#
#
# Elastic Constant Matrix: (Units=GPa)
#
#
# Indices 1 2 3 4 5 6 
#
# 1 26.0643 10.1752 5.7716 0.0000 12.0908 0.0000
# 2 10.1752 100.2565 47.9291 0.0000 11.7633 0.0000
# 3 5.7716 47.9291 100.0636 0.0000 22.2771 0.0000
# 4 0.0000 0.0000 0.0000 27.4643 0.0000 7.4263
# 5 12.0908 11.7633 22.2771 0.0000 27.7097 0.0000
# 6 0.0000 0.0000 0.0000 7.4263 0.0000 14.5103
#
#
#
# Elastic Compliance Matrix: (Units=1/GPa)
#
#
# Indices 1 2 3 4 5 6 
#
# 1 0.050040 -0.004464 0.004496 0.000000 -0.023554 0.000000
# 2 -0.004464 0.013344 -0.006463 0.000000 0.001479 0.000000
# 3 0.004496 -0.006463 0.015415 0.000000 -0.011611 0.000000
# 4 0.000000 0.000000 0.000000 0.042259 0.000000 -0.021628
# 5 -0.023554 0.001479 -0.011611 0.000000 0.055072 0.000000
# 6 0.000000 0.000000 0.000000 -0.021628 0.000000 0.079986
#
#
# Mechanical properties :
#
#
# Convention : Reuss Voigt Hill
#
# Bulk Modulus (GPa) = 15.16642 39.34846 27.25744
# Shear Modulus (GPa) = 17.18460 24.77077 20.97768
#
# Velocity S-wave (km/s) = 2.91308 3.49746 3.21856
# Velocity P-wave (km/s) = 4.33638 5.97835 5.22230
#
# Compressibility (1/GPa) = 0.06593516
#
# Stress axis : x y z
#
# Youngs Moduli (GPa) = 19.98396 74.94104 64.87153
#
# Poissons Ratio (x) = 0.33456 -0.29165
# Poissons Ratio (y) = 0.08921 0.41929
# Poissons Ratio (z) = -0.08984 0.48437
#
# Static dielectric constant tensor:
#      x y z
#    x 1.749860 0.000000 -0.001700 
#    y 0.000000 1.677810 0.000000 
#    z -0.001700 0.000000 1.759050 
# 
# From -- ./inp_files/292453.got.cif
#   From: 2010.05.17/outbox.cif.g08.bks.cpg/sg12_147_cif.got.tgz:292453.got - 2010.06.03 13:09:07.
