data_PCOD9176819
_publ_section_title
;
Structure prediction by ZEFSAII (Michael W. Deem and Ramdas Pophale) SiO2 
 PCOD9176819
Probable space group: C 2/M
;
_chemical_formula_sum "Si O2"
_cell_formula_units_Z 60
_cell_length_a 21.807333
_cell_length_b 27.977578
_cell_length_c 13.142855
_cell_angle_alpha 90.000000
_cell_angle_beta 22.571347
_cell_angle_gamma 90.000000
_cell_volume 3077.835198
_symmetry_space_group_name_H-M "C 2/M"
_symmetry_group_IT_number 12
_symmetry_cell_setting 'monoclinic'
loop_
_space_group_symop_operation_xyz
x,y,z
-x,y,-z
-x,-y,-z
x,-y,z
1/2+x,1/2+y,z
1/2-x,1/2+y,-z
1/2-x,1/2-y,-z
1/2+x,1/2-y,z
loop_
_atom_site_type_symbol
_atom_site_label
_atom_site_fract_x
_atom_site_fract_y
_atom_site_fract_z
Si Si1 0.811686 0.679474 0.376889
Si Si2 0.839807 0.637078 0.939830
Si Si3 0.200867 0.202129 0.331287
Si Si4 0.646197 0.194278 0.461931
Si Si5 0.500000 0.093984 0.000000
Si Si6 0.036175 0.884210 0.271363
Si Si7 0.239190 0.444611 0.793313
Si Si8 0.969475 0.864954 0.939126
O O1 0.814275 0.701535 0.258913
O O2 0.869107 0.705020 0.392019
O O3 0.908169 0.629830 0.217658
O O4 0.626977 0.667187 0.681094
O O5 0.778374 0.677531 0.114140
O O6 0.705344 0.624997 0.063402
O O7 0.850747 0.588036 0.986382
O O8 0.005416 0.658287 0.647289
O O9 0.144510 0.256005 0.405161
O O10 0.056201 0.166342 0.577798
O O11 0.814218 0.168201 0.186350
O O12 0.364550 0.064294 0.149827
O O13 0.048315 0.896500 0.133998
O O14 0.915657 0.921670 0.508814
O O15 0.247436 0.500000 0.805873
O O16 0.000000 0.890497 0.000000
#
# Coordination Sequence:
#
# PCOD9176819 Si02
#       8
#     8   8   8   8   4   8   8   8
#     4  10  18  36  57  81 121 157 196 255 299 349
#     4  11  23  39  58  86 126 160 205 253 299 359
#     4  10  20  35  55  81 119 162 202 250 302 345
#     4  11  22  34  57  85 118 167 210 244 291 351
#     4  12  17  38  64  92 124 152 186 262 321 354
#     4  10  22  42  57  84 124 159 197 254 300 362
#     4  11  22  39  68  96 119 150 195 258 325 367
#     4   9  20  38  57  81 114 157 201 241 294 356
#
# _framework density 19.494219999999999
#
# number of rings (size 3 to 8) (size 9 to 14) (size 15 to 20)
#    0.000    1.600    5.333    2.200    3.733    2.133 
#    8.400    0.000    0.000    1.200    0.000    1.867 
#    0.000    0.000    0.000    0.000    0.000    0.000 
#
# Total GULP energy -167335.375844 kJ/mol
# GULP energy per Si atom -5577.845861 kJ/mol
# Density = 1.944985 g / cm^3
# Si number density = 19.494220 Si / 1000 Ang^3
#
#
#
# Elastic Constant Matrix: (Units=GPa)
#
#
# Indices 1 2 3 4 5 6 
#
# 1 63.9056 15.3273 28.5118 0.0319 -21.0026 -0.0290
# 2 15.3273 120.7167 40.8080 -0.0029 -10.8089 -0.0039
# 3 28.5118 40.8080 98.2360 -0.0278 -15.5457 0.0095
# 4 0.0319 -0.0029 -0.0278 4.9679 0.0125 -0.6414
# 5 -21.0026 -10.8089 -15.5457 0.0125 25.8184 0.0113
# 6 -0.0290 -0.0039 0.0095 -0.6414 0.0113 2.0054
#
#
#
# Elastic Compliance Matrix: (Units=1/GPa)
#
#
# Indices 1 2 3 4 5 6 
#
# 1 0.022734 -0.000091 -0.004023 -0.000183 0.016033 0.000198
# 2 -0.000091 0.009713 -0.003732 -0.000016 0.001745 0.000020
# 3 -0.004023 -0.003732 0.013410 0.000075 0.003239 -0.000123
# 4 -0.000183 -0.000016 0.000075 0.209964 -0.000242 0.067150
# 5 0.016033 0.001745 0.003239 -0.000242 0.054456 -0.000165
# 6 0.000198 0.000020 -0.000123 0.067150 -0.000165 0.520132
#
#
# Mechanical properties :
#
#
# Convention : Reuss Voigt Hill
#
# Bulk Modulus (GPa) = 33.15133 50.23919 41.69526
# Shear Modulus (GPa) = 5.84004 19.77242 12.80623
#
# Velocity S-wave (km/s) = 1.73271 3.18822 2.56583
# Velocity P-wave (km/s) = 4.58756 6.27537 5.49663
#
# Compressibility (1/GPa) = 0.03016470
#
# Stress axis : x y z
#
# Youngs Moduli (GPa) = 43.98603 102.95030 74.56870
#
# Poissons Ratio (x) = 0.00935 0.30003
# Poissons Ratio (y) = 0.00400 0.27833
# Poissons Ratio (z) = 0.17698 0.38426
#
# Static dielectric constant tensor:
#      x y z
#    x 1.783530 0.000000 0.010560 
#    y 0.000000 1.646440 0.000010 
#    z 0.010560 0.000010 1.710670 
# 
# From -- ./inp_files/242342.got.cif
#   From: 2010.05.17/outbox.cif.g08.bks.cpg/sg12_122_cif.got.tgz:242342.got - 2010.06.03 13:09:07.
