data_PCOD9176563
_publ_section_title
;
Structure prediction by ZEFSAII (Michael W. Deem and Ramdas Pophale) SiO2 
 PCOD9176563
Probable space group: C 2/M
;
_chemical_formula_sum "Si O2"
_cell_formula_units_Z 64
_cell_length_a 7.871533
_cell_length_b 13.006831
_cell_length_c 27.311475
_cell_angle_alpha 90.000000
_cell_angle_beta 95.831380
_cell_angle_gamma 90.000000
_cell_volume 2781.779849
_symmetry_space_group_name_H-M "C 2/M"
_symmetry_group_IT_number 12
_symmetry_cell_setting 'monoclinic'
loop_
_space_group_symop_operation_xyz
x,y,z
-x,y,-z
-x,-y,-z
x,-y,z
1/2+x,1/2+y,z
1/2-x,1/2+y,-z
1/2-x,1/2-y,-z
1/2+x,1/2-y,z
loop_
_atom_site_type_symbol
_atom_site_label
_atom_site_fract_x
_atom_site_fract_y
_atom_site_fract_z
Si Si1 0.297478 0.613543 0.481587
Si Si2 0.744684 0.185438 0.580134
Si Si3 0.691596 0.800559 0.272394
Si Si4 0.036210 0.803135 0.651869
Si Si5 0.903809 0.124023 0.949496
Si Si6 0.837338 0.121910 0.133361
Si Si7 0.394914 0.813208 0.201213
Si Si8 0.445338 0.883657 0.100246
O O1 0.500000 0.632925 0.500000
O O2 0.282298 0.500000 0.460194
O O3 0.229053 0.701672 0.443998
O O4 0.201132 0.620652 0.531030
O O5 0.619868 0.213721 0.620674
O O6 0.913726 0.139661 0.610456
O O7 0.829477 0.860266 0.309185
O O8 0.577481 0.751915 0.311108
O O9 0.569664 0.854617 0.229956
O O10 0.770188 0.706220 0.242893
O O11 0.708415 0.161437 0.936879
O O12 0.029180 0.138310 0.906870
O O13 0.888763 0.000000 0.954317
O O14 0.000000 0.165230 0.000000
O O15 0.901527 0.197470 0.178226
O O16 0.641559 0.153257 0.112845
O O17 0.835795 0.000000 0.145555
O O18 0.361046 0.879407 0.152211
O O19 0.469919 0.000000 0.083963
#
# Coordination Sequence:
#
# PCOD9176563 Si02
#       8
#     8   8   8   8   8   8   8   8
#     4  10  20  33  56  85 108 142 187 221 267 324
#     4  10  18  35  57  78 109 148 173 230 268 319
#     4   9  19  31  57  82 102 148 183 224 277 338
#     4   9  18  33  54  79 108 143 188 211 280 334
#     4   9  19  36  56  81 114 150 189 231 280 341
#     4  10  21  36  59  86 111 147 189 234 288 338
#     4  11  18  36  59  81 112 140 186 234 282 328
#     4  10  21  36  59  86 112 147 188 236 287 336
#
# _framework density 23.006851999999999
#
# number of rings (size 3 to 8) (size 9 to 14) (size 15 to 20)
#    0.000    2.250    2.500    0.750    0.000    0.500 
#    0.000    4.375    0.000   30.000    0.000    0.000 
#    0.000    0.000    0.000    0.000    0.000    0.000 
#
# Total GULP energy -178148.296926 kJ/mol
# GULP energy per Si atom -5567.134279 kJ/mol
# Density = 2.295449 g / cm^3
# Si number density = 23.006852 Si / 1000 Ang^3
#
#
#
# Elastic Constant Matrix: (Units=GPa)
#
#
# Indices 1 2 3 4 5 6 
#
# 1 81.0786 12.3150 47.5478 0.0000 16.6085 0.0000
# 2 12.3150 86.9098 8.3309 0.0000 6.7524 0.0000
# 3 47.5478 8.3309 104.5897 0.0000 22.8103 0.0000
# 4 0.0000 0.0000 0.0000 -29.8306 0.0000 51.1886
# 5 16.6085 6.7524 22.8103 0.0000 55.7673 0.0000
# 6 0.0000 0.0000 0.0000 51.1886 0.0000 -69.4309
#
#
#
# Elastic Compliance Matrix: (Units=1/GPa)
#
#
# Indices 1 2 3 4 5 6 
#
# 1 0.017252 -0.001593 -0.007288 0.000000 -0.001964 0.000000
# 2 -0.001593 0.011807 -0.000009 0.000000 -0.000952 0.000000
# 3 -0.007288 -0.000009 0.013616 0.000000 -0.003398 0.000000
# 4 0.000000 0.000000 0.000000 0.126443 0.000000 0.093221
# 5 -0.001964 -0.000952 -0.003398 0.000000 0.020022 0.000000
# 6 0.000000 0.000000 0.000000 0.093221 0.000000 0.054326
#
#
# Mechanical properties :
#
#
# Convention : Reuss Voigt Hill
#
# Bulk Modulus (GPa) = 40.16809 45.44064 42.80436
# Shear Modulus (GPa) = 18.54995 4.92681 11.73838
#
# Velocity S-wave (km/s) = 2.84259 1.46496 2.26124
# Velocity P-wave (km/s) = 5.31703 4.75975 5.04609
#
# Compressibility (1/GPa) = 0.02489538
#
# Stress axis : x y z
#
# Youngs Moduli (GPa) = 57.96487 84.69756 73.44333
#
# Poissons Ratio (x) = 0.13496 0.53523
# Poissons Ratio (y) = 0.09236 0.00063
# Poissons Ratio (z) = 0.42243 0.00072
#
# Static dielectric constant tensor:
#      x y z
#    x 2.000630 0.000000 0.046370 
#    y 0.000000 1.823740 0.000000 
#    z 0.046370 0.000000 1.873240 
# 
# From -- ./inp_files/356167.got.cif
#   From: 2010.05.17/outbox.cif.g08.bks.cpg/sg12_179_cif.got.tgz:356167.got - 2010.06.03 13:09:07.
