data_PCOD9176992
_publ_section_title
;
Structure prediction by ZEFSAII (Michael W. Deem and Ramdas Pophale) SiO2 
 PCOD9176992
Probable space group: C 2/M
;
_chemical_formula_sum "Si O2"
_cell_formula_units_Z 54
_cell_length_a 14.910638
_cell_length_b 27.211998
_cell_length_c 11.960237
_cell_angle_alpha 90.000000
_cell_angle_beta 29.462531
_cell_angle_gamma 90.000000
_cell_volume 2386.892703
_symmetry_space_group_name_H-M "C 2/M"
_symmetry_group_IT_number 12
_symmetry_cell_setting 'monoclinic'
loop_
_space_group_symop_operation_xyz
x,y,z
-x,y,-z
-x,-y,-z
x,-y,z
1/2+x,1/2+y,z
1/2-x,1/2+y,-z
1/2-x,1/2-y,-z
1/2+x,1/2-y,z
loop_
_atom_site_type_symbol
_atom_site_label
_atom_site_fract_x
_atom_site_fract_y
_atom_site_fract_z
Si Si1 0.975270 0.711713 0.778790
Si Si2 0.000000 0.000000 0.500000
Si Si3 0.690429 0.749518 0.246374
Si Si4 0.784536 0.440364 0.845763
Si Si5 0.298305 0.940837 0.581528
Si Si6 0.000000 0.187207 0.000000
Si Si7 0.546943 0.418668 0.640611
Si Si8 0.626998 0.677061 0.627577
O O1 0.154232 0.679849 0.600309
O O2 0.048446 0.768323 0.696736
O O3 0.870470 0.708073 0.775805
O O4 0.821854 0.711166 0.040979
O O5 0.061336 0.043296 0.524477
O O6 0.500000 0.730907 0.500000
O O7 0.822617 0.777108 0.188648
O O8 0.781872 0.500000 0.847163
O O9 0.730594 0.424079 0.778330
O O10 0.990661 0.424668 0.649049
O O11 0.649888 0.424940 0.089012
O O12 0.189780 0.928614 0.587181
O O13 0.296195 0.000000 0.589093
O O14 0.966676 0.160667 0.153425
O O15 0.576215 0.361101 0.586503
#
# Coordination Sequence:
#
# PCOD9176992 Si02
#       8
#     8   2   8   8   8   4   8   8
#     4   9  20  41  60  95 140 178 224 281 348 424
#     4  12  28  48  68  96 132 202 256 286 334 410
#     4  10  18  36  67  93 132 188 216 273 348 421
#     4   9  18  36  65 101 129 166 214 275 361 432
#     4   9  18  36  64  99 131 165 216 283 358 417
#     4  10  20  36  60 103 130 162 230 279 370 418
#     4  12  23  43  65  91 137 184 232 290 346 413
#     4  10  22  39  63  94 138 178 227 295 354 422
#
# _framework density 22.623555
#
# number of rings (size 3 to 8) (size 9 to 14) (size 15 to 20)
#    0.000    2.074    2.963    1.333    2.074    1.185 
#    9.333    1.481    0.000    1.778    0.000    0.000 
#    0.000    0.000    0.000    0.000    0.000    0.000 
#
# Total GULP energy -150492.429484 kJ/mol
# GULP energy per Si atom -5573.793685 kJ/mol
# Density = 2.257206 g / cm^3
# Si number density = 22.623555 Si / 1000 Ang^3
#
#
#
# Elastic Constant Matrix: (Units=GPa)
#
#
# Indices 1 2 3 4 5 6 
#
# 1 106.3373 33.4480 32.3474 0.0016 -0.1691 -0.0017
# 2 33.4480 85.1376 27.3057 0.0018 0.4544 -0.0024
# 3 32.3474 27.3057 128.6927 -0.0082 -18.6823 0.0108
# 4 0.0016 0.0018 -0.0082 24.5005 0.0070 -6.8954
# 5 -0.1691 0.4544 -18.6823 0.0070 27.4772 -0.0096
# 6 -0.0017 -0.0024 0.0108 -6.8954 -0.0096 36.9130
#
#
#
# Elastic Compliance Matrix: (Units=1/GPa)
#
#
# Indices 1 2 3 4 5 6 
#
# 1 0.011246 -0.003690 -0.002247 -0.000001 -0.001397 0.000000
# 2 -0.003690 0.013941 -0.002294 -0.000001 -0.001813 0.000001
# 3 -0.002247 -0.002294 0.009792 0.000001 0.006682 -0.000001
# 4 -0.000001 -0.000001 0.000001 0.043080 -0.000007 0.008047
# 5 -0.001397 -0.001813 0.006682 -0.000007 0.040958 0.000007
# 6 0.000000 0.000001 -0.000001 0.008047 0.000007 0.028594
#
#
# Mechanical properties :
#
#
# Convention : Reuss Voigt Hill
#
# Bulk Modulus (GPa) = 54.00196 56.26333 55.13264
# Shear Modulus (GPa) = 29.36958 32.91591 31.14274
#
# Velocity S-wave (km/s) = 3.60694 3.81851 3.71423
# Velocity P-wave (km/s) = 6.42404 6.66068 6.54343
#
# Compressibility (1/GPa) = 0.01851785
#
# Stress axis : x y z
#
# Youngs Moduli (GPa) = 88.92083 71.73232 102.12679
#
# Poissons Ratio (x) = 0.26471 0.22944
# Poissons Ratio (y) = 0.32814 0.23423
# Poissons Ratio (z) = 0.19977 0.16452
#
# Static dielectric constant tensor:
#      x y z
#    x 1.896850 0.000000 0.015670 
#    y 0.000000 1.886660 0.000000 
#    z 0.015670 0.000000 1.861000 
# 
# From -- ./inp_files/150466.got.cif
#   From: 2010.05.17/outbox.cif.g08.bks.cpg/sg12_76_cif.got.tgz:150466.got - 2010.06.03 13:09:07.
