data_PCOD9176397
_publ_section_title
;
Structure prediction by ZEFSAII (Michael W. Deem and Ramdas Pophale) SiO2 
 PCOD9176397
Probable space group: C 2/M
;
_chemical_formula_sum "Si O2"
_cell_formula_units_Z 64
_cell_length_a 30.353124
_cell_length_b 13.618147
_cell_length_c 9.150734
_cell_angle_alpha 90.000000
_cell_angle_beta 132.283386
_cell_angle_gamma 90.000000
_cell_volume 2798.382409
_symmetry_space_group_name_H-M "C 2/M"
_symmetry_group_IT_number 12
_symmetry_cell_setting 'monoclinic'
loop_
_space_group_symop_operation_xyz
x,y,z
-x,y,-z
-x,-y,-z
x,-y,z
1/2+x,1/2+y,z
1/2-x,1/2+y,-z
1/2-x,1/2-y,-z
1/2+x,1/2-y,z
loop_
_atom_site_type_symbol
_atom_site_label
_atom_site_fract_x
_atom_site_fract_y
_atom_site_fract_z
Si Si1 0.879410 0.886599 0.260299
Si Si2 0.126600 0.612106 0.626068
Si Si3 0.073271 0.202045 0.358416
Si Si4 0.557501 0.310702 0.856664
Si Si5 0.947230 0.393150 0.262678
Si Si6 0.842962 0.799171 0.727373
Si Si7 0.729998 0.116831 0.308921
Si Si8 0.250395 0.881489 0.991407
O O1 0.890949 0.871730 0.457284
O O2 0.932542 0.834275 0.291771
O O3 0.812994 0.845253 0.089972
O O4 0.881510 0.000000 0.226289
O O5 0.120077 0.500000 0.556638
O O6 0.083929 0.690796 0.455782
O O7 0.110344 0.608586 0.761685
O O8 0.195140 0.645511 0.780302
O O9 0.105002 0.212683 0.275741
O O10 0.005539 0.163606 0.214099
O O11 0.556788 0.192900 0.860254
O O12 0.618658 0.350993 0.060141
O O13 0.954094 0.500000 0.210135
O O14 0.000000 0.381929 0.500000
O O15 0.790077 0.860734 0.535652
O O16 0.816457 0.695896 0.727394
O O17 0.740805 0.140646 0.161014
O O18 0.714472 0.000000 0.285797
O O19 0.248263 0.000000 0.991577
#
# Coordination Sequence:
#
# PCOD9176397 Si02
#       8
#     8   8   8   8   8   8   8   8
#     4  11  24  43  67  94 125 166 221 278 328 375
#     4  10  20  35  61  96 128 161 207 266 330 388
#     4  12  24  42  63  93 133 174 213 269 320 385
#     4  12  24  42  63  95 132 171 219 269 319 382
#     4  10  18  34  60  90 125 168 213 262 323 383
#     4  11  26  42  66  97 129 179 217 259 323 390
#     4  10  22  45  68  92 132 175 216 266 324 387
#     4   9  19  38  67  96 124 162 210 271 331 381
#
# _framework density 22.870356000000001
#
# number of rings (size 3 to 8) (size 9 to 14) (size 15 to 20)
#    0.000    1.375    3.750    1.500    0.000    6.000 
#    0.000    1.250    0.000    4.500    0.000    0.000 
#    0.000    0.000    0.000    0.000    0.000    0.000 
#
# Total GULP energy -178650.430427 kJ/mol
# GULP energy per Si atom -5582.825951 kJ/mol
# Density = 2.281830 g / cm^3
# Si number density = 22.870356 Si / 1000 Ang^3
#
#
#
# Elastic Constant Matrix: (Units=GPa)
#
#
# Indices 1 2 3 4 5 6 
#
# 1 123.7754 8.2001 16.4689 0.0000 13.2296 0.0000
# 2 8.2001 81.4422 -2.3360 0.0000 0.9205 0.0000
# 3 16.4689 -2.3360 71.4238 0.0000 28.6002 0.0000
# 4 0.0000 0.0000 0.0000 17.9564 0.0000 -0.4137
# 5 13.2296 0.9205 28.6002 0.0000 41.2752 0.0000
# 6 0.0000 0.0000 0.0000 -0.4137 0.0000 16.1869
#
#
#
# Elastic Compliance Matrix: (Units=1/GPa)
#
#
# Indices 1 2 3 4 5 6 
#
# 1 0.008500 -0.000871 -0.001253 0.000000 -0.001837 0.000000
# 2 -0.000871 0.012397 0.000838 0.000000 -0.000578 0.000000
# 3 -0.001253 0.000838 0.019603 0.000000 -0.013200 0.000000
# 4 0.000000 0.000000 0.000000 0.055723 0.000000 0.001424
# 5 -0.001837 -0.000578 -0.013200 0.000000 0.033976 0.000000
# 6 0.000000 0.000000 0.000000 0.001424 0.000000 0.061815
#
#
# Mechanical properties :
#
#
# Convention : Reuss Voigt Hill
#
# Bulk Modulus (GPa) = 26.36625 35.70084 31.03355
# Shear Modulus (GPa) = 24.12791 32.03757 28.08274
#
# Velocity S-wave (km/s) = 3.25158 3.74683 3.50796
# Velocity P-wave (km/s) = 5.06464 5.86194 5.47782
#
# Compressibility (1/GPa) = 0.03792727
#
# Stress axis : x y z
#
# Youngs Moduli (GPa) = 117.64866 80.66536 51.01264
#
# Poissons Ratio (x) = 0.07026 0.06391
# Poissons Ratio (y) = 0.10247 -0.04273
# Poissons Ratio (z) = 0.14740 -0.06757
#
# Static dielectric constant tensor:
#      x y z
#    x 1.887630 0.000000 0.038110 
#    y 0.000000 1.856120 0.000000 
#    z 0.038110 0.000000 1.909710 
# 
# From -- ./inp_files/112002.got.cif
#   From: 2010.05.17/outbox.cif.g08.bks.cpg/sg12_57_cif.got.tgz:112002.got - 2010.06.03 13:09:07.
