data_PCOD9176759
_publ_section_title
;
Structure prediction by ZEFSAII (Michael W. Deem and Ramdas Pophale) SiO2 
 PCOD9176759
Probable space group: C 2/M
;
_chemical_formula_sum "Si O2"
_cell_formula_units_Z 48
_cell_length_a 14.913552
_cell_length_b 18.638451
_cell_length_c 10.715853
_cell_angle_alpha 90.000000
_cell_angle_beta 137.472602
_cell_angle_gamma 90.000000
_cell_volume 2013.388248
_symmetry_space_group_name_H-M "C 2/M"
_symmetry_group_IT_number 12
_symmetry_cell_setting 'monoclinic'
loop_
_space_group_symop_operation_xyz
x,y,z
-x,y,-z
-x,-y,-z
x,-y,z
1/2+x,1/2+y,z
1/2-x,1/2+y,-z
1/2-x,1/2-y,-z
1/2+x,1/2-y,z
loop_
_atom_site_type_symbol
_atom_site_label
_atom_site_fract_x
_atom_site_fract_y
_atom_site_fract_z
Si Si1 0.713558 0.655911 0.759351
Si Si2 0.874424 0.773041 0.808457
Si Si3 0.855307 0.617254 0.392194
Si Si4 0.217417 0.500000 0.887395
Si Si5 0.076567 0.500000 0.334462
Si Si6 0.240832 0.000000 0.717591
Si Si7 0.516207 0.500000 0.285631
Si Si8 0.968676 0.163319 0.673888
O O1 0.840745 0.703437 0.856174
O O2 0.751536 0.573063 0.803626
O O3 0.620119 0.673131 0.781823
O O4 0.621546 0.662743 0.541858
O O5 0.743776 0.819629 0.683887
O O6 0.918164 0.772675 0.709786
O O7 0.000000 0.810854 0.000000
O O8 0.797937 0.567866 0.222017
O O9 0.876270 0.567780 0.534888
O O10 0.000000 0.643817 0.500000
O O11 0.082116 0.500000 0.828543
O O12 0.359188 0.500000 0.099071
O O13 0.149516 0.500000 0.278384
O O14 0.096381 0.000000 0.499389
O O15 0.550306 0.583527 0.281588
#
# Coordination Sequence:
#
# PCOD9176759 Si02
#       8
#     8   8   8   4   4   4   4   8
#     4  10  23  43  65  92 123 166 217 259 308 374
#     4  12  25  41  62  99 127 163 212 263 321 368
#     4   9  19  35  60  87 131 167 205 251 309 386
#     4   9  18  35  54  97 130 163 199 254 326 363
#     4   9  18  35  59  92 123 168 210 247 307 382
#     4  10  20  41  65  89 114 162 221 259 297 376
#     4  10  18  35  65  95 121 155 205 265 313 353
#     4  10  22  41  67  93 124 166 211 256 312 378
#
# _framework density 23.840409999999999
#
# number of rings (size 3 to 8) (size 9 to 14) (size 15 to 20)
#    0.000    2.000    0.000    5.000    2.333    3.333 
#    6.000    3.333    0.000    0.000    0.000    0.000 
#    0.000    0.000    0.000    0.000    0.000    0.000 
#
# Total GULP energy -134067.338407 kJ/mol
# GULP energy per Si atom -5586.139100 kJ/mol
# Density = 2.378615 g / cm^3
# Si number density = 23.840410 Si / 1000 Ang^3
#
#
#
# Elastic Constant Matrix: (Units=GPa)
#
#
# Indices 1 2 3 4 5 6 
#
# 1 147.6871 47.4703 9.9336 0.0000 17.7688 0.0000
# 2 47.4703 87.9184 37.3486 0.0000 14.6527 0.0000
# 3 9.9336 37.3486 56.4810 0.0000 17.0678 0.0000
# 4 0.0000 0.0000 0.0000 2.9924 0.0000 4.7178
# 5 17.7688 14.6527 17.0678 0.0000 23.0147 0.0000
# 6 0.0000 0.0000 0.0000 4.7178 0.0000 17.3148
#
#
#
# Elastic Compliance Matrix: (Units=1/GPa)
#
#
# Indices 1 2 3 4 5 6 
#
# 1 0.009049 -0.005511 0.004000 0.000000 -0.006444 0.000000
# 2 -0.005511 0.019334 -0.012091 0.000000 0.000912 0.000000
# 3 0.004000 -0.012091 0.030422 0.000000 -0.017951 0.000000
# 4 0.000000 0.000000 0.000000 0.585843 0.000000 -0.159624
# 5 -0.006444 0.000912 -0.017951 0.000000 0.061157 0.000000
# 6 0.000000 0.000000 0.000000 -0.159624 0.000000 0.101247
#
#
# Mechanical properties :
#
#
# Convention : Reuss Voigt Hill
#
# Bulk Modulus (GPa) = 31.64582 53.51016 42.57799
# Shear Modulus (GPa) = 5.91864 21.81998 13.86931
#
# Velocity S-wave (km/s) = 1.57734 3.02860 2.41458
# Velocity P-wave (km/s) = 4.07678 5.89268 5.06675
#
# Compressibility (1/GPa) = 0.03159975
#
# Stress axis : x y z
#
# Youngs Moduli (GPa) = 110.51325 51.72162 32.87134
#
# Poissons Ratio (x) = 0.28504 -0.13149
# Poissons Ratio (y) = 0.60904 0.39746
# Poissons Ratio (z) = -0.44206 0.62539
#
# Static dielectric constant tensor:
#      x y z
#    x 1.976530 0.000000 -0.031170 
#    y 0.000000 1.940670 0.000000 
#    z -0.031170 0.000000 1.907920 
# 
# From -- ./inp_files/148073.got.cif
#   From: 2010.05.17/outbox.cif.g08.bks.cpg/sg12_75_cif.got.tgz:148073.got - 2010.06.03 13:09:07.
