data_PCOD9176889
_publ_section_title
;
Structure prediction by ZEFSAII (Michael W. Deem and Ramdas Pophale) SiO2 
 PCOD9176889
Probable space group: C 2/M
;
_chemical_formula_sum "Si O2"
_cell_formula_units_Z 44
_cell_length_a 24.611189
_cell_length_b 11.457959
_cell_length_c 9.413685
_cell_angle_alpha 90.000000
_cell_angle_beta 46.662393
_cell_angle_gamma 90.000000
_cell_volume 1930.752101
_symmetry_space_group_name_H-M "C 2/M"
_symmetry_group_IT_number 12
_symmetry_cell_setting 'monoclinic'
loop_
_space_group_symop_operation_xyz
x,y,z
-x,y,-z
-x,-y,-z
x,-y,z
1/2+x,1/2+y,z
1/2-x,1/2+y,-z
1/2-x,1/2-y,-z
1/2+x,1/2-y,z
loop_
_atom_site_type_symbol
_atom_site_label
_atom_site_fract_x
_atom_site_fract_y
_atom_site_fract_z
Si Si1 0.218478 0.630625 0.387149
Si Si2 0.662262 0.362893 0.323864
Si Si3 0.500000 0.288820 0.000000
Si Si4 0.661630 0.715375 0.015747
Si Si5 0.143010 0.630311 0.815864
Si Si6 0.995086 0.126828 0.704984
O O1 0.188637 0.500000 0.401185
O O2 0.182071 0.746454 0.381235
O O3 0.204931 0.639121 0.580261
O O4 0.302814 0.636084 0.174027
O O5 0.679830 0.500000 0.331946
O O6 0.690295 0.332570 0.114126
O O7 0.571624 0.359485 0.485231
O O8 0.573692 0.211811 0.897463
O O9 0.516036 0.363785 0.832568
O O10 0.572502 0.714759 0.192514
O O11 0.675424 0.839424 0.913740
O O12 0.114261 0.500000 0.868208
O O13 0.962025 0.000000 0.734204
#
# Coordination Sequence:
#
# PCOD9176889 Si02
#       6
#     8   8   4   8   8   8
#     4  11  23  42  64  91 124 163 205 250 305 364
#     4  11  23  41  63  92 126 162 202 250 304 364
#     4  10  18  36  60  86 120 154 206 246 308 354
#     4  11  23  38  61  90 123 161 201 251 307 358
#     4  10  22  39  61  87 122 161 206 253 301 360
#     4  10  20  36  60  89 120 156 203 251 301 359
#
# _framework density 22.789048000000001
#
# number of rings (size 3 to 8) (size 9 to 14) (size 15 to 20)
#    0.000    1.455    1.818    3.818    0.000    2.909 
#    0.000    1.818    0.000    3.273    0.000    0.000 
#    0.000    0.000    0.000    0.000    0.000    0.000 
#
# Total GULP energy -122508.868795 kJ/mol
# GULP energy per Si atom -5568.584945 kJ/mol
# Density = 2.273718 g / cm^3
# Si number density = 22.789048 Si / 1000 Ang^3
#
#
#
# Elastic Constant Matrix: (Units=GPa)
#
#
# Indices 1 2 3 4 5 6 
#
# 1 46.9425 38.9986 17.9730 0.0000 12.3907 0.0000
# 2 38.9986 151.3599 45.2628 0.0000 5.3438 0.0000
# 3 17.9730 45.2628 142.4314 0.0000 20.2922 0.0000
# 4 0.0000 0.0000 0.0000 21.3265 0.0000 17.9513
# 5 12.3907 5.3438 20.2922 0.0000 49.8244 0.0000
# 6 0.0000 0.0000 0.0000 17.9513 0.0000 7.0310
#
#
#
# Elastic Compliance Matrix: (Units=1/GPa)
#
#
# Indices 1 2 3 4 5 6 
#
# 1 0.029060 -0.007112 -0.000516 0.000000 -0.006254 0.000000
# 2 -0.007112 0.009043 -0.002219 0.000000 0.001703 0.000000
# 3 -0.000516 -0.002219 0.008216 0.000000 -0.002980 0.000000
# 4 0.000000 0.000000 0.000000 -0.040806 0.000000 0.104184
# 5 -0.006254 0.001703 -0.002980 0.000000 0.022657 0.000000
# 6 0.000000 0.000000 0.000000 0.104184 0.000000 -0.123773
#
#
# Mechanical properties :
#
#
# Convention : Reuss Voigt Hill
#
# Bulk Modulus (GPa) = 37.55963 60.57806 49.06884
# Shear Modulus (GPa) = -74.58705 31.53633 -21.52536
#
# Velocity S-wave (km/s) = -5.72716 3.72403 -3.07668
# Velocity P-wave (km/s) = 5.21696 6.71796 2.99286
#
# Compressibility (1/GPa) = 0.02662433
#
# Stress axis : x y z
#
# Youngs Moduli (GPa) = 34.41200 110.58680 121.71942
#
# Poissons Ratio (x) = 0.78653 0.06278
# Poissons Ratio (y) = 0.24475 0.27006
# Poissons Ratio (z) = 0.01775 0.24536
#
# Static dielectric constant tensor:
#      x y z
#    x 1.954070 0.000000 -0.014320 
#    y 0.000000 1.851350 0.000000 
#    z -0.014320 0.000000 1.888500 
# 
# From -- ./inp_files/103027.got.cif
#   From: 2010.05.17/outbox.cif.g08.bks.cpg/sg12_52_cif.got.tgz:103027.got - 2010.06.03 13:09:07.
