data_PCOD9176746
_publ_section_title
;
Structure prediction by ZEFSAII (Michael W. Deem and Ramdas Pophale) SiO2 
 PCOD9176746
Probable space group: C 2/M
;
_chemical_formula_sum "Si O2"
_cell_formula_units_Z 48
_cell_length_a 10.244326
_cell_length_b 27.585624
_cell_length_c 15.137540
_cell_angle_alpha 90.000000
_cell_angle_beta 31.873321
_cell_angle_gamma 90.000000
_cell_volume 2258.867556
_symmetry_space_group_name_H-M "C 2/M"
_symmetry_group_IT_number 12
_symmetry_cell_setting 'monoclinic'
loop_
_space_group_symop_operation_xyz
x,y,z
-x,y,-z
-x,-y,-z
x,-y,z
1/2+x,1/2+y,z
1/2-x,1/2+y,-z
1/2-x,1/2-y,-z
1/2+x,1/2-y,z
loop_
_atom_site_type_symbol
_atom_site_label
_atom_site_fract_x
_atom_site_fract_y
_atom_site_fract_z
Si Si1 0.811255 0.150490 0.186801
Si Si2 0.085437 0.217335 0.162337
Si Si3 0.445534 0.945824 0.635406
Si Si4 0.490623 0.444142 0.399047
Si Si5 0.841284 0.689010 0.359889
Si Si6 0.193473 0.156269 0.262158
O O1 0.758812 0.093973 0.227981
O O2 0.550330 0.172612 0.307622
O O3 0.930355 0.176262 0.201795
O O4 0.000000 0.160247 0.000000
O O5 0.887720 0.254528 0.317177
O O6 0.235395 0.190093 0.153332
O O7 0.250000 0.250000 0.000000
O O8 0.500000 0.944526 0.500000
O O9 0.707226 0.935604 0.532562
O O10 0.367901 0.000000 0.705111
O O11 0.500000 0.440060 0.500000
O O12 0.554675 0.500000 0.338042
O O13 0.659818 0.401030 0.263202
O O14 0.868273 0.664476 0.246761
O O15 0.575575 0.674206 0.548719
#
# Coordination Sequence:
#
# PCOD9176746 Si02
#       6
#     8   8   8   8   8   8
#     4  12  24  41  62  89 130 168 209 256 313 381
#     4  12  26  42  60  89 127 174 209 258 317 380
#     4  10  21  39  65  94 123 159 208 263 315 371
#     4  10  18  35  63  96 126 157 202 263 322 369
#     4  11  23  41  62  93 123 164 216 260 315 365
#     4  11  22  41  65  94 126 160 214 268 312 375
#
# _framework density 21.249586000000001
#
# number of rings (size 3 to 8) (size 9 to 14) (size 15 to 20)
#    0.000    1.000    5.000    2.500    0.000    1.667 
#    0.000    0.000    0.000    0.000    0.000    1.167 
#    0.000    0.667    0.000    0.000    0.000    0.000 
#
# Total GULP energy -134171.461906 kJ/mol
# GULP energy per Si atom -5590.477579 kJ/mol
# Density = 2.120122 g / cm^3
# Si number density = 21.249586 Si / 1000 Ang^3
#
#
#
# Elastic Constant Matrix: (Units=GPa)
#
#
# Indices 1 2 3 4 5 6 
#
# 1 122.2744 23.2862 19.4631 0.0000 -7.0824 0.0000
# 2 23.2862 130.9737 5.8740 0.0000 0.0288 0.0000
# 3 19.4631 5.8740 35.0836 0.0000 -1.5988 0.0000
# 4 0.0000 0.0000 0.0000 17.8177 0.0000 8.2983
# 5 -7.0824 0.0288 -1.5988 0.0000 25.8608 0.0000
# 6 0.0000 0.0000 0.0000 8.2983 0.0000 45.3886
#
#
#
# Elastic Compliance Matrix: (Units=1/GPa)
#
#
# Indices 1 2 3 4 5 6 
#
# 1 0.009356 -0.001447 -0.004845 0.000000 0.002264 0.000000
# 2 -0.001447 0.007917 -0.000543 0.000000 -0.000439 0.000000
# 3 -0.004845 -0.000543 0.031310 0.000000 0.000609 0.000000
# 4 0.000000 0.000000 0.000000 0.061348 0.000000 -0.011216
# 5 0.002264 -0.000439 0.000609 0.000000 0.039327 0.000000
# 6 0.000000 0.000000 0.000000 -0.011216 0.000000 0.024083
#
#
# Mechanical properties :
#
#
# Convention : Reuss Voigt Hill
#
# Bulk Modulus (GPa) = 28.64218 42.84202 35.74210
# Shear Modulus (GPa) = 25.17024 33.79399 29.48212
#
# Velocity S-wave (km/s) = 3.44540 3.99223 3.72885
# Velocity P-wave (km/s) = 5.41626 6.43860 5.94943
#
# Compressibility (1/GPa) = 0.03491354
#
# Stress axis : x y z
#
# Youngs Moduli (GPa) = 106.88088 126.31404 31.93879
#
# Poissons Ratio (x) = 0.18274 0.15475
# Poissons Ratio (y) = 0.15462 0.01734
# Poissons Ratio (z) = 0.51785 0.06858
#
# Static dielectric constant tensor:
#      x y z
#    x 1.835860 0.000000 0.012840 
#    y 0.000000 1.797660 0.000000 
#    z 0.012840 0.000000 1.790610 
# 
# From -- ./inp_files/200144.got.cif
#   From: 2010.05.17/outbox.cif.g08.bks.cpg/sg12_101_cif.got.tgz:200144.got - 2010.06.03 13:09:07.
