data_PCOD9176576
_publ_section_title
;
Structure prediction by ZEFSAII (Michael W. Deem and Ramdas Pophale) SiO2 
 PCOD9176576
Probable space group: C 2/M
;
_chemical_formula_sum "Si O2"
_cell_formula_units_Z 58
_cell_length_a 9.574980
_cell_length_b 21.251180
_cell_length_c 18.722661
_cell_angle_alpha 90.000000
_cell_angle_beta 59.258289
_cell_angle_gamma 90.000000
_cell_volume 3274.345191
_symmetry_space_group_name_H-M "C 2/M"
_symmetry_group_IT_number 12
_symmetry_cell_setting 'monoclinic'
loop_
_space_group_symop_operation_xyz
x,y,z
-x,y,-z
-x,-y,-z
x,-y,z
1/2+x,1/2+y,z
1/2-x,1/2+y,-z
1/2-x,1/2-y,-z
1/2+x,1/2-y,z
loop_
_atom_site_type_symbol
_atom_site_label
_atom_site_fract_x
_atom_site_fract_y
_atom_site_fract_z
Si Si1 0.010992 0.208373 0.412826
Si Si2 0.616423 0.351483 0.684514
Si Si3 0.204432 0.929729 0.209864
Si Si4 0.000000 0.000000 0.500000
Si Si5 0.754855 0.901453 0.643783
Si Si6 0.942370 0.734734 0.809514
Si Si7 0.876431 0.313780 0.097639
Si Si8 0.052552 0.343571 0.332199
O O1 0.878786 0.171103 0.399527
O O2 0.000000 0.206309 0.500000
O O3 0.174922 0.168509 0.355613
O O4 0.012925 0.279764 0.386242
O O5 0.478885 0.404303 0.729222
O O6 0.549328 0.290171 0.744598
O O7 0.787745 0.370703 0.672146
O O8 0.283659 0.928656 0.268209
O O9 0.296243 0.881163 0.135215
O O10 0.203191 0.000000 0.181945
O O11 0.889049 0.944514 0.569788
O O12 0.599031 0.890188 0.635063
O O13 0.771999 0.765791 0.875748
O O14 0.913786 0.682053 0.756555
O O15 0.033486 0.707869 0.853873
O O16 0.000000 0.315054 0.000000
#
# Coordination Sequence:
#
# PCOD9176576 Si02
#       8
#     8   8   8   2   8   8   8   8
#     4  10  20  35  55  85 117 146 182 238 301 353
#     4   9  20  34  57  83 115 151 194 238 293 354
#     4  10  21  40  59  77 112 166 203 237 289 344
#     4  12  24  44  60  82 110 160 216 244 278 348
#     4  11  22  39  63  80 112 159 200 242 292 350
#     4  10  18  35  57  89 125 154 184 238 296 363
#     4  11  21  34  60  94 123 154 193 241 297 354
#     4  11  20  35  59  88 116 150 191 240 302 362
#
# _framework density 17.713466
#
# number of rings (size 3 to 8) (size 9 to 14) (size 15 to 20)
#    0.000    1.655    4.138    2.897    0.000    2.483 
#    1.241    0.000    0.000    3.310    0.000    0.966 
#    0.000    0.000    0.000    0.000    0.000    0.000 
#
# Total GULP energy -161576.502609 kJ/mol
# GULP energy per Si atom -5571.603538 kJ/mol
# Density = 1.767315 g / cm^3
# Si number density = 17.713466 Si / 1000 Ang^3
#
#
#
# Elastic Constant Matrix: (Units=GPa)
#
#
# Indices 1 2 3 4 5 6 
#
# 1 108.6612 22.0310 -2.1585 0.0000 5.3004 0.0000
# 2 22.0310 79.9069 16.8085 0.0000 -1.8939 0.0000
# 3 -2.1585 16.8085 43.7157 0.0000 -1.5614 0.0000
# 4 0.0000 0.0000 0.0000 10.1848 0.0000 -4.3704
# 5 5.3004 -1.8939 -1.5614 0.0000 20.2092 0.0000
# 6 0.0000 0.0000 0.0000 -4.3704 0.0000 3.8587
#
#
#
# Elastic Compliance Matrix: (Units=1/GPa)
#
#
# Indices 1 2 3 4 5 6 
#
# 1 0.010013 -0.003166 0.001612 0.000000 -0.002798 0.000000
# 2 -0.003166 0.014632 -0.005720 0.000000 0.001760 0.000000
# 3 0.001612 -0.005720 0.025189 0.000000 0.000987 0.000000
# 4 0.000000 0.000000 0.000000 0.191030 0.000000 0.216364
# 5 -0.002798 0.001760 0.000987 0.000000 0.050458 0.000000
# 6 0.000000 0.000000 0.000000 0.216364 0.000000 0.504211
#
#
# Mechanical properties :
#
#
# Convention : Reuss Voigt Hill
#
# Bulk Modulus (GPa) = 28.33903 33.96067 31.14985
# Shear Modulus (GPa) = 6.08389 19.89074 12.98731
#
# Velocity S-wave (km/s) = 1.85528 3.35463 2.71068
# Velocity P-wave (km/s) = 4.54123 5.84966 5.23647
#
# Compressibility (1/GPa) = 0.03528702
#
# Stress axis : x y z
#
# Youngs Moduli (GPa) = 99.86639 68.34183 39.69979
#
# Poissons Ratio (x) = 0.21638 -0.06399
# Poissons Ratio (y) = 0.31619 0.22706
# Poissons Ratio (z) = -0.16097 0.39088
#
# Static dielectric constant tensor:
#      x y z
#    x 1.633070 0.000000 -0.007680 
#    y 0.000000 1.583300 0.000000 
#    z -0.007680 0.000000 1.614610 
# 
# From -- ./inp_files/251884.got.cif
#   From: 2010.05.17/outbox.cif.g08.bks.cpg/sg12_126_cif.got.tgz:251884.got - 2010.06.03 13:09:07.
