data_PCOD9176410
_publ_section_title
;
Structure prediction by ZEFSAII (Michael W. Deem and Ramdas Pophale) SiO2 
 PCOD9176410
Probable space group: C 2/M
;
_chemical_formula_sum "Si O2"
_cell_formula_units_Z 64
_cell_length_a 33.265579
_cell_length_b 8.776127
_cell_length_c 20.994897
_cell_angle_alpha 90.000000
_cell_angle_beta 143.317408
_cell_angle_gamma 90.000000
_cell_volume 3661.537758
_symmetry_space_group_name_H-M "C 2/M"
_symmetry_group_IT_number 12
_symmetry_cell_setting 'monoclinic'
loop_
_space_group_symop_operation_xyz
x,y,z
-x,y,-z
-x,-y,-z
x,-y,z
1/2+x,1/2+y,z
1/2-x,1/2+y,-z
1/2-x,1/2-y,-z
1/2+x,1/2-y,z
loop_
_atom_site_type_symbol
_atom_site_label
_atom_site_fract_x
_atom_site_fract_y
_atom_site_fract_z
Si Si1 0.170566 0.684080 0.576299
Si Si2 0.670694 0.316104 0.077057
Si Si3 0.465295 0.817228 0.144375
Si Si4 0.465264 0.319014 0.642898
Si Si5 0.676768 0.682940 0.234310
Si Si6 0.043828 0.683557 0.116635
Si Si7 0.178127 0.685029 0.734169
Si Si8 0.040421 0.682789 0.617019
O O1 0.164722 0.500000 0.565941
O O2 0.110783 0.758090 0.461083
O O3 0.246351 0.726373 0.652222
O O4 0.164065 0.728389 0.642775
O O5 0.666477 0.500000 0.067003
O O6 0.664472 0.276101 0.144299
O O7 0.746053 0.267921 0.152480
O O8 0.610507 0.241148 0.962114
O O9 0.498969 0.750691 0.250032
O O10 0.507755 0.768305 0.135864
O O11 0.465564 0.000000 0.147473
O O12 0.465421 0.500000 0.646825
O O13 0.505085 0.264129 0.630712
O O14 0.672656 0.500000 0.233077
O O15 0.619061 0.755898 0.203444
O O16 0.045123 0.500000 0.117124
O O17 0.000000 0.735926 0.000000
O O18 0.177809 0.500000 0.733862
O O19 0.117128 0.733779 0.701538
O O20 0.039167 0.500000 0.626887
O O21 0.000000 0.708957 0.500000
#
# Coordination Sequence:
#
# PCOD9176410 Si02
#       8
#     8   8   8   8   8   8   8   8
#     4   9  17  35  57  81 111 146 185 219 267 333
#     4   9  17  32  54  83 114 141 176 225 274 319
#     4  11  23  39  57  77 108 152 190 222 271 336
#     4  12  25  38  54  81 115 147 183 232 279 322
#     4   9  18  31  56  87 113 141 178 226 274 325
#     4  10  20  35  55  82 113 142 183 232 274 323
#     4   8  15  30  56  85 110 140 179 222 268 321
#     4  10  18  34  61  85 109 146 187 223 266 330
#
# _framework density 17.478994
#
# number of rings (size 3 to 8) (size 9 to 14) (size 15 to 20)
#    0.000    2.250    2.500    3.000    0.000    2.000 
#    0.000    3.750    0.000    0.000    0.000    0.000 
#    0.000    0.000    0.000    0.000    0.000    0.000 
#
# Total GULP energy -178541.652995 kJ/mol
# GULP energy per Si atom -5579.426656 kJ/mol
# Density = 1.743921 g / cm^3
# Si number density = 17.478994 Si / 1000 Ang^3
#
#
#
# Elastic Constant Matrix: (Units=GPa)
#
#
# Indices 1 2 3 4 5 6 
#
# 1 90.8755 33.1594 71.4077 0.0000 18.3551 0.0000
# 2 33.1594 37.9322 50.0407 0.0000 1.9030 0.0000
# 3 71.4077 50.0407 160.6728 0.0000 17.6350 0.0000
# 4 0.0000 0.0000 0.0000 26.0552 0.0000 6.7069
# 5 18.3551 1.9030 17.6350 0.0000 29.9427 0.0000
# 6 0.0000 0.0000 0.0000 6.7069 0.0000 13.3944
#
#
#
# Elastic Compliance Matrix: (Units=1/GPa)
#
#
# Indices 1 2 3 4 5 6 
#
# 1 0.020698 -0.011601 -0.004569 0.000000 -0.009259 0.000000
# 2 -0.011601 0.052191 -0.012311 0.000000 0.011045 0.000000
# 3 -0.004569 -0.012311 0.012504 0.000000 -0.003781 0.000000
# 4 0.000000 0.000000 0.000000 0.044059 0.000000 -0.022062
# 5 -0.009259 0.011045 -0.003781 0.000000 0.040598 0.000000
# 6 0.000000 0.000000 0.000000 -0.022062 0.000000 0.085705
#
#
# Mechanical properties :
#
#
# Convention : Reuss Voigt Hill
#
# Bulk Modulus (GPa) = 35.17458 66.52181 50.84819
# Shear Modulus (GPa) = 15.51860 22.86997 19.19429
#
# Velocity S-wave (km/s) = 2.98290 3.62114 3.31741
# Velocity P-wave (km/s) = 5.65961 7.45817 6.62025
#
# Compressibility (1/GPa) = 0.02842962
#
# Stress axis : x y z
#
# Youngs Moduli (GPa) = 48.31421 19.16041 79.97596
#
# Poissons Ratio (x) = 0.22228 0.36544
# Poissons Ratio (y) = 0.56050 0.98459
# Poissons Ratio (z) = 0.22076 0.23588
#
# Static dielectric constant tensor:
#      x y z
#    x 1.590580 0.000000 0.019010 
#    y 0.000000 1.585980 0.000000 
#    z 0.019010 0.000000 1.581300 
# 
# From -- ./inp_files/295744.got.cif
#   From: 2010.05.17/outbox.cif.g08.bks.cpg/sg12_148_cif.got.tgz:295744.got - 2010.06.03 13:09:07.
