data_PCOD9176517
_publ_section_title
;
Structure prediction by ZEFSAII (Michael W. Deem and Ramdas Pophale) SiO2 
 PCOD9176517
Probable space group: C 2/M
;
_chemical_formula_sum "Si O2"
_cell_formula_units_Z 56
_cell_length_a 27.927340
_cell_length_b 13.099193
_cell_length_c 11.471308
_cell_angle_alpha 90.000000
_cell_angle_beta 140.587960
_cell_angle_gamma 90.000000
_cell_volume 2664.326904
_symmetry_space_group_name_H-M "C 2/M"
_symmetry_group_IT_number 12
_symmetry_cell_setting 'monoclinic'
loop_
_space_group_symop_operation_xyz
x,y,z
-x,y,-z
-x,-y,-z
x,-y,z
1/2+x,1/2+y,z
1/2-x,1/2+y,-z
1/2-x,1/2-y,-z
1/2+x,1/2-y,z
loop_
_atom_site_type_symbol
_atom_site_label
_atom_site_fract_x
_atom_site_fract_y
_atom_site_fract_z
Si Si1 0.208453 0.817741 0.746667
Si Si2 0.059633 0.117074 0.005202
Si Si3 0.295499 0.888371 0.130281
Si Si4 0.047986 0.220135 0.368809
Si Si5 0.441673 0.116299 0.247567
Si Si6 0.074526 0.386570 0.221687
Si Si7 0.154343 0.318942 0.159006
O O1 0.218570 0.700236 0.805186
O O2 0.121330 0.833747 0.556502
O O3 0.263357 0.832458 0.740519
O O4 0.237464 0.879501 0.913297
O O5 0.010611 0.141756 0.798047
O O6 0.086105 0.000000 0.057830
O O7 0.124825 0.203136 0.126664
O O8 0.000000 0.130900 0.000000
O O9 0.376082 0.872736 0.219302
O O10 0.292475 0.000000 0.177761
O O11 0.074617 0.298221 0.316810
O O12 0.004049 0.296476 0.372099
O O13 0.470214 0.000000 0.307253
O O14 0.401439 0.134746 0.045735
O O15 0.073024 0.500000 0.270706
O O16 0.142272 0.375105 0.258011
O O17 0.000000 0.375399 0.000000
#
# Coordination Sequence:
#
# PCOD9176517 Si02
#       7
#     8   8   8   8   8   8   8
#     4  10  23  36  57  81 112 144 177 230 280 329
#     4  10  19  35  54  72 103 150 192 217 246 304
#     4   9  20  41  60  78 105 145 187 226 279 334
#     4  11  20  34  53  86 117 139 179 226 276 317
#     4   9  17  32  59  84 105 138 180 227 277 328
#     4  11  19  32  56  85 115 144 178 221 270 327
#     4  10  18  35  54  77 109 148 186 214 265 324
#
# _framework density 21.018440999999999
#
# number of rings (size 3 to 8) (size 9 to 14) (size 15 to 20)
#    0.000    2.000    4.286    0.857    0.000    4.000 
#    0.000    1.429    0.000    0.000    0.000    8.000 
#    0.000    0.000    0.000    0.000    0.000    0.000 
#
# Total GULP energy -156430.197278 kJ/mol
# GULP energy per Si atom -5586.792760 kJ/mol
# Density = 2.097060 g / cm^3
# Si number density = 21.018441 Si / 1000 Ang^3
#
#
#
# Elastic Constant Matrix: (Units=GPa)
#
#
# Indices 1 2 3 4 5 6 
#
# 1 44.9391 -4.3255 -2.1060 0.0000 3.8671 0.0000
# 2 -4.3255 61.5563 -8.6028 0.0000 -5.3694 0.0000
# 3 -2.1060 -8.6028 50.5035 0.0000 13.7253 0.0000
# 4 0.0000 0.0000 0.0000 -62.7747 0.0000 47.7392
# 5 3.8671 -5.3694 13.7253 0.0000 23.7930 0.0000
# 6 0.0000 0.0000 0.0000 47.7392 0.0000 -8.8108
#
#
#
# Elastic Compliance Matrix: (Units=1/GPa)
#
#
# Indices 1 2 3 4 5 6 
#
# 1 0.022936 0.001544 0.002535 0.000000 -0.004842 0.000000
# 2 0.001544 0.016873 0.002339 0.000000 0.002208 0.000000
# 3 0.002535 0.002339 0.024043 0.000000 -0.013754 0.000000
# 4 0.000000 0.000000 0.000000 0.005105 0.000000 0.027660
# 5 -0.004842 0.002208 -0.013754 0.000000 0.051248 0.000000
# 6 0.000000 0.000000 0.000000 0.027660 0.000000 0.036371
#
#
# Mechanical properties :
#
#
# Convention : Reuss Voigt Hill
#
# Bulk Modulus (GPa) = 13.03999 14.10336 13.57167
# Shear Modulus (GPa) = 29.53265 1.91038 15.72151
#
# Velocity S-wave (km/s) = 3.75251 0.95440 2.73790
# Velocity P-wave (km/s) = 4.99926 2.81763 4.05781
#
# Compressibility (1/GPa) = 0.07668719
#
# Stress axis : x y z
#
# Youngs Moduli (GPa) = 43.59877 59.26569 41.59298
#
# Poissons Ratio (x) = -0.09149 -0.10545
# Poissons Ratio (y) = -0.06730 -0.09727
# Poissons Ratio (z) = -0.11054 -0.13859
#
# Static dielectric constant tensor:
#      x y z
#    x 1.756430 0.000000 0.004140 
#    y 0.000000 1.737720 0.000000 
#    z 0.004140 0.000000 1.783810 
# 
# From -- ./inp_files/183545.got.cif
#   From: 2010.05.17/outbox.cif.g08.bks.cpg/sg12_92_cif.got.tgz:183545.got - 2010.06.03 13:09:07.
