data_PCOD9176623
_publ_section_title
;
Structure prediction by ZEFSAII (Michael W. Deem and Ramdas Pophale) SiO2 
 PCOD9176623
Probable space group: C 2/M
;
_chemical_formula_sum "Si O2"
_cell_formula_units_Z 64
_cell_length_a 31.267398
_cell_length_b 7.523399
_cell_length_c 16.535909
_cell_angle_alpha 90.000000
_cell_angle_beta 133.620430
_cell_angle_gamma 90.000000
_cell_volume 2815.970076
_symmetry_space_group_name_H-M "C 2/M"
_symmetry_group_IT_number 12
_symmetry_cell_setting 'monoclinic'
loop_
_space_group_symop_operation_xyz
x,y,z
-x,y,-z
-x,-y,-z
x,-y,z
1/2+x,1/2+y,z
1/2-x,1/2+y,-z
1/2-x,1/2-y,-z
1/2+x,1/2-y,z
loop_
_atom_site_type_symbol
_atom_site_label
_atom_site_fract_x
_atom_site_fract_y
_atom_site_fract_z
Si Si1 0.347424 0.207009 0.797161
Si Si2 0.834533 0.283064 0.299481
Si Si3 0.006005 0.703733 0.270201
Si Si4 0.125109 0.281525 0.344132
Si Si5 0.453177 0.783588 0.369395
Si Si6 0.789414 0.714527 0.408214
Si Si7 0.604496 0.704695 0.966485
Si Si8 0.775725 0.787490 0.945970
O O1 0.372409 0.278985 0.745107
O O2 0.276579 0.223719 0.697205
O O3 0.362586 0.000000 0.822701
O O4 0.373610 0.289643 0.912620
O O5 0.835540 0.500000 0.298358
O O6 0.889257 0.220888 0.316869
O O7 0.833011 0.232805 0.391506
O O8 0.772738 0.222308 0.180781
O O9 0.021012 0.500000 0.311469
O O10 0.976238 0.780516 0.312525
O O11 0.956612 0.704415 0.135944
O O12 0.066564 0.780350 0.314442
O O13 0.124975 0.500000 0.341882
O O14 0.182436 0.226630 0.470567
O O15 0.500000 0.739174 0.500000
O O16 0.449383 0.000000 0.360241
O O17 0.787024 0.500000 0.405671
O O18 0.595531 0.500000 0.931774
O O19 0.658927 0.783123 0.985436
O O20 0.779837 0.000000 0.940475
O O21 0.750000 0.750000 0.000000
#
# Coordination Sequence:
#
# PCOD9176623 Si02
#       8
#     8   8   8   8   8   8   8   8
#     4  11  22  37  57  84 114 146 192 242 287 337
#     4   9  16  28  48  75 107 140 173 213 267 325
#     4  10  20  37  59  84 114 150 193 237 282 334
#     4   9  20  36  58  85 112 148 190 237 290 340
#     4   9  16  27  50  84 114 141 180 225 269 328
#     4  10  18  35  59  83 116 150 183 230 289 347
#     4  11  23  40  58  80 113 152 191 234 288 341
#     4  10  20  34  52  77 106 141 182 224 270 328
#
# _framework density 22.727513999999999
#
# number of rings (size 3 to 8) (size 9 to 14) (size 15 to 20)
#    0.000    2.125    1.250    2.625    0.000    5.500 
#    0.000    5.000    0.000    0.375    0.000    0.000 
#    0.000    0.000    0.000    0.000    0.000    0.000 
#
# Total GULP energy -178817.677607 kJ/mol
# GULP energy per Si atom -5588.052425 kJ/mol
# Density = 2.267579 g / cm^3
# Si number density = 22.727514 Si / 1000 Ang^3
#
#
#
# Elastic Constant Matrix: (Units=GPa)
#
#
# Indices 1 2 3 4 5 6 
#
# 1 105.7669 -0.5984 23.6877 0.0000 -7.9204 0.0000
# 2 -0.5984 59.7328 -7.4291 0.0000 -1.5670 0.0000
# 3 23.6877 -7.4291 91.5465 0.0000 -6.6577 0.0000
# 4 0.0000 0.0000 0.0000 10.1891 0.0000 0.0737
# 5 -7.9204 -1.5670 -6.6577 0.0000 40.2741 0.0000
# 6 0.0000 0.0000 0.0000 0.0737 0.0000 5.4972
#
#
#
# Elastic Compliance Matrix: (Units=1/GPa)
#
#
# Indices 1 2 3 4 5 6 
#
# 1 0.010136 -0.000171 -0.002522 0.000000 0.001570 0.000000
# 2 -0.000171 0.016947 0.001483 0.000000 0.000871 0.000000
# 3 -0.002522 0.001483 0.011806 0.000000 0.001513 0.000000
# 4 0.000000 0.000000 0.000000 0.098154 0.000000 -0.001317
# 5 0.001570 0.000871 0.001513 0.000000 0.025423 0.000000
# 6 0.000000 0.000000 0.000000 -0.001317 0.000000 0.181929
#
#
# Mechanical properties :
#
#
# Convention : Reuss Voigt Hill
#
# Bulk Modulus (GPa) = 27.42112 32.04073 29.73092
# Shear Modulus (GPa) = 13.92866 27.28447 20.60657
#
# Velocity S-wave (km/s) = 2.47828 3.46859 3.01438
# Velocity P-wave (km/s) = 4.50339 5.49271 5.02247
#
# Compressibility (1/GPa) = 0.03646824
#
# Stress axis : x y z
#
# Youngs Moduli (GPa) = 98.65556 59.00827 84.69914
#
# Poissons Ratio (x) = 0.01009 0.21365
# Poissons Ratio (y) = 0.01687 -0.12559
# Poissons Ratio (z) = 0.24886 -0.08750
#
# Static dielectric constant tensor:
#      x y z
#    x 1.862370 0.000000 -0.006310 
#    y 0.000000 2.080470 0.000000 
#    z -0.006310 0.000000 1.815820 
# 
# From -- ./inp_files/249964.got.cif
#   From: 2010.05.17/outbox.cif.g08.bks.cpg/sg12_125_cif.got.tgz:249964.got - 2010.06.03 13:09:07.
