data_PCOD9176255
_publ_section_title
;
Structure prediction by ZEFSAII (Michael W. Deem and Ramdas Pophale) SiO2 
 PCOD9176255
Probable space group: C 2/M
;
_chemical_formula_sum "Si O2"
_cell_formula_units_Z 56
_cell_length_a 26.277452
_cell_length_b 7.475265
_cell_length_c 13.851515
_cell_angle_alpha 90.000000
_cell_angle_beta 112.930607
_cell_angle_gamma 90.000000
_cell_volume 2505.855926
_symmetry_space_group_name_H-M "C 2/M"
_symmetry_group_IT_number 12
_symmetry_cell_setting 'monoclinic'
loop_
_space_group_symop_operation_xyz
x,y,z
-x,y,-z
-x,-y,-z
x,-y,z
1/2+x,1/2+y,z
1/2-x,1/2+y,-z
1/2-x,1/2-y,-z
1/2+x,1/2-y,z
loop_
_atom_site_type_symbol
_atom_site_label
_atom_site_fract_x
_atom_site_fract_y
_atom_site_fract_z
Si Si1 0.990389 0.291029 0.386369
Si Si2 0.581637 0.218816 0.305727
Si Si3 0.938613 0.718113 0.928305
Si Si4 0.796863 0.713381 0.612222
Si Si5 0.341401 0.783353 0.000332
Si Si6 0.749944 0.219367 0.217086
Si Si7 0.133399 0.793767 0.759988
O O1 0.005319 0.500000 0.404643
O O2 0.032630 0.215856 0.338151
O O3 0.000000 0.212930 0.500000
O O4 0.926806 0.283860 0.306089
O O5 0.574247 0.274560 0.189615
O O6 0.643314 0.276816 0.379397
O O7 0.579549 0.000000 0.304011
O O8 0.937749 0.500000 0.928994
O O9 0.892590 0.774234 0.970857
O O10 0.000000 0.775994 0.000000
O O11 0.801792 0.500000 0.626668
O O12 0.750000 0.750000 0.500000
O O13 0.779383 0.779003 0.705762
O O14 0.285902 0.726903 0.903021
O O15 0.341209 0.000000 0.004321
O O16 0.350697 0.718242 0.115418
O O17 0.813189 0.281719 0.256207
O O18 0.750422 0.000000 0.217119
O O19 0.128478 0.000000 0.728358
#
# Coordination Sequence:
#
# PCOD9176255 Si02
#       7
#     8   8   8   8   8   8   8
#     4  10  22  39  59  83 109 141 188 237 272 314
#     4   9  17  33  56  82 109 137 177 229 274 317
#     4   9  15  25  50  82 105 131 173 221 268 314
#     4  10  20  36  58  84 111 142 182 227 274 324
#     4  10  18  34  58  82 107 140 187 233 268 315
#     4   9  19  36  57  82 112 147 185 222 268 332
#     4  11  23  37  54  80 116 152 181 218 276 337
#
# _framework density 22.347653000000001
#
# number of rings (size 3 to 8) (size 9 to 14) (size 15 to 20)
#    0.000    2.286    1.429    1.714    2.000    2.571 
#    0.000    2.857    0.000    3.857    0.000    0.000 
#    0.000    0.000    0.000    0.000    0.000    0.000 
#
# Total GULP energy -156443.723206 kJ/mol
# GULP energy per Si atom -5587.275829 kJ/mol
# Density = 2.229679 g / cm^3
# Si number density = 22.347653 Si / 1000 Ang^3
#
#
#
# Elastic Constant Matrix: (Units=GPa)
#
#
# Indices 1 2 3 4 5 6 
#
# 1 164.0326 -1.3278 34.4201 0.0000 12.0978 0.0000
# 2 -1.3278 58.6556 -11.0261 0.0000 -5.0751 0.0000
# 3 34.4201 -11.0261 83.4654 0.0000 16.6376 0.0000
# 4 0.0000 0.0000 0.0000 11.0303 0.0000 4.2069
# 5 12.0978 -5.0751 16.6376 0.0000 37.7728 0.0000
# 6 0.0000 0.0000 0.0000 4.2069 0.0000 5.1779
#
#
#
# Elastic Compliance Matrix: (Units=1/GPa)
#
#
# Indices 1 2 3 4 5 6 
#
# 1 0.006720 -0.000431 -0.002618 0.000000 -0.001057 0.000000
# 2 -0.000431 0.017584 0.002195 0.000000 0.001534 0.000000
# 3 -0.002618 0.002195 0.014388 0.000000 -0.005204 0.000000
# 4 0.000000 0.000000 0.000000 0.131367 0.000000 -0.106732
# 5 -0.001057 0.001534 -0.005204 0.000000 0.029311 0.000000
# 6 0.000000 0.000000 0.000000 -0.106732 0.000000 0.279844
#
#
# Mechanical properties :
#
#
# Convention : Reuss Voigt Hill
#
# Bulk Modulus (GPa) = 27.03836 38.92066 32.97951
# Shear Modulus (GPa) = 10.13687 29.73538 19.93612
#
# Velocity S-wave (km/s) = 2.13210 3.65167 2.99003
# Velocity P-wave (km/s) = 4.26455 5.93577 5.16816
#
# Compressibility (1/GPa) = 0.03698449
#
# Stress axis : x y z
#
# Youngs Moduli (GPa) = 148.80764 56.86903 69.50348
#
# Poissons Ratio (x) = 0.02453 0.18193
# Poissons Ratio (y) = 0.06420 -0.15257
# Poissons Ratio (z) = 0.38950 -0.12483
#
# Static dielectric constant tensor:
#      x y z
#    x 1.822670 0.000000 0.003080 
#    y 0.000000 1.875600 0.000000 
#    z 0.003080 0.000000 1.777160 
# 
# From -- ./inp_files/237866.got.cif
#   From: 2010.05.17/outbox.cif.g08.bks.cpg/sg12_119_cif.got.tgz:237866.got - 2010.06.03 13:09:07.
