data_PCOD9176263
_publ_section_title
;
Structure prediction by ZEFSAII (Michael W. Deem and Ramdas Pophale) SiO2 
 PCOD9176263
Probable space group: C 2/M
;
_chemical_formula_sum "Si O2"
_cell_formula_units_Z 56
_cell_length_a 31.060669
_cell_length_b 17.458945
_cell_length_c 8.834935
_cell_angle_alpha 90.000000
_cell_angle_beta 138.937780
_cell_angle_gamma 90.000000
_cell_volume 3147.146933
_symmetry_space_group_name_H-M "C 2/M"
_symmetry_group_IT_number 12
_symmetry_cell_setting 'monoclinic'
loop_
_space_group_symop_operation_xyz
x,y,z
-x,y,-z
-x,-y,-z
x,-y,z
1/2+x,1/2+y,z
1/2-x,1/2+y,-z
1/2-x,1/2-y,-z
1/2+x,1/2-y,z
loop_
_atom_site_type_symbol
_atom_site_label
_atom_site_fract_x
_atom_site_fract_y
_atom_site_fract_z
Si Si1 0.258325 0.819678 0.687993
Si Si2 0.561549 0.588673 0.778189
Si Si3 0.706206 0.089967 0.931149
Si Si4 0.850607 0.713815 0.681521
Si Si5 0.184873 0.178737 0.963764
Si Si6 0.386721 0.795821 0.437245
Si Si7 0.980439 0.777504 0.123764
O O1 0.185573 0.795119 0.446661
O O2 0.299743 0.834101 0.646189
O O3 0.265761 0.885220 0.831076
O O4 0.288363 0.742652 0.847844
O O5 0.500000 0.589943 0.500000
O O6 0.575351 0.500000 0.852224
O O7 0.625575 0.629248 0.875422
O O8 0.537755 0.641338 0.853045
O O9 0.636268 0.131752 0.721470
O O10 0.702141 0.000000 0.904033
O O11 0.756081 0.126784 0.940930
O O12 0.869856 0.685315 0.566695
O O13 0.915377 0.726363 0.950741
O O14 0.157481 0.227019 0.747782
O O15 0.460645 0.764699 0.632461
O O16 0.000000 0.786279 0.000000
#
# Coordination Sequence:
#
# PCOD9176263 Si02
#       7
#     8   8   8   8   8   8   8
#     4  10  19  33  60  80 108 140 189 229 268 324
#     4  11  22  35  52  82 115 145 180 224 274 327
#     4  11  22  37  56  84 114 143 181 236 285 319
#     4  10  18  34  58  83 104 143 191 227 263 323
#     4  11  18  36  57  80 109 148 184 226 265 327
#     4  10  19  36  59  80 107 143 193 225 266 325
#     4  10  21  35  57  81 109 150 190 221 271 327
#
# _framework density 17.793894999999999
#
# number of rings (size 3 to 8) (size 9 to 14) (size 15 to 20)
#    0.000    1.571    5.714    1.286    0.000    0.286 
#    0.000    1.429    0.000    5.571    0.000    0.000 
#    0.000    0.000    0.000    0.000    0.000    0.000 
#
# Total GULP energy -156150.371942 kJ/mol
# GULP energy per Si atom -5576.798998 kJ/mol
# Density = 1.775340 g / cm^3
# Si number density = 17.793895 Si / 1000 Ang^3
#
#
#
# Elastic Constant Matrix: (Units=GPa)
#
#
# Indices 1 2 3 4 5 6 
#
# 1 53.2471 16.1353 5.5395 0.0000 6.2292 0.0000
# 2 16.1353 95.7393 29.1112 0.0000 10.6310 0.0000
# 3 5.5395 29.1112 86.3917 0.0000 14.6613 0.0000
# 4 0.0000 0.0000 0.0000 14.9170 0.0000 -0.1318
# 5 6.2292 10.6310 14.6613 0.0000 21.6848 0.0000
# 6 0.0000 0.0000 0.0000 -0.1318 0.0000 15.9259
#
#
#
# Elastic Compliance Matrix: (Units=1/GPa)
#
#
# Indices 1 2 3 4 5 6 
#
# 1 0.020194 -0.003045 0.000522 0.000000 -0.004661 0.000000
# 2 -0.003045 0.012329 -0.003481 0.000000 -0.002816 0.000000
# 3 0.000522 -0.003481 0.014064 0.000000 -0.007952 0.000000
# 4 0.000000 0.000000 0.000000 0.067043 0.000000 0.000555
# 5 -0.004661 -0.002816 -0.007952 0.000000 0.054212 0.000000
# 6 0.000000 0.000000 0.000000 0.000555 0.000000 0.062795
#
#
# Mechanical properties :
#
#
# Convention : Reuss Voigt Hill
#
# Bulk Modulus (GPa) = 28.91840 37.43888 33.17864
# Shear Modulus (GPa) = 19.67175 22.81168 21.24172
#
# Velocity S-wave (km/s) = 3.32856 3.58438 3.45884
# Velocity P-wave (km/s) = 5.57311 6.18194 5.88540
#
# Compressibility (1/GPa) = 0.03458006
#
# Stress axis : x y z
#
# Youngs Moduli (GPa) = 49.51978 81.10669 71.10139
#
# Poissons Ratio (x) = 0.24693 -0.03712
# Poissons Ratio (y) = 0.15076 0.24754
# Poissons Ratio (z) = -0.02586 0.28237
#
# Static dielectric constant tensor:
#      x y z
#    x 1.639140 0.000000 0.003040 
#    y 0.000000 1.569510 0.000000 
#    z 0.003040 0.000000 1.640350 
# 
# From -- ./inp_files/96950.got.cif
#   From: 2010.05.17/outbox.cif.g08.bks.cpg/sg12_49_cif.got.tgz:96950.got - 2010.06.03 13:09:07.
