data_PCOD9176842
_publ_section_title
;
Structure prediction by ZEFSAII (Michael W. Deem and Ramdas Pophale) SiO2 
 PCOD9176842
Probable space group: C 2/M
;
_chemical_formula_sum "Si O2"
_cell_formula_units_Z 40
_cell_length_a 15.075026
_cell_length_b 15.572134
_cell_length_c 7.450626
_cell_angle_alpha 90.000000
_cell_angle_beta 65.089404
_cell_angle_gamma 90.000000
_cell_volume 1586.317213
_symmetry_space_group_name_H-M "C 2/M"
_symmetry_group_IT_number 12
_symmetry_cell_setting 'monoclinic'
loop_
_space_group_symop_operation_xyz
x,y,z
-x,y,-z
-x,-y,-z
x,-y,z
1/2+x,1/2+y,z
1/2-x,1/2+y,-z
1/2-x,1/2-y,-z
1/2+x,1/2-y,z
loop_
_atom_site_type_symbol
_atom_site_label
_atom_site_fract_x
_atom_site_fract_y
_atom_site_fract_z
Si Si1 0.059833 0.160475 0.700360
Si Si2 0.370725 0.599017 0.734537
Si Si3 0.675143 0.901316 0.096392
Si Si4 0.266587 0.160141 0.589827
Si Si5 0.531882 0.857774 0.685026
O O1 0.095128 0.153353 0.463399
O O2 0.157356 0.123510 0.708129
O O3 0.040195 0.260481 0.747761
O O4 0.955912 0.114251 0.808315
O O5 0.375357 0.500000 0.675490
O O6 0.260647 0.618262 0.884207
O O7 0.692856 0.834822 0.243081
O O8 0.562023 0.896971 0.135927
O O9 0.692390 0.000000 0.144244
O O10 0.250000 0.250000 0.500000
O O11 0.355039 0.110731 0.411689
O O12 0.500000 0.863456 0.500000
#
# Coordination Sequence:
#
# PCOD9176842 Si02
#       5
#     8   8   8   8   8
#     4  10  18  36  58  82 114 151 188 234 285 338
#     4  10  21  36  57  85 114 151 191 233 287 342
#     4  10  22  38  59  86 117 151 192 237 284 341
#     4   9  20  36  57  83 114 147 191 236 282 341
#     4   9  17  35  56  81 109 147 192 229 281 339
#
# _framework density 25.215637999999998
#
# number of rings (size 3 to 8) (size 9 to 14) (size 15 to 20)
#    0.000    2.400    2.000    1.200    0.000    6.800 
#    0.000    3.000    0.000    2.400    0.000    0.000 
#    0.000    0.000    0.000    0.000    0.000    0.000 
#
# Total GULP energy -111514.170621 kJ/mol
# GULP energy per Si atom -5575.708531 kJ/mol
# Density = 2.515825 g / cm^3
# Si number density = 25.215638 Si / 1000 Ang^3
#
#
#
# Elastic Constant Matrix: (Units=GPa)
#
#
# Indices 1 2 3 4 5 6 
#
# 1 158.7298 4.7264 55.3120 0.0000 -51.7475 0.0000
# 2 4.7264 74.1811 24.9676 0.0000 -8.9384 0.0000
# 3 55.3120 24.9676 106.6394 0.0000 -53.5127 0.0000
# 4 0.0000 0.0000 0.0000 24.8257 0.0000 -33.1203
# 5 -51.7475 -8.9384 -53.5127 0.0000 50.9607 0.0000
# 6 0.0000 0.0000 0.0000 -33.1203 0.0000 22.8078
#
#
#
# Elastic Compliance Matrix: (Units=1/GPa)
#
#
# Indices 1 2 3 4 5 6 
#
# 1 0.009448 0.000648 -0.000382 0.000000 0.009306 0.000000
# 2 0.000648 0.014794 -0.004582 0.000000 -0.001558 0.000000
# 3 -0.000382 -0.004582 0.021245 0.000000 0.021117 0.000000
# 4 0.000000 0.000000 0.000000 -0.042974 0.000000 -0.062405
# 5 0.009306 -0.001558 0.021117 0.000000 0.050974 0.000000
# 6 0.000000 0.000000 0.000000 -0.062405 0.000000 -0.046776
#
#
# Mechanical properties :
#
#
# Convention : Reuss Voigt Hill
#
# Bulk Modulus (GPa) = 27.13384 56.61803 41.87593
# Shear Modulus (GPa) = 180.97958 36.68846 108.83402
#
# Velocity S-wave (km/s) = 8.48107 3.81857 6.57685
# Velocity P-wave (km/s) = 10.32903 6.47644 8.62070
#
# Compressibility (1/GPa) = 0.03685435
#
# Stress axis : x y z
#
# Youngs Moduli (GPa) = 105.84547 67.59688 47.06915
#
# Poissons Ratio (x) = -0.04381 0.01800
# Poissons Ratio (y) = -0.06859 0.21566
# Poissons Ratio (z) = 0.04048 0.30972
#
# Static dielectric constant tensor:
#      x y z
#    x 2.298770 0.000000 0.025850 
#    y 0.000000 1.923550 0.000000 
#    z 0.025850 0.000000 2.041940 
# 
# From -- ./inp_files/60835.got.cif
#   From: 2010.05.17/outbox.cif.g08.bks.cpg/sg12_31_cif.got.tgz:60835.got - 2010.06.03 13:09:07.
