data_PCOD9176865
_publ_section_title
;
Structure prediction by ZEFSAII (Michael W. Deem and Ramdas Pophale) SiO2 
 PCOD9176865
Probable space group: C 2/M
;
_chemical_formula_sum "Si O2"
_cell_formula_units_Z 64
_cell_length_a 15.038069
_cell_length_b 24.080378
_cell_length_c 16.707193
_cell_angle_alpha 90.000000
_cell_angle_beta 148.036394
_cell_angle_gamma 90.000000
_cell_volume 3202.777635
_symmetry_space_group_name_H-M "C 2/M"
_symmetry_group_IT_number 12
_symmetry_cell_setting 'monoclinic'
loop_
_space_group_symop_operation_xyz
x,y,z
-x,y,-z
-x,-y,-z
x,-y,z
1/2+x,1/2+y,z
1/2-x,1/2+y,-z
1/2-x,1/2-y,-z
1/2+x,1/2-y,z
loop_
_atom_site_type_symbol
_atom_site_label
_atom_site_fract_x
_atom_site_fract_y
_atom_site_fract_z
Si Si1 0.775058 0.436000 0.209913
Si Si2 0.464730 0.263449 0.711645
Si Si3 0.290782 0.397961 0.394780
Si Si4 0.313464 0.636289 0.098604
Si Si5 0.647770 0.728175 0.553800
Si Si6 0.474429 0.563713 0.847790
Si Si7 0.980715 0.632553 0.253462
Si Si8 0.841395 0.936801 0.268213
O O1 0.832707 0.500000 0.257653
O O2 0.692073 0.420511 0.230835
O O3 0.912704 0.394355 0.282324
O O4 0.624255 0.434748 0.028653
O O5 0.626735 0.300000 0.856102
O O6 0.411830 0.283944 0.582882
O O7 0.314489 0.265228 0.663309
O O8 0.494846 0.198281 0.721832
O O9 0.306283 0.333273 0.379328
O O10 0.248669 0.431606 0.282577
O O11 0.465805 0.420704 0.563031
O O12 0.148269 0.397594 0.352433
O O13 0.471819 0.603176 0.182354
O O14 0.278950 0.608600 0.157502
O O15 0.157187 0.625963 0.921632
O O16 0.500000 0.749774 0.500000
O O17 0.459908 0.500000 0.810029
O O18 0.830952 0.000000 0.230056
#
# Coordination Sequence:
#
# PCOD9176865 Si02
#       8
#     8   8   8   8   8   8   8   8
#     4   8  15  30  50  73 102 138 173 215 264 325
#     4  10  21  34  55  82 113 144 189 229 278 341
#     4  10  19  38  57  80 109 144 192 235 282 331
#     4  11  20  36  54  83 117 148 181 232 285 336
#     4  10  18  36  59  79 104 148 189 235 279 328
#     4   8  15  29  50  73 101 138 179 211 260 326
#     4  10  22  34  57  83 114 147 183 231 287 340
#     4  11  22  37  60  83 111 152 196 237 285 338
#
# _framework density 19.982655000000001
#
# number of rings (size 3 to 8) (size 9 to 14) (size 15 to 20)
#    0.000    2.250    2.500    2.250    0.000    3.000 
#    0.000    0.625    0.000    4.500    0.000    2.625 
#    0.000    0.000    0.000    0.000    0.000    0.000 
#
# Total GULP energy -178403.539485 kJ/mol
# GULP energy per Si atom -5575.110609 kJ/mol
# Density = 1.993717 g / cm^3
# Si number density = 19.982655 Si / 1000 Ang^3
#
#
#
# Elastic Constant Matrix: (Units=GPa)
#
#
# Indices 1 2 3 4 5 6 
#
# 1 69.2002 32.4234 -8.1480 0.0000 16.6882 0.0000
# 2 32.4234 58.8784 -3.0137 0.0000 13.6325 0.0000
# 3 -8.1480 -3.0137 7.9565 0.0000 1.9352 0.0000
# 4 0.0000 0.0000 0.0000 1.8800 0.0000 5.1151
# 5 16.6882 13.6325 1.9352 0.0000 25.7414 0.0000
# 6 0.0000 0.0000 0.0000 5.1151 0.0000 30.6097
#
#
#
# Elastic Compliance Matrix: (Units=1/GPa)
#
#
# Indices 1 2 3 4 5 6 
#
# 1 0.025006 -0.009445 0.025218 0.000000 -0.013105 0.000000
# 2 -0.009445 0.023741 0.000905 0.000000 -0.006518 0.000000
# 3 0.025218 0.000905 0.158850 -0.000002 -0.028770 0.000000
# 4 0.000000 0.000000 -0.000002 0.975390 0.000000 -0.162993
# 5 -0.013105 -0.006518 -0.028770 0.000000 0.052959 0.000000
# 6 0.000000 0.000000 0.000000 -0.162993 0.000000 0.059907
#
#
# Mechanical properties :
#
#
# Convention : Reuss Voigt Hill
#
# Bulk Modulus (GPa) = 4.15021 19.83984 11.99502
# Shear Modulus (GPa) = 3.72353 19.29777 11.51065
#
# Velocity S-wave (km/s) = 1.36654 3.11098 2.40267
# Velocity P-wave (km/s) = 2.13806 4.78063 3.70309
#
# Compressibility (1/GPa) = 0.24095156
#
# Stress axis : x y z
#
# Youngs Moduli (GPa) = 39.99028 42.12132 6.29527
#
# Poissons Ratio (x) = 0.39785 -0.15875
# Poissons Ratio (y) = 0.37772 -0.00570
# Poissons Ratio (z) = -1.00847 -0.03812
#
# Static dielectric constant tensor:
#      x y z
#    x 1.713240 0.000000 0.027060 
#    y 0.000000 1.703500 0.000000 
#    z 0.027060 0.000000 1.722430 
# 
# From -- ./inp_files/272887.got.cif
#   From: 2010.05.17/outbox.cif.g08.bks.cpg/sg12_137_cif.got.tgz:272887.got - 2010.06.03 13:09:07.
