data_PCOD9176863
_publ_section_title
;
Structure prediction by ZEFSAII (Michael W. Deem and Ramdas Pophale) SiO2 
 PCOD9176863
Probable space group: C 2/M
;
_chemical_formula_sum "Si O2"
_cell_formula_units_Z 40
_cell_length_a 18.546686
_cell_length_b 17.878619
_cell_length_c 5.113564
_cell_angle_alpha 90.000000
_cell_angle_beta 88.515289
_cell_angle_gamma 90.000000
_cell_volume 1695.032995
_symmetry_space_group_name_H-M "C 2/M"
_symmetry_group_IT_number 12
_symmetry_cell_setting 'monoclinic'
loop_
_space_group_symop_operation_xyz
x,y,z
-x,y,-z
-x,-y,-z
x,-y,z
1/2+x,1/2+y,z
1/2-x,1/2+y,-z
1/2-x,1/2-y,-z
1/2+x,1/2-y,z
loop_
_atom_site_type_symbol
_atom_site_label
_atom_site_fract_x
_atom_site_fract_y
_atom_site_fract_z
Si Si1 0.642119 0.796261 0.964911
Si Si2 0.215356 0.837919 0.288135
Si Si3 0.449771 0.083872 0.749648
Si Si4 0.093419 0.828628 0.651228
Si Si5 0.913404 0.083536 0.843964
O O1 0.700539 0.835539 0.771161
O O2 0.584529 0.751219 0.789388
O O3 0.681144 0.732391 0.134002
O O4 0.608414 0.854648 0.167897
O O5 0.180835 0.831445 0.581174
O O6 0.173731 0.909893 0.178372
O O7 0.500000 0.103483 0.500000
O O8 0.419861 0.000000 0.703865
O O9 0.500000 0.079885 0.000000
O O10 0.064465 0.853171 0.370212
O O11 0.071457 0.890720 0.864222
O O12 0.937124 0.000000 0.781735
#
# Coordination Sequence:
#
# PCOD9176863 Si02
#       5
#     8   8   8   8   8
#     4  10  18  36  59  76 114 144 188 247 296 336
#     4   8  19  31  53  86 107 146 186 230 297 360
#     4  10  24  43  59  81 113 158 208 245 281 327
#     4   9  18  30  48  77 106 141 185 217 281 347
#     4   9  17  29  44  71 116 147 169 206 259 344
#
# _framework density 23.598358999999999
#
# number of rings (size 3 to 8) (size 9 to 14) (size 15 to 20)
#    1.200    1.600    0.000    1.200    2.800    0.800 
#    0.000    0.000    0.000    0.000    0.000    0.000 
#    0.000   84.800    0.000    0.000    0.000    0.000 
#
# Total GULP energy -111530.217398 kJ/mol
# GULP energy per Si atom -5576.510870 kJ/mol
# Density = 2.354465 g / cm^3
# Si number density = 23.598359 Si / 1000 Ang^3
#
#
#
# Elastic Constant Matrix: (Units=GPa)
#
#
# Indices 1 2 3 4 5 6 
#
# 1 48.9557 47.7558 31.1391 0.0000 -17.6231 0.0000
# 2 47.7558 119.0277 47.4692 0.0000 -18.9274 0.0000
# 3 31.1391 47.4692 160.7800 0.0000 -23.7404 0.0000
# 4 0.0000 0.0000 0.0000 31.8111 0.0000 -11.0353
# 5 -17.6231 -18.9274 -23.7404 0.0000 45.4256 0.0000
# 6 0.0000 0.0000 0.0000 -11.0353 0.0000 22.6188
#
#
#
# Elastic Compliance Matrix: (Units=1/GPa)
#
#
# Indices 1 2 3 4 5 6 
#
# 1 0.037146 -0.012742 -0.002263 0.000000 0.007919 0.000000
# 2 -0.012742 0.014211 -0.001716 0.000000 0.000081 0.000000
# 3 -0.002263 -0.001716 0.007509 0.000000 0.002331 0.000000
# 4 0.000000 0.000000 0.000000 0.037840 0.000000 0.018461
# 5 0.007919 0.000081 0.002331 0.000000 0.026339 0.000000
# 6 0.000000 0.000000 0.000000 0.018461 0.000000 0.053218
#
#
# Mechanical properties :
#
#
# Convention : Reuss Voigt Hill
#
# Bulk Modulus (GPa) = 39.33217 64.61016 51.97117
# Shear Modulus (GPa) = 22.91695 33.46438 28.19066
#
# Velocity S-wave (km/s) = 3.11967 3.76983 3.46005
# Velocity P-wave (km/s) = 5.44793 6.81082 6.16714
#
# Compressibility (1/GPa) = 0.02542448
#
# Stress axis : x y z
#
# Youngs Moduli (GPa) = 26.92046 70.36857 133.17671
#
# Poissons Ratio (x) = 0.89663 0.30138
# Poissons Ratio (y) = 0.34302 0.22852
# Poissons Ratio (z) = 0.06092 0.12074
#
# Static dielectric constant tensor:
#      x y z
#    x 2.066510 0.000000 0.032180 
#    y 0.000000 1.873610 0.000000 
#    z 0.032180 0.000000 1.873350 
# 
# From -- ./inp_files/24054.got.cif
#   From: 2010.05.17/outbox.cif.g08.bks.cpg/sg12_13_cif.got.tgz:24054.got - 2010.06.03 13:09:07.
