data_PCOD9176549
_publ_section_title
;
Structure prediction by ZEFSAII (Michael W. Deem and Ramdas Pophale) SiO2 
 PCOD9176549
Probable space group: C 2/M
;
_chemical_formula_sum "Si O2"
_cell_formula_units_Z 64
_cell_length_a 8.625316
_cell_length_b 13.511762
_cell_length_c 31.641628
_cell_angle_alpha 90.000000
_cell_angle_beta 54.364652
_cell_angle_gamma 90.000000
_cell_volume 2997.079364
_symmetry_space_group_name_H-M "C 2/M"
_symmetry_group_IT_number 12
_symmetry_cell_setting 'monoclinic'
loop_
_space_group_symop_operation_xyz
x,y,z
-x,y,-z
-x,-y,-z
x,-y,z
1/2+x,1/2+y,z
1/2-x,1/2+y,-z
1/2-x,1/2-y,-z
1/2+x,1/2-y,z
loop_
_atom_site_type_symbol
_atom_site_label
_atom_site_fract_x
_atom_site_fract_y
_atom_site_fract_z
Si Si1 0.778232 0.893225 0.522712
Si Si2 0.275429 0.789608 0.647205
Si Si3 0.213930 0.114365 0.133515
Si Si4 0.296562 0.207479 0.038706
Si Si5 0.851168 0.707318 0.723898
Si Si6 0.860982 0.609194 0.898947
Si Si7 0.461441 0.192700 0.795358
Si Si8 0.349677 0.686850 0.420711
O O1 0.691168 0.801894 0.561582
O O2 0.779127 0.872574 0.472458
O O3 0.000000 0.894022 0.500000
O O4 0.693539 0.000000 0.546154
O O5 0.320080 0.846306 0.683826
O O6 0.421564 0.695687 0.621343
O O7 0.265751 0.841183 0.603007
O O8 0.059831 0.753274 0.686627
O O9 0.175763 0.138872 0.089875
O O10 0.441496 0.127448 0.106673
O O11 0.112244 0.197487 0.178419
O O12 0.166543 0.000000 0.150636
O O13 0.295972 0.308964 0.065819
O O14 0.500000 0.157345 0.000000
O O15 0.250000 0.250000 0.000000
O O16 0.686339 0.790572 0.752613
O O17 0.857554 0.658230 0.769025
O O18 0.792874 0.500000 0.919608
O O19 0.918490 0.622160 0.841145
#
# Coordination Sequence:
#
# PCOD9176549 Si02
#       8
#     8   8   8   8   8   8   8   8
#     4  10  20  33  56  83 109 149 189 225 274 325
#     4   9  18  32  56  81 109 148 184 217 280 332
#     4  10  21  36  59  84 109 147 183 221 273 325
#     4  11  22  38  57  82 114 147 181 223 269 324
#     4   9  18  32  58  82 106 145 183 218 281 332
#     4  10  21  36  58  84 110 145 183 224 273 322
#     4  10  18  36  58  83 108 140 180 231 270 323
#     4  10  18  35  56  81 111 148 184 230 268 325
#
# _framework density 21.354123000000001
#
# number of rings (size 3 to 8) (size 9 to 14) (size 15 to 20)
#    0.000    2.125    3.750    0.000    0.000    1.000 
#    0.000    3.125    0.000   30.000    0.000    0.000 
#    0.000    0.000    0.000    0.000    0.000    0.000 
#
# Total GULP energy -178159.454007 kJ/mol
# GULP energy per Si atom -5567.482938 kJ/mol
# Density = 2.130552 g / cm^3
# Si number density = 21.354123 Si / 1000 Ang^3
#
#
#
# Elastic Constant Matrix: (Units=GPa)
#
#
# Indices 1 2 3 4 5 6 
#
# 1 80.7234 -4.4325 32.1418 0.0000 31.2183 0.0000
# 2 -4.4325 77.6620 4.6819 0.0000 -7.5712 0.0000
# 3 32.1418 4.6819 98.1319 0.0000 32.6055 0.0000
# 4 0.0000 0.0000 0.0000 9.7948 0.0000 -4.9055
# 5 31.2183 -7.5712 32.6055 0.0000 57.8184 0.0000
# 6 0.0000 0.0000 0.0000 -4.9055 0.0000 9.3319
#
#
#
# Elastic Compliance Matrix: (Units=1/GPa)
#
#
# Indices 1 2 3 4 5 6 
#
# 1 0.016349 0.000427 -0.003028 0.000000 -0.007064 0.000000
# 2 0.000427 0.013227 -0.001563 0.000000 0.002383 0.000000
# 3 -0.003028 -0.001563 0.013267 0.000000 -0.006051 0.000000
# 4 0.000000 0.000000 0.000000 0.138579 0.000000 0.072847
# 5 -0.007064 0.002383 -0.006051 0.000000 0.024834 0.000000
# 6 0.000000 0.000000 0.000000 0.072847 0.000000 0.145453
#
#
# Mechanical properties :
#
#
# Convention : Reuss Voigt Hill
#
# Bulk Modulus (GPa) = 28.97211 35.69996 32.33603
# Shear Modulus (GPa) = 13.45741 30.33077 21.89409
#
# Velocity S-wave (km/s) = 2.51311 3.77287 3.20548
# Velocity P-wave (km/s) = 4.69232 5.97777 5.37362
#
# Compressibility (1/GPa) = 0.03451596
#
# Stress axis : x y z
#
# Youngs Moduli (GPa) = 61.16587 75.60192 75.37236
#
# Poissons Ratio (x) = -0.03228 0.22825
# Poissons Ratio (y) = -0.02612 0.11778
# Poissons Ratio (z) = 0.18523 0.11814
#
# Static dielectric constant tensor:
#      x y z
#    x 1.855410 0.000000 0.031730 
#    y 0.000000 1.722920 0.000000 
#    z 0.031730 0.000000 1.865070 
# 
# From -- ./inp_files/356168.got.cif
#   From: 2010.05.17/outbox.cif.g08.bks.cpg/sg12_179_cif.got.tgz:356168.got - 2010.06.03 13:09:07.
