data_PCOD9176791
_publ_section_title
;
Structure prediction by ZEFSAII (Michael W. Deem and Ramdas Pophale) SiO2 
 PCOD9176791
Probable space group: C 2/M
;
_chemical_formula_sum "Si O2"
_cell_formula_units_Z 56
_cell_length_a 20.526104
_cell_length_b 19.855114
_cell_length_c 19.928265
_cell_angle_alpha 90.000000
_cell_angle_beta 21.675683
_cell_angle_gamma 90.000000
_cell_volume 2999.779358
_symmetry_space_group_name_H-M "C 2/M"
_symmetry_group_IT_number 12
_symmetry_cell_setting 'monoclinic'
loop_
_space_group_symop_operation_xyz
x,y,z
-x,y,-z
-x,-y,-z
x,-y,z
1/2+x,1/2+y,z
1/2-x,1/2+y,-z
1/2-x,1/2-y,-z
1/2+x,1/2-y,z
loop_
_atom_site_type_symbol
_atom_site_label
_atom_site_fract_x
_atom_site_fract_y
_atom_site_fract_z
Si Si1 0.886352 0.075480 0.226531
Si Si2 0.851547 0.574201 0.418002
Si Si3 0.293173 0.696387 0.515440
Si Si4 0.706719 0.280812 0.729699
Si Si5 0.717569 0.113030 0.118854
Si Si6 0.209902 0.754383 0.873858
Si Si7 0.195623 0.817424 0.095012
O O1 0.811129 0.080727 0.374264
O O2 0.788457 0.137748 0.283109
O O3 0.845976 0.000000 0.239741
O O4 0.100641 0.083447 0.024073
O O5 0.847700 0.500000 0.390860
O O6 0.832844 0.633005 0.380653
O O7 0.026678 0.579167 0.297036
O O8 0.250000 0.750000 0.500000
O O9 0.277756 0.736071 0.600287
O O10 0.492162 0.677116 0.308533
O O11 0.776316 0.254354 0.734316
O O12 0.496240 0.270686 0.930474
O O13 0.694350 0.184176 0.179426
O O14 0.757242 0.124876 0.002108
O O15 0.219241 0.690283 0.913476
O O16 0.250000 0.750000 0.000000
#
# Coordination Sequence:
#
# PCOD9176791 Si02
#       7
#     8   8   8   8   8   8   8
#     4  10  20  35  52  78 110 145 186 223 263 318
#     4  11  22  35  55  83 109 141 183 225 270 323
#     4  12  19  34  55  80 106 141 180 228 275 311
#     4  10  20  34  54  76 111 147 177 228 268 316
#     4  10  18  36  55  77 109 145 179 226 273 314
#     4   9  19  34  50  81 110 140 188 218 267 328
#     4  10  19  31  52  80 108 135 178 229 269 319
#
# _framework density 18.668040000000001
#
# number of rings (size 3 to 8) (size 9 to 14) (size 15 to 20)
#    0.000    1.714    2.857    4.714    0.000    0.571 
#    0.000    6.429    0.000    1.714    0.000   11.000 
#    0.000    0.000    0.000    0.000    0.000    0.000 
#
# Total GULP energy -155884.622956 kJ/mol
# GULP energy per Si atom -5567.307963 kJ/mol
# Density = 1.862555 g / cm^3
# Si number density = 18.668040 Si / 1000 Ang^3
#
#
#
# Elastic Constant Matrix: (Units=GPa)
#
#
# Indices 1 2 3 4 5 6 
#
# 1 96.8224 16.3761 5.5071 -0.0171 18.8296 0.0077
# 2 16.3761 36.6507 1.1976 -0.0334 0.5386 0.0030
# 3 5.5071 1.1976 64.3636 -0.0492 1.0514 0.0081
# 4 -0.0171 -0.0334 -0.0492 12.1941 -0.0060 -0.2305
# 5 18.8296 0.5386 1.0514 -0.0060 22.2368 -0.0028
# 6 0.0077 0.0030 0.0081 -0.2305 -0.0028 14.2419
#
#
#
# Elastic Compliance Matrix: (Units=1/GPa)
#
#
# Indices 1 2 3 4 5 6 
#
# 1 0.013569 -0.005868 -0.000867 -0.000006 -0.011307 -0.000008
# 2 -0.005868 0.029848 -0.000123 0.000075 0.004252 -0.000001
# 3 -0.000867 -0.000123 0.015613 0.000061 -0.000001 -0.000007
# 4 -0.000006 0.000075 0.000061 0.082033 0.000023 0.001327
# 5 -0.011307 0.004252 -0.000001 0.000023 0.054442 0.000016
# 6 -0.000008 -0.000001 -0.000007 0.001327 0.000016 0.070237
#
#
# Mechanical properties :
#
#
# Convention : Reuss Voigt Hill
#
# Bulk Modulus (GPa) = 22.06813 27.11092 24.58952
# Shear Modulus (GPa) = 16.97432 21.38496 19.17964
#
# Velocity S-wave (km/s) = 3.01868 3.38825 3.20879
# Velocity P-wave (km/s) = 4.89867 5.46454 5.18932
#
# Compressibility (1/GPa) = 0.04531422
#
# Stress axis : x y z
#
# Youngs Moduli (GPa) = 73.69774 33.50282 64.04812
#
# Poissons Ratio (x) = 0.19661 0.05554
# Poissons Ratio (y) = 0.43248 0.00786
# Poissons Ratio (z) = 0.06390 0.00411
#
# Static dielectric constant tensor:
#      x y z
#    x 1.678310 0.000140 -0.001640 
#    y 0.000140 2.016010 -0.000050 
#    z -0.001640 -0.000050 1.680480 
# 
# From -- ./inp_files/322627.got.cif
#   From: 2010.05.17/outbox.cif.g08.bks.cpg/sg12_162_cif.got.tgz:322627.got - 2010.06.03 13:09:07.
