data_PCOD9176719
_publ_section_title
;
Structure prediction by ZEFSAII (Michael W. Deem and Ramdas Pophale) SiO2 
 PCOD9176719
Probable space group: C 2/M
;
_chemical_formula_sum "Si O2"
_cell_formula_units_Z 56
_cell_length_a 28.761541
_cell_length_b 8.725761
_cell_length_c 18.036182
_cell_angle_alpha 90.000000
_cell_angle_beta 136.729040
_cell_angle_gamma 90.000000
_cell_volume 3102.669189
_symmetry_space_group_name_H-M "C 2/M"
_symmetry_group_IT_number 12
_symmetry_cell_setting 'monoclinic'
loop_
_space_group_symop_operation_xyz
x,y,z
-x,y,-z
-x,-y,-z
x,-y,z
1/2+x,1/2+y,z
1/2-x,1/2+y,-z
1/2-x,1/2-y,-z
1/2+x,1/2-y,z
loop_
_atom_site_type_symbol
_atom_site_label
_atom_site_fract_x
_atom_site_fract_y
_atom_site_fract_z
Si Si1 0.559390 0.684434 0.924366
Si Si2 0.311029 0.181881 0.358430
Si Si3 0.590237 0.183578 0.230596
Si Si4 0.037653 0.814372 0.733593
Si Si5 0.335097 0.183433 0.836334
Si Si6 0.576352 0.683180 0.618768
Si Si7 0.118156 0.815903 0.419490
O O1 0.559283 0.500000 0.928150
O O2 0.485024 0.745013 0.860724
O O3 0.568347 0.730899 0.848394
O O4 0.616289 0.752268 0.043379
O O5 0.239335 0.245503 0.247594
O O6 0.369703 0.233223 0.369823
O O7 0.329482 0.253485 0.459776
O O8 0.309030 0.000000 0.362189
O O9 0.631339 0.221594 0.204229
O O10 0.625102 0.249127 0.345165
O O11 0.584573 0.000000 0.229861
O O12 0.074872 0.762498 0.702459
O O13 0.958108 0.770333 0.642435
O O14 0.037904 0.000000 0.731078
O O15 0.331131 0.000000 0.837514
O O16 0.500000 0.704462 0.500000
O O17 0.590241 0.500000 0.631858
O O18 0.121011 0.000000 0.420211
#
# Coordination Sequence:
#
# PCOD9176719 Si02
#       7
#     8   8   8   8   8   8   8
#     4  10  20  36  60  88 117 149 190 236 283 336
#     4  12  25  38  55  84 119 150 189 238 289 343
#     4  10  21  37  59  87 114 146 192 241 285 334
#     4   8  16  32  57  87 113 143 183 229 276 332
#     4  11  24  41  58  78 112 157 198 236 284 340
#     4  10  18  35  62  86 113 150 189 226 278 345
#     4  10  19  36  59  85 115 150 189 230 284 343
#
# _framework density 18.048974000000001
#
# number of rings (size 3 to 8) (size 9 to 14) (size 15 to 20)
#    0.000    1.857    1.429    4.286    0.000    4.857 
#    0.000    2.143    0.000    0.000    0.000    0.000 
#    0.000    0.000    0.000    0.000    0.000    0.000 
#
# Total GULP energy -156388.495197 kJ/mol
# GULP energy per Si atom -5585.303400 kJ/mol
# Density = 1.800789 g / cm^3
# Si number density = 18.048974 Si / 1000 Ang^3
#
#
#
# Elastic Constant Matrix: (Units=GPa)
#
#
# Indices 1 2 3 4 5 6 
#
# 1 74.4732 42.0730 59.8807 0.0000 -13.8139 0.0000
# 2 42.0730 65.2016 32.9318 0.0000 -3.4619 0.0000
# 3 59.8807 32.9318 0.7636 0.0000 6.3592 0.0000
# 4 0.0000 0.0000 0.0000 30.6759 0.0000 -2.2937
# 5 -13.8139 -3.4619 6.3592 0.0000 17.7868 0.0000
# 6 0.0000 0.0000 0.0000 -2.2937 0.0000 27.5485
#
#
#
# Elastic Compliance Matrix: (Units=1/GPa)
#
#
# Indices 1 2 3 4 5 6 
#
# 1 0.007230 -0.013000 0.016215 0.000000 -0.002712 0.000000
# 2 -0.013000 0.024566 -0.002142 0.000000 -0.004549 0.000000
# 3 0.016215 -0.002142 -0.014645 0.000000 0.017413 0.000000
# 4 0.000000 0.000000 0.000000 0.032803 0.000000 0.002731
# 5 -0.002712 -0.004549 0.017413 0.000000 0.047004 0.000000
# 6 0.000000 0.000000 0.000000 0.002731 0.000000 0.036527
#
#
# Mechanical properties :
#
#
# Convention : Reuss Voigt Hill
#
# Bulk Modulus (GPa) = 51.81704 45.57881 48.69792
# Shear Modulus (GPa) = 36.29210 15.57245 25.93227
#
# Velocity S-wave (km/s) = 4.48901 2.94051 3.79459
# Velocity P-wave (km/s) = 7.45921 6.06931 6.79986
#
# Compressibility (1/GPa) = 0.01929867
#
# Stress axis : x y z
#
# Youngs Moduli (GPa) = 138.30313 40.70703 -68.28223
#
# Poissons Ratio (x) = 0.52918 1.10723
# Poissons Ratio (y) = 1.79790 -0.14626
# Poissons Ratio (z) = -2.24265 0.08720
#
# Static dielectric constant tensor:
#      x y z
#    x 1.612660 0.000000 -0.021440 
#    y 0.000000 1.605520 0.000000 
#    z -0.021440 0.000000 1.597810 
# 
# From -- ./inp_files/288483.got.cif
#   From: 2010.05.17/outbox.cif.g08.bks.cpg/sg12_145_cif.got.tgz:288483.got - 2010.06.03 13:09:07.
