data_PCOD9176013
_publ_section_title
;
Structure prediction by ZEFSAII (Michael W. Deem and Ramdas Pophale) SiO2 
 PCOD9176013
Probable space group: C 2/M
;
_chemical_formula_sum "Si O2"
_cell_formula_units_Z 56
_cell_length_a 19.364053
_cell_length_b 28.346785
_cell_length_c 22.320984
_cell_angle_alpha 90.000000
_cell_angle_beta 161.918399
_cell_angle_gamma 90.000000
_cell_volume 3802.723927
_symmetry_space_group_name_H-M "C 2/M"
_symmetry_group_IT_number 12
_symmetry_cell_setting 'monoclinic'
loop_
_space_group_symop_operation_xyz
x,y,z
-x,y,-z
-x,-y,-z
x,-y,z
1/2+x,1/2+y,z
1/2-x,1/2+y,-z
1/2-x,1/2-y,-z
1/2+x,1/2-y,z
loop_
_atom_site_type_symbol
_atom_site_label
_atom_site_fract_x
_atom_site_fract_y
_atom_site_fract_z
Si Si1 0.287168 0.947968 0.911092
Si Si2 0.175849 0.207890 0.984185
Si Si3 0.211830 0.926144 0.712581
Si Si4 0.821832 0.265924 0.392987
Si Si5 0.520165 0.741043 0.345076
Si Si6 0.863453 0.677477 0.827252
Si Si7 0.721495 0.348897 0.909118
O O1 0.206278 0.944496 0.775614
O O2 0.187534 0.903432 0.864311
O O3 0.238182 0.000000 0.894887
O O4 0.555194 0.941609 0.125351
O O5 0.336437 0.220427 0.172077
O O6 0.250000 0.250000 0.000000
O O7 0.211895 0.162520 0.971794
O O8 0.917538 0.211349 0.788962
O O9 0.222359 0.869089 0.725067
O O10 0.000000 0.940848 0.500000
O O11 0.927268 0.247845 0.542004
O O12 0.763976 0.221778 0.302897
O O13 0.000000 0.294774 0.500000
O O14 0.750000 0.750000 0.500000
O O15 0.435408 0.688928 0.255313
O O16 0.000000 0.689104 0.000000
O O17 0.036730 0.663576 0.918104
#
# Coordination Sequence:
#
# PCOD9176013 Si02
#       7
#     8   8   8   8   8   8   8
#     4  10  21  35  48  66  95 127 168 219 257 288
#     4  10  19  36  48  66  99 126 163 207 250 306
#     4  10  19  31  48  65  93 130 171 212 258 289
#     4  12  23  29  50  75 100 130 171 208 247 291
#     4  11  19  34  53  70  95 136 170 202 254 303
#     4  11  18  31  45  71  98 131 169 215 242 284
#     4  10  18  34  50  66  94 130 169 206 247 303
#
# _framework density 14.726286
#
# number of rings (size 3 to 8) (size 9 to 14) (size 15 to 20)
#    0.000    1.429    8.571    2.143    2.000    1.143 
#    0.000    0.000    0.000    0.000    0.000    0.000 
#    0.000    0.571    0.000    1.429    0.000    0.143 
#
# Total GULP energy -156041.487524 kJ/mol
# GULP energy per Si atom -5572.910269 kJ/mol
# Density = 1.469277 g / cm^3
# Si number density = 14.726286 Si / 1000 Ang^3
#
#
#
# Elastic Constant Matrix: (Units=GPa)
#
#
# Indices 1 2 3 4 5 6 
#
# 1 78.5990 34.9803 39.1664 -0.0054 -1.1192 -0.0006
# 2 34.9803 87.7975 26.7965 0.0081 -2.6973 0.0011
# 3 39.1664 26.7965 96.5196 0.0135 -15.1793 -0.0043
# 4 -0.0054 0.0081 0.0135 -4.8493 0.0022 3.8274
# 5 -1.1192 -2.6973 -15.1793 0.0022 30.0612 -0.0021
# 6 -0.0006 0.0011 -0.0043 3.8274 -0.0021 17.2132
#
#
#
# Elastic Compliance Matrix: (Units=1/GPa)
#
#
# Indices 1 2 3 4 5 6 
#
# 1 0.018277 -0.005426 -0.006387 -0.000042 -0.003031 0.000008
# 2 -0.005426 0.014068 -0.001670 0.000020 0.000217 -0.000006
# 3 -0.006387 -0.001670 0.014507 0.000044 0.006938 -0.000005
# 4 -0.000042 0.000020 0.000044 -0.175429 0.000038 0.039007
# 5 -0.003031 0.000217 0.006938 0.000038 0.036675 -0.000002
# 6 0.000008 -0.000006 -0.000005 0.039007 -0.000002 0.049422
#
#
# Mechanical properties :
#
#
# Convention : Reuss Voigt Hill
#
# Bulk Modulus (GPa) = 50.28447 51.64473 50.96460
# Shear Modulus (GPa) = -562.69025 19.28320 -271.70352
#
# Velocity S-wave (km/s) = -19.56857 3.62255 -13.59790
# Velocity P-wave (km/s) = 21.82548 7.25555 14.55521
#
# Compressibility (1/GPa) = 0.01988686
#
# Stress axis : x y z
#
# Youngs Moduli (GPa) = 54.71355 71.08399 68.93229
#
# Poissons Ratio (x) = 0.38568 0.44027
# Poissons Ratio (y) = 0.29686 0.11510
# Poissons Ratio (z) = 0.34945 0.11870
#
# Static dielectric constant tensor:
#      x y z
#    x 1.512000 0.000000 0.010100 
#    y 0.000000 1.504090 0.000000 
#    z 0.010100 0.000000 1.538830 
# 
# From -- ./inp_files/318619.got.cif
#   From: 2010.05.17/outbox.cif.g08.bks.cpg/sg12_160_cif.got.tgz:318619.got - 2010.06.03 13:09:07.
