data_PCOD9176045
_publ_section_title
;
Structure prediction by ZEFSAII (Michael W. Deem and Ramdas Pophale) SiO2 
 PCOD9176045
Probable space group: C 2/M
;
_chemical_formula_sum "Si O2"
_cell_formula_units_Z 48
_cell_length_a 14.971671
_cell_length_b 10.150971
_cell_length_c 26.674221
_cell_angle_alpha 90.000000
_cell_angle_beta 33.095306
_cell_angle_gamma 90.000000
_cell_volume 2213.547056
_symmetry_space_group_name_H-M "C 2/M"
_symmetry_group_IT_number 12
_symmetry_cell_setting 'monoclinic'
loop_
_space_group_symop_operation_xyz
x,y,z
-x,y,-z
-x,-y,-z
x,-y,z
1/2+x,1/2+y,z
1/2-x,1/2+y,-z
1/2-x,1/2-y,-z
1/2+x,1/2-y,z
loop_
_atom_site_type_symbol
_atom_site_label
_atom_site_fract_x
_atom_site_fract_y
_atom_site_fract_z
Si Si1 0.823312 0.500000 0.109873
Si Si2 0.843030 0.251814 0.781739
Si Si3 0.060949 0.500000 0.131664
Si Si4 0.805734 0.647975 0.596368
Si Si5 0.336073 0.161318 0.417055
Si Si6 0.551300 0.725363 0.788251
Si Si7 0.316797 0.500000 0.104158
Si Si8 0.343129 0.500000 0.918669
O O1 0.770784 0.624797 0.167269
O O2 0.708837 0.500000 0.114766
O O3 0.000000 0.500000 0.000000
O O4 0.723619 0.372848 0.845116
O O5 0.976166 0.290514 0.677522
O O6 0.948271 0.235091 0.784114
O O7 0.190980 0.500000 0.116592
O O8 0.952438 0.370538 0.187932
O O9 0.179962 0.500000 0.027981
O O10 0.746299 0.500000 0.606720
O O11 0.749854 0.776918 0.591834
O O12 0.725238 0.668309 0.688853
O O13 0.000000 0.643565 0.500000
O O14 0.250000 0.250000 0.500000
O O15 0.325954 0.000000 0.426105
O O16 0.454338 0.629234 0.871234
O O17 0.500000 0.500000 0.000000
#
# Coordination Sequence:
#
# PCOD9176045 Si02
#       8
#     4   8   4   8   8   8   4   4
#     4  10  20  34  55  80 108 144 187 230 279 334
#     4   9  19  34  56  79 106 145 189 227 272 345
#     4  10  20  32  51  78 108 138 183 228 269 328
#     4  10  21  39  62  87 115 150 193 240 291 348
#     4  11  23  39  62  89 116 152 196 242 293 349
#     4   9  18  33  55  78 104 145 185 222 272 338
#     4  10  18  34  53  78 106 140 181 228 277 328
#     4  10  18  34  53  76 104 142 183 222 275 328
#
# _framework density 21.684653000000001
#
# number of rings (size 3 to 8) (size 9 to 14) (size 15 to 20)
#    0.000    2.167    1.667    1.500    8.167    0.333 
#    0.000    3.333    0.000    0.000    0.000    0.000 
#    0.000    0.000    0.000    0.000    0.000    0.000 
#
# Total GULP energy -133791.120879 kJ/mol
# GULP energy per Si atom -5574.630037 kJ/mol
# Density = 2.163530 g / cm^3
# Si number density = 21.684653 Si / 1000 Ang^3
#
#
#
# Elastic Constant Matrix: (Units=GPa)
#
#
# Indices 1 2 3 4 5 6 
#
# 1 35.1378 12.4924 -0.1444 0.0000 0.0010 0.0000
# 2 12.4924 229.3924 103.8566 0.0000 -2.3071 0.0000
# 3 -0.1444 103.8566 197.7848 -0.0001 -8.4911 0.0000
# 4 0.0000 0.0000 -0.0001 41.0262 0.0000 0.4121
# 5 0.0010 -2.3071 -8.4911 0.0000 26.2347 0.0000
# 6 0.0000 0.0000 0.0000 0.4121 0.0000 6.2333
#
#
#
# Elastic Compliance Matrix: (Units=1/GPa)
#
#
# Indices 1 2 3 4 5 6 
#
# 1 0.029211 -0.002102 0.001133 0.000000 0.000181 0.000000
# 2 -0.002102 0.005876 -0.003108 0.000000 -0.000489 0.000000
# 3 0.001133 -0.003108 0.006771 0.000000 0.001918 0.000000
# 4 0.000000 0.000000 0.000000 0.024391 0.000000 -0.001613
# 5 0.000181 -0.000489 0.001918 0.000000 0.038695 0.000000
# 6 0.000000 0.000000 0.000000 -0.001613 0.000000 0.160536
#
#
# Mechanical properties :
#
#
# Convention : Reuss Voigt Hill
#
# Bulk Modulus (GPa) = 29.66981 77.19157 53.43069
# Shear Modulus (GPa) = 17.55189 37.77286 27.66238
#
# Velocity S-wave (km/s) = 2.84811 4.17816 3.57552
# Velocity P-wave (km/s) = 4.95255 7.67793 6.46059
#
# Compressibility (1/GPa) = 0.03370429
#
# Stress axis : x y z
#
# Youngs Moduli (GPa) = 34.23336 170.18264 147.68422
#
# Poissons Ratio (x) = 0.35770 -0.16729
# Poissons Ratio (y) = 0.07195 0.45901
# Poissons Ratio (z) = -0.03878 0.52893
#
# Static dielectric constant tensor:
#      x y z
#    x 1.873260 0.000000 0.021130 
#    y 0.000000 1.893440 0.000000 
#    z 0.021130 0.000000 1.793630 
# 
# From -- ./inp_files/377942.got.cif
#   From: 2010.05.17/outbox.cif.g08.bks.cpg/sg12_189_cif.got.tgz:377942.got - 2010.06.03 13:09:07.
