data_PCOD9176514
_publ_section_title
;
Structure prediction by ZEFSAII (Michael W. Deem and Ramdas Pophale) SiO2 
 PCOD9176514
Probable space group: C 2/M
;
_chemical_formula_sum "Si O2"
_cell_formula_units_Z 56
_cell_length_a 29.882287
_cell_length_b 14.354585
_cell_length_c 12.023716
_cell_angle_alpha 90.000000
_cell_angle_beta 141.284078
_cell_angle_gamma 90.000000
_cell_volume 3225.836724
_symmetry_space_group_name_H-M "C 2/M"
_symmetry_group_IT_number 12
_symmetry_cell_setting 'monoclinic'
loop_
_space_group_symop_operation_xyz
x,y,z
-x,y,-z
-x,-y,-z
x,-y,z
1/2+x,1/2+y,z
1/2-x,1/2+y,-z
1/2-x,1/2-y,-z
1/2+x,1/2-y,z
loop_
_atom_site_type_symbol
_atom_site_label
_atom_site_fract_x
_atom_site_fract_y
_atom_site_fract_z
Si Si1 0.578876 0.106199 0.601145
Si Si2 0.239599 0.262293 0.300180
Si Si3 0.052026 0.103961 0.204256
Si Si4 0.100816 0.769109 0.477103
Si Si5 0.414317 0.390474 0.340021
Si Si6 0.179097 0.264561 0.938908
Si Si7 0.786393 0.105834 0.576454
O O1 0.500000 0.106637 0.500000
O O2 0.577336 0.175949 0.493758
O O3 0.634305 0.151954 0.795824
O O4 0.598751 0.000000 0.612352
O O5 0.322923 0.250281 0.430520
O O6 0.214611 0.170279 0.316701
O O7 0.237783 0.345262 0.387432
O O8 0.199862 0.280265 0.107078
O O9 0.047255 0.185752 0.284593
O O10 0.133154 0.104254 0.316248
O O11 0.038198 0.000000 0.225624
O O12 0.000000 0.117171 0.000000
O O13 0.110212 0.848958 0.589067
O O14 0.500000 0.375269 0.500000
O O15 0.400130 0.500000 0.301533
O O16 0.370992 0.327059 0.169283
O O17 0.250000 0.250000 0.000000
O O18 0.764466 0.000000 0.556386
#
# Coordination Sequence:
#
# PCOD9176514 Si02
#       7
#     8   8   8   8   8   8   8
#     4  10  22  38  54  76 109 150 190 224 269 327
#     4  10  20  35  53  79 108 138 185 224 273 332
#     4   9  18  32  54  82 105 135 179 222 278 339
#     4  10  18  35  54  75 106 145 180 226 277 328
#     4  10  21  35  53  82 117 148 177 219 284 344
#     4  11  20  36  55  86 112 140 184 231 277 327
#     4   9  20  36  53  75 108 144 176 224 276 321
#
# _framework density 17.359836999999999
#
# number of rings (size 3 to 8) (size 9 to 14) (size 15 to 20)
#    0.000    2.143    2.857    2.143    0.000    5.143 
#    0.000    2.857    0.000    0.429    0.000    0.000 
#    0.000    0.000    0.000    0.000    0.000    0.000 
#
# Total GULP energy -156103.601299 kJ/mol
# GULP energy per Si atom -5575.128618 kJ/mol
# Density = 1.732033 g / cm^3
# Si number density = 17.359837 Si / 1000 Ang^3
#
#
#
# Elastic Constant Matrix: (Units=GPa)
#
#
# Indices 1 2 3 4 5 6 
#
# 1 42.0802 33.9600 17.8395 0.0000 -14.1549 0.0000
# 2 33.9600 155.7692 64.3000 0.0000 -15.5391 0.0000
# 3 17.8395 64.3000 100.2053 0.0000 -20.8617 0.0000
# 4 0.0000 0.0000 0.0000 12.5065 0.0000 5.0958
# 5 -14.1549 -15.5391 -20.8617 0.0000 28.7881 0.0000
# 6 0.0000 0.0000 0.0000 5.0958 0.0000 20.8145
#
#
#
# Elastic Compliance Matrix: (Units=1/GPa)
#
#
# Indices 1 2 3 4 5 6 
#
# 1 0.032932 -0.006220 0.000943 0.000000 0.013518 0.000000
# 2 -0.006220 0.009922 -0.005631 0.000000 -0.001783 0.000000
# 3 0.000943 -0.005631 0.015179 0.000000 0.008424 0.000000
# 4 0.000000 0.000000 0.000000 0.088818 0.000000 -0.021744
# 5 0.013518 -0.001783 0.008424 0.000000 0.046525 0.000000
# 6 0.000000 0.000000 0.000000 -0.021744 0.000000 0.053367
#
#
# Mechanical properties :
#
#
# Convention : Reuss Voigt Hill
#
# Bulk Modulus (GPa) = 27.61200 58.91707 43.26454
# Shear Modulus (GPa) = 17.81701 24.55217 21.18459
#
# Velocity S-wave (km/s) = 3.20712 3.76481 3.49710
# Velocity P-wave (km/s) = 5.44558 7.27398 6.42515
#
# Compressibility (1/GPa) = 0.03621613
#
# Stress axis : x y z
#
# Youngs Moduli (GPa) = 30.36603 100.78273 65.88250
#
# Poissons Ratio (x) = 0.62690 -0.06212
# Poissons Ratio (y) = 0.18889 0.37097
# Poissons Ratio (z) = -0.02863 0.56749
#
# Static dielectric constant tensor:
#      x y z
#    x 1.600200 0.000000 -0.003930 
#    y 0.000000 1.591880 0.000000 
#    z -0.003930 0.000000 1.588890 
# 
# From -- ./inp_files/183552.got.cif
#   From: 2010.05.17/outbox.cif.g08.bks.cpg/sg12_92_cif.got.tgz:183552.got - 2010.06.03 13:09:07.
