data_PCOD9176951
_publ_section_title
;
Structure prediction by ZEFSAII (Michael W. Deem and Ramdas Pophale) SiO2 
 PCOD9176951
Probable space group: C 2/M
;
_chemical_formula_sum "Si O2"
_cell_formula_units_Z 44
_cell_length_a 14.763772
_cell_length_b 23.865215
_cell_length_c 5.375750
_cell_angle_alpha 90.000000
_cell_angle_beta 109.481788
_cell_angle_gamma 90.000000
_cell_volume 1785.653361
_symmetry_space_group_name_H-M "C 2/M"
_symmetry_group_IT_number 12
_symmetry_cell_setting 'monoclinic'
loop_
_space_group_symop_operation_xyz
x,y,z
-x,y,-z
-x,-y,-z
x,-y,z
1/2+x,1/2+y,z
1/2-x,1/2+y,-z
1/2-x,1/2-y,-z
1/2+x,1/2-y,z
loop_
_atom_site_type_symbol
_atom_site_label
_atom_site_fract_x
_atom_site_fract_y
_atom_site_fract_z
Si Si1 0.296804 0.060452 0.397766
Si Si2 0.108657 0.894525 0.994894
Si Si3 0.373312 0.288796 0.687325
Si Si4 0.189820 0.327974 0.254295
Si Si5 0.439266 0.883091 0.205072
Si Si6 0.500000 0.641169 0.500000
O O1 0.310193 0.113695 0.593007
O O2 0.381103 0.064749 0.268032
O O3 0.303753 0.000000 0.531456
O O4 0.192392 0.066626 0.173626
O O5 0.088086 0.895212 0.681124
O O6 0.147113 0.832159 0.106978
O O7 0.000000 0.908100 0.000000
O O8 0.292972 0.300687 0.403427
O O9 0.379008 0.223350 0.730844
O O10 0.470681 0.316118 0.684500
O O11 0.149027 0.342491 0.947389
O O12 0.500000 0.862973 0.500000
O O13 0.500000 0.890036 0.000000
#
# Coordination Sequence:
#
# PCOD9176951 Si02
#       6
#     8   8   8   8   8   4
#     4  11  25  45  70  96 135 188 239 294 350 410
#     4   9  20  40  65 104 140 175 225 283 356 429
#     4   9  20  37  66  99 136 181 220 284 354 417
#     4  10  22  44  66  99 137 180 236 289 347 417
#     4  12  26  48  69 100 138 182 239 295 345 409
#     4  10  18  36  63  98 139 172 216 278 352 426
#
# _framework density 24.640841999999999
#
# number of rings (size 3 to 8) (size 9 to 14) (size 15 to 20)
#    0.000    1.818    1.818    1.091    0.000    6.909 
#    1.636    5.909    0.000    0.000    0.000    0.000 
#    0.000    0.000    0.000    0.000    0.000    0.000 
#
# Total GULP energy -122529.350812 kJ/mol
# GULP energy per Si atom -5569.515946 kJ/mol
# Density = 2.458476 g / cm^3
# Si number density = 24.640842 Si / 1000 Ang^3
#
#
#
# Elastic Constant Matrix: (Units=GPa)
#
#
# Indices 1 2 3 4 5 6 
#
# 1 83.3641 6.0488 25.5587 0.0000 6.2903 0.0000
# 2 6.0488 137.9747 38.6380 0.0000 -0.0997 0.0000
# 3 25.5587 38.6380 153.3261 0.0000 33.6003 0.0000
# 4 0.0000 0.0000 0.0000 4.4781 0.0000 -11.3525
# 5 6.2903 -0.0997 33.6003 0.0000 43.1968 0.0000
# 6 0.0000 0.0000 0.0000 -11.3525 0.0000 3.1223
#
#
#
# Elastic Compliance Matrix: (Units=1/GPa)
#
#
# Indices 1 2 3 4 5 6 
#
# 1 0.012644 0.000023 -0.002061 0.000000 -0.000238 0.000000
# 2 0.000023 0.007925 -0.002416 0.000000 0.001894 0.000000
# 3 -0.002061 -0.002416 0.008933 0.000000 -0.006653 0.000000
# 4 0.000000 0.000000 0.000000 -0.027174 0.000000 -0.098805
# 5 -0.000238 0.001894 -0.006653 0.000000 0.028364 0.000000
# 6 0.000000 0.000000 0.000000 -0.098805 0.000000 -0.038974
#
#
# Mechanical properties :
#
#
# Convention : Reuss Voigt Hill
#
# Bulk Modulus (GPa) = 48.56220 57.23955 52.90087
# Shear Modulus (GPa) = 667.61583 30.45406 349.03495
#
# Velocity S-wave (km/s) = 16.47807 3.51938 11.91455
# Velocity P-wave (km/s) = 19.53936 6.30830 14.51863
#
# Compressibility (1/GPa) = 0.02059215
#
# Stress axis : x y z
#
# Youngs Moduli (GPa) = 79.08996 126.18915 111.95055
#
# Poissons Ratio (x) = -0.00287 0.23076
# Poissons Ratio (y) = -0.00180 0.27046
# Poissons Ratio (z) = 0.16303 0.30486
#
# Static dielectric constant tensor:
#      x y z
#    x 2.124360 0.000000 -0.103210 
#    y 0.000000 1.942910 0.000000 
#    z -0.103210 0.000000 2.086250 
# 
# From -- ./inp_files/17026.got.cif
#   From: 2010.05.17/outbox.cif.g08.bks.cpg/sg12_9_cif.got.tgz:17026.got - 2010.06.03 13:09:07.
