data_PCOD9176696
_publ_section_title
;
Structure prediction by ZEFSAII (Michael W. Deem and Ramdas Pophale) SiO2 
 PCOD9176696
Probable space group: C 2/M
;
_chemical_formula_sum "Si O2"
_cell_formula_units_Z 64
_cell_length_a 25.396677
_cell_length_b 15.299725
_cell_length_c 11.506676
_cell_angle_alpha 90.000000
_cell_angle_beta 44.105031
_cell_angle_gamma 90.000000
_cell_volume 3111.749121
_symmetry_space_group_name_H-M "C 2/M"
_symmetry_group_IT_number 12
_symmetry_cell_setting 'monoclinic'
loop_
_space_group_symop_operation_xyz
x,y,z
-x,y,-z
-x,-y,-z
x,-y,z
1/2+x,1/2+y,z
1/2-x,1/2+y,-z
1/2-x,1/2-y,-z
1/2+x,1/2-y,z
loop_
_atom_site_type_symbol
_atom_site_label
_atom_site_fract_x
_atom_site_fract_y
_atom_site_fract_z
Si Si1 0.132891 0.242596 0.113494
Si Si2 0.423148 0.092250 0.691981
Si Si3 0.669338 0.901994 0.638648
Si Si4 0.915470 0.220749 0.186044
Si Si5 0.190965 0.377133 0.337216
Si Si6 0.633564 0.401509 0.940488
Si Si7 0.710298 0.689333 0.229991
Si Si8 0.837313 0.900337 0.477276
O O1 0.076939 0.320428 0.233112
O O2 0.167188 0.200388 0.176418
O O3 0.100825 0.163626 0.089143
O O4 0.201676 0.294241 0.939987
O O5 0.500000 0.090010 0.500000
O O6 0.358435 0.097492 0.695914
O O7 0.413805 0.000000 0.772085
O O8 0.621418 0.817420 0.753992
O O9 0.665566 0.906281 0.504297
O O10 0.756495 0.886629 0.539551
O O11 0.647735 0.000000 0.716602
O O12 0.874910 0.152723 0.163446
O O13 0.898614 0.170172 0.334095
O O14 0.000000 0.226761 0.000000
O O15 0.276710 0.405760 0.177971
O O16 0.190214 0.272892 0.339691
O O17 0.603169 0.500000 0.983731
O O18 0.684656 0.610633 0.351791
O O19 0.862120 0.000000 0.414116
#
# Coordination Sequence:
#
# PCOD9176696 Si02
#       8
#     8   8   8   8   8   8   8   8
#     4   9  20  36  58  87 121 157 203 253 305 371
#     4  10  21  36  57  87 125 163 200 245 309 381
#     4  11  21  37  65  94 121 159 209 258 311 374
#     4  12  26  42  62  90 131 169 208 262 320 380
#     4  10  18  35  61  87 116 155 205 256 300 367
#     4  11  22  39  63  88 116 160 212 255 306 371
#     4   9  18  35  59  89 121 155 200 257 310 360
#     4  11  22  38  64  95 126 163 211 267 319 370
#
# _framework density 20.567211
#
# number of rings (size 3 to 8) (size 9 to 14) (size 15 to 20)
#    0.000    1.625    2.500    4.125    0.000    3.250 
#    0.000    0.625    0.000    0.375    0.000    0.000 
#    0.000    0.000    0.000    0.000    0.000    0.000 
#
# Total GULP energy -178415.381023 kJ/mol
# GULP energy per Si atom -5575.480657 kJ/mol
# Density = 2.052040 g / cm^3
# Si number density = 20.567211 Si / 1000 Ang^3
#
#
#
# Elastic Constant Matrix: (Units=GPa)
#
#
# Indices 1 2 3 4 5 6 
#
# 1 16.0696 12.6425 15.1014 0.0000 7.4141 0.0000
# 2 12.6425 161.6450 60.2061 0.0000 0.8452 0.0000
# 3 15.1014 60.2061 89.8621 0.0000 3.4304 0.0000
# 4 0.0000 0.0000 0.0000 16.8812 0.0000 -5.9384
# 5 7.4141 0.8452 3.4304 0.0000 28.9539 0.0000
# 6 0.0000 0.0000 0.0000 -5.9384 0.0000 34.1982
#
#
#
# Elastic Compliance Matrix: (Units=1/GPa)
#
#
# Indices 1 2 3 4 5 6 
#
# 1 0.084447 -0.001999 -0.012084 0.000000 -0.020134 0.000000
# 2 -0.001999 0.008296 -0.005256 0.000000 0.000892 0.000000
# 3 -0.012084 -0.005256 0.016632 0.000000 0.001277 0.000000
# 4 0.000000 0.000000 0.000000 0.063091 0.000000 0.010956
# 5 -0.020134 0.000892 0.001277 0.000000 0.039516 0.000000
# 6 0.000000 0.000000 0.000000 0.010956 0.000000 0.031144
#
#
# Mechanical properties :
#
#
# Convention : Reuss Voigt Hill
#
# Bulk Modulus (GPa) = 14.14488 49.27518 31.71003
# Shear Modulus (GPa) = 16.37370 27.98178 22.17774
#
# Velocity S-wave (km/s) = 2.82460 3.69250 3.28732
# Velocity P-wave (km/s) = 4.18690 6.49535 5.46442
#
# Compressibility (1/GPa) = 0.07069698
#
# Stress axis : x y z
#
# Youngs Moduli (GPa) = 11.84179 120.54322 60.12644
#
# Poissons Ratio (x) = 0.24094 0.72654
# Poissons Ratio (y) = 0.02367 0.31604
# Poissons Ratio (z) = 0.14309 0.63360
#
# Static dielectric constant tensor:
#      x y z
#    x 1.768420 0.000000 0.020560 
#    y 0.000000 1.795130 0.000000 
#    z 0.020560 0.000000 1.753490 
# 
# From -- ./inp_files/183777.got.cif
#   From: 2010.05.17/outbox.cif.g08.bks.cpg/sg12_92_cif.got.tgz:183777.got - 2010.06.03 13:09:07.
