data_PCOD9176030
_publ_section_title
;
Structure prediction by ZEFSAII (Michael W. Deem and Ramdas Pophale) SiO2 
 PCOD9176030
Probable space group: C 2/M
;
_chemical_formula_sum "Si O2"
_cell_formula_units_Z 52
_cell_length_a 10.291303
_cell_length_b 26.479223
_cell_length_c 11.391586
_cell_angle_alpha 90.000000
_cell_angle_beta 101.584340
_cell_angle_gamma 90.000000
_cell_volume 3041.038705
_symmetry_space_group_name_H-M "C 2/M"
_symmetry_group_IT_number 12
_symmetry_cell_setting 'monoclinic'
loop_
_space_group_symop_operation_xyz
x,y,z
-x,y,-z
-x,-y,-z
x,-y,z
1/2+x,1/2+y,z
1/2-x,1/2+y,-z
1/2-x,1/2-y,-z
1/2+x,1/2-y,z
loop_
_atom_site_type_symbol
_atom_site_label
_atom_site_fract_x
_atom_site_fract_y
_atom_site_fract_z
Si Si1 0.954237 0.057821 0.628888
Si Si2 0.655173 0.172645 0.033744
Si Si3 0.741811 0.364542 0.479160
Si Si4 0.135215 0.790218 0.096332
Si Si5 0.500000 0.195972 0.500000
Si Si6 0.038316 0.788573 0.341705
Si Si7 0.180658 0.867288 0.729467
O O1 0.814927 0.087390 0.600860
O O2 0.000000 0.058714 0.500000
O O3 0.064460 0.090818 0.716306
O O4 0.946589 0.000000 0.665782
O O5 0.660363 0.230943 0.077693
O O6 0.727169 0.137404 0.141471
O O7 0.500000 0.159610 0.000000
O O8 0.742987 0.176563 0.930947
O O9 0.873634 0.338984 0.456263
O O10 0.624636 0.323187 0.444403
O O11 0.755403 0.376377 0.619941
O O12 0.109273 0.793290 0.229433
O O13 0.000000 0.803515 0.000000
O O14 0.528146 0.233268 0.395319
O O15 0.895402 0.813754 0.297058
#
# Coordination Sequence:
#
# PCOD9176030 Si02
#       7
#     8   8   8   8   4   8   8
#     4   8  16  34  58  79  99 125 171 229 272 318
#     4  10  21  33  47  71 104 143 182 229 259 300
#     4  10  21  32  48  79 105 136 177 211 273 325
#     4  10  20  32  46  66  99 148 193 210 245 303
#     4  12  22  30  45  74 115 150 166 212 274 314
#     4  11  20  31  49  69 103 146 180 215 247 311
#     4  10  18  34  52  75 102 134 182 222 261 318
#
# _framework density 17.099419999999999
#
# number of rings (size 3 to 8) (size 9 to 14) (size 15 to 20)
#    0.000    2.000    3.077    2.308    2.154    1.231 
#    0.000    0.385    0.000    0.462    0.000    8.615 
#    0.000    0.000    0.000    0.000    0.000    6.923 
#
# Total GULP energy -144971.830403 kJ/mol
# GULP energy per Si atom -5575.839631 kJ/mol
# Density = 1.706050 g / cm^3
# Si number density = 17.099420 Si / 1000 Ang^3
#
#
#
# Elastic Constant Matrix: (Units=GPa)
#
#
# Indices 1 2 3 4 5 6 
#
# 1 94.2668 38.5914 48.3888 0.0000 12.6107 0.0000
# 2 38.5914 78.7657 29.8719 0.0000 17.1130 0.0000
# 3 48.3888 29.8719 100.0272 0.0000 -4.5398 0.0000
# 4 0.0000 0.0000 0.0000 6.8036 0.0000 4.0629
# 5 12.6107 17.1130 -4.5398 0.0000 28.7582 0.0000
# 6 0.0000 0.0000 0.0000 4.0629 0.0000 -6.3513
#
#
#
# Elastic Compliance Matrix: (Units=1/GPa)
#
#
# Indices 1 2 3 4 5 6 
#
# 1 0.016802 -0.004226 -0.007137 0.000000 -0.005980 0.000000
# 2 -0.004226 0.018335 -0.003870 0.000000 -0.009668 0.000000
# 3 -0.007137 -0.003870 0.014959 0.000000 0.007794 0.000000
# 4 0.000000 0.000000 0.000000 0.106354 0.000000 0.068034
# 5 -0.005980 -0.009668 0.007794 0.000000 0.044378 0.000000
# 6 0.000000 0.000000 0.000000 0.068034 0.000000 -0.113928
#
#
# Mechanical properties :
#
#
# Convention : Reuss Voigt Hill
#
# Bulk Modulus (GPa) = 50.94384 56.30710 53.62547
# Shear Modulus (GPa) = 40.35188 16.25594 28.30391
#
# Velocity S-wave (km/s) = 4.86309 3.08664 4.07290
# Velocity P-wave (km/s) = 7.83519 6.76046 7.31759
#
# Compressibility (1/GPa) = 0.01962946
#
# Stress axis : x y z
#
# Youngs Moduli (GPa) = 59.51673 54.54173 66.84742
#
# Poissons Ratio (x) = 0.23050 0.47712
# Poissons Ratio (y) = 0.25152 0.25868
# Poissons Ratio (z) = 0.42479 0.21106
#
# Static dielectric constant tensor:
#      x y z
#    x 1.622190 0.000000 -0.015210 
#    y 0.000000 1.560620 0.000000 
#    z -0.015210 0.000000 1.617240 
# 
# From -- ./inp_files/123765.got.cif
#   From: 2010.05.17/outbox.cif.g08.bks.cpg/sg12_62_cif.got.tgz:123765.got - 2010.06.03 13:09:07.
