data_PCOD9176166
_publ_section_title
;
Structure prediction by ZEFSAII (Michael W. Deem and Ramdas Pophale) SiO2 
 PCOD9176166
Probable space group: C 2/M
;
_chemical_formula_sum "Si O2"
_cell_formula_units_Z 64
_cell_length_a 11.020993
_cell_length_b 18.905670
_cell_length_c 20.197798
_cell_angle_alpha 90.000000
_cell_angle_beta 50.899526
_cell_angle_gamma 90.000000
_cell_volume 3265.890329
_symmetry_space_group_name_H-M "C 2/M"
_symmetry_group_IT_number 12
_symmetry_cell_setting 'monoclinic'
loop_
_space_group_symop_operation_xyz
x,y,z
-x,y,-z
-x,-y,-z
x,-y,z
1/2+x,1/2+y,z
1/2-x,1/2+y,-z
1/2-x,1/2-y,-z
1/2+x,1/2-y,z
loop_
_atom_site_type_symbol
_atom_site_label
_atom_site_fract_x
_atom_site_fract_y
_atom_site_fract_z
Si Si1 0.822782 0.421636 0.359559
Si Si2 0.300576 0.660171 0.109096
Si Si3 0.798179 0.311571 0.634849
Si Si4 0.882607 0.190094 0.945479
Si Si5 0.276923 0.585509 0.456553
Si Si6 0.899999 0.829109 0.649528
Si Si7 0.678436 0.923854 0.257688
Si Si8 0.435189 0.281665 0.782036
O O1 0.754672 0.500000 0.372691
O O2 0.799132 0.405123 0.445229
O O3 0.736492 0.368939 0.341443
O O4 0.006681 0.424249 0.285659
O O5 0.443140 0.708721 0.088147
O O6 0.297010 0.593973 0.158706
O O7 0.144372 0.706391 0.174243
O O8 0.328240 0.638577 0.023653
O O9 0.805953 0.363213 0.568641
O O10 0.915526 0.245924 0.605421
O O11 0.815560 0.362944 0.690956
O O12 0.620456 0.280887 0.702515
O O13 0.900805 0.174280 0.861407
O O14 0.750000 0.250000 0.000000
O O15 0.276029 0.500000 0.441702
O O16 0.450054 0.619387 0.402836
O O17 0.863607 0.811418 0.738585
O O18 0.707990 0.000000 0.278991
#
# Coordination Sequence:
#
# PCOD9176166 Si02
#       8
#     8   8   8   8   8   8   8   8
#     4  10  23  42  61  82 114 161 207 245 301 371
#     4  10  18  34  56  85 118 151 194 238 286 354
#     4  11  22  37  59  89 123 151 200 259 304 357
#     4   9  18  31  56  85 120 150 186 231 295 359
#     4  10  23  43  62  83 119 165 209 252 309 375
#     4  11  21  34  62  89 119 154 200 259 304 353
#     4  11  22  38  60  82 116 161 199 243 304 368
#     4  10  18  34  57  86 120 154 188 242 300 349
#
# _framework density 19.596492999999999
#
# number of rings (size 3 to 8) (size 9 to 14) (size 15 to 20)
#    0.000    1.750    2.500    1.875    1.750    3.000 
#    2.250    3.125    0.000    0.000    0.000    1.750 
#    0.000    0.000    0.000    0.000    0.000    0.000 
#
# Total GULP energy -178241.290306 kJ/mol
# GULP energy per Si atom -5570.040322 kJ/mol
# Density = 1.955189 g / cm^3
# Si number density = 19.596493 Si / 1000 Ang^3
#
#
#
# Elastic Constant Matrix: (Units=GPa)
#
#
# Indices 1 2 3 4 5 6 
#
# 1 67.1286 38.5929 27.5892 0.0000 22.7428 0.0000
# 2 38.5929 75.1715 33.9295 0.0000 17.4543 0.0000
# 3 27.5892 33.9295 83.5174 0.0001 20.8127 0.0000
# 4 0.0000 0.0000 0.0001 17.1409 -0.0001 3.1630
# 5 22.7428 17.4543 20.8127 -0.0001 38.0247 0.0000
# 6 0.0000 0.0000 0.0000 3.1630 0.0000 17.4062
#
#
#
# Elastic Compliance Matrix: (Units=1/GPa)
#
#
# Indices 1 2 3 4 5 6 
#
# 1 0.024189 -0.009457 -0.001882 0.000000 -0.009097 0.000000
# 2 -0.009457 0.020669 -0.005000 0.000000 -0.001095 0.000000
# 3 -0.001882 -0.005000 0.015950 0.000000 -0.005309 0.000000
# 4 0.000000 0.000000 0.000000 0.060364 0.000000 -0.010969
# 5 -0.009097 -0.001095 -0.005309 0.000000 0.035148 0.000000
# 6 0.000000 0.000000 0.000000 -0.010969 0.000000 0.059444
#
#
# Mechanical properties :
#
#
# Convention : Reuss Voigt Hill
#
# Bulk Modulus (GPa) = 35.54946 47.33785 41.44366
# Shear Modulus (GPa) = 19.39347 22.89473 21.14410
#
# Velocity S-wave (km/s) = 3.14927 3.42176 3.28834
# Velocity P-wave (km/s) = 5.60392 6.31031 5.96758
#
# Compressibility (1/GPa) = 0.02812982
#
# Stress axis : x y z
#
# Youngs Moduli (GPa) = 41.34109 48.38118 62.69747
#
# Poissons Ratio (x) = 0.45755 0.11798
# Poissons Ratio (y) = 0.39097 0.31350
# Poissons Ratio (z) = 0.07779 0.24191
#
# Static dielectric constant tensor:
#      x y z
#    x 1.716970 0.000000 -0.006610 
#    y 0.000000 1.730980 0.000000 
#    z -0.006610 0.000000 1.728740 
# 
# From -- ./inp_files/306175.got.cif
#   From: 2010.05.17/outbox.cif.g08.bks.cpg/sg12_154_cif.got.tgz:306175.got - 2010.06.03 13:09:07.
