data_PCOD9176433
_publ_section_title
;
Structure prediction by ZEFSAII (Michael W. Deem and Ramdas Pophale) SiO2 
 PCOD9176433
Probable space group: C 2/M
;
_chemical_formula_sum "Si O2"
_cell_formula_units_Z 56
_cell_length_a 8.978204
_cell_length_b 17.968737
_cell_length_c 26.522483
_cell_angle_alpha 90.000000
_cell_angle_beta 41.004276
_cell_angle_gamma 90.000000
_cell_volume 2807.381283
_symmetry_space_group_name_H-M "C 2/M"
_symmetry_group_IT_number 12
_symmetry_cell_setting 'monoclinic'
loop_
_space_group_symop_operation_xyz
x,y,z
-x,y,-z
-x,-y,-z
x,-y,z
1/2+x,1/2+y,z
1/2-x,1/2+y,-z
1/2-x,1/2-y,-z
1/2+x,1/2-y,z
loop_
_atom_site_type_symbol
_atom_site_label
_atom_site_fract_x
_atom_site_fract_y
_atom_site_fract_z
Si Si1 0.312477 0.321491 0.661478
Si Si2 0.529867 0.586199 0.785970
Si Si3 0.305141 0.166898 0.506882
Si Si4 0.990270 0.341050 0.647532
Si Si5 0.675025 0.086883 0.791119
Si Si6 0.768713 0.852006 0.045809
Si Si7 0.757188 0.183527 0.933872
O O1 0.561784 0.358664 0.590068
O O2 0.363785 0.236574 0.665182
O O3 0.180848 0.363206 0.739723
O O4 0.171977 0.324831 0.645222
O O5 0.487931 0.500000 0.808833
O O6 0.794641 0.603711 0.715252
O O7 0.401698 0.601950 0.765899
O O8 0.415468 0.638863 0.856295
O O9 0.500000 0.168118 0.500000
O O10 0.250000 0.250000 0.500000
O O11 0.393860 0.128622 0.433259
O O12 0.460064 0.105782 0.881690
O O13 0.668472 0.000000 0.779548
O O14 0.746112 0.771052 0.078496
O O15 0.818827 0.829227 0.975734
O O16 0.000000 0.894035 0.000000
O O17 0.500000 0.155230 0.000000
#
# Coordination Sequence:
#
# PCOD9176433 Si02
#       7
#     8   8   8   8   8   8   8
#     4  11  22  38  63  91 123 157 198 248 297 352
#     4  11  24  40  60  85 120 163 205 246 297 359
#     4  10  18  34  61  92 123 153 194 244 296 352
#     4  11  22  38  63  92 122 156 199 248 297 354
#     4  11  24  41  58  84 124 164 201 245 300 357
#     4  10  22  37  61  89 117 153 196 253 302 354
#     4  10  20  39  62  86 116 152 200 249 302 355
#
# _framework density 19.947414999999999
#
# number of rings (size 3 to 8) (size 9 to 14) (size 15 to 20)
#    0.000    1.429    1.429    6.429    2.000    1.714 
#    0.000    0.714    0.000    4.286    0.000    0.000 
#    0.000    0.000    0.000    0.000    0.000    0.000 
#
# Total GULP energy -156241.234615 kJ/mol
# GULP energy per Si atom -5580.044093 kJ/mol
# Density = 1.990201 g / cm^3
# Si number density = 19.947415 Si / 1000 Ang^3
#
#
#
# Elastic Constant Matrix: (Units=GPa)
#
#
# Indices 1 2 3 4 5 6 
#
# 1 126.9085 11.4657 6.5173 -0.4702 -5.5641 -0.0761
# 2 11.4657 34.6430 10.7394 0.5582 10.6853 0.0931
# 3 6.5173 10.7394 52.2183 1.5504 6.0167 0.2598
# 4 -0.4702 0.5582 1.5504-2085.2361 -0.4436 -342.5542
# 5 -5.5641 10.6853 6.0167 -0.4436 35.8027 -0.0738
# 6 -0.0761 0.0931 0.2598 -342.5542 -0.0738 -38.1303
#
#
#
# Elastic Compliance Matrix: (Units=1/GPa)
#
#
# Indices 1 2 3 4 5 6 
#
# 1 0.008314 -0.003289 -0.000635 -0.000004 0.002380 0.000000
# 2 -0.003289 0.034755 -0.005592 0.000008 -0.009944 -0.000001
# 3 -0.000635 -0.005592 0.020597 0.000015 -0.001891 -0.000005
# 4 -0.000004 0.000008 0.000015 0.001008 -0.000012 -0.009054
# 5 0.002380 -0.009944 -0.001891 -0.000012 0.031586 0.000003
# 6 0.000000 -0.000001 -0.000005 -0.009054 0.000003 0.055117
#
#
# Mechanical properties :
#
#
# Convention : Reuss Voigt Hill
#
# Bulk Modulus (GPa) = 22.40454 30.13495 26.26975
# Shear Modulus (GPa) = 26.98518 -405.17625 -189.09553
#
# Velocity S-wave (km/s) = 3.68205 -14.26756 -9.74694
# Velocity P-wave (km/s) = 5.41598 16.00867 10.65234
#
# Compressibility (1/GPa) = 0.04463381
#
# Stress axis : x y z
#
# Youngs Moduli (GPa) = 120.28198 28.77301 48.55034
#
# Poissons Ratio (x) = 0.09463 0.03085
# Poissons Ratio (y) = 0.39558 0.27148
# Poissons Ratio (z) = 0.07643 0.16089
#
# Static dielectric constant tensor:
#      x y z
#    x 2.543410 -0.000040 0.263540 
#    y -0.000040 1.696860 -0.000010 
#    z 0.263540 -0.000010 1.820630 
# 
# From -- ./inp_files/356648.got.cif
#   From: 2010.05.17/outbox.cif.g08.bks.cpg/sg12_179_cif.got.tgz:356648.got - 2010.06.03 13:09:07.
