data_PCOD9176578
_publ_section_title
;
Structure prediction by ZEFSAII (Michael W. Deem and Ramdas Pophale) SiO2 
 PCOD9176578
Probable space group: C 2/M
;
_chemical_formula_sum "Si O2"
_cell_formula_units_Z 64
_cell_length_a 15.018660
_cell_length_b 16.258052
_cell_length_c 22.069982
_cell_angle_alpha 90.000000
_cell_angle_beta 38.109509
_cell_angle_gamma 90.000000
_cell_volume 3325.860241
_symmetry_space_group_name_H-M "C 2/M"
_symmetry_group_IT_number 12
_symmetry_cell_setting 'monoclinic'
loop_
_space_group_symop_operation_xyz
x,y,z
-x,y,-z
-x,-y,-z
x,-y,z
1/2+x,1/2+y,z
1/2-x,1/2+y,-z
1/2-x,1/2-y,-z
1/2+x,1/2-y,z
loop_
_atom_site_type_symbol
_atom_site_label
_atom_site_fract_x
_atom_site_fract_y
_atom_site_fract_z
Si Si1 0.153819 0.407704 0.881468
Si Si2 0.557479 0.242813 0.534921
Si Si3 0.538918 0.094487 0.115879
Si Si4 0.951520 0.905356 0.220320
Si Si5 0.776167 0.193543 0.916738
Si Si6 0.603377 0.159487 0.204578
Si Si7 0.394461 0.303989 0.363236
Si Si8 0.150693 0.595566 0.310879
O O1 0.208218 0.500000 0.856194
O O2 0.258742 0.349513 0.860726
O O3 0.113597 0.387238 0.834378
O O4 0.000000 0.404337 0.000000
O O5 0.500000 0.272281 0.500000
O O6 0.555009 0.305613 0.593638
O O7 0.725074 0.215894 0.445839
O O8 0.460559 0.162423 0.602792
O O9 0.538144 0.101650 0.187962
O O10 0.577330 0.000000 0.077843
O O11 0.648961 0.158663 0.026235
O O12 0.921154 0.882603 0.306610
O O13 0.805442 0.893698 0.260301
O O14 0.075660 0.841047 0.134729
O O15 0.999369 0.000000 0.187788
O O16 0.777411 0.287925 0.896338
O O17 0.484149 0.226929 0.287709
O O18 0.658619 0.114758 0.234807
O O19 0.106492 0.500000 0.343654
#
# Coordination Sequence:
#
# PCOD9176578 Si02
#       8
#     8   8   8   8   8   8   8   8
#     4   8  15  29  49  71  92 124 175 225 260 292
#     4  10  18  35  58  77 106 132 171 215 263 316
#     4  10  19  34  55  75 102 141 185 225 260 305
#     4  10  19  33  52  77 109 140 177 218 256 308
#     4  10  19  32  52  75 104 142 180 220 259 307
#     4  10  21  35  50  76 111 139 173 215 273 314
#     4   9  20  34  52  81 103 137 170 212 265 318
#     4  10  21  35  54  79 106 138 176 217 262 315
#
# _framework density 19.243141999999999
#
# number of rings (size 3 to 8) (size 9 to 14) (size 15 to 20)
#    0.000    2.375    1.250    2.625    0.000    2.750 
#    2.250    1.875    0.000    2.625    0.000    0.000 
#    0.000    0.000    0.000    0.000    0.000    0.000 
#
# Total GULP energy -178224.188371 kJ/mol
# GULP energy per Si atom -5569.505887 kJ/mol
# Density = 1.919934 g / cm^3
# Si number density = 19.243142 Si / 1000 Ang^3
#
#
#
# Elastic Constant Matrix: (Units=GPa)
#
#
# Indices 1 2 3 4 5 6 
#
# 1 155.7185 33.0894 22.8323 -0.0001 26.7080 0.0001
# 2 33.0894 35.7762 2.6546 -0.0001 4.4911 0.0001
# 3 22.8323 2.6546 26.7530 -0.0004 9.7927 0.0004
# 4 -0.0001 -0.0001 -0.0004 6.9007 0.0002 -3.2166
# 5 26.7080 4.4911 9.7927 0.0002 32.8028 -0.0001
# 6 0.0001 0.0001 0.0004 -3.2166 -0.0001 20.3057
#
#
#
# Elastic Compliance Matrix: (Units=1/GPa)
#
#
# Indices 1 2 3 4 5 6 
#
# 1 0.009864 -0.008044 -0.005708 0.000000 -0.005226 0.000000
# 2 -0.008044 0.035059 0.003083 0.000001 0.000829 0.000000
# 3 -0.005708 0.003083 0.045354 0.000003 -0.009315 0.000000
# 4 0.000000 0.000001 0.000003 0.156467 -0.000002 0.024786
# 5 -0.005226 0.000829 -0.009315 -0.000002 0.037408 0.000000
# 6 0.000000 0.000000 0.000000 0.024786 0.000000 0.053174
#
#
# Mechanical properties :
#
#
# Convention : Reuss Voigt Hill
#
# Bulk Modulus (GPa) = 14.50545 37.26668 25.88607
# Shear Modulus (GPa) = 13.10129 22.64660 17.87395
#
# Velocity S-wave (km/s) = 2.61210 3.43427 3.05101
# Velocity P-wave (km/s) = 4.08066 5.92738 5.08850
#
# Compressibility (1/GPa) = 0.06893960
#
# Stress axis : x y z
#
# Youngs Moduli (GPa) = 101.37433 28.52362 22.04891
#
# Poissons Ratio (x) = 0.22944 0.12584
# Poissons Ratio (y) = 0.81546 -0.06798
# Poissons Ratio (z) = 0.57860 -0.08794
#
# Static dielectric constant tensor:
#      x y z
#    x 1.698180 0.000000 0.034590 
#    y 0.000000 1.667140 0.000000 
#    z 0.034590 0.000000 1.712990 
# 
# From -- ./inp_files/306192.got.cif
#   From: 2010.05.17/outbox.cif.g08.bks.cpg/sg12_154_cif.got.tgz:306192.got - 2010.06.03 13:09:07.
