data_PCOD9176768
_publ_section_title
;
Structure prediction by ZEFSAII (Michael W. Deem and Ramdas Pophale) SiO2 
 PCOD9176768
Probable space group: C 2/M
;
_chemical_formula_sum "Si O2"
_cell_formula_units_Z 32
_cell_length_a 13.568361
_cell_length_b 20.859822
_cell_length_c 5.292587
_cell_angle_alpha 90.000000
_cell_angle_beta 113.929592
_cell_angle_gamma 90.000000
_cell_volume 1369.220443
_symmetry_space_group_name_H-M "C 2/M"
_symmetry_group_IT_number 12
_symmetry_cell_setting 'monoclinic'
loop_
_space_group_symop_operation_xyz
x,y,z
-x,y,-z
-x,-y,-z
x,-y,z
1/2+x,1/2+y,z
1/2-x,1/2+y,-z
1/2-x,1/2-y,-z
1/2+x,1/2-y,z
loop_
_atom_site_type_symbol
_atom_site_label
_atom_site_fract_x
_atom_site_fract_y
_atom_site_fract_z
Si Si1 0.120967 0.306012 0.924093
Si Si2 0.669832 0.500000 0.789258
Si Si3 0.000000 0.188242 0.000000
Si Si4 0.878474 0.358948 0.577407
Si Si5 0.500000 0.608916 0.500000
Si Si6 0.813006 0.500000 0.437752
O O1 0.094127 0.235028 0.991361
O O2 0.171055 0.317308 0.702026
O O3 0.001278 0.336158 0.751719
O O4 0.176021 0.344329 0.209198
O O5 0.594683 0.562354 0.693089
O O6 0.745408 0.500000 0.624453
O O7 0.736719 0.500000 0.115400
O O8 0.966824 0.148985 0.715360
O O9 0.876860 0.433348 0.506822
#
# Coordination Sequence:
#
# PCOD9176768 Si02
#       6
#     8   4   4   8   4   4
#     4   9  18  33  55  88 115 144 188 218 248 327
#     4  11  26  40  57  84 107 136 193 242 277 334
#     4  10  18  35  68  85 102 140 186 236 282 314
#     4   9  18  31  53  81 120 151 181 216 257 318
#     4  11  22  42  64  80 100 137 190 246 290 329
#     4  12  22  37  57  80 119 158 175 220 287 323
#
# _framework density 23.370961000000001
#
# number of rings (size 3 to 8) (size 9 to 14) (size 15 to 20)
#    0.000    2.250    0.000    6.000    0.000    6.000 
#    0.000    0.000    0.000   69.000    0.000    0.000 
#    0.000    0.000    0.000    0.000    0.000    0.000 
#
# Total GULP energy -89373.739677 kJ/mol
# GULP energy per Si atom -5585.858730 kJ/mol
# Density = 2.331777 g / cm^3
# Si number density = 23.370961 Si / 1000 Ang^3
#
#
#
# Elastic Constant Matrix: (Units=GPa)
#
#
# Indices 1 2 3 4 5 6 
#
# 1 50.8954 30.2625 45.4331 0.0000 0.8526 0.0000
# 2 30.2625 149.9040 82.5552 0.0000 1.2878 0.0000
# 3 45.4331 82.5552 239.3655 0.0000 -45.3148 0.0000
# 4 0.0000 0.0000 0.0000 40.0533 0.0000 -5.1284
# 5 0.8526 1.2878 -45.3148 0.0000 36.9724 0.0000
# 6 0.0000 0.0000 0.0000 -5.1284 0.0000 17.8498
#
#
#
# Elastic Compliance Matrix: (Units=1/GPa)
#
#
# Indices 1 2 3 4 5 6 
#
# 1 0.026039 -0.002095 -0.005625 0.000000 -0.007421 0.000000
# 2 -0.002095 0.009149 -0.003658 0.000000 -0.004753 0.000000
# 3 -0.005625 -0.003658 0.008536 0.000000 0.010719 0.000000
# 4 0.000000 0.000000 0.000000 0.025920 0.000000 0.007447
# 5 -0.007421 -0.004753 0.010719 0.000000 0.040522 0.000000
# 6 0.000000 0.000000 0.000000 0.007447 0.000000 0.058163
#
#
# Mechanical properties :
#
#
# Convention : Reuss Voigt Hill
#
# Bulk Modulus (GPa) = 47.68895 84.07405 65.88150
# Shear Modulus (GPa) = 25.24301 37.76936 31.50619
#
# Velocity S-wave (km/s) = 3.29006 4.02441 3.67562
# Velocity P-wave (km/s) = 5.90611 7.59252 6.80178
#
# Compressibility (1/GPa) = 0.02096922
#
# Stress axis : x y z
#
# Youngs Moduli (GPa) = 38.40322 109.30057 117.14990
#
# Poissons Ratio (x) = 0.22903 0.65894
# Poissons Ratio (y) = 0.08047 0.42848
# Poissons Ratio (z) = 0.21601 0.39977
#
# Static dielectric constant tensor:
#      x y z
#    x 2.096320 0.000000 -0.105470 
#    y 0.000000 1.890160 0.000000 
#    z -0.105470 0.000000 1.905160 
# 
# From -- ./inp_files/10902.got.cif
#   From: 2010.05.17/outbox.cif.g08.bks.cpg/sg12_6_cif.got.tgz:10902.got - 2010.06.03 13:09:07.
