data_PCOD9176441
_publ_section_title
;
Structure prediction by ZEFSAII (Michael W. Deem and Ramdas Pophale) SiO2 
 PCOD9176441
Probable space group: C 2/M
;
_chemical_formula_sum "Si O2"
_cell_formula_units_Z 48
_cell_length_a 5.291467
_cell_length_b 31.982943
_cell_length_c 15.079346
_cell_angle_alpha 90.000000
_cell_angle_beta 103.773066
_cell_angle_gamma 90.000000
_cell_volume 2478.599750
_symmetry_space_group_name_H-M "C 2/M"
_symmetry_group_IT_number 12
_symmetry_cell_setting 'monoclinic'
loop_
_space_group_symop_operation_xyz
x,y,z
-x,y,-z
-x,-y,-z
x,-y,z
1/2+x,1/2+y,z
1/2-x,1/2+y,-z
1/2-x,1/2-y,-z
1/2+x,1/2-y,z
loop_
_atom_site_type_symbol
_atom_site_label
_atom_site_fract_x
_atom_site_fract_y
_atom_site_fract_z
Si Si1 0.791048 0.591817 0.282020
Si Si2 0.000000 0.573137 0.000000
Si Si3 0.671519 0.500000 0.903284
Si Si4 0.886147 0.500000 0.206050
Si Si5 0.323603 0.231625 0.103913
Si Si6 0.275527 0.633715 0.906045
Si Si7 0.154513 0.090763 0.605787
Si Si8 0.214242 0.500000 0.441200
O O1 0.833698 0.543608 0.253100
O O2 0.674929 0.617684 0.188874
O O3 0.572086 0.591827 0.339983
O O4 0.069874 0.611454 0.339054
O O5 0.051332 0.603047 0.922011
O O6 0.768087 0.542003 0.957879
O O7 0.363787 0.500000 0.878019
O O8 0.838672 0.500000 0.823714
O O9 0.605610 0.249157 0.148553
O O10 0.308632 0.181928 0.100278
O O11 0.250000 0.250000 0.000000
O O12 0.500000 0.629901 0.000000
O O13 0.272342 0.044076 0.605609
O O14 0.000000 0.101457 0.500000
O O15 0.500000 0.500000 0.500000
O O16 0.000000 0.500000 0.500000
#
# Coordination Sequence:
#
# PCOD9176441 Si02
#       8
#     8   4   4   4   8   8   8   4
#     4  12  25  38  61  91 116 166 216 251 318 362
#     4  11  24  38  56  80 112 178 214 256 290 345
#     4  11  24  39  54  70 118 169 223 240 296 333
#     4  12  22  42  51  81 120 155 210 274 293 353
#     4  10  20  39  60  88 117 166 190 235 310 362
#     4  12  25  38  64  89 132 162 206 253 297 377
#     4  11  23  42  60  84 119 155 206 274 319 367
#     4  10  18  34  62  85 104 151 206 261 331 370
#
# _framework density 19.365772
#
# number of rings (size 3 to 8) (size 9 to 14) (size 15 to 20)
#    0.000    0.833    3.333    6.500    2.333    0.667 
#    0.000    0.000    0.000    0.000    0.000    0.000 
#    0.000   13.333    0.000    0.000    0.000    0.000 
#
# Total GULP energy -133754.586590 kJ/mol
# GULP energy per Si atom -5573.107775 kJ/mol
# Density = 1.932170 g / cm^3
# Si number density = 19.365772 Si / 1000 Ang^3
#
#
#
# Elastic Constant Matrix: (Units=GPa)
#
#
# Indices 1 2 3 4 5 6 
#
# 1 136.8169 29.6785 54.3293 0.0000 -14.9807 0.0000
# 2 29.6785 116.0199 41.3086 0.0000 -4.9186 0.0000
# 3 54.3293 41.3086 113.5503 0.0000 -10.9081 0.0000
# 4 0.0000 0.0000 0.0000 8.8372 0.0000 0.9321
# 5 -14.9807 -4.9186 -10.9081 0.0000 48.9660 0.0000
# 6 0.0000 0.0000 0.0000 0.9321 0.0000 11.7166
#
#
#
# Elastic Compliance Matrix: (Units=1/GPa)
#
#
# Indices 1 2 3 4 5 6 
#
# 1 0.009268 -0.000892 -0.003930 0.000000 0.001870 0.000000
# 2 -0.000892 0.009989 -0.003206 0.000000 0.000016 0.000000
# 3 -0.003930 -0.003206 0.011963 0.000000 0.001141 0.000000
# 4 0.000000 0.000000 0.000000 0.114116 0.000000 -0.009079
# 5 0.001870 0.000016 0.001141 0.000000 0.021250 0.000000
# 6 0.000000 0.000000 0.000000 -0.009079 0.000000 0.086071
#
#
# Mechanical properties :
#
#
# Convention : Reuss Voigt Hill
#
# Bulk Modulus (GPa) = 65.94392 68.55776 67.25084
# Shear Modulus (GPa) = 18.26359 29.97533 24.11946
#
# Velocity S-wave (km/s) = 3.07430 3.93854 3.53295
# Velocity P-wave (km/s) = 6.83575 7.49408 7.17247
#
# Compressibility (1/GPa) = 0.01516440
#
# Stress axis : x y z
#
# Youngs Moduli (GPa) = 107.89818 100.10520 83.59226
#
# Poissons Ratio (x) = 0.08931 0.32853
# Poissons Ratio (y) = 0.09627 0.26797
# Poissons Ratio (z) = 0.42405 0.32090
#
# Static dielectric constant tensor:
#      x y z
#    x 1.707980 0.000000 0.037960 
#    y 0.000000 1.709590 0.000000 
#    z 0.037960 0.000000 1.765870 
# 
# From -- ./inp_files/192440.got.cif
#   From: 2010.05.17/outbox.cif.g08.bks.cpg/sg12_97_cif.got.tgz:192440.got - 2010.06.03 13:09:07.
