data_PCOD9176820
_publ_section_title
;
Structure prediction by ZEFSAII (Michael W. Deem and Ramdas Pophale) SiO2 
 PCOD9176820
Probable space group: C 2/M
;
_chemical_formula_sum "Si O2"
_cell_formula_units_Z 44
_cell_length_a 9.164413
_cell_length_b 29.790460
_cell_length_c 10.340978
_cell_angle_alpha 90.000000
_cell_angle_beta 136.790330
_cell_angle_gamma 90.000000
_cell_volume 1932.968850
_symmetry_space_group_name_H-M "C 2/M"
_symmetry_group_IT_number 12
_symmetry_cell_setting 'monoclinic'
loop_
_space_group_symop_operation_xyz
x,y,z
-x,y,-z
-x,-y,-z
x,-y,z
1/2+x,1/2+y,z
1/2-x,1/2+y,-z
1/2-x,1/2-y,-z
1/2+x,1/2-y,z
loop_
_atom_site_type_symbol
_atom_site_label
_atom_site_fract_x
_atom_site_fract_y
_atom_site_fract_z
Si Si1 0.743530 0.207292 0.128090
Si Si2 0.129400 0.111195 0.828707
Si Si3 0.629884 0.114814 0.452986
Si Si4 0.500000 0.645950 0.000000
Si Si5 0.243693 0.448511 0.300898
Si Si6 0.865930 0.701379 0.241038
O O1 0.891581 0.245959 0.284915
O O2 0.795650 0.156427 0.197519
O O3 0.500000 0.219226 0.000000
O O4 0.735266 0.204489 0.967453
O O5 0.877650 0.109085 0.643993
O O6 0.254566 0.071109 0.843073
O O7 0.138627 0.116923 0.989712
O O8 0.500000 0.102160 0.500000
O O9 0.613140 0.082975 0.315921
O O10 0.558187 0.166384 0.374511
O O11 0.669695 0.677087 0.186686
O O12 0.500000 0.446689 0.500000
O O13 0.176725 0.500000 0.266583
#
# Coordination Sequence:
#
# PCOD9176820 Si02
#       6
#     8   8   8   4   8   8
#     4  10  20  35  57  82 121 166 205 231 290 362
#     4  10  21  37  61  90 118 160 203 253 299 351
#     4  11  21  36  61  92 122 151 199 255 307 348
#     4  10  18  36  57  82 120 162 201 236 292 360
#     4   9  20  40  62  86 118 155 199 250 307 367
#     4  10  20  33  55  82 120 160 200 236 288 355
#
# _framework density 22.762912
#
# number of rings (size 3 to 8) (size 9 to 14) (size 15 to 20)
#    0.000    2.000    2.727    1.091    0.000    1.091 
#    0.000    3.182    0.000   13.636    0.000    0.000 
#    0.000    0.000    0.000    0.000    0.000    0.000 
#
# Total GULP energy -122592.128031 kJ/mol
# GULP energy per Si atom -5572.369456 kJ/mol
# Density = 2.271110 g / cm^3
# Si number density = 22.762912 Si / 1000 Ang^3
#
#
#
# Elastic Constant Matrix: (Units=GPa)
#
#
# Indices 1 2 3 4 5 6 
#
# 1 121.9450 67.0784 23.8204 0.0000 -10.1068 0.0000
# 2 67.0784 115.5445 10.1705 0.0000 -9.3361 0.0000
# 3 23.8204 10.1705 44.1159 0.0000 3.1660 0.0000
# 4 0.0000 0.0000 0.0000 26.3096 0.0000 6.4248
# 5 -10.1068 -9.3361 3.1660 0.0000 37.2748 0.0000
# 6 0.0000 0.0000 0.0000 6.4248 0.0000 43.0708
#
#
#
# Elastic Compliance Matrix: (Units=1/GPa)
#
#
# Indices 1 2 3 4 5 6 
#
# 1 0.013429 -0.007097 -0.005784 0.000000 0.002355 0.000000
# 2 -0.007097 0.012803 0.000793 0.000000 0.001215 0.000000
# 3 -0.005784 0.000793 0.025864 0.000000 -0.003566 0.000000
# 4 0.000000 0.000000 0.000000 0.039446 0.000000 -0.005884
# 5 0.002355 0.001215 -0.003566 0.000000 0.028074 0.000000
# 6 0.000000 0.000000 0.000000 -0.005884 0.000000 0.024095
#
#
# Mechanical properties :
#
#
# Convention : Reuss Voigt Hill
#
# Bulk Modulus (GPa) = 35.81592 53.74933 44.78262
# Shear Modulus (GPa) = 28.21784 33.36677 30.79230
#
# Velocity S-wave (km/s) = 3.52467 3.83278 3.68195
# Velocity P-wave (km/s) = 5.68620 6.57654 6.14751
#
# Compressibility (1/GPa) = 0.02792055
#
# Stress axis : x y z
#
# Youngs Moduli (GPa) = 74.46476 78.10650 38.66422
#
# Poissons Ratio (x) = 0.55431 0.22363
# Poissons Ratio (y) = 0.52846 -0.03066
# Poissons Ratio (z) = 0.43070 -0.06195
#
# Static dielectric constant tensor:
#      x y z
#    x 1.976130 0.000000 -0.060360 
#    y 0.000000 1.917120 0.000000 
#    z -0.060360 0.000000 1.941050 
# 
# From -- ./inp_files/124472.got.cif
#   From: 2010.05.17/outbox.cif.g08.bks.cpg/sg12_63_cif.got.tgz:124472.got - 2010.06.03 13:09:07.
