data_PCOD9176115
_publ_section_title
;
Structure prediction by ZEFSAII (Michael W. Deem and Ramdas Pophale) SiO2 
 PCOD9176115
Probable space group: C 2/M
;
_chemical_formula_sum "Si O2"
_cell_formula_units_Z 64
_cell_length_a 23.338258
_cell_length_b 24.414638
_cell_length_c 12.398575
_cell_angle_alpha 90.000000
_cell_angle_beta 148.084592
_cell_angle_gamma 90.000000
_cell_volume 3734.843345
_symmetry_space_group_name_H-M "C 2/M"
_symmetry_group_IT_number 12
_symmetry_cell_setting 'monoclinic'
loop_
_space_group_symop_operation_xyz
x,y,z
-x,y,-z
-x,-y,-z
x,-y,z
1/2+x,1/2+y,z
1/2-x,1/2+y,-z
1/2-x,1/2-y,-z
1/2+x,1/2-y,z
loop_
_atom_site_type_symbol
_atom_site_label
_atom_site_fract_x
_atom_site_fract_y
_atom_site_fract_z
Si Si1 0.226450 0.564751 0.738038
Si Si2 0.884622 0.152071 0.374879
Si Si3 0.783590 0.642316 0.088721
Si Si4 0.989525 0.376381 0.664937
Si Si5 0.318778 0.436073 0.442429
Si Si6 0.562815 0.062467 0.988901
Si Si7 0.604084 0.773845 0.587988
Si Si8 0.622455 0.433553 0.219993
O O1 0.239000 0.500000 0.770755
O O2 0.261226 0.596889 0.900760
O O3 0.295236 0.583282 0.743271
O O4 0.101310 0.581023 0.519729
O O5 0.873084 0.104016 0.443155
O O6 0.871279 0.212234 0.406949
O O7 0.000000 0.148379 0.500000
O O8 0.793220 0.148863 0.136145
O O9 0.903029 0.624839 0.237306
O O10 0.803215 0.697072 0.191439
O O11 0.931829 0.317258 0.560208
O O12 0.025515 0.394429 0.840557
O O13 0.353033 0.500000 0.485306
O O14 0.190351 0.433901 0.215078
O O15 0.342120 0.418375 0.602708
O O16 0.539224 0.000000 0.912743
O O17 0.500000 0.070116 0.000000
O O18 0.500000 0.769564 0.500000
O O19 0.623015 0.500000 0.219003
O O20 0.500000 0.415231 0.000000
#
# Coordination Sequence:
#
# PCOD9176115 Si02
#       8
#     8   8   8   8   8   8   8   8
#     4  10  20  32  53  82 110 142 181 221 269 327
#     4  11  22  36  55  80 108 146 183 223 272 325
#     4  10  20  34  54  82 110 141 174 227 279 319
#     4  10  18  34  55  82 112 141 177 226 276 320
#     4  10  21  36  54  81 111 143 182 222 271 327
#     4  10  19  32  55  84 115 148 179 216 272 336
#     4   8  18  35  56  78 104 140 187 222 265 326
#     4   9  19  36  55  72 102 150 190 219 253 310
#
# _framework density 17.135926000000001
#
# number of rings (size 3 to 8) (size 9 to 14) (size 15 to 20)
#    0.000    2.250    1.250    2.625    1.750    4.250 
#    0.000    0.000    0.000    7.500    0.000    0.000 
#    0.000    0.000    0.000    0.000    0.000    0.000 
#
# Total GULP energy -178401.340798 kJ/mol
# GULP energy per Si atom -5575.041900 kJ/mol
# Density = 1.709692 g / cm^3
# Si number density = 17.135926 Si / 1000 Ang^3
#
#
#
# Elastic Constant Matrix: (Units=GPa)
#
#
# Indices 1 2 3 4 5 6 
#
# 1 90.9924 59.2419 33.8430 0.0000 -7.5806 0.0000
# 2 59.2419 103.3117 34.4341 0.0000 -17.9588 0.0000
# 3 33.8430 34.4341 79.1342 0.0000 -18.3978 0.0000
# 4 0.0000 0.0000 0.0000 14.4695 0.0000 -2.9153
# 5 -7.5806 -17.9588 -18.3978 0.0000 27.2922 0.0000
# 6 0.0000 0.0000 0.0000 -2.9153 0.0000 2.2195
#
#
#
# Elastic Compliance Matrix: (Units=1/GPa)
#
#
# Indices 1 2 3 4 5 6 
#
# 1 0.018940 -0.010062 -0.004788 0.000000 -0.004588 0.000000
# 2 -0.010062 0.017247 -0.001438 0.000000 0.007585 0.000000
# 3 -0.004788 -0.001438 0.017528 0.000000 0.009539 0.000000
# 4 0.000000 0.000000 0.000000 0.093983 0.000000 0.123446
# 5 -0.004588 0.007585 0.009539 0.000000 0.046787 0.000000
# 6 0.000000 0.000000 0.000000 0.123446 0.000000 0.612695
#
#
# Mechanical properties :
#
#
# Convention : Reuss Voigt Hill
#
# Bulk Modulus (GPa) = 47.30865 58.71958 53.01412
# Shear Modulus (GPa) = 5.90456 18.52421 12.21439
#
# Velocity S-wave (km/s) = 1.85828 3.29145 2.67272
# Velocity P-wave (km/s) = 5.68085 6.98471 6.36625
#
# Compressibility (1/GPa) = 0.02113778
#
# Stress axis : x y z
#
# Youngs Moduli (GPa) = 52.79908 57.98030 57.05109
#
# Poissons Ratio (x) = 0.58341 0.27317
# Poissons Ratio (y) = 0.53128 0.08205
# Poissons Ratio (z) = 0.25281 0.08339
#
# Static dielectric constant tensor:
#      x y z
#    x 1.561860 0.000000 0.005290 
#    y 0.000000 1.591580 0.000000 
#    z 0.005290 0.000000 1.588450 
# 
# From -- ./inp_files/178429.got.cif
#   From: 2010.05.17/outbox.cif.g08.bks.cpg/sg12_90_cif.got.tgz:178429.got - 2010.06.03 13:09:07.
