data_PCOD9176760
_publ_section_title
;
Structure prediction by ZEFSAII (Michael W. Deem and Ramdas Pophale) SiO2 
 PCOD9176760
Probable space group: C 2/M
;
_chemical_formula_sum "Si O2"
_cell_formula_units_Z 32
_cell_length_a 5.767689
_cell_length_b 22.606639
_cell_length_c 10.971675
_cell_angle_alpha 90.000000
_cell_angle_beta 92.778826
_cell_angle_gamma 90.000000
_cell_volume 1428.893270
_symmetry_space_group_name_H-M "C 2/M"
_symmetry_group_IT_number 12
_symmetry_cell_setting 'monoclinic'
loop_
_space_group_symop_operation_xyz
x,y,z
-x,y,-z
-x,-y,-z
x,-y,z
1/2+x,1/2+y,z
1/2-x,1/2+y,-z
1/2-x,1/2-y,-z
1/2+x,1/2-y,z
loop_
_atom_site_type_symbol
_atom_site_label
_atom_site_fract_x
_atom_site_fract_y
_atom_site_fract_z
Si Si1 0.787584 0.607135 0.243556
Si Si2 0.877985 0.270595 0.345268
Si Si3 0.603422 0.690572 0.881550
Si Si4 0.241440 0.000000 0.427279
Si Si5 0.500000 0.108766 0.000000
O O1 0.922901 0.659892 0.319669
O O2 0.567605 0.643916 0.188418
O O3 0.734478 0.557070 0.339469
O O4 0.900357 0.579983 0.122167
O O5 0.621756 0.258070 0.396294
O O6 0.832392 0.239365 0.213824
O O7 0.806106 0.650436 0.938090
O O8 0.500000 0.719359 0.000000
O O9 0.500000 0.000000 0.500000
O O10 0.000000 0.000000 0.500000
#
# Coordination Sequence:
#
# PCOD9176760 Si02
#       5
#     8   8   8   4   4
#     4  10  23  41  67 102 137 177 227 278 339 400
#     4  10  19  32  59  97 145 174 206 251 326 418
#     4   9  19  32  59 105 150 181 201 250 339 430
#     4  12  32  55  79  87 119 188 252 299 330 390
#     4  10  18  35  66 110 144 173 208 266 342 422
#
# _framework density 22.394953999999998
#
# number of rings (size 3 to 8) (size 9 to 14) (size 15 to 20)
#    0.000    2.000    2.500    0.000    5.250    3.500 
#    0.000    5.625    0.000   18.000    0.000    0.000 
#    0.000    0.000    0.000    0.000    0.000    0.000 
#
# Total GULP energy -89192.972252 kJ/mol
# GULP energy per Si atom -5574.560766 kJ/mol
# Density = 2.234398 g / cm^3
# Si number density = 22.394954 Si / 1000 Ang^3
#
#
#
# Elastic Constant Matrix: (Units=GPa)
#
#
# Indices 1 2 3 4 5 6 
#
# 1 121.0846 23.5174 81.4612 0.0000 -13.8278 0.0000
# 2 23.5174 116.5006 66.0400 0.0000 -21.3636 0.0000
# 3 81.4612 66.0400 145.2863 0.0000 -29.3333 0.0000
# 4 0.0000 0.0000 0.0000 60.9567 0.0000 -10.5991
# 5 -13.8278 -21.3636 -29.3333 0.0000 59.5930 0.0000
# 6 0.0000 0.0000 0.0000 -10.5991 0.0000 17.7391
#
#
#
# Elastic Compliance Matrix: (Units=1/GPa)
#
#
# Indices 1 2 3 4 5 6 
#
# 1 0.013649 0.002100 -0.008679 0.000000 -0.000352 0.000000
# 2 0.002100 0.012049 -0.006311 0.000000 0.001700 0.000000
# 3 -0.008679 -0.006311 0.015272 0.000000 0.003241 0.000000
# 4 0.000000 0.000000 0.000000 0.018307 0.000000 0.010938
# 5 -0.000352 0.001700 0.003241 0.000000 0.018904 0.000000
# 6 0.000000 0.000000 0.000000 0.010938 0.000000 0.062908
#
#
# Mechanical properties :
#
#
# Convention : Reuss Voigt Hill
#
# Bulk Modulus (GPa) = 65.82931 80.54541 73.18736
# Shear Modulus (GPa) = 29.08119 41.78128 35.43124
#
# Velocity S-wave (km/s) = 3.60746 4.32401 3.98189
# Velocity P-wave (km/s) = 6.84180 7.80854 7.34110
#
# Compressibility (1/GPa) = 0.01519080
#
# Stress axis : x y z
#
# Youngs Moduli (GPa) = 73.26375 82.99438 65.47930
#
# Poissons Ratio (x) = -0.17426 0.56827
# Poissons Ratio (y) = -0.15383 0.41323
# Poissons Ratio (z) = 0.63583 0.52377
#
# Static dielectric constant tensor:
#      x y z
#    x 1.972650 0.000000 -0.062490 
#    y 0.000000 1.768520 0.000000 
#    z -0.062490 0.000000 1.898460 
# 
# From -- ./inp_files/114837.got.cif
#   From: 2010.05.17/outbox.cif.g08.bks.cpg/sg12_58_cif.got.tgz:114837.got - 2010.06.03 13:09:07.
