data_PCOD9176503
_publ_section_title
;
Structure prediction by ZEFSAII (Michael W. Deem and Ramdas Pophale) SiO2 
 PCOD9176503
Probable space group: C 2/M
;
_chemical_formula_sum "Si O2"
_cell_formula_units_Z 64
_cell_length_a 19.126831
_cell_length_b 27.003581
_cell_length_c 9.383716
_cell_angle_alpha 90.000000
_cell_angle_beta 48.602927
_cell_angle_gamma 90.000000
_cell_volume 3635.669274
_symmetry_space_group_name_H-M "C 2/M"
_symmetry_group_IT_number 12
_symmetry_cell_setting 'monoclinic'
loop_
_space_group_symop_operation_xyz
x,y,z
-x,y,-z
-x,-y,-z
x,-y,z
1/2+x,1/2+y,z
1/2-x,1/2+y,-z
1/2-x,1/2-y,-z
1/2+x,1/2-y,z
loop_
_atom_site_type_symbol
_atom_site_label
_atom_site_fract_x
_atom_site_fract_y
_atom_site_fract_z
Si Si1 0.086085 0.678091 0.290214
Si Si2 0.340873 0.721678 0.712034
Si Si3 0.595849 0.824154 0.934543
Si Si4 0.396475 0.443793 0.450504
Si Si5 0.299736 0.654897 0.538146
Si Si6 0.174800 0.779287 0.773984
Si Si7 0.711102 0.347361 0.957814
Si Si8 0.614945 0.555727 0.191196
O O1 0.093336 0.737121 0.310854
O O2 0.179646 0.652714 0.223771
O O3 0.000000 0.659617 0.500000
O O4 0.085842 0.672486 0.119423
O O5 0.369840 0.679918 0.560144
O O6 0.264607 0.753252 0.726587
O O7 0.296859 0.690978 0.900077
O O8 0.694784 0.847151 0.746778
O O9 0.604875 0.766903 0.867539
O O10 0.500000 0.845308 0.000000
O O11 0.372792 0.500000 0.436284
O O12 0.338679 0.399702 0.456096
O O13 0.379922 0.441060 0.643745
O O14 0.507792 0.437283 0.287313
O O15 0.300894 0.693044 0.404718
O O16 0.149599 0.822959 0.916775
O O17 0.676241 0.400882 0.045691
O O18 0.643296 0.500000 0.112624
#
# Coordination Sequence:
#
# PCOD9176503 Si02
#       8
#     8   8   8   8   8   8   8   8
#     4  11  22  32  51  78 106 146 182 218 259 311
#     4  10  18  35  53  70 104 142 181 219 258 310
#     4  11  22  34  48  76 114 143 179 218 260 316
#     4   9  18  34  57  85 107 130 179 230 275 327
#     4  11  21  35  55  77 109 149 175 218 276 321
#     4  10  21  34  49  75 108 144 180 218 261 315
#     4  11  18  37  56  73 109 142 180 221 268 322
#     4   9  18  33  58  86 105 130 177 234 277 319
#
# _framework density 17.603362000000001
#
# number of rings (size 3 to 8) (size 9 to 14) (size 15 to 20)
#    0.000    1.750    5.000    3.000    5.250    2.000 
#    0.000    0.625    0.000    2.250    0.000    0.000 
#    0.000    0.000    0.000    0.000    0.000    0.000 
#
# Total GULP energy -178214.384155 kJ/mol
# GULP energy per Si atom -5569.199505 kJ/mol
# Density = 1.756330 g / cm^3
# Si number density = 17.603362 Si / 1000 Ang^3
#
#
#
# Elastic Constant Matrix: (Units=GPa)
#
#
# Indices 1 2 3 4 5 6 
#
# 1 33.4003 18.5353 13.9553 0.0000 -1.2471 0.0000
# 2 18.5353 105.5166 37.2509 0.0000 -18.9416 0.0000
# 3 13.9553 37.2509 74.7818 0.0000 -2.8983 0.0000
# 4 0.0000 0.0000 0.0000 17.8853 0.0000 -2.1246
# 5 -1.2471 -18.9416 -2.8983 0.0000 25.2321 0.0000
# 6 0.0000 0.0000 0.0000 -2.1246 0.0000 15.8355
#
#
#
# Elastic Compliance Matrix: (Units=1/GPa)
#
#
# Indices 1 2 3 4 5 6 
#
# 1 0.034328 -0.005092 -0.003970 0.000000 -0.002582 0.000000
# 2 -0.005092 0.014129 -0.005712 0.000000 0.009699 0.000000
# 3 -0.003970 -0.005712 0.016860 0.000000 -0.002548 0.000000
# 4 0.000000 0.000000 0.000000 0.056818 0.000000 0.007623
# 5 -0.002582 0.009699 -0.002548 0.000000 0.046493 0.000000
# 6 0.000000 0.000000 0.000000 0.007623 0.000000 0.064172
#
#
# Mechanical properties :
#
#
# Convention : Reuss Voigt Hill
#
# Bulk Modulus (GPa) = 27.95704 39.24242 33.59973
# Shear Modulus (GPa) = 18.23023 21.38772 19.80897
#
# Velocity S-wave (km/s) = 3.22158 3.48944 3.35818
# Velocity P-wave (km/s) = 5.45474 6.21095 5.84509
#
# Compressibility (1/GPa) = 0.03576917
#
# Stress axis : x y z
#
# Youngs Moduli (GPa) = 29.13085 70.77475 59.31341
#
# Poissons Ratio (x) = 0.36040 0.23545
# Poissons Ratio (y) = 0.14834 0.33880
# Poissons Ratio (z) = 0.11564 0.40427
#
# Static dielectric constant tensor:
#      x y z
#    x 1.639910 0.000000 0.003570 
#    y 0.000000 1.615600 0.000000 
#    z 0.003570 0.000000 1.651710 
# 
# From -- ./inp_files/90647.got.cif
#   From: 2010.05.17/outbox.cif.g08.bks.cpg/sg12_46_cif.got.tgz:90647.got - 2010.06.03 13:09:07.
