data_PCOD9176421
_publ_section_title
;
Structure prediction by ZEFSAII (Michael W. Deem and Ramdas Pophale) SiO2 
 PCOD9176421
Probable space group: C 2/M
;
_chemical_formula_sum "Si O2"
_cell_formula_units_Z 48
_cell_length_a 32.992621
_cell_length_b 20.057169
_cell_length_c 13.657406
_cell_angle_alpha 90.000000
_cell_angle_beta 162.738692
_cell_angle_gamma 90.000000
_cell_volume 2681.737143
_symmetry_space_group_name_H-M "C 2/M"
_symmetry_group_IT_number 12
_symmetry_cell_setting 'monoclinic'
loop_
_space_group_symop_operation_xyz
x,y,z
-x,y,-z
-x,-y,-z
x,-y,z
1/2+x,1/2+y,z
1/2-x,1/2+y,-z
1/2-x,1/2-y,-z
1/2+x,1/2-y,z
loop_
_atom_site_type_symbol
_atom_site_label
_atom_site_fract_x
_atom_site_fract_y
_atom_site_fract_z
Si Si1 0.165250 0.076639 0.367438
Si Si2 0.575446 0.576663 0.957508
Si Si3 0.137052 0.899061 0.877433
Si Si4 0.342874 0.755765 0.115918
Si Si5 0.291272 0.636966 0.337071
Si Si6 0.650914 0.000000 0.953426
Si Si7 0.347336 0.000000 0.276066
O O1 0.221512 0.130491 0.574300
O O2 0.210645 0.000000 0.493267
O O3 0.182485 0.090296 0.291790
O O4 0.000000 0.077044 0.000000
O O5 0.527003 0.500000 0.863962
O O6 0.627625 0.578963 0.967850
O O7 0.451168 0.628404 0.680355
O O8 0.148908 0.819715 0.903046
O O9 0.000000 0.916959 0.500000
O O10 0.263544 0.936025 0.119145
O O11 0.500000 0.777807 0.500000
O O12 0.250000 0.750000 0.000000
O O13 0.275624 0.803882 0.879440
O O14 0.225875 0.567843 0.151780
O O15 0.504553 0.000000 0.668894
O O16 0.645291 0.000000 0.823363
#
# Coordination Sequence:
#
# PCOD9176421 Si02
#       7
#     8   8   8   8   8   4   4
#     4   8  15  30  54  86 111 136 180 233 281 319
#     4  10  18  34  61  88 111 136 180 242 285 321
#     4  11  22  38  56  81 110 146 185 227 283 337
#     4  11  25  40  55  80 118 157 186 227 283 343
#     4  11  19  35  57  83 112 148 183 227 277 332
#     4  11  22  32  52  81 111 141 187 231 267 329
#     4  11  23  34  53  81 109 140 185 233 276 332
#
# _framework density 17.898845999999999
#
# number of rings (size 3 to 8) (size 9 to 14) (size 15 to 20)
#    0.000    1.667    2.500    5.250    4.667    0.000 
#    0.000    0.833    0.000    2.000    0.000    0.000 
#    0.000    0.000    0.000    0.000    0.000    0.000 
#
# Total GULP energy -133763.897812 kJ/mol
# GULP energy per Si atom -5573.495742 kJ/mol
# Density = 1.785811 g / cm^3
# Si number density = 17.898846 Si / 1000 Ang^3
#
#
#
# Elastic Constant Matrix: (Units=GPa)
#
#
# Indices 1 2 3 4 5 6 
#
# 1 130.6790 28.2521 51.6209 0.0000 -24.5339 0.0000
# 2 28.2521 84.0816 37.4383 0.0000 -18.1394 0.0000
# 3 51.6209 37.4383 63.3000 0.0000 -13.1228 0.0000
# 4 0.0000 0.0000 0.0000 17.6345 0.0000 -11.3160
# 5 -24.5339 -18.1394 -13.1228 0.0000 31.2846 0.0000
# 6 0.0000 0.0000 0.0000 -11.3160 0.0000 25.7211
#
#
#
# Elastic Compliance Matrix: (Units=1/GPa)
#
#
# Indices 1 2 3 4 5 6 
#
# 1 0.012351 0.001551 -0.009633 0.000000 0.006544 0.000000
# 2 0.001551 0.017386 -0.010082 0.000000 0.007068 0.000000
# 3 -0.009633 -0.010082 0.029394 0.000000 -0.001070 0.000000
# 4 0.000000 0.000000 0.000000 0.079014 0.000000 0.034762
# 5 0.006544 0.007068 -0.001070 0.000000 0.040746 0.000000
# 6 0.000000 0.000000 0.000000 0.034762 0.000000 0.054172
#
#
# Mechanical properties :
#
#
# Convention : Reuss Voigt Hill
#
# Bulk Modulus (GPa) = 43.85345 56.96482 50.40914
# Shear Modulus (GPa) = 18.05100 25.64464 21.84782
#
# Velocity S-wave (km/s) = 3.17914 3.78928 3.49754
# Velocity P-wave (km/s) = 6.16683 7.14422 6.67344
#
# Compressibility (1/GPa) = 0.02280322
#
# Stress axis : x y z
#
# Youngs Moduli (GPa) = 80.96678 57.51679 34.02002
#
# Poissons Ratio (x) = -0.08920 0.32770
# Poissons Ratio (y) = -0.12557 0.34301
# Poissons Ratio (z) = 0.77992 0.57991
#
# Static dielectric constant tensor:
#      x y z
#    x 1.651670 0.000000 -0.030460 
#    y 0.000000 1.603860 0.000000 
#    z -0.030460 0.000000 1.652870 
# 
# From -- ./inp_files/190293.got.cif
#   From: 2010.05.17/outbox.cif.g08.bks.cpg/sg12_96_cif.got.tgz:190293.got - 2010.06.03 13:09:07.
