data_PCOD9176256
_publ_section_title
;
Structure prediction by ZEFSAII (Michael W. Deem and Ramdas Pophale) SiO2 
 PCOD9176256
Probable space group: C 2/M
;
_chemical_formula_sum "Si O2"
_cell_formula_units_Z 40
_cell_length_a 16.083128
_cell_length_b 13.132851
_cell_length_c 8.544572
_cell_angle_alpha 90.000000
_cell_angle_beta 110.055342
_cell_angle_gamma 90.000000
_cell_volume 1695.324178
_symmetry_space_group_name_H-M "C 2/M"
_symmetry_group_IT_number 12
_symmetry_cell_setting 'monoclinic'
loop_
_space_group_symop_operation_xyz
x,y,z
-x,y,-z
-x,-y,-z
x,-y,z
1/2+x,1/2+y,z
1/2-x,1/2+y,-z
1/2-x,1/2-y,-z
1/2+x,1/2-y,z
loop_
_atom_site_type_symbol
_atom_site_label
_atom_site_fract_x
_atom_site_fract_y
_atom_site_fract_z
Si Si1 0.683517 0.381476 0.906604
Si Si2 0.763349 0.383032 0.493482
Si Si3 0.654543 0.273996 0.221075
Si Si4 0.409877 0.202601 0.345186
Si Si5 0.896359 0.614184 0.007154
O O1 0.657734 0.500000 0.876607
O O2 0.629758 0.306615 0.756313
O O3 0.671247 0.337935 0.074065
O O4 0.789195 0.374526 0.952769
O O5 0.772354 0.500000 0.542850
O O6 0.665184 0.359960 0.361150
O O7 0.783216 0.308808 0.649472
O O8 0.836237 0.353780 0.406416
O O9 0.580588 0.196244 0.112254
O O10 0.500000 0.218231 0.500000
O O11 0.427950 0.134177 0.203556
O O12 0.912566 0.500000 0.966073
#
# Coordination Sequence:
#
# PCOD9176256 Si02
#       5
#     8   8   8   8   8
#     4  10  19  37  61  81 108 147 194 235 272 323
#     4  11  21  34  54  85 118 145 182 230 283 333
#     4  10  19  34  55  82 114 141 184 238 278 320
#     4  11  22  37  56  83 119 150 183 229 276 337
#     4  10  18  34  58  82 107 147 191 228 273 326
#
# _framework density 23.594306
#
# number of rings (size 3 to 8) (size 9 to 14) (size 15 to 20)
#    0.000    1.600    4.000    3.000    0.000    2.000 
#    0.000    5.000    0.000    7.200    0.000    0.000 
#    0.000    0.000    0.000    0.000    0.000    0.000 
#
# Total GULP energy -111444.741073 kJ/mol
# GULP energy per Si atom -5572.237054 kJ/mol
# Density = 2.354060 g / cm^3
# Si number density = 23.594306 Si / 1000 Ang^3
#
#
#
# Elastic Constant Matrix: (Units=GPa)
#
#
# Indices 1 2 3 4 5 6 
#
# 1 42.1147 -1.7652 13.1645 0.0000 7.4738 0.0000
# 2 -1.7652 125.4759 3.2277 0.0000 16.6684 0.0000
# 3 13.1645 3.2277 157.7887 0.0000 26.9593 0.0000
# 4 0.0000 0.0000 0.0000 20.8261 0.0000 -11.7362
# 5 7.4738 16.6684 26.9593 0.0000 37.1186 0.0000
# 6 0.0000 0.0000 0.0000 -11.7362 0.0000 -20.1786
#
#
#
# Elastic Compliance Matrix: (Units=1/GPa)
#
#
# Indices 1 2 3 4 5 6 
#
# 1 0.025003 0.000985 -0.001336 0.000000 -0.004506 0.000000
# 2 0.000985 0.008555 0.000494 0.000000 -0.004399 0.000000
# 3 -0.001336 0.000494 0.007342 0.000000 -0.005286 0.000000
# 4 0.000000 0.000000 0.000000 0.036164 0.000000 -0.021033
# 5 -0.004506 -0.004399 -0.005286 0.000000 0.033662 0.000000
# 6 0.000000 0.000000 0.000000 -0.021033 0.000000 -0.037324
#
#
# Mechanical properties :
#
#
# Convention : Reuss Voigt Hill
#
# Bulk Modulus (GPa) = 24.27997 39.40372 31.84184
# Shear Modulus (GPa) = 57.57363 28.27006 42.92184
#
# Velocity S-wave (km/s) = 4.94515 3.46522 4.26979
# Velocity P-wave (km/s) = 6.55125 5.72251 6.15085
#
# Compressibility (1/GPa) = 0.04118622
#
# Stress axis : x y z
#
# Youngs Moduli (GPa) = 39.99469 116.88822 136.20208
#
# Poissons Ratio (x) = -0.11510 0.18201
# Poissons Ratio (y) = -0.03938 -0.06735
# Poissons Ratio (z) = 0.05345 -0.05780
#
# Static dielectric constant tensor:
#      x y z
#    x 1.979300 0.000000 0.009140 
#    y 0.000000 1.919230 0.000000 
#    z 0.009140 0.000000 1.913620 
# 
# From -- ./inp_files/72339.got.cif
#   From: 2010.05.17/outbox.cif.g08.bks.cpg/sg12_37_cif.got.tgz:72339.got - 2010.06.03 13:09:07.
