data_PCOD9176443
_publ_section_title
;
Structure prediction by ZEFSAII (Michael W. Deem and Ramdas Pophale) SiO2 
 PCOD9176443
Probable space group: C 2/M
;
_chemical_formula_sum "Si O2"
_cell_formula_units_Z 38
_cell_length_a 14.884796
_cell_length_b 15.260236
_cell_length_c 7.135439
_cell_angle_alpha 90.000000
_cell_angle_beta 68.999920
_cell_angle_gamma 90.000000
_cell_volume 1513.130341
_symmetry_space_group_name_H-M "C 2/M"
_symmetry_group_IT_number 12
_symmetry_cell_setting 'monoclinic'
loop_
_space_group_symop_operation_xyz
x,y,z
-x,y,-z
-x,-y,-z
x,-y,z
1/2+x,1/2+y,z
1/2-x,1/2+y,-z
1/2-x,1/2-y,-z
1/2+x,1/2-y,z
loop_
_atom_site_type_symbol
_atom_site_label
_atom_site_fract_x
_atom_site_fract_y
_atom_site_fract_z
Si Si1 0.984365 0.312173 0.739114
Si Si2 0.195678 0.319382 0.673233
Si Si3 0.000000 0.000000 0.500000
Si Si4 0.614130 0.500000 0.900616
Si Si5 0.361590 0.641445 0.827109
Si Si6 0.927164 0.500000 0.732813
Si Si7 0.772420 0.500000 0.552953
O O1 0.084955 0.292641 0.765226
O O2 0.000000 0.313941 0.500000
O O3 0.913179 0.232758 0.823541
O O4 0.946222 0.408699 0.821742
O O5 0.250000 0.250000 0.500000
O O6 0.260889 0.336472 0.804557
O O7 0.193904 0.413388 0.572976
O O8 0.929760 0.922213 0.649917
O O9 0.656061 0.500000 0.660112
O O10 0.500000 0.500000 0.000000
O O11 0.650053 0.587432 0.973740
O O12 0.822295 0.500000 0.718473
O O13 0.000000 0.500000 0.500000
#
# Coordination Sequence:
#
# PCOD9176443 Si02
#       7
#     8   8   2   4   8   4   4
#     4  11  19  37  64 100 130 158 220 287 338 377
#     4  12  22  36  72 103 124 171 228 292 333 379
#     4  10  18  34  62  86 124 164 224 282 324 364
#     4  11  30  44  64  92 146 191 211 265 350 418
#     4  11  23  41  62  98 135 173 227 279 330 407
#     4  10  18  37  60  96 123 163 211 280 327 389
#     4  12  23  41  66  98 135 173 222 271 345 409
#
# _framework density 25.113499000000001
#
# number of rings (size 3 to 8) (size 9 to 14) (size 15 to 20)
#    0.000    0.842    7.368    1.263    8.842    0.000 
#    0.000    4.211    0.000    1.263    0.000    0.000 
#    0.000    0.000    0.000    0.000    0.000    0.000 
#
# Total GULP energy -106322.180110 kJ/mol
# GULP energy per Si atom -5595.904216 kJ/mol
# Density = 2.505634 g / cm^3
# Si number density = 25.113499 Si / 1000 Ang^3
#
#
#
# Elastic Constant Matrix: (Units=GPa)
#
#
# Indices 1 2 3 4 5 6 
#
# 1 194.1778 68.3390 24.0969 0.0000 1.6568 0.0000
# 2 68.3390 197.8607 17.3446 0.0000 9.9978 0.0000
# 3 24.0969 17.3446 52.4529 0.0000 1.6824 0.0000
# 4 0.0000 0.0000 0.0000 28.7924 0.0000 2.6540
# 5 1.6568 9.9978 1.6824 0.0000 38.2537 0.0000
# 6 0.0000 0.0000 0.0000 2.6540 0.0000 42.5740
#
#
#
# Elastic Compliance Matrix: (Units=1/GPa)
#
#
# Indices 1 2 3 4 5 6 
#
# 1 0.006097 -0.001932 -0.002173 0.000000 0.000337 0.000000
# 2 -0.001932 0.005881 -0.001012 0.000000 -0.001409 0.000000
# 3 -0.002173 -0.001012 0.020415 0.000000 -0.000539 0.000000
# 4 0.000000 0.000000 0.000000 0.034932 0.000000 -0.002178
# 5 0.000337 -0.001409 -0.000539 0.000000 0.026519 0.000000
# 6 0.000000 0.000000 0.000000 -0.002178 0.000000 0.023624
#
#
# Mechanical properties :
#
#
# Convention : Reuss Voigt Hill
#
# Bulk Modulus (GPa) = 45.12819 73.78359 59.45589
# Shear Modulus (GPa) = 37.01290 44.23807 40.62548
#
# Velocity S-wave (km/s) = 3.84321 4.20161 4.02640
# Velocity P-wave (km/s) = 6.14023 7.27886 6.73365
#
# Compressibility (1/GPa) = 0.02215910
#
# Stress axis : x y z
#
# Youngs Moduli (GPa) = 164.02262 170.02902 48.98414
#
# Poissons Ratio (x) = 0.32854 0.10643
# Poissons Ratio (y) = 0.31694 0.04957
# Poissons Ratio (z) = 0.35637 0.17205
#
# Static dielectric constant tensor:
#      x y z
#    x 0.335250 0.000000 -0.860160 
#    y 0.000000 1.901260 0.000000 
#    z -0.860160 0.000000 1.604030 
# 
# From -- ./inp_files/59043.got.cif
#   From: 2010.05.17/outbox.cif.g08.bks.cpg/sg12_30_cif.got.tgz:59043.got - 2010.06.03 13:09:07.
