data_PCOD9176704
_publ_section_title
;
Structure prediction by ZEFSAII (Michael W. Deem and Ramdas Pophale) SiO2 
 PCOD9176704
Probable space group: C 2/M
;
_chemical_formula_sum "Si O2"
_cell_formula_units_Z 40
_cell_length_a 23.216846
_cell_length_b 13.776845
_cell_length_c 19.490798
_cell_angle_alpha 90.000000
_cell_angle_beta 163.837123
_cell_angle_gamma 90.000000
_cell_volume 1735.414641
_symmetry_space_group_name_H-M "C 2/M"
_symmetry_group_IT_number 12
_symmetry_cell_setting 'monoclinic'
loop_
_space_group_symop_operation_xyz
x,y,z
-x,y,-z
-x,-y,-z
x,-y,z
1/2+x,1/2+y,z
1/2-x,1/2+y,-z
1/2-x,1/2-y,-z
1/2+x,1/2-y,z
loop_
_atom_site_type_symbol
_atom_site_label
_atom_site_fract_x
_atom_site_fract_y
_atom_site_fract_z
Si Si1 0.447812 0.612535 0.049924
Si Si2 0.454869 0.890394 0.616922
Si Si3 0.145115 0.734527 0.609294
Si Si4 0.864520 0.390498 0.775516
Si Si5 0.511542 0.775442 0.214349
O O1 0.382707 0.500000 0.973057
O O2 0.699646 0.611892 0.329665
O O3 0.414946 0.673194 0.082148
O O4 0.335271 0.679160 0.863784
O O5 0.486358 0.849153 0.577414
O O6 0.553677 0.828512 0.791219
O O7 0.522046 0.000000 0.700932
O O8 0.199323 0.810559 0.611316
O O9 0.000000 0.783306 0.500000
O O10 0.790680 0.500000 0.675477
O O11 0.986472 0.347547 0.849496
O O12 0.000000 0.396107 0.000000
O O13 0.750000 0.750000 0.500000
#
# Coordination Sequence:
#
# PCOD9176704 Si02
#       5
#     8   8   8   8   8
#     4  10  20  36  60  86 113 147 195 241 281 328
#     4  10  20  36  61  88 114 147 190 242 288 333
#     4  12  23  38  57  83 121 155 189 233 282 343
#     4  11  21  38  64  85 108 148 195 239 282 334
#     4  10  18  35  61  89 112 138 186 248 288 326
#
# _framework density 23.049249
#
# number of rings (size 3 to 8) (size 9 to 14) (size 15 to 20)
#    0.000    1.400    6.000    1.800    0.000    4.400 
#    0.000    1.000    0.000    0.000    0.000    0.000 
#    0.000    0.000    0.000    0.000    0.000    0.000 
#
# Total GULP energy -111614.871166 kJ/mol
# GULP energy per Si atom -5580.743558 kJ/mol
# Density = 2.299679 g / cm^3
# Si number density = 23.049249 Si / 1000 Ang^3
#
#
#
# Elastic Constant Matrix: (Units=GPa)
#
#
# Indices 1 2 3 4 5 6 
#
# 1 83.3860 11.9868 0.8561 0.0010 -17.6541 -0.0014
# 2 11.9868 150.5260 15.7805 -0.0015 -10.7117 0.0005
# 3 0.8561 15.7805 61.0029 -0.0123 -6.8304 0.0029
# 4 0.0010 -0.0015 -0.0123 15.2178 0.0092 -13.1696
# 5 -17.6541 -10.7117 -6.8304 0.0092 31.8452 0.0023
# 6 -0.0014 0.0005 0.0029 -13.1696 0.0023 26.2518
#
#
#
# Elastic Compliance Matrix: (Units=1/GPa)
#
#
# Indices 1 2 3 4 5 6 
#
# 1 0.013672 -0.000638 0.000817 -0.000009 0.007540 -0.000004
# 2 -0.000638 0.006981 -0.001612 -0.000003 0.001649 -0.000002
# 3 0.000817 -0.001612 0.017201 0.000017 0.003600 0.000006
# 4 -0.000009 -0.000003 0.000017 0.116129 -0.000040 0.058258
# 5 0.007540 0.001649 0.003600 -0.000040 0.036909 -0.000023
# 6 -0.000004 -0.000002 0.000006 0.058258 -0.000023 0.067319
#
#
# Mechanical properties :
#
#
# Convention : Reuss Voigt Hill
#
# Bulk Modulus (GPa) = 28.58072 39.12908 33.85490
# Shear Modulus (GPa) = 18.33255 32.41572 25.37413
#
# Velocity S-wave (km/s) = 2.82328 3.75423 3.32153
# Velocity P-wave (km/s) = 4.80153 5.98376 5.42495
#
# Compressibility (1/GPa) = 0.03498862
#
# Stress axis : x y z
#
# Youngs Moduli (GPa) = 73.14167 143.25621 58.13490
#
# Poissons Ratio (x) = 0.09138 -0.04752
# Poissons Ratio (y) = 0.04665 0.09373
# Poissons Ratio (z) = -0.05979 0.23096
#
# Static dielectric constant tensor:
#      x y z
#    x 1.935460 0.000000 0.071390 
#    y 0.000000 1.878150 0.000000 
#    z 0.071390 0.000000 1.936530 
# 
# From -- ./inp_files/85503.got.cif
#   From: 2010.05.17/outbox.cif.g08.bks.cpg/sg12_43_cif.got.tgz:85503.got - 2010.06.03 13:09:07.
