data_PCOD9176126
_publ_section_title
;
Structure prediction by ZEFSAII (Michael W. Deem and Ramdas Pophale) SiO2 
 PCOD9176126
Probable space group: C 2/M
;
_chemical_formula_sum "Si O2"
_cell_formula_units_Z 48
_cell_length_a 7.789717
_cell_length_b 24.947499
_cell_length_c 12.057463
_cell_angle_alpha 90.000000
_cell_angle_beta 110.162884
_cell_angle_gamma 90.000000
_cell_volume 2199.576583
_symmetry_space_group_name_H-M "C 2/M"
_symmetry_group_IT_number 12
_symmetry_cell_setting 'monoclinic'
loop_
_space_group_symop_operation_xyz
x,y,z
-x,y,-z
-x,-y,-z
x,-y,z
1/2+x,1/2+y,z
1/2-x,1/2+y,-z
1/2-x,1/2-y,-z
1/2+x,1/2-y,z
loop_
_atom_site_type_symbol
_atom_site_label
_atom_site_fract_x
_atom_site_fract_y
_atom_site_fract_z
Si Si1 0.216417 0.688881 0.524322
Si Si2 0.267637 0.500000 0.751540
Si Si3 0.646253 0.000000 0.289961
Si Si4 0.827321 0.000000 0.087331
Si Si5 0.829810 0.383612 0.682378
Si Si6 0.259241 0.382368 0.734485
Si Si7 0.789559 0.380174 0.930397
Si Si8 0.500000 0.644095 0.000000
O O1 0.250000 0.750000 0.500000
O O2 0.262144 0.654935 0.425615
O O3 0.305753 0.662298 0.653193
O O4 0.000000 0.682212 0.500000
O O5 0.452909 0.500000 0.864475
O O6 0.268684 0.443130 0.688812
O O7 0.075095 0.500000 0.775400
O O8 0.694479 0.945094 0.359884
O O9 0.748490 0.000000 0.195549
O O10 0.760099 0.059336 0.034607
O O11 0.759936 0.378453 0.792179
O O12 0.050118 0.373955 0.729154
O O13 0.393484 0.380978 0.869495
O O14 0.673726 0.335501 0.970020
O O15 0.000000 0.372604 0.000000
#
# Coordination Sequence:
#
# PCOD9176126 Si02
#       8
#     8   4   4   4   8   8   8   4
#     4  10  23  44  70  90 117 160 212 262 312 373
#     4  10  18  34  55  89 129 165 202 247 301 364
#     4   8  18  32  57  87 124 160 197 256 305 357
#     4  10  19  30  50  83 123 173 212 233 292 367
#     4   9  19  39  61  88 125 164 208 252 309 366
#     4  10  21  37  61  93 126 168 207 250 308 369
#     4  11  21  33  54  86 127 171 205 252 298 359
#     4  12  22  35  60  90 132 166 208 245 308 374
#
# _framework density 21.822381
#
# number of rings (size 3 to 8) (size 9 to 14) (size 15 to 20)
#    0.000    2.000    3.333    0.250    0.000    3.333 
#    0.000    3.333    1.833    5.000    0.000    0.000 
#    0.000    0.000    0.000    0.000    0.000    0.000 
#
# Total GULP energy -133668.445132 kJ/mol
# GULP energy per Si atom -5569.518547 kJ/mol
# Density = 2.177271 g / cm^3
# Si number density = 21.822381 Si / 1000 Ang^3
#
#
#
# Elastic Constant Matrix: (Units=GPa)
#
#
# Indices 1 2 3 4 5 6 
#
# 1 74.2432 16.8446 28.6360 0.0000 -6.2030 0.0000
# 2 16.8446 100.8013 71.3680 0.0000 -11.8420 0.0000
# 3 28.6360 71.3680 111.5938 0.0000 -18.7235 0.0000
# 4 0.0000 0.0000 0.0000 -9.2103 0.0000 -7.8398
# 5 -6.2030 -11.8420 -18.7235 0.0000 25.5963 0.0000
# 6 0.0000 0.0000 0.0000 -7.8398 0.0000 20.7097
#
#
#
# Elastic Compliance Matrix: (Units=1/GPa)
#
#
# Indices 1 2 3 4 5 6 
#
# 1 0.014977 0.000397 -0.003941 0.000000 0.000930 0.000000
# 2 0.000397 0.018140 -0.011717 0.000000 -0.000082 0.000000
# 3 -0.003941 -0.011717 0.018690 0.000000 0.007296 0.000000
# 4 0.000000 0.000000 0.000000 -0.082115 0.000000 -0.031085
# 5 0.000930 -0.000082 0.007296 0.000000 0.044592 0.000000
# 6 0.000000 0.000000 0.000000 -0.031085 0.000000 0.036519
#
#
# Mechanical properties :
#
#
# Convention : Reuss Voigt Hill
#
# Bulk Modulus (GPa) = 46.98168 57.81505 52.39837
# Shear Modulus (GPa) = 56.54789 18.73844 37.64317
#
# Velocity S-wave (km/s) = 5.09598 2.93350 4.15779
# Velocity P-wave (km/s) = 7.49675 6.16643 6.86390
#
# Compressibility (1/GPa) = 0.02128489
#
# Stress axis : x y z
#
# Youngs Moduli (GPa) = 66.76914 55.12625 53.50528
#
# Poissons Ratio (x) = -0.02187 0.21085
# Poissons Ratio (y) = -0.02648 0.62691
# Poissons Ratio (z) = 0.26312 0.64591
#
# Static dielectric constant tensor:
#      x y z
#    x 1.867230 0.000000 0.008300 
#    y 0.000000 1.830480 0.000000 
#    z 0.008300 0.000000 1.789110 
# 
# From -- ./inp_files/122637.got.cif
#   From: 2010.05.17/outbox.cif.g08.bks.cpg/sg12_62_cif.got.tgz:122637.got - 2010.06.03 13:09:07.
