data_PCOD9176364
_publ_section_title
;
Structure prediction by ZEFSAII (Michael W. Deem and Ramdas Pophale) SiO2 
 PCOD9176364
Probable space group: C 2/M
;
_chemical_formula_sum "Si O2"
_cell_formula_units_Z 56
_cell_length_a 15.643646
_cell_length_b 7.701338
_cell_length_c 30.230004
_cell_angle_alpha 90.000000
_cell_angle_beta 133.748739
_cell_angle_gamma 90.000000
_cell_volume 2630.919682
_symmetry_space_group_name_H-M "C 2/M"
_symmetry_group_IT_number 12
_symmetry_cell_setting 'monoclinic'
loop_
_space_group_symop_operation_xyz
x,y,z
-x,y,-z
-x,-y,-z
x,-y,z
1/2+x,1/2+y,z
1/2-x,1/2+y,-z
1/2-x,1/2-y,-z
1/2+x,1/2-y,z
loop_
_atom_site_type_symbol
_atom_site_label
_atom_site_fract_x
_atom_site_fract_y
_atom_site_fract_z
Si Si1 0.882695 0.790571 0.486503
Si Si2 0.184424 0.793024 0.930670
Si Si3 0.734946 0.795470 0.290966
Si Si4 0.997899 0.786612 0.617228
Si Si5 0.355606 0.699433 0.647857
Si Si6 0.087664 0.705600 0.155919
Si Si7 0.879604 0.712803 0.931774
O O1 0.767928 0.710934 0.422957
O O2 0.000000 0.751922 0.500000
O O3 0.910658 0.732945 0.546422
O O4 0.867193 0.000000 0.480045
O O5 0.266559 0.729603 0.919752
O O6 0.051335 0.724956 0.884173
O O7 0.177179 0.000000 0.924527
O O8 0.250000 0.750000 0.000000
O O9 0.868466 0.726931 0.344041
O O10 0.664198 0.778997 0.311298
O O11 0.664734 0.721074 0.223924
O O12 0.749929 0.000000 0.288278
O O13 0.952001 0.726501 0.648439
O O14 0.995152 0.000000 0.615631
O O15 0.386915 0.500000 0.666921
O O16 0.111896 0.500000 0.162302
O O17 0.116862 0.775119 0.117503
O O18 0.879385 0.500000 0.931431
O O19 0.000000 0.764689 0.000000
#
# Coordination Sequence:
#
# PCOD9176364 Si02
#       7
#     8   8   8   8   8   8   8
#     4  10  18  34  60  82 107 146 191 230 275 336
#     4  11  21  35  59  87 116 145 179 225 277 331
#     4  10  21  40  60  77 107 153 195 224 269 339
#     4   9  19  36  57  81 109 148 190 229 274 334
#     4  11  22  35  56  86 117 142 181 238 287 325
#     4  10  21  38  60  83 109 146 191 234 273 326
#     4   9  17  33  57  83 110 143 183 221 267 330
#
# _framework density 21.285333000000001
#
# number of rings (size 3 to 8) (size 9 to 14) (size 15 to 20)
#    0.000    2.000    2.857    1.286    0.000    2.000 
#    0.000    7.143    0.000    0.000    0.000    0.000 
#    0.000    0.000    0.000    0.000    0.000    0.000 
#
# Total GULP energy -156406.366583 kJ/mol
# GULP energy per Si atom -5585.941664 kJ/mol
# Density = 2.123689 g / cm^3
# Si number density = 21.285333 Si / 1000 Ang^3
#
#
#
# Elastic Constant Matrix: (Units=GPa)
#
#
# Indices 1 2 3 4 5 6 
#
# 1 131.8107 -3.5221 38.8235 0.0000 -36.0396 0.0000
# 2 -3.5221 31.2502 -3.2949 0.0000 -4.5550 0.0000
# 3 38.8235 -3.2949 119.9679 0.0000 -36.7699 0.0000
# 4 0.0000 0.0000 0.0000 6.2171 0.0000 1.7819
# 5 -36.0396 -4.5550 -36.7699 0.0000 25.4841 0.0000
# 6 0.0000 0.0000 0.0000 1.7819 0.0000 19.9769
#
#
#
# Elastic Compliance Matrix: (Units=1/GPa)
#
#
# Indices 1 2 3 4 5 6 
#
# 1 0.013632 0.005601 0.003510 0.000000 0.025344 0.000000
# 2 0.005601 0.036806 0.006530 0.000000 0.023922 0.000000
# 3 0.003510 0.006530 0.016599 0.000000 0.030081 0.000000
# 4 0.000000 0.000000 0.000000 0.165066 0.000000 -0.014723
# 5 0.025344 0.023922 0.030081 0.000000 0.122760 0.000000
# 6 0.000000 0.000000 0.000000 -0.014723 0.000000 0.051371
#
#
# Mechanical properties :
#
#
# Convention : Reuss Voigt Hill
#
# Bulk Modulus (GPa) = 10.17090 38.56020 24.36555
# Shear Modulus (GPa) = 12.26317 27.07045 19.66681
#
# Velocity S-wave (km/s) = 2.40288 3.57008 3.04297
# Velocity P-wave (km/s) = 3.53372 5.92867 4.88039
#
# Compressibility (1/GPa) = 0.09831967
#
# Stress axis : x y z
#
# Youngs Moduli (GPa) = 73.35691 27.16919 60.24567
#
# Poissons Ratio (x) = -0.15217 -0.21148
# Poissons Ratio (y) = -0.41085 -0.39342
# Poissons Ratio (z) = -0.25750 -0.17742
#
# Static dielectric constant tensor:
#      x y z
#    x 1.761510 0.000000 -0.015470 
#    y 0.000000 1.791750 0.000000 
#    z -0.015470 0.000000 1.736420 
# 
# From -- ./inp_files/375127.got.cif
#   From: 2010.05.17/outbox.cif.g08.bks.cpg/sg12_188_cif.got.tgz:375127.got - 2010.06.03 13:09:07.
