data_PCOD9176983
_publ_section_title
;
Structure prediction by ZEFSAII (Michael W. Deem and Ramdas Pophale) SiO2 
 PCOD9176983
Probable space group: C 2/M
;
_chemical_formula_sum "Si O2"
_cell_formula_units_Z 42
_cell_length_a 24.457041
_cell_length_b 7.383206
_cell_length_c 11.894314
_cell_angle_alpha 90.000000
_cell_angle_beta 132.387276
_cell_angle_gamma 90.000000
_cell_volume 1586.355726
_symmetry_space_group_name_H-M "C 2/M"
_symmetry_group_IT_number 12
_symmetry_cell_setting 'monoclinic'
loop_
_space_group_symop_operation_xyz
x,y,z
-x,y,-z
-x,-y,-z
x,-y,z
1/2+x,1/2+y,z
1/2-x,1/2+y,-z
1/2-x,1/2-y,-z
1/2+x,1/2-y,z
loop_
_atom_site_type_symbol
_atom_site_label
_atom_site_fract_x
_atom_site_fract_y
_atom_site_fract_z
Si Si1 0.668939 0.284683 0.339536
Si Si2 0.381538 0.721406 0.137510
Si Si3 0.105337 0.296698 0.584631
Si Si4 0.489818 0.279685 0.854523
Si Si5 0.230872 0.219978 0.198504
Si Si6 0.000000 0.000000 0.500000
O O1 0.660553 0.500000 0.323982
O O2 0.750000 0.250000 0.500000
O O3 0.593737 0.219082 0.292695
O O4 0.676051 0.220319 0.220972
O O5 0.386049 0.500000 0.160128
O O6 0.385407 0.799803 0.266545
O O7 0.446731 0.779194 0.143312
O O8 0.305207 0.770878 0.969245
O O9 0.091494 0.500000 0.526642
O O10 0.185661 0.223249 0.658992
O O11 0.039900 0.156869 0.477686
O O12 0.494756 0.500000 0.859989
O O13 0.500000 0.227968 0.000000
O O14 0.233288 0.000000 0.202463
#
# Coordination Sequence:
#
# PCOD9176983 Si02
#       6
#     8   8   8   8   8   2
#     4  10  20  37  57  89 125 166 213 260 321 385
#     4  10  18  36  65  97 128 165 215 270 330 387
#     4  11  24  43  66  97 130 170 216 266 322 387
#     4   9  16  31  61  91 121 165 215 263 313 382
#     4   9  19  37  64  90 128 168 209 270 326 384
#     4  12  26  48  64  90 134 178 214 258 320 400
#
# _framework density 26.475777000000001
#
# number of rings (size 3 to 8) (size 9 to 14) (size 15 to 20)
#    0.000    2.095    2.857    0.857    0.000    1.524 
#    6.857    2.857    0.000    1.143    0.000    0.000 
#    0.000    0.000    0.000    0.000    0.000    0.000 
#
# Total GULP energy -117331.798058 kJ/mol
# GULP energy per Si atom -5587.228479 kJ/mol
# Density = 2.641552 g / cm^3
# Si number density = 26.475777 Si / 1000 Ang^3
#
#
#
# Elastic Constant Matrix: (Units=GPa)
#
#
# Indices 1 2 3 4 5 6 
#
# 1 118.9792 13.3380 6.4384 0.0000 27.0145 0.0000
# 2 13.3380 128.1448 7.5181 0.0000 11.1309 0.0000
# 3 6.4384 7.5181 83.6422 0.0000 9.9720 0.0000
# 4 0.0000 0.0000 0.0000 21.1605 0.0000 -1.3125
# 5 27.0145 11.1309 9.9720 0.0000 55.9189 0.0000
# 6 0.0000 0.0000 0.0000 -1.3125 0.0000 10.3225
#
#
#
# Elastic Compliance Matrix: (Units=1/GPa)
#
#
# Indices 1 2 3 4 5 6 
#
# 1 0.009487 -0.000593 -0.000148 0.000000 -0.004439 0.000000
# 2 -0.000593 0.008002 -0.000529 0.000000 -0.001212 0.000000
# 3 -0.000148 -0.000529 0.012254 0.000000 -0.002009 0.000000
# 4 0.000000 0.000000 0.000000 0.047634 0.000000 0.006057
# 5 -0.004439 -0.001212 -0.002009 0.000000 0.020627 0.000000
# 6 0.000000 0.000000 0.000000 0.006057 0.000000 0.097646
#
#
# Mechanical properties :
#
#
# Convention : Reuss Voigt Hill
#
# Bulk Modulus (GPa) = 36.76089 42.81724 39.78906
# Shear Modulus (GPa) = 24.12464 37.71184 30.91824
#
# Velocity S-wave (km/s) = 3.02188 3.77820 3.42101
# Velocity P-wave (km/s) = 5.10789 5.93637 5.53764
#
# Compressibility (1/GPa) = 0.02720283
#
# Stress axis : x y z
#
# Youngs Moduli (GPa) = 105.40546 124.97315 81.60545
#
# Poissons Ratio (x) = 0.07414 0.01206
# Poissons Ratio (y) = 0.06253 0.04318
# Poissons Ratio (z) = 0.01557 0.06612
#
# Static dielectric constant tensor:
#      x y z
#    x 2.292560 0.000000 0.217140 
#    y 0.000000 1.965420 0.000000 
#    z 0.217140 0.000000 2.407450 
# 
# From -- ./inp_files/221832.got.cif
#   From: 2010.05.17/outbox.cif.g08.bks.cpg/sg12_111_cif.got.tgz:221832.got - 2010.06.03 13:09:07.
