data_PCOD9176536
_publ_section_title
;
Structure prediction by ZEFSAII (Michael W. Deem and Ramdas Pophale) SiO2 
 PCOD9176536
Probable space group: C 2/M
;
_chemical_formula_sum "Si O2"
_cell_formula_units_Z 48
_cell_length_a 17.077947
_cell_length_b 12.577309
_cell_length_c 11.916176
_cell_angle_alpha 90.000000
_cell_angle_beta 61.613992
_cell_angle_gamma 90.000000
_cell_volume 2251.784535
_symmetry_space_group_name_H-M "C 2/M"
_symmetry_group_IT_number 12
_symmetry_cell_setting 'monoclinic'
loop_
_space_group_symop_operation_xyz
x,y,z
-x,y,-z
-x,-y,-z
x,-y,z
1/2+x,1/2+y,z
1/2-x,1/2+y,-z
1/2-x,1/2-y,-z
1/2+x,1/2-y,z
loop_
_atom_site_type_symbol
_atom_site_label
_atom_site_fract_x
_atom_site_fract_y
_atom_site_fract_z
Si Si1 0.792136 0.380034 0.220055
Si Si2 0.396923 0.705456 0.042124
Si Si3 0.287885 0.338130 0.323817
Si Si4 0.594878 0.827930 0.412602
Si Si5 0.385922 0.676860 0.788028
Si Si6 0.922643 0.885376 0.428155
O O1 0.809291 0.500000 0.243506
O O2 0.868572 0.327020 0.090692
O O3 0.700668 0.373130 0.211506
O O4 0.623196 0.319029 0.072648
O O5 0.336049 0.640413 0.171710
O O6 0.500000 0.688309 0.000000
O O7 0.186867 0.377032 0.391488
O O8 0.285234 0.207684 0.324075
O O9 0.349694 0.376413 0.380706
O O10 0.606467 0.793737 0.274996
O O11 0.587556 0.714835 0.483839
O O12 0.500000 0.880858 0.500000
O O13 0.479539 0.622307 0.693476
O O14 0.911691 0.000000 0.492842
#
# Coordination Sequence:
#
# PCOD9176536 Si02
#       6
#     8   8   8   8   8   8
#     4   9  19  32  55  83 108 144 185 223 269 324
#     4  10  19  35  58  79 115 146 180 223 282 336
#     4   9  20  36  56  80 115 146 179 231 280 325
#     4   9  20  33  56  80 105 147 189 224 272 319
#     4  10  18  35  55  80 113 143 176 235 278 326
#     4  11  21  35  56  83 114 147 186 228 276 330
#
# _framework density 21.316427000000001
#
# number of rings (size 3 to 8) (size 9 to 14) (size 15 to 20)
#    1.000    1.333    1.667    1.500    0.000    6.000 
#    0.000    2.500    0.000    0.500    0.000    4.667 
#    0.000    0.000    0.000    0.000    0.000    0.000 
#
# Total GULP energy -133844.498224 kJ/mol
# GULP energy per Si atom -5576.854093 kJ/mol
# Density = 2.126791 g / cm^3
# Si number density = 21.316427 Si / 1000 Ang^3
#
#
#
# Elastic Constant Matrix: (Units=GPa)
#
#
# Indices 1 2 3 4 5 6 
#
# 1 156.1382 12.6885 31.4710 0.0000 -11.1968 0.0000
# 2 12.6885 92.9313 3.7216 0.0000 1.9339 0.0000
# 3 31.4710 3.7216 84.0194 0.0000 -2.0299 0.0000
# 4 0.0000 0.0000 0.0000 -0.4056 0.0000 5.4671
# 5 -11.1968 1.9339 -2.0299 0.0000 42.5054 0.0000
# 6 0.0000 0.0000 0.0000 5.4671 0.0000 -6.7728
#
#
#
# Elastic Compliance Matrix: (Units=1/GPa)
#
#
# Indices 1 2 3 4 5 6 
#
# 1 0.007128 -0.000907 -0.002587 0.000000 0.001796 0.000000
# 2 -0.000907 0.010906 -0.000161 0.000000 -0.000743 0.000000
# 3 -0.002587 -0.000161 0.012877 0.000000 -0.000059 0.000000
# 4 0.000000 0.000000 0.000000 0.249533 0.000000 0.201427
# 5 0.001796 -0.000743 -0.000059 0.000000 0.024030 0.000000
# 6 0.000000 0.000000 0.000000 0.201427 0.000000 0.014944
#
#
# Mechanical properties :
#
#
# Convention : Reuss Voigt Hill
#
# Bulk Modulus (GPa) = 42.36996 47.65011 45.01003
# Shear Modulus (GPa) = 14.94340 26.07926 20.51133
#
# Velocity S-wave (km/s) = 2.65056 3.50156 3.10535
# Velocity P-wave (km/s) = 5.41176 6.22496 5.83255
#
# Compressibility (1/GPa) = 0.02360163
#
# Stress axis : x y z
#
# Youngs Moduli (GPa) = 140.28419 91.68929 77.66053
#
# Poissons Ratio (x) = 0.08317 0.20087
# Poissons Ratio (y) = 0.12725 0.01253
# Poissons Ratio (z) = 0.36285 0.01479
#
# Static dielectric constant tensor:
#      x y z
#    x 1.763000 0.000000 -0.037070 
#    y 0.000000 1.792370 0.000000 
#    z -0.037070 0.000000 1.791050 
# 
# From -- ./inp_files/142692.got.cif
#   From: 2010.05.17/outbox.cif.g08.bks.cpg/sg12_72_cif.got.tgz:142692.got - 2010.06.03 13:09:07.
