data_PCOD9176938
_publ_section_title
;
Structure prediction by ZEFSAII (Michael W. Deem and Ramdas Pophale) SiO2 
 PCOD9176938
Probable space group: C 2/M
;
_chemical_formula_sum "Si O2"
_cell_formula_units_Z 56
_cell_length_a 14.750496
_cell_length_b 23.940011
_cell_length_c 15.261987
_cell_angle_alpha 90.000000
_cell_angle_beta 152.088507
_cell_angle_gamma 90.000000
_cell_volume 2522.825772
_symmetry_space_group_name_H-M "C 2/M"
_symmetry_group_IT_number 12
_symmetry_cell_setting 'monoclinic'
loop_
_space_group_symop_operation_xyz
x,y,z
-x,y,-z
-x,-y,-z
x,-y,z
1/2+x,1/2+y,z
1/2-x,1/2+y,-z
1/2-x,1/2-y,-z
1/2+x,1/2-y,z
loop_
_atom_site_type_symbol
_atom_site_label
_atom_site_fract_x
_atom_site_fract_y
_atom_site_fract_z
Si Si1 0.784357 0.583449 0.799465
Si Si2 0.786398 0.679575 0.354443
Si Si3 0.729854 0.702633 0.684699
Si Si4 0.827401 0.904958 0.113584
Si Si5 0.108585 0.563975 0.294584
Si Si6 0.579797 0.560312 0.167043
Si Si7 0.189901 0.159492 0.455777
O O1 0.789560 0.651059 0.796730
O O2 0.661143 0.567692 0.779160
O O3 0.750495 0.565372 0.670889
O O4 0.000000 0.562102 0.000000
O O5 0.689560 0.735296 0.231040
O O6 0.689034 0.619460 0.262019
O O7 0.786317 0.691406 0.458332
O O8 0.000000 0.674285 0.500000
O O9 0.500000 0.707480 0.500000
O O10 0.749114 0.683455 0.600209
O O11 0.918859 0.934303 0.106733
O O12 0.960675 0.849393 0.241098
O O13 0.594953 0.903776 0.899110
O O14 0.062752 0.500000 0.275339
O O15 0.220847 0.596770 0.465720
O O16 0.681763 0.500000 0.268826
O O17 0.500000 0.557964 0.000000
#
# Coordination Sequence:
#
# PCOD9176938 Si02
#       7
#     8   8   8   8   8   8   8
#     4   9  19  35  59  87 122 153 188 236 299 353
#     4  10  23  38  60  88 112 151 201 247 293 350
#     4  10  18  36  63  85 118 154 185 240 300 355
#     4  10  20  38  61  85 115 157 193 239 292 351
#     4  10  22  35  56  90 122 155 197 240 290 358
#     4  10  23  41  60  82 115 158 200 246 298 340
#     4  10  21  38  61  84 120 157 196 239 300 348
#
# _framework density 22.197331999999999
#
# number of rings (size 3 to 8) (size 9 to 14) (size 15 to 20)
#    0.000    2.143    1.429    0.857    2.000    6.857 
#    0.000    0.714    0.000    6.857    0.000    0.000 
#    0.000    0.000    0.000    0.000    0.000    0.000 
#
# Total GULP energy -155880.731704 kJ/mol
# GULP energy per Si atom -5567.168989 kJ/mol
# Density = 2.214681 g / cm^3
# Si number density = 22.197332 Si / 1000 Ang^3
#
#
#
# Elastic Constant Matrix: (Units=GPa)
#
#
# Indices 1 2 3 4 5 6 
#
# 1 134.7254 31.1305 30.0235 0.0003 3.7587 0.0000
# 2 31.1305 156.9834 21.7227 0.0001 1.9338 0.0000
# 3 30.0235 21.7227 58.9303 -0.0008 -1.7849 -0.0006
# 4 0.0003 0.0001 -0.0008 73.2781 0.0000 47.8336
# 5 3.7587 1.9338 -1.7849 0.0000 23.8572 -0.0002
# 6 0.0000 0.0000 -0.0006 47.8336 -0.0002 -4.2269
#
#
#
# Elastic Compliance Matrix: (Units=1/GPa)
#
#
# Indices 1 2 3 4 5 6 
#
# 1 0.008625 -0.001134 -0.004024 0.000000 -0.001568 0.000000
# 2 -0.001134 0.006874 -0.001972 0.000000 -0.000526 0.000000
# 3 -0.004024 -0.001972 0.019815 0.000000 0.002276 0.000000
# 4 0.000000 0.000000 0.000000 0.001627 0.000000 0.018413
# 5 -0.001568 -0.000526 0.002276 0.000000 0.042376 0.000000
# 6 0.000000 0.000000 0.000000 0.018413 0.000000 -0.028208
#
#
# Mechanical properties :
#
#
# Convention : Reuss Voigt Hill
#
# Bulk Modulus (GPa) = 47.49574 57.37694 52.43634
# Shear Modulus (GPa) = 69.07239 36.43250 52.75244
#
# Velocity S-wave (km/s) = 5.58435 4.05569 4.88025
# Velocity P-wave (km/s) = 7.93873 6.91637 7.44512
#
# Compressibility (1/GPa) = 0.02105452
#
# Stress axis : x y z
#
# Youngs Moduli (GPa) = 115.94196 145.46720 50.46678
#
# Poissons Ratio (x) = 0.16500 0.20306
# Poissons Ratio (y) = 0.13151 0.09952
# Poissons Ratio (z) = 0.46650 0.28687
#
# Static dielectric constant tensor:
#      x y z
#    x 1.840040 0.000000 -0.008450 
#    y 0.000000 1.903600 0.000000 
#    z -0.008450 0.000000 1.804630 
# 
# From -- ./inp_files/219141.got.cif
#   From: 2010.05.17/outbox.cif.g08.bks.cpg/sg12_110_cif.got.tgz:219141.got - 2010.06.03 13:09:07.
