data_PCOD9176044
_publ_section_title
;
Structure prediction by ZEFSAII (Michael W. Deem and Ramdas Pophale) SiO2 
 PCOD9176044
Probable space group: C 2/M
;
_chemical_formula_sum "Si O2"
_cell_formula_units_Z 56
_cell_length_a 16.874021
_cell_length_b 22.825347
_cell_length_c 12.054473
_cell_angle_alpha 90.000000
_cell_angle_beta 49.396564
_cell_angle_gamma 90.000000
_cell_volume 3524.997932
_symmetry_space_group_name_H-M "C 2/M"
_symmetry_group_IT_number 12
_symmetry_cell_setting 'monoclinic'
loop_
_space_group_symop_operation_xyz
x,y,z
-x,y,-z
-x,-y,-z
x,-y,z
1/2+x,1/2+y,z
1/2-x,1/2+y,-z
1/2-x,1/2-y,-z
1/2+x,1/2-y,z
loop_
_atom_site_type_symbol
_atom_site_label
_atom_site_fract_x
_atom_site_fract_y
_atom_site_fract_z
Si Si1 0.607870 0.247239 0.340915
Si Si2 0.203142 0.744404 0.666603
Si Si3 0.514940 0.845221 0.859319
Si Si4 0.630649 0.739545 0.079579
Si Si5 0.843247 0.611069 0.675941
Si Si6 0.472381 0.067506 0.353239
Si Si7 0.118516 0.150393 0.887263
O O1 0.500000 0.253884 0.500000
O O2 0.704625 0.267506 0.328380
O O3 0.588723 0.275998 0.239053
O O4 0.629841 0.177419 0.310152
O O5 0.250000 0.750000 0.500000
O O6 0.120072 0.692540 0.748663
O O7 0.144028 0.803777 0.763078
O O8 0.424127 0.798611 0.912605
O O9 0.518019 0.897946 0.769996
O O10 0.500000 0.863630 0.000000
O O11 0.750000 0.750000 0.000000
O O12 0.622787 0.691030 0.992849
O O13 0.890145 0.600033 0.510356
O O14 0.717967 0.606858 0.796088
O O15 0.914946 0.571029 0.688494
O O16 0.441811 0.000000 0.368525
O O17 0.000000 0.126463 0.000000
#
# Coordination Sequence:
#
# PCOD9176044 Si02
#       7
#     8   8   8   8   8   8   8
#     4  11  19  29  48  72 104 141 170 200 251 312
#     4  11  20  30  46  73 110 146 172 200 250 320
#     4  12  20  34  49  73 110 139 171 213 262 309
#     4  12  17  31  46  70 107 143 173 193 242 323
#     4  10  18  34  53  76 101 131 178 221 265 309
#     4  11  22  37  57  75  97 137 186 236 268 294
#     4  11  20  31  49  79 111 146 164 200 266 331
#
# _framework density 15.886535
#
# number of rings (size 3 to 8) (size 9 to 14) (size 15 to 20)
#    0.000    0.857    8.571    3.429    0.000    0.286 
#    0.000    0.000    0.000    1.714    0.000    0.000 
#    0.000    0.571    0.000    0.286    0.000    0.000 
#
# Total GULP energy -156088.679275 kJ/mol
# GULP energy per Si atom -5574.595688 kJ/mol
# Density = 1.585038 g / cm^3
# Si number density = 15.886535 Si / 1000 Ang^3
#
#
#
# Elastic Constant Matrix: (Units=GPa)
#
#
# Indices 1 2 3 4 5 6 
#
# 1 74.8762 22.0678 44.6625 0.0000 -4.5721 0.0000
# 2 22.0678 39.0912 15.7753 0.0000 0.3635 0.0000
# 3 44.6625 15.7753 115.6064 0.0000 3.2281 0.0000
# 4 0.0000 0.0000 0.0000 3.3894 0.0000 -0.2302
# 5 -4.5721 0.3635 3.2281 0.0000 43.8592 0.0000
# 6 0.0000 0.0000 0.0000 -0.2302 0.0000 11.5654
#
#
#
# Elastic Compliance Matrix: (Units=1/GPa)
#
#
# Indices 1 2 3 4 5 6 
#
# 1 0.020020 -0.008652 -0.006628 0.000000 0.002647 0.000000
# 2 -0.008652 0.030811 -0.000831 0.000000 -0.001096 0.000000
# 3 -0.006628 -0.000831 0.011366 0.000000 -0.001521 0.000000
# 4 0.000000 0.000000 0.000000 0.295433 0.000000 0.005880
# 5 0.002647 -0.001096 -0.001521 0.000000 0.023197 0.000000
# 6 0.000000 0.000000 0.000000 0.005880 0.000000 0.086582
#
#
# Mechanical properties :
#
#
# Convention : Reuss Voigt Hill
#
# Bulk Modulus (GPa) = 33.36009 43.84278 38.60144
# Shear Modulus (GPa) = 9.81117 21.56737 15.68927
#
# Velocity S-wave (km/s) = 2.48781 3.68854 3.14599
# Velocity P-wave (km/s) = 5.41265 6.76741 6.12759
#
# Compressibility (1/GPa) = 0.02997594
#
# Stress axis : x y z
#
# Youngs Moduli (GPa) = 49.94948 32.45599 87.97816
#
# Poissons Ratio (x) = 0.28080 0.58310
# Poissons Ratio (y) = 0.43215 0.07314
# Poissons Ratio (z) = 0.33105 0.02698
#
# Static dielectric constant tensor:
#      x y z
#    x 1.556710 0.000000 -0.030430 
#    y 0.000000 1.500270 0.000000 
#    z -0.030430 0.000000 1.497780 
# 
# From -- ./inp_files/159190.got.cif
#   From: 2010.05.17/outbox.cif.g08.bks.cpg/sg12_80_cif.got.tgz:159190.got - 2010.06.03 13:09:07.
