data_PCOD9176813
_publ_section_title
;
Structure prediction by ZEFSAII (Michael W. Deem and Ramdas Pophale) SiO2 
 PCOD9176813
Probable space group: C 2/M
;
_chemical_formula_sum "Si O2"
_cell_formula_units_Z 58
_cell_length_a 22.414240
_cell_length_b 14.051203
_cell_length_c 9.374480
_cell_angle_alpha 90.000000
_cell_angle_beta 68.145471
_cell_angle_gamma 90.000000
_cell_volume 2740.276877
_symmetry_space_group_name_H-M "C 2/M"
_symmetry_group_IT_number 12
_symmetry_cell_setting 'monoclinic'
loop_
_space_group_symop_operation_xyz
x,y,z
-x,y,-z
-x,-y,-z
x,-y,z
1/2+x,1/2+y,z
1/2-x,1/2+y,-z
1/2-x,1/2-y,-z
1/2+x,1/2-y,z
loop_
_atom_site_type_symbol
_atom_site_label
_atom_site_fract_x
_atom_site_fract_y
_atom_site_fract_z
Si Si1 0.686307 0.891088 0.595449
Si Si2 0.275217 0.801118 0.156702
Si Si3 0.104312 0.396807 0.101033
Si Si4 0.870744 0.215235 0.746998
Si Si5 0.012653 0.895657 0.317240
Si Si6 0.106577 0.784183 0.611620
Si Si7 0.500000 0.000000 0.000000
Si Si8 0.297143 0.391793 0.273119
O O1 0.730553 0.847604 0.680362
O O2 0.625841 0.821181 0.643869
O O3 0.727645 0.886799 0.413802
O O4 0.668817 0.000000 0.640896
O O5 0.204468 0.795641 0.154402
O O6 0.298755 0.692883 0.158354
O O7 0.330162 0.865114 0.036989
O O8 0.114798 0.500000 0.163563
O O9 0.098258 0.312390 0.220189
O O10 0.045959 0.418032 0.042356
O O11 0.913647 0.130533 0.770989
O O12 0.879116 0.213121 0.569216
O O13 0.000000 0.896479 0.500000
O O14 0.965912 0.815787 0.297803
O O15 0.996201 0.000000 0.276858
O O16 0.151284 0.859685 0.654092
O O17 0.307260 0.500000 0.216192
#
# Coordination Sequence:
#
# PCOD9176813 Si02
#       8
#     8   8   8   8   8   8   2   8
#     4  10  19  32  56  89 122 164 201 249 309 362
#     4  11  20  38  59  92 122 157 209 256 303 367
#     4  10  24  43  65  84 115 164 211 264 313 356
#     4  11  21  37  59  89 123 157 201 259 310 369
#     4   9  20  35  54  81 116 163 196 238 306 368
#     4  10  18  36  56  86 126 154 201 248 302 377
#     4   8  24  52  60  80 112 156 226 250 304 362
#     4  10  19  33  58  89 125 167 195 247 314 359
#
# _framework density 21.165744
#
# number of rings (size 3 to 8) (size 9 to 14) (size 15 to 20)
#    0.414    1.517    2.759    2.069    0.000    4.966 
#    0.000    0.690    0.000    2.483    0.000    5.793 
#    0.000    0.000    0.000    0.000    0.000    0.000 
#
# Total GULP energy -161500.643310 kJ/mol
# GULP energy per Si atom -5568.987700 kJ/mol
# Density = 2.111757 g / cm^3
# Si number density = 21.165744 Si / 1000 Ang^3
#
#
#
# Elastic Constant Matrix: (Units=GPa)
#
#
# Indices 1 2 3 4 5 6 
#
# 1 145.6903 58.5264 20.1028 0.0000 -16.4749 0.0000
# 2 58.5264 133.7988 -2.3029 0.0000 -11.1894 0.0000
# 3 20.1028 -2.3029 22.3845 0.0000 1.2654 0.0000
# 4 0.0000 0.0000 0.0000 22.7755 0.0000 -3.6089
# 5 -16.4749 -11.1894 1.2654 0.0000 16.6780 0.0000
# 6 0.0000 0.0000 0.0000 -3.6089 0.0000 26.3351
#
#
#
# Elastic Compliance Matrix: (Units=1/GPa)
#
#
# Indices 1 2 3 4 5 6 
#
# 1 0.011106 -0.004301 -0.010921 0.000000 0.008914 0.000000
# 2 -0.004301 0.009589 0.004746 0.000000 0.001825 0.000000
# 3 -0.010921 0.004746 0.055638 0.000000 -0.011825 0.000000
# 4 0.000000 0.000000 0.000000 0.044881 0.000000 0.006150
# 5 0.008914 0.001825 -0.011825 0.000000 0.070887 0.000000
# 6 0.000000 0.000000 0.000000 0.006150 0.000000 0.038815
#
#
# Mechanical properties :
#
#
# Convention : Reuss Voigt Hill
#
# Bulk Modulus (GPa) = 18.05625 50.50290 34.27958
# Shear Modulus (GPa) = 18.49595 28.19421 23.34508
#
# Velocity S-wave (km/s) = 2.95932 3.65371 3.32470
# Velocity P-wave (km/s) = 4.49735 6.45848 5.56499
#
# Compressibility (1/GPa) = 0.05538248
#
# Stress axis : x y z
#
# Youngs Moduli (GPa) = 90.03756 104.28137 17.97331
#
# Poissons Ratio (x) = 0.44848 0.19628
# Poissons Ratio (y) = 0.38722 -0.08530
# Poissons Ratio (z) = 0.98328 -0.49489
#
# Static dielectric constant tensor:
#      x y z
#    x 1.789650 0.000000 0.005960 
#    y 0.000000 1.743660 0.000000 
#    z 0.005960 0.000000 1.800270 
# 
# From -- ./inp_files/167182.got.cif
#   From: 2010.05.17/outbox.cif.g08.bks.cpg/sg12_84_cif.got.tgz:167182.got - 2010.06.03 13:09:07.
