data_PCOD9176552
_publ_section_title
;
Structure prediction by ZEFSAII (Michael W. Deem and Ramdas Pophale) SiO2 
 PCOD9176552
Probable space group: C 2/M
;
_chemical_formula_sum "Si O2"
_cell_formula_units_Z 58
_cell_length_a 27.940224
_cell_length_b 12.580187
_cell_length_c 8.232937
_cell_angle_alpha 90.000000
_cell_angle_beta 103.848289
_cell_angle_gamma 90.000000
_cell_volume 2809.706714
_symmetry_space_group_name_H-M "C 2/M"
_symmetry_group_IT_number 12
_symmetry_cell_setting 'monoclinic'
loop_
_space_group_symop_operation_xyz
x,y,z
-x,y,-z
-x,-y,-z
x,-y,z
1/2+x,1/2+y,z
1/2-x,1/2+y,-z
1/2-x,1/2-y,-z
1/2+x,1/2-y,z
loop_
_atom_site_type_symbol
_atom_site_label
_atom_site_fract_x
_atom_site_fract_y
_atom_site_fract_z
Si Si1 0.302426 0.119121 0.020576
Si Si2 0.706073 0.664949 0.146717
Si Si3 0.601806 0.378012 0.911433
Si Si4 0.000000 0.000000 0.000000
Si Si5 0.043187 0.621487 0.402625
Si Si6 0.442056 0.684339 0.803724
Si Si7 0.127627 0.727998 0.671211
Si Si8 0.838919 0.879393 0.549787
O O1 0.255230 0.124392 0.101354
O O2 0.347440 0.159734 0.167657
O O3 0.309379 0.000000 0.966019
O O4 0.295097 0.207595 0.876617
O O5 0.696799 0.633625 0.324775
O O6 0.659646 0.620468 0.005357
O O7 0.582144 0.500000 0.917362
O O8 0.597218 0.323631 0.733759
O O9 0.578427 0.304135 0.030134
O O10 0.018085 0.093162 0.144377
O O11 0.044639 0.500000 0.346171
O O12 0.038043 0.708606 0.258038
O O13 0.093497 0.654021 0.534880
O O14 0.000000 0.631436 0.500000
O O15 0.394318 0.642062 0.664591
O O16 0.167363 0.790496 0.593047
O O17 0.835597 0.000000 0.484725
#
# Coordination Sequence:
#
# PCOD9176552 Si02
#       8
#     8   8   8   2   8   8   8   8
#     4  10  19  35  54  80 107 141 184 231 270 314
#     4   9  19  33  56  78 108 146 182 219 275 334
#     4  10  18  35  56  84 114 143 175 225 281 330
#     4  12  20  36  60  92 116 132 174 246 268 336
#     4  10  23  43  58  75 110 154 189 223 267 326
#     4  10  21  35  59  84 112 141 177 224 281 320
#     4  10  22  34  56  82 109 142 188 226 268 325
#     4  10  18  37  54  80 113 147 174 216 277 332
#
# _framework density 20.642724000000001
#
# number of rings (size 3 to 8) (size 9 to 14) (size 15 to 20)
#    0.000    2.069    1.379    2.897    1.931    0.552 
#    0.000   13.793    0.000    0.000    0.000    0.000 
#    0.000    0.000    0.000    0.000    0.000    0.000 
#
# Total GULP energy -161668.531153 kJ/mol
# GULP energy per Si atom -5574.776936 kJ/mol
# Density = 2.059574 g / cm^3
# Si number density = 20.642724 Si / 1000 Ang^3
#
#
#
# Elastic Constant Matrix: (Units=GPa)
#
#
# Indices 1 2 3 4 5 6 
#
# 1 43.9194 29.3304 2.9593 0.0000 -6.6634 0.0000
# 2 29.3304 173.7277 30.7828 0.0000 -14.7627 0.0000
# 3 2.9593 30.7828 32.6347 0.0000 -9.4243 0.0000
# 4 0.0000 0.0000 0.0000 31.9701 0.0000 -2.7383
# 5 -6.6634 -14.7627 -9.4243 0.0000 17.8067 0.0000
# 6 0.0000 0.0000 0.0000 -2.7383 0.0000 23.2031
#
#
#
# Elastic Compliance Matrix: (Units=1/GPa)
#
#
# Indices 1 2 3 4 5 6 
#
# 1 0.026827 -0.004574 0.004350 0.000000 0.008550 0.000000
# 2 -0.004574 0.007802 -0.006576 0.000000 0.001276 0.000000
# 3 0.004350 -0.006576 0.041723 0.000000 0.018258 0.000000
# 4 0.000000 0.000000 0.000000 0.031599 0.000000 0.003729
# 5 0.008550 0.001276 0.018258 0.000000 0.070079 0.000000
# 6 0.000000 0.000000 0.000000 0.003729 0.000000 0.043538
#
#
# Mechanical properties :
#
#
# Convention : Reuss Voigt Hill
#
# Bulk Modulus (GPa) = 15.93516 41.82517 28.88017
# Shear Modulus (GPa) = 19.52480 27.07661 23.30071
#
# Velocity S-wave (km/s) = 3.07879 3.62564 3.36335
# Velocity P-wave (km/s) = 4.51386 6.15081 5.39478
#
# Compressibility (1/GPa) = 0.06275431
#
# Stress axis : x y z
#
# Youngs Moduli (GPa) = 37.27540 128.17345 23.96751
#
# Poissons Ratio (x) = 0.58621 -0.10427
# Poissons Ratio (y) = 0.17048 0.15761
# Poissons Ratio (z) = -0.16216 0.84285
#
# Static dielectric constant tensor:
#      x y z
#    x 1.721650 0.000000 0.007570 
#    y 0.000000 1.721680 0.000000 
#    z 0.007570 0.000000 1.725370 
# 
# From -- ./inp_files/110034.got.cif
#   From: 2010.05.17/outbox.cif.g08.bks.cpg/sg12_56_cif.got.tgz:110034.got - 2010.06.03 13:09:07.
