data_PCOD9176113
_publ_section_title
;
Structure prediction by ZEFSAII (Michael W. Deem and Ramdas Pophale) SiO2 
 PCOD9176113
Probable space group: C 2/M
;
_chemical_formula_sum "Si O2"
_cell_formula_units_Z 32
_cell_length_a 16.743802
_cell_length_b 18.384205
_cell_length_c 5.206444
_cell_angle_alpha 90.000000
_cell_angle_beta 98.927335
_cell_angle_gamma 90.000000
_cell_volume 1583.240684
_symmetry_space_group_name_H-M "C 2/M"
_symmetry_group_IT_number 12
_symmetry_cell_setting 'monoclinic'
loop_
_space_group_symop_operation_xyz
x,y,z
-x,y,-z
-x,-y,-z
x,-y,z
1/2+x,1/2+y,z
1/2-x,1/2+y,-z
1/2-x,1/2-y,-z
1/2+x,1/2-y,z
loop_
_atom_site_type_symbol
_atom_site_label
_atom_site_fract_x
_atom_site_fract_y
_atom_site_fract_z
Si Si1 0.162080 0.234226 0.331670
Si Si2 0.000000 0.714140 0.500000
Si Si3 0.000000 0.616593 0.000000
Si Si4 0.223432 0.081127 0.332710
Si Si5 0.826675 0.387321 0.892173
O O1 0.250000 0.250000 0.500000
O O2 0.083232 0.244375 0.471417
O O3 0.165143 0.149971 0.253920
O O4 0.160028 0.299476 0.122897
O O5 0.015657 0.664483 0.754642
O O6 0.915152 0.579097 0.901458
O O7 0.267102 0.090945 0.630323
O O8 0.187889 0.000000 0.301656
O O9 0.289897 0.089724 0.143219
#
# Coordination Sequence:
#
# PCOD9176113 Si02
#       5
#     8   4   4   8   8
#     4   9  19  36  59  82 108 144 183 227 272 320
#     4  10  20  32  55  88 109 134 184 232 272 322
#     4  10  18  34  55  82 109 134 178 238 274 318
#     4  11  22  36  53  79 111 146 183 222 269 325
#     4  10  20  36  57  80 106 144 185 225 273 328
#
# _framework density 20.211707000000001
#
# number of rings (size 3 to 8) (size 9 to 14) (size 15 to 20)
#    0.000    2.000    0.000    6.000    0.000    6.000 
#    0.000    4.375    0.000    0.000    0.000   23.625 
#    0.000    0.000    0.000    0.000    0.000    0.000 
#
# Total GULP energy -89178.976284 kJ/mol
# GULP energy per Si atom -5573.686018 kJ/mol
# Density = 2.016570 g / cm^3
# Si number density = 20.211707 Si / 1000 Ang^3
#
#
#
# Elastic Constant Matrix: (Units=GPa)
#
#
# Indices 1 2 3 4 5 6 
#
# 1 89.3568 23.7345 0.3978 0.0000 -12.0729 0.0000
# 2 23.7345 181.4184 8.5143 0.0000 -8.3247 0.0000
# 3 0.3978 8.5143 59.5859 0.0000 -3.6117 0.0000
# 4 0.0000 0.0000 0.0000 8.9115 0.0000 -0.4369
# 5 -12.0729 -8.3247 -3.6117 0.0000 32.1639 0.0000
# 6 0.0000 0.0000 0.0000 -0.4369 0.0000 5.7749
#
#
#
# Elastic Compliance Matrix: (Units=1/GPa)
#
#
# Indices 1 2 3 4 5 6 
#
# 1 0.012136 -0.001411 0.000377 0.000000 0.004232 0.000000
# 2 -0.001411 0.005773 -0.000762 0.000000 0.000879 0.000000
# 3 0.000377 -0.000762 0.017001 0.000000 0.001853 0.000000
# 4 0.000000 0.000000 0.000000 0.112632 0.000000 0.008521
# 5 0.004232 0.000879 0.001853 0.000000 0.033115 0.000000
# 6 0.000000 0.000000 0.000000 0.008521 0.000000 0.173807
#
#
# Mechanical properties :
#
#
# Convention : Reuss Voigt Hill
#
# Bulk Modulus (GPa) = 31.93086 43.96159 37.94622
# Shear Modulus (GPa) = 13.56868 29.21769 21.39319
#
# Velocity S-wave (km/s) = 2.59381 3.80621 3.25692
# Velocity P-wave (km/s) = 4.98026 6.41202 5.74095
#
# Compressibility (1/GPa) = 0.03131767
#
# Stress axis : x y z
#
# Youngs Moduli (GPa) = 82.39877 173.22479 58.81929
#
# Poissons Ratio (x) = 0.24446 -0.02218
# Poissons Ratio (y) = 0.11628 0.04483
# Poissons Ratio (z) = -0.03108 0.13203
#
# Static dielectric constant tensor:
#      x y z
#    x 1.728940 0.000000 -0.015140 
#    y 0.000000 1.808620 0.000000 
#    z -0.015140 0.000000 1.565280 
# 
# From -- ./inp_files/15467.got.cif
#   From: 2010.05.17/outbox.cif.g08.bks.cpg/sg12_8_cif.got.tgz:15467.got - 2010.06.03 13:09:07.
