data_PCOD9176211
_publ_section_title
;
Structure prediction by ZEFSAII (Michael W. Deem and Ramdas Pophale) SiO2 
 PCOD9176211
Probable space group: C 2/M
;
_chemical_formula_sum "Si O2"
_cell_formula_units_Z 56
_cell_length_a 17.578710
_cell_length_b 13.938852
_cell_length_c 14.722701
_cell_angle_alpha 90.000000
_cell_angle_beta 132.207768
_cell_angle_gamma 90.000000
_cell_volume 2672.094247
_symmetry_space_group_name_H-M "C 2/M"
_symmetry_group_IT_number 12
_symmetry_cell_setting 'monoclinic'
loop_
_space_group_symop_operation_xyz
x,y,z
-x,y,-z
-x,-y,-z
x,-y,z
1/2+x,1/2+y,z
1/2-x,1/2+y,-z
1/2-x,1/2-y,-z
1/2+x,1/2-y,z
loop_
_atom_site_type_symbol
_atom_site_label
_atom_site_fract_x
_atom_site_fract_y
_atom_site_fract_z
Si Si1 0.669803 0.176432 0.389890
Si Si2 0.856673 0.107776 0.448152
Si Si3 0.349804 0.610981 0.949811
Si Si4 0.209748 0.237581 0.775232
Si Si5 0.690979 0.111324 0.990322
Si Si6 0.498353 0.228851 0.891381
Si Si7 0.489233 0.214019 0.596704
O O1 0.750000 0.250000 0.500000
O O2 0.751667 0.100282 0.420778
O O3 0.603872 0.216060 0.250992
O O4 0.588087 0.153741 0.403421
O O5 0.821967 0.174117 0.336097
O O6 0.944350 0.176023 0.562909
O O7 0.891392 0.000000 0.454693
O O8 0.363669 0.500000 0.936041
O O9 0.296421 0.680450 0.832274
O O10 0.266339 0.617250 0.964291
O O11 0.454140 0.663588 0.065204
O O12 0.104718 0.286059 0.723798
O O13 0.249610 0.164237 0.881511
O O14 0.582611 0.165323 0.905867
O O15 0.673497 0.000000 0.995153
O O16 0.500000 0.196966 0.000000
O O17 0.500000 0.183896 0.500000
#
# Coordination Sequence:
#
# PCOD9176211 Si02
#       7
#     8   8   8   8   8   8   8
#     4  10  20  37  57  80 118 161 199 240 292 351
#     4  10  21  35  56  87 119 154 193 240 300 361
#     4  10  21  37  57  81 111 152 201 251 301 355
#     4  10  18  34  57  82 116 150 190 245 301 356
#     4  10  20  33  54  83 113 148 191 239 295 358
#     4  11  22  37  58  85 119 158 199 248 302 355
#     4   9  19  34  58  84 113 156 199 242 293 351
#
# _framework density 20.957345
#
# number of rings (size 3 to 8) (size 9 to 14) (size 15 to 20)
#    0.000    2.000    0.000    5.571    0.000    4.286 
#    0.000    5.000    0.000   24.857    0.000    0.000 
#    0.000    0.000    0.000    0.000    0.000    0.000 
#
# Total GULP energy -156025.807045 kJ/mol
# GULP energy per Si atom -5572.350252 kJ/mol
# Density = 2.090965 g / cm^3
# Si number density = 20.957345 Si / 1000 Ang^3
#
#
#
# Elastic Constant Matrix: (Units=GPa)
#
#
# Indices 1 2 3 4 5 6 
#
# 1 104.1295 -2.0602 12.0208 0.0000 -6.7693 0.0000
# 2 -2.0602 72.9187 13.5232 0.0000 -7.1943 0.0000
# 3 12.0208 13.5232 102.3753 0.0000 13.7393 0.0000
# 4 0.0000 0.0000 0.0000 -0.2123 0.0000 -6.6259
# 5 -6.7693 -7.1943 13.7393 0.0000 32.9117 0.0000
# 6 0.0000 0.0000 0.0000 -6.6259 0.0000 18.1513
#
#
#
# Elastic Compliance Matrix: (Units=1/GPa)
#
#
# Indices 1 2 3 4 5 6 
#
# 1 0.010008 0.000888 -0.001689 0.000000 0.002958 0.000000
# 2 0.000888 0.014673 -0.002646 0.000000 0.004495 0.000000
# 3 -0.001689 -0.002646 0.011060 0.000000 -0.005543 0.000000
# 4 0.000000 0.000000 0.000000 -0.380077 0.000000 -0.138742
# 5 0.002958 0.004495 -0.005543 0.000000 0.034289 0.000000
# 6 0.000000 0.000000 0.000000 -0.138742 0.000000 0.004446
#
#
# Mechanical properties :
#
#
# Convention : Reuss Voigt Hill
#
# Bulk Modulus (GPa) = 34.66598 36.26567 35.46583
# Shear Modulus (GPa) = -17.29562 27.23278 4.96858
#
# Velocity S-wave (km/s) = -2.87588 3.60868 1.54141
# Velocity P-wave (km/s) = 2.35574 5.89114 4.48637
#
# Compressibility (1/GPa) = 0.02884673
#
# Stress axis : x y z
#
# Youngs Moduli (GPa) = 99.91697 68.15203 90.41838
#
# Poissons Ratio (x) = -0.06051 0.15275
# Poissons Ratio (y) = -0.08872 0.23922
# Poissons Ratio (z) = 0.16880 0.18031
#
# Static dielectric constant tensor:
#      x y z
#    x 1.855530 0.000000 -0.015350 
#    y 0.000000 1.741950 0.000000 
#    z -0.015350 0.000000 1.785990 
# 
# From -- ./inp_files/225383.got.cif
#   From: 2010.05.17/outbox.cif.g08.bks.cpg/sg12_113_cif.got.tgz:225383.got - 2010.06.03 13:09:07.
