data_PCOD9176878
_publ_section_title
;
Structure prediction by ZEFSAII (Michael W. Deem and Ramdas Pophale) SiO2 
 PCOD9176878
Probable space group: C 2/M
;
_chemical_formula_sum "Si O2"
_cell_formula_units_Z 36
_cell_length_a 10.066098
_cell_length_b 14.955449
_cell_length_c 12.933284
_cell_angle_alpha 90.000000
_cell_angle_beta 46.621793
_cell_angle_gamma 90.000000
_cell_volume 1415.160929
_symmetry_space_group_name_H-M "C 2/M"
_symmetry_group_IT_number 12
_symmetry_cell_setting 'monoclinic'
loop_
_space_group_symop_operation_xyz
x,y,z
-x,y,-z
-x,-y,-z
x,-y,z
1/2+x,1/2+y,z
1/2-x,1/2+y,-z
1/2-x,1/2-y,-z
1/2+x,1/2-y,z
loop_
_atom_site_type_symbol
_atom_site_label
_atom_site_fract_x
_atom_site_fract_y
_atom_site_fract_z
Si Si1 0.214346 0.000000 0.143441
Si Si2 0.772731 0.500000 0.343379
Si Si3 0.226759 0.646093 0.490340
Si Si4 0.297822 0.207703 0.085314
Si Si5 0.226916 0.500000 0.103684
Si Si6 0.801329 0.648320 0.720542
O O1 0.170313 0.000000 0.288557
O O2 0.297394 0.899273 0.089882
O O3 0.140470 0.000000 0.065693
O O4 0.718394 0.584770 0.443078
O O5 0.999837 0.500000 0.201069
O O6 0.250000 0.750000 0.500000
O O7 0.301289 0.632974 0.333440
O O8 0.012869 0.622815 0.595310
O O9 0.190688 0.250936 0.239108
O O10 0.500000 0.238935 0.000000
O O11 0.250000 0.250000 0.000000
O O12 0.264658 0.586106 0.152331
#
# Coordination Sequence:
#
# PCOD9176878 Si02
#       6
#     4   4   8   8   4   8
#     4  12  23  40  65  96 134 177 219 271 329 409
#     4  10  20  34  62  92 124 170 221 266 324 399
#     4  10  21  38  63  89 124 168 219 272 323 390
#     4  12  26  43  70 101 135 177 223 276 337 399
#     4  10  18  36  59  90 128 163 217 266 330 393
#     4  10  22  39  62  92 126 168 219 273 327 392
#
# _framework density 25.438803
#
# number of rings (size 3 to 8) (size 9 to 14) (size 15 to 20)
#    0.000    1.333    2.222    4.000    6.222    2.667 
#    0.000    3.333    0.000    4.000    0.000    0.000 
#    0.000    0.000    0.000    0.000    0.000    0.000 
#
# Total GULP energy -100383.515378 kJ/mol
# GULP energy per Si atom -5576.861965 kJ/mol
# Density = 2.538090 g / cm^3
# Si number density = 25.438803 Si / 1000 Ang^3
#
#
#
# Elastic Constant Matrix: (Units=GPa)
#
#
# Indices 1 2 3 4 5 6 
#
# 1 77.7608 23.1846 62.6705 0.0002 25.7720 -0.0003
# 2 23.1846 161.8432 67.2430 0.0001 31.5348 -0.0001
# 3 62.6705 67.2430 157.2850 -0.0001 67.6177 -0.0010
# 4 0.0002 0.0001 -0.0001 14.6157 -0.0002 -43.1033
# 5 25.7720 31.5348 67.6177 -0.0002 57.4842 0.0005
# 6 -0.0003 -0.0001 -0.0010 -43.1033 0.0005 -80.6612
#
#
#
# Elastic Compliance Matrix: (Units=1/GPa)
#
#
# Indices 1 2 3 4 5 6 
#
# 1 0.018994 0.000500 -0.008098 0.000000 0.000736 0.000000
# 2 0.000500 0.007540 -0.003132 0.000000 -0.000676 0.000000
# 3 -0.008098 -0.003132 0.017447 0.000000 -0.015174 0.000000
# 4 0.000000 0.000000 0.000000 0.026561 0.000001 -0.014194
# 5 0.000736 -0.000676 -0.015174 0.000001 0.035286 0.000000
# 6 0.000000 0.000000 0.000000 -0.014194 0.000000 -0.004813
#
#
# Mechanical properties :
#
#
# Convention : Reuss Voigt Hill
#
# Bulk Modulus (GPa) = 44.40406 78.12057 61.26232
# Shear Modulus (GPa) = 38.46679 14.54048 26.50363
#
# Velocity S-wave (km/s) = 3.89283 2.39338 3.23128
# Velocity P-wave (km/s) = 6.13992 6.19787 6.16896
#
# Compressibility (1/GPa) = 0.02252046
#
# Stress axis : x y z
#
# Youngs Moduli (GPa) = 52.64923 132.62012 57.31624
#
# Poissons Ratio (x) = -0.06637 0.46417
# Poissons Ratio (y) = -0.02635 0.17953
# Poissons Ratio (z) = 0.42638 0.41540
#
# Static dielectric constant tensor:
#      x y z
#    x 1.976310 0.000000 0.017980 
#    y 0.000000 2.017960 0.000000 
#    z 0.017980 0.000000 2.001850 
# 
# From -- ./inp_files/128996.got.cif
#   From: 2010.05.17/outbox.cif.g08.bks.cpg/sg12_65_cif.got.tgz:128996.got - 2010.06.03 13:09:07.
