data_PCOD9176501
_publ_section_title
;
Structure prediction by ZEFSAII (Michael W. Deem and Ramdas Pophale) SiO2 
 PCOD9176501
Probable space group: C 2/M
;
_chemical_formula_sum "Si O2"
_cell_formula_units_Z 56
_cell_length_a 19.440688
_cell_length_b 12.776473
_cell_length_c 21.926096
_cell_angle_alpha 90.000000
_cell_angle_beta 26.965101
_cell_angle_gamma 90.000000
_cell_volume 2469.511926
_symmetry_space_group_name_H-M "C 2/M"
_symmetry_group_IT_number 12
_symmetry_cell_setting 'monoclinic'
loop_
_space_group_symop_operation_xyz
x,y,z
-x,y,-z
-x,-y,-z
x,-y,z
1/2+x,1/2+y,z
1/2-x,1/2+y,-z
1/2-x,1/2-y,-z
1/2+x,1/2-y,z
loop_
_atom_site_type_symbol
_atom_site_label
_atom_site_fract_x
_atom_site_fract_y
_atom_site_fract_z
Si Si1 0.614318 0.696241 0.465999
Si Si2 0.331106 0.623495 0.913124
Si Si3 0.496720 0.335366 0.073175
Si Si4 0.170258 0.383235 0.152505
Si Si5 0.326894 0.618034 0.317817
Si Si6 0.640290 0.320268 0.246793
Si Si7 0.363033 0.119149 0.180988
O O1 0.500000 0.724561 0.500000
O O2 0.697526 0.796759 0.429071
O O3 0.512646 0.642943 0.598495
O O4 0.745229 0.628326 0.330383
O O5 0.327421 0.500000 0.929531
O O6 0.508016 0.653202 0.787155
O O7 0.315047 0.633310 0.853393
O O8 0.187141 0.660376 0.069439
O O9 0.356188 0.380650 0.221508
O O10 0.485942 0.210320 0.092131
O O11 0.500000 0.357340 0.000000
O O12 0.650158 0.383701 0.976304
O O13 0.104804 0.500000 0.207672
O O14 0.113758 0.301170 0.247601
O O15 0.293919 0.500000 0.364489
O O16 0.769122 0.343680 0.195167
O O17 0.416054 0.000000 0.133018
#
# Coordination Sequence:
#
# PCOD9176501 Si02
#       7
#     8   8   8   8   8   8   8
#     4   9  21  36  52  79 111 139 178 221 268 313
#     4   9  19  35  56  77 101 138 183 223 264 314
#     4  10  18  35  52  79 106 136 178 215 269 319
#     4  10  21  36  54  81 113 142 174 220 269 318
#     4   9  19  35  54  77 106 140 179 223 265 312
#     4  11  20  35  55  80 106 145 183 215 265 319
#     4  10  21  37  55  78 109 140 177 226 270 314
#
# _framework density 22.676545000000001
#
# number of rings (size 3 to 8) (size 9 to 14) (size 15 to 20)
#    0.000    2.286    1.429    2.143    0.000    6.000 
#    0.000    0.000    0.000    7.714    0.000    0.000 
#    0.000    0.000    0.000    0.000    0.000    0.000 
#
# Total GULP energy -156065.435257 kJ/mol
# GULP energy per Si atom -5573.765545 kJ/mol
# Density = 2.262493 g / cm^3
# Si number density = 22.676545 Si / 1000 Ang^3
#
#
#
# Elastic Constant Matrix: (Units=GPa)
#
#
# Indices 1 2 3 4 5 6 
#
# 1 53.3057 25.2313 13.4854 0.0002 13.8366 0.0008
# 2 25.2313 107.8939 4.2922 0.0002 4.8533 0.0007
# 3 13.4854 4.2922 77.5927 0.0000 14.1128 0.0027
# 4 0.0002 0.0002 0.0000 10.4238 -0.0001 -6.6734
# 5 13.8366 4.8533 14.1128 -0.0001 31.3503 -0.0011
# 6 0.0008 0.0007 0.0027 -6.6734 -0.0011 102.2373
#
#
#
# Elastic Compliance Matrix: (Units=1/GPa)
#
#
# Indices 1 2 3 4 5 6 
#
# 1 0.024054 -0.005138 -0.002298 -0.000001 -0.008786 0.000000
# 2 -0.005138 0.010436 0.000215 0.000000 0.000556 0.000000
# 3 -0.002298 0.000215 0.014265 0.000000 -0.005440 0.000000
# 4 -0.000001 0.000000 0.000000 0.100119 0.000001 0.006535
# 5 -0.008786 0.000556 -0.005440 0.000001 0.038139 0.000001
# 6 0.000000 0.000000 0.000000 0.006535 0.000001 0.010208
#
#
# Mechanical properties :
#
#
# Convention : Reuss Voigt Hill
#
# Bulk Modulus (GPa) = 29.14477 36.09000 32.61739
# Shear Modulus (GPa) = 22.41134 41.85449 32.13292
#
# Velocity S-wave (km/s) = 3.14714 4.30084 3.76840
# Velocity P-wave (km/s) = 5.10747 6.37281 5.77490
#
# Compressibility (1/GPa) = 0.03431147
#
# Stress axis : x y z
#
# Youngs Moduli (GPa) = 41.57317 95.81783 70.10223
#
# Poissons Ratio (x) = 0.49235 0.16111
# Poissons Ratio (y) = 0.21362 -0.01505
# Poissons Ratio (z) = 0.09554 -0.02057
#
# Static dielectric constant tensor:
#      x y z
#    x 1.905190 0.000000 0.097080 
#    y 0.000000 1.931770 0.000000 
#    z 0.097080 0.000000 1.888880 
# 
# From -- ./inp_files/325120.got.cif
#   From: 2010.05.17/outbox.cif.g08.bks.cpg/sg12_163_cif.got.tgz:325120.got - 2010.06.03 13:09:07.
