data_PCOD9176964
_publ_section_title
;
Structure prediction by ZEFSAII (Michael W. Deem and Ramdas Pophale) SiO2 
 PCOD9176964
Probable space group: C 2/M
;
_chemical_formula_sum "Si O2"
_cell_formula_units_Z 44
_cell_length_a 24.004766
_cell_length_b 9.842843
_cell_length_c 11.447744
_cell_angle_alpha 90.000000
_cell_angle_beta 129.311288
_cell_angle_gamma 90.000000
_cell_volume 2092.758867
_symmetry_space_group_name_H-M "C 2/M"
_symmetry_group_IT_number 12
_symmetry_cell_setting 'monoclinic'
loop_
_space_group_symop_operation_xyz
x,y,z
-x,y,-z
-x,-y,-z
x,-y,z
1/2+x,1/2+y,z
1/2-x,1/2+y,-z
1/2-x,1/2-y,-z
1/2+x,1/2-y,z
loop_
_atom_site_type_symbol
_atom_site_label
_atom_site_fract_x
_atom_site_fract_y
_atom_site_fract_z
Si Si1 0.847209 0.645488 0.889570
Si Si2 0.500000 0.204411 0.000000
Si Si3 0.562813 0.351192 0.292911
Si Si4 0.915756 0.160325 0.421169
Si Si5 0.712571 0.651204 0.358415
Si Si6 0.821507 0.339258 0.119307
O O1 0.808881 0.500000 0.820251
O O2 0.798895 0.768007 0.777077
O O3 0.860787 0.659326 0.045017
O O4 0.921799 0.638949 0.916142
O O5 0.507312 0.283517 0.131797
O O6 0.533988 0.500000 0.286562
O O7 0.586303 0.289058 0.447095
O O8 0.633327 0.364212 0.307560
O O9 0.868978 0.257810 0.276675
O O10 0.000000 0.165148 0.500000
O O11 0.892295 0.000000 0.382803
O O12 0.744421 0.500000 0.389325
O O13 0.750000 0.750000 0.500000
O O14 0.808397 0.500000 0.131603
O O15 0.750000 0.250000 0.000000
#
# Coordination Sequence:
#
# PCOD9176964 Si02
#       6
#     8   4   8   8   8   8
#     4  10  22  39  60  86 119 155 197 252 308 363
#     4  10  18  36  64  92 119 156 201 248 311 372
#     4   9  19  34  56  86 120 154 190 242 299 355
#     4  10  21  39  63  92 126 165 208 256 312 377
#     4  10  21  36  56  83 115 151 194 241 294 354
#     4  11  25  43  63  90 126 170 216 266 318 378
#
# _framework density 21.024878000000001
#
# number of rings (size 3 to 8) (size 9 to 14) (size 15 to 20)
#    0.000    2.000    0.000    2.727    2.545    2.545 
#    0.000    4.545    0.000    0.000    0.000    0.000 
#    0.000    0.000    0.000    0.000    0.000    0.000 
#
# Total GULP energy -122559.896817 kJ/mol
# GULP energy per Si atom -5570.904401 kJ/mol
# Density = 2.097702 g / cm^3
# Si number density = 21.024878 Si / 1000 Ang^3
#
#
#
# Elastic Constant Matrix: (Units=GPa)
#
#
# Indices 1 2 3 4 5 6 
#
# 1 41.1241 15.2426 7.2822 0.0000 -9.2809 0.0000
# 2 15.2426 169.7800 104.0742 0.0000 -4.0716 0.0000
# 3 7.2822 104.0742 160.4613 0.0000 -21.7993 0.0000
# 4 0.0000 0.0000 0.0000 3.2066 0.0000 -15.6170
# 5 -9.2809 -4.0716 -21.7993 0.0000 39.8893 0.0000
# 6 0.0000 0.0000 0.0000 -15.6170 0.0000 13.7292
#
#
#
# Elastic Compliance Matrix: (Units=1/GPa)
#
#
# Indices 1 2 3 4 5 6 
#
# 1 0.026816 -0.003443 0.001962 0.000000 0.006960 0.000000
# 2 -0.003443 0.010489 -0.007140 0.000000 -0.003633 0.000000
# 3 0.001962 -0.007140 0.011598 0.000000 0.006066 0.000000
# 4 0.000000 0.000000 0.000000 -0.068691 0.000000 -0.078137
# 5 0.006960 -0.003633 0.006066 0.000000 0.029633 0.000000
# 6 0.000000 0.000000 0.000000 -0.078137 0.000000 -0.016043
#
#
# Mechanical properties :
#
#
# Convention : Reuss Voigt Hill
#
# Bulk Modulus (GPa) = 31.58568 69.39592 50.49080
# Shear Modulus (GPa) = 231.49867 27.68278 129.59073
#
# Velocity S-wave (km/s) = 10.50457 3.63253 7.85943
# Velocity P-wave (km/s) = 12.73514 7.11842 10.31638
#
# Compressibility (1/GPa) = 0.03165992
#
# Stress axis : x y z
#
# Youngs Moduli (GPa) = 37.29095 95.33836 86.21979
#
# Poissons Ratio (x) = 0.32826 -0.16914
# Poissons Ratio (y) = 0.12840 0.61564
# Poissons Ratio (z) = -0.07315 0.68075
#
# Static dielectric constant tensor:
#      x y z
#    x 1.783280 0.000000 -0.017110 
#    y 0.000000 1.839890 0.000000 
#    z -0.017110 0.000000 1.830730 
# 
# From -- ./inp_files/181301.got.cif
#   From: 2010.05.17/outbox.cif.g08.bks.cpg/sg12_91_cif.got.tgz:181301.got - 2010.06.03 13:09:07.
