data_PCOD9176974
_publ_section_title
;
Structure prediction by ZEFSAII (Michael W. Deem and Ramdas Pophale) SiO2 
 PCOD9176974
Probable space group: C 2/M
;
_chemical_formula_sum "Si O2"
_cell_formula_units_Z 32
_cell_length_a 9.419962
_cell_length_b 20.455136
_cell_length_c 7.320562
_cell_angle_alpha 90.000000
_cell_angle_beta 102.437895
_cell_angle_gamma 90.000000
_cell_volume 1377.468110
_symmetry_space_group_name_H-M "C 2/M"
_symmetry_group_IT_number 12
_symmetry_cell_setting 'monoclinic'
loop_
_space_group_symop_operation_xyz
x,y,z
-x,y,-z
-x,-y,-z
x,-y,z
1/2+x,1/2+y,z
1/2-x,1/2+y,-z
1/2-x,1/2-y,-z
1/2+x,1/2-y,z
loop_
_atom_site_type_symbol
_atom_site_label
_atom_site_fract_x
_atom_site_fract_y
_atom_site_fract_z
Si Si1 0.859874 0.241300 0.867230
Si Si2 0.079086 0.373485 0.330483
Si Si3 0.586255 0.500000 0.323346
Si Si4 0.577908 0.000000 0.718684
Si Si5 0.374405 0.635267 0.593701
O O1 0.904026 0.309977 0.789042
O O2 0.807899 0.191906 0.697885
O O3 0.750000 0.250000 0.000000
O O4 0.000000 0.210345 0.000000
O O5 0.243486 0.394212 0.434401
O O6 0.000000 0.357119 0.500000
O O7 0.985534 0.432678 0.217129
O O8 0.500000 0.500000 0.500000
O O9 0.752495 0.500000 0.282801
O O10 0.554714 0.576083 0.271077
O O11 0.500000 0.000000 0.500000
O O12 0.500000 0.663744 0.500000
#
# Coordination Sequence:
#
# PCOD9176974 Si02
#       5
#     8   8   4   4   8
#     4  12  26  41  57  88 130 169 205 252 308 365
#     4  11  20  39  66  91 120 158 209 261 304 365
#     4  10  20  36  66  98 122 150 200 269 311 358
#     4  10  18  36  64  99 120 145 208 266 311 355
#     4  11  21  39  64  91 118 161 211 252 308 366
#
# _framework density 23.231027999999998
#
# number of rings (size 3 to 8) (size 9 to 14) (size 15 to 20)
#    0.000    1.000    5.000    4.500    0.000    0.000 
#    0.000    2.500    0.000    0.000    0.000    0.000 
#    0.000    0.000    0.000    0.000    0.000    0.000 
#
# Total GULP energy -89107.809343 kJ/mol
# GULP energy per Si atom -5569.238084 kJ/mol
# Density = 2.317815 g / cm^3
# Si number density = 23.231028 Si / 1000 Ang^3
#
#
#
# Elastic Constant Matrix: (Units=GPa)
#
#
# Indices 1 2 3 4 5 6 
#
# 1 129.9616 12.5561 38.5272 0.0000 -38.6128 0.0000
# 2 12.5561 177.3480 58.3553 0.0000 -34.3271 0.0000
# 3 38.5272 58.3553 77.5634 0.0000 -39.0154 0.0000
# 4 0.0000 0.0000 0.0000 -2.1915 0.0000 -15.3060
# 5 -38.6128 -34.3271 -39.0154 0.0000 42.5222 0.0000
# 6 0.0000 0.0000 0.0000 -15.3060 0.0000 30.0357
#
#
#
# Elastic Compliance Matrix: (Units=1/GPa)
#
#
# Indices 1 2 3 4 5 6 
#
# 1 0.010934 0.001702 -0.001906 0.000000 0.009554 0.000000
# 2 0.001702 0.007820 -0.005155 0.000000 0.003129 0.000000
# 3 -0.001906 -0.005155 0.027400 0.000000 0.019248 0.000000
# 4 0.000000 0.000000 0.000000 -0.100087 0.000000 -0.051004
# 5 0.009554 0.003129 0.019248 0.000000 0.052379 0.000000
# 6 0.000000 0.000000 0.000000 -0.051004 0.000000 0.007303
#
#
# Mechanical properties :
#
#
# Convention : Reuss Voigt Hill
#
# Bulk Modulus (GPa) = 28.22012 67.08336 47.65174
# Shear Modulus (GPa) = 176.82087 32.43557 104.62822
#
# Velocity S-wave (km/s) = 8.73380 3.74065 6.71833
# Velocity P-wave (km/s) = 10.67145 6.89898 8.98542
#
# Compressibility (1/GPa) = 0.03543571
#
# Stress axis : x y z
#
# Youngs Moduli (GPa) = 91.46033 127.87767 36.49656
#
# Poissons Ratio (x) = -0.21768 0.06956
# Poissons Ratio (y) = -0.15569 0.18815
# Poissons Ratio (z) = 0.17432 0.65924
#
# Static dielectric constant tensor:
#      x y z
#    x 1.930340 0.000000 0.094000 
#    y 0.000000 1.963010 0.000000 
#    z 0.094000 0.000000 1.933070 
# 
# From -- ./inp_files/37584.got.cif
#   From: 2010.05.17/outbox.cif.g08.bks.cpg/sg12_19_cif.got.tgz:37584.got - 2010.06.03 13:09:07.
