data_PCOD9176650
_publ_section_title
;
Structure prediction by ZEFSAII (Michael W. Deem and Ramdas Pophale) SiO2 
 PCOD9176650
Probable space group: C 2/M
;
_chemical_formula_sum "Si O2"
_cell_formula_units_Z 56
_cell_length_a 12.993229
_cell_length_b 13.573179
_cell_length_c 19.473631
_cell_angle_alpha 90.000000
_cell_angle_beta 144.780428
_cell_angle_gamma 90.000000
_cell_volume 1980.633653
_symmetry_space_group_name_H-M "C 2/M"
_symmetry_group_IT_number 12
_symmetry_cell_setting 'monoclinic'
loop_
_space_group_symop_operation_xyz
x,y,z
-x,y,-z
-x,-y,-z
x,-y,z
1/2+x,1/2+y,z
1/2-x,1/2+y,-z
1/2-x,1/2-y,-z
1/2+x,1/2-y,z
loop_
_atom_site_type_symbol
_atom_site_label
_atom_site_fract_x
_atom_site_fract_y
_atom_site_fract_z
Si Si1 0.791062 0.354870 0.167437
Si Si2 0.527432 0.118193 0.100026
Si Si3 0.328949 0.119438 0.451481
Si Si4 0.475383 0.654618 0.093777
Si Si5 0.691591 0.885445 0.404589
Si Si6 0.575695 0.392849 0.632669
Si Si7 0.458553 0.345355 0.233343
O O1 0.676664 0.370682 0.175405
O O2 0.821195 0.238651 0.176789
O O3 0.994542 0.386402 0.263853
O O4 0.659485 0.386664 0.035998
O O5 0.445912 0.225544 0.077929
O O6 0.718412 0.137118 0.244038
O O7 0.487292 0.000000 0.093708
O O8 0.500000 0.118359 0.000000
O O9 0.500000 0.136151 0.500000
O O10 0.362841 0.147609 0.548403
O O11 0.164447 0.185728 0.336147
O O12 0.290718 0.000000 0.423966
O O13 0.422634 0.612593 0.139213
O O14 0.894011 0.845885 0.501535
O O15 0.733635 0.000000 0.434215
O O16 0.599928 0.500000 0.614868
O O17 0.525632 0.401345 0.686685
#
# Coordination Sequence:
#
# PCOD9176650 Si02
#       7
#     8   8   8   8   8   8   8
#     4  11  22  38  56  81 117 156 193 241 298 354
#     4  10  18  35  60  83 112 152 194 240 290 340
#     4   9  18  34  55  84 116 147 193 246 291 340
#     4  11  22  38  55  86 121 149 192 249 298 345
#     4   9  19  36  56  79 112 155 193 234 284 349
#     4   9  18  35  61  90 113 148 201 246 288 340
#     4  11  20  34  56  84 117 153 189 243 302 343
#
# _framework density 28.273779999999999
#
# number of rings (size 3 to 8) (size 9 to 14) (size 15 to 20)
#    0.000    2.000    2.857    2.571    0.000    2.286 
#    2.571    5.000    0.000    0.000    0.000    3.000 
#    0.000    0.000    0.000    0.000    0.000    0.000 
#
# Total GULP energy -155888.989839 kJ/mol
# GULP energy per Si atom -5567.463923 kJ/mol
# Density = 2.820943 g / cm^3
# Si number density = 28.273780 Si / 1000 Ang^3
#
#
#
# Elastic Constant Matrix: (Units=GPa)
#
#
# Indices 1 2 3 4 5 6 
#
# 1 145.5143 19.1818 19.8344 0.0001 9.8069 0.0000
# 2 19.1818 116.3674 30.4883 0.0002 10.4042 0.0001
# 3 19.8344 30.4883 159.9073 0.0007 38.1106 0.0003
# 4 0.0001 0.0002 0.0007 9.6041 0.0002 -2.0978
# 5 9.8069 10.4042 38.1106 0.0002 48.5804 0.0000
# 6 0.0000 0.0001 0.0003 -2.0978 0.0000 1.5693
#
#
#
# Elastic Compliance Matrix: (Units=1/GPa)
#
#
# Indices 1 2 3 4 5 6 
#
# 1 0.007124 -0.000969 -0.000499 0.000000 -0.000839 0.000000
# 2 -0.000969 0.009197 -0.001489 0.000000 -0.000606 0.000000
# 3 -0.000499 -0.001489 0.007994 -0.000001 -0.005852 -0.000002
# 4 0.000000 0.000000 -0.000001 0.147064 0.000000 0.196594
# 5 -0.000839 -0.000606 -0.005852 0.000000 0.025474 0.000000
# 6 0.000000 0.000000 -0.000002 0.196594 0.000000 0.900037
#
#
# Mechanical properties :
#
#
# Convention : Reuss Voigt Hill
#
# Bulk Modulus (GPa) = 54.33981 62.31090 58.32535
# Shear Modulus (GPa) = 4.50882 35.43639 19.97260
#
# Velocity S-wave (km/s) = 1.26418 3.54408 2.66070
# Velocity P-wave (km/s) = 4.62512 6.23166 5.48750
#
# Compressibility (1/GPa) = 0.01840272
#
# Stress axis : x y z
#
# Youngs Moduli (GPa) = 140.36195 108.72584 125.09370
#
# Poissons Ratio (x) = 0.10531 0.06242
# Poissons Ratio (y) = 0.13595 0.18626
# Poissons Ratio (z) = 0.07004 0.16189
#
# Static dielectric constant tensor:
#      x y z
#    x 2.310720 0.000000 0.040390 
#    y 0.000000 1.990310 0.000000 
#    z 0.040390 0.000000 2.307840 
# 
# From -- ./inp_files/311730.got.cif
#   From: 2010.05.17/outbox.cif.g08.bks.cpg/sg12_156_cif.got.tgz:311730.got - 2010.06.03 13:09:07.
