data_PCOD9176390
_publ_section_title
;
Structure prediction by ZEFSAII (Michael W. Deem and Ramdas Pophale) SiO2 
 PCOD9176390
Probable space group: C 2/M
;
_chemical_formula_sum "Si O2"
_cell_formula_units_Z 40
_cell_length_a 17.601874
_cell_length_b 9.935590
_cell_length_c 16.056139
_cell_angle_alpha 90.000000
_cell_angle_beta 49.156467
_cell_angle_gamma 90.000000
_cell_volume 2124.230727
_symmetry_space_group_name_H-M "C 2/M"
_symmetry_group_IT_number 12
_symmetry_cell_setting 'monoclinic'
loop_
_space_group_symop_operation_xyz
x,y,z
-x,y,-z
-x,-y,-z
x,-y,z
1/2+x,1/2+y,z
1/2-x,1/2+y,-z
1/2-x,1/2-y,-z
1/2+x,1/2-y,z
loop_
_atom_site_type_symbol
_atom_site_label
_atom_site_fract_x
_atom_site_fract_y
_atom_site_fract_z
Si Si1 0.341227 0.000000 0.060345
Si Si2 0.018735 0.500000 0.251321
Si Si3 0.697684 0.275768 0.448888
Si Si4 0.669437 0.000000 0.734706
Si Si5 0.869212 0.723287 0.916488
Si Si6 0.607799 0.500000 0.169394
Si Si7 0.033587 0.000000 0.571794
Si Si8 0.404648 0.000000 0.508070
O O1 0.225818 0.000000 0.109831
O O2 0.343692 0.000000 0.157200
O O3 0.388700 0.134021 0.984798
O O4 0.090366 0.628592 0.186931
O O5 0.935512 0.500000 0.238360
O O6 0.954499 0.500000 0.380778
O O7 0.750000 0.250000 0.500000
O O8 0.768582 0.368362 0.340256
O O9 0.600711 0.367590 0.535507
O O10 0.662316 0.134312 0.435842
O O11 0.916962 0.868347 0.867039
O O12 0.750000 0.750000 0.000000
O O13 0.551514 0.500000 0.297752
O O14 0.000000 0.000000 0.500000
O O15 0.500000 0.000000 0.500000
#
# Coordination Sequence:
#
# PCOD9176390 Si02
#       8
#     4   4   8   4   8   4   4   4
#     4   9  20  39  59  85 114 156 205 252 299 369
#     4  11  21  39  60  84 116 166 204 241 317 382
#     4  11  22  41  58  89 132 166 199 249 313 369
#     4  11  23  39  66  83 120 173 210 240 312 392
#     4   9  20  36  58  84 118 150 198 260 315 353
#     4  10  18  34  60  88 116 154 198 254 320 346
#     4  11  22  36  62  92 122 165 218 249 285 382
#     4  12  24  38  62  97 128 163 210 261 303 372
#
# _framework density 18.830345999999999
#
# number of rings (size 3 to 8) (size 9 to 14) (size 15 to 20)
#    0.000    1.600    2.000    4.200    0.000    4.800 
#    0.000    1.000    0.000    1.200    0.000    0.000 
#    0.000    0.000    0.000    0.000    0.000    0.000 
#
# Total GULP energy -111596.551958 kJ/mol
# GULP energy per Si atom -5579.827598 kJ/mol
# Density = 1.878749 g / cm^3
# Si number density = 18.830346 Si / 1000 Ang^3
#
#
#
# Elastic Constant Matrix: (Units=GPa)
#
#
# Indices 1 2 3 4 5 6 
#
# 1 99.0163 46.5683 26.0951 0.0000 19.3088 0.0000
# 2 46.5683 185.4651 54.5476 0.0000 6.2422 0.0000
# 3 26.0951 54.5476 119.1732 0.0000 17.4916 0.0000
# 4 0.0000 0.0000 0.0000 21.5336 0.0000 -8.5388
# 5 19.3088 6.2422 17.4916 0.0000 40.9650 0.0000
# 6 0.0000 0.0000 0.0000 -8.5388 0.0000 23.8101
#
#
#
# Elastic Compliance Matrix: (Units=1/GPa)
#
#
# Indices 1 2 3 4 5 6 
#
# 1 0.012614 -0.002778 -0.000725 0.000000 -0.005212 0.000000
# 2 -0.002778 0.006846 -0.002736 0.000000 0.001435 0.000000
# 3 -0.000725 -0.002736 0.010339 0.000000 -0.003656 0.000000
# 4 0.000000 0.000000 0.000000 0.054138 0.000000 0.019415
# 5 -0.005212 0.001435 -0.003656 0.000000 0.028210 0.000000
# 6 0.000000 0.000000 0.000000 0.019415 0.000000 0.048962
#
#
# Mechanical properties :
#
#
# Convention : Reuss Voigt Hill
#
# Bulk Modulus (GPa) = 57.73797 73.11962 65.42879
# Shear Modulus (GPa) = 27.87700 35.69130 31.78415
#
# Velocity S-wave (km/s) = 3.85181 4.35836 4.11289
# Velocity P-wave (km/s) = 7.10709 8.01512 7.57472
#
# Compressibility (1/GPa) = 0.01731962
#
# Stress axis : x y z
#
# Youngs Moduli (GPa) = 79.27931 146.07549 96.72436
#
# Poissons Ratio (x) = 0.40586 0.07014
# Poissons Ratio (y) = 0.22027 0.26460
# Poissons Ratio (z) = 0.05749 0.39960
#
# Static dielectric constant tensor:
#      x y z
#    x 1.633860 0.000000 -0.023820 
#    y 0.000000 1.678350 0.000000 
#    z -0.023820 0.000000 1.654460 
# 
# From -- ./inp_files/273996.got.cif
#   From: 2010.05.17/outbox.cif.g08.bks.cpg/sg12_137_cif.got.tgz:273996.got - 2010.06.03 13:09:07.
