data_PCOD9176457
_publ_section_title
;
Structure prediction by ZEFSAII (Michael W. Deem and Ramdas Pophale) SiO2 
 PCOD9176457
Probable space group: C 2/M
;
_chemical_formula_sum "Si O2"
_cell_formula_units_Z 56
_cell_length_a 30.905229
_cell_length_b 17.841110
_cell_length_c 5.366998
_cell_angle_alpha 90.000000
_cell_angle_beta 59.968820
_cell_angle_gamma 90.000000
_cell_volume 2562.001414
_symmetry_space_group_name_H-M "C 2/M"
_symmetry_group_IT_number 12
_symmetry_cell_setting 'monoclinic'
loop_
_space_group_symop_operation_xyz
x,y,z
-x,y,-z
-x,-y,-z
x,-y,z
1/2+x,1/2+y,z
1/2-x,1/2+y,-z
1/2-x,1/2-y,-z
1/2+x,1/2-y,z
loop_
_atom_site_type_symbol
_atom_site_label
_atom_site_fract_x
_atom_site_fract_y
_atom_site_fract_z
Si Si1 0.034864 0.500000 0.151249
Si Si2 0.226148 0.587474 0.267551
Si Si3 0.553009 0.159836 0.209540
Si Si4 0.843568 0.086199 0.999716
Si Si5 0.286504 0.823975 0.178340
Si Si6 0.324552 0.296068 0.409123
Si Si7 0.407511 0.285955 0.558143
Si Si8 0.500000 0.732582 0.000000
O O1 0.066955 0.576743 0.077375
O O2 0.000000 0.500000 0.500000
O O3 0.000000 0.500000 0.000000
O O4 0.212543 0.500000 0.303653
O O5 0.286720 0.591911 0.058612
O O6 0.201632 0.631595 0.106919
O O7 0.214147 0.623455 0.571922
O O8 0.500000 0.150029 0.500000
O O9 0.585303 0.210799 0.299539
O O10 0.538894 0.212940 0.023142
O O11 0.883268 0.142080 0.762410
O O12 0.858498 0.000000 0.948386
O O13 0.836830 0.118832 0.297944
O O14 0.318347 0.752767 0.175601
O O15 0.229873 0.793270 0.312182
O O16 0.368212 0.267741 0.454802
O O17 0.463143 0.308155 0.298063
#
# Coordination Sequence:
#
# PCOD9176457 Si02
#       8
#     4   8   8   8   8   8   8   4
#     4  10  18  34  62  94 124 150 200 260 314 376
#     4  10  20  37  62  94 131 170 217 266 316 382
#     4   9  19  34  60  88 119 156 204 256 321 379
#     4  10  22  38  60  90 123 165 218 276 324 380
#     4  10  21  36  63  94 127 170 217 258 325 387
#     4  10  22  36  61  88 125 161 214 269 323 391
#     4  11  21  38  60  90 124 166 214 274 327 391
#     4  10  20  37  59  90 120 166 212 268 325 389
#
# _framework density 21.857911999999999
#
# number of rings (size 3 to 8) (size 9 to 14) (size 15 to 20)
#    0.000    2.000    2.143    1.286    2.000    2.857 
#    0.000    0.357    3.143    8.143    0.000    0.000 
#    0.000    0.000    0.000    0.000    0.000    0.000 
#
# Total GULP energy -156290.483488 kJ/mol
# GULP energy per Si atom -5581.802982 kJ/mol
# Density = 2.180816 g / cm^3
# Si number density = 21.857912 Si / 1000 Ang^3
#
#
#
# Elastic Constant Matrix: (Units=GPa)
#
#
# Indices 1 2 3 4 5 6 
#
# 1 110.3954 58.9260 23.1929 0.0000 25.6966 0.0000
# 2 58.9260 162.4682 39.5143 0.0000 4.6040 0.0000
# 3 23.1929 39.5143 71.7384 0.0000 1.2331 0.0000
# 4 0.0000 0.0000 0.0000 14.1677 0.0000 -6.9628
# 5 25.6966 4.6040 1.2331 0.0000 39.3486 0.0000
# 6 0.0000 0.0000 0.0000 -6.9628 0.0000 20.3411
#
#
#
# Elastic Compliance Matrix: (Units=1/GPa)
#
#
# Indices 1 2 3 4 5 6 
#
# 1 0.013688 -0.004256 -0.001937 0.000000 -0.008380 0.000000
# 2 -0.004256 0.008450 -0.003311 0.000000 0.001894 0.000000
# 3 -0.001937 -0.003311 0.016370 0.000000 0.001139 0.000000
# 4 0.000000 0.000000 0.000000 0.084858 0.000000 0.029047
# 5 -0.008380 0.001894 0.001139 0.000000 0.030629 0.000000
# 6 0.000000 0.000000 0.000000 0.029047 0.000000 0.059104
#
#
# Mechanical properties :
#
#
# Convention : Reuss Voigt Hill
#
# Bulk Modulus (GPa) = 51.28230 65.31872 58.30051
# Shear Modulus (GPa) = 20.95494 29.63607 25.29551
#
# Velocity S-wave (km/s) = 3.09963 3.68618 3.40556
# Velocity P-wave (km/s) = 6.02685 6.93293 6.49570
#
# Compressibility (1/GPa) = 0.01949990
#
# Stress axis : x y z
#
# Youngs Moduli (GPa) = 73.05932 118.34003 61.08746
#
# Poissons Ratio (x) = 0.50363 0.11832
# Poissons Ratio (y) = 0.31093 0.20227
# Poissons Ratio (z) = 0.14151 0.39184
#
# Static dielectric constant tensor:
#      x y z
#    x 1.793640 0.000000 -0.039450 
#    y 0.000000 1.822990 0.000000 
#    z -0.039450 0.000000 1.921520 
# 
# From -- ./inp_files/32001.got.cif
#   From: 2010.05.17/outbox.cif.g08.bks.cpg/sg12_17_cif.got.tgz:32001.got - 2010.06.03 13:09:07.
