data_PCOD9176268
_publ_section_title
;
Structure prediction by ZEFSAII (Michael W. Deem and Ramdas Pophale) SiO2 
 PCOD9176268
Probable space group: C 2/M
;
_chemical_formula_sum "Si O2"
_cell_formula_units_Z 64
_cell_length_a 21.201271
_cell_length_b 8.338953
_cell_length_c 34.993988
_cell_angle_alpha 90.000000
_cell_angle_beta 33.081339
_cell_angle_gamma 90.000000
_cell_volume 3376.941522
_symmetry_space_group_name_H-M "C 2/M"
_symmetry_group_IT_number 12
_symmetry_cell_setting 'monoclinic'
loop_
_space_group_symop_operation_xyz
x,y,z
-x,y,-z
-x,-y,-z
x,-y,z
1/2+x,1/2+y,z
1/2-x,1/2+y,-z
1/2-x,1/2-y,-z
1/2+x,1/2-y,z
loop_
_atom_site_type_symbol
_atom_site_label
_atom_site_fract_x
_atom_site_fract_y
_atom_site_fract_z
Si Si1 0.623768 0.195894 0.453456
Si Si2 0.584268 0.306227 0.307150
Si Si3 0.538048 0.313232 0.924039
Si Si4 0.334002 0.808100 0.212324
Si Si5 0.652909 0.305661 0.707839
Si Si6 0.638401 0.808116 0.533649
Si Si7 0.823360 0.688966 0.074899
Si Si8 0.572055 0.695848 0.225229
O O1 0.500000 0.248034 0.500000
O O2 0.729885 0.247078 0.372931
O O3 0.640362 0.248969 0.488714
O O4 0.623850 0.000000 0.453438
O O5 0.583044 0.500000 0.307676
O O6 0.707168 0.254089 0.262045
O O7 0.477790 0.247766 0.386476
O O8 0.571398 0.251868 0.269751
O O9 0.560927 0.500000 0.918802
O O10 0.572417 0.264848 0.864056
O O11 0.618071 0.215904 0.913269
O O12 0.406796 0.275388 0.002554
O O13 0.351170 0.756402 0.247067
O O14 0.338739 0.000000 0.206930
O O15 0.653086 0.500000 0.708630
O O16 0.541460 0.253691 0.740001
O O17 0.750000 0.750000 0.500000
O O18 0.639974 0.000000 0.532129
O O19 0.824359 0.500000 0.066058
O O20 0.691772 0.746674 0.144699
O O21 0.573378 0.500000 0.225072
#
# Coordination Sequence:
#
# PCOD9176268 Si02
#       8
#     8   8   8   8   8   8   8   8
#     4   9  18  34  56  79 107 146 189 228 274 332
#     4  10  20  37  59  82 109 145 189 233 278 334
#     4  11  21  34  55  86 117 146 186 235 282 330
#     4  11  22  38  58  83 114 149 186 231 286 337
#     4  10  20  36  58  81 110 147 190 234 277 333
#     4  11  22  36  56  83 112 145 184 231 284 337
#     4  10  18  34  58  84 114 151 190 230 283 337
#     4   9  18  35  58  82 111 153 191 226 280 340
#
# _framework density 18.952061
#
# number of rings (size 3 to 8) (size 9 to 14) (size 15 to 20)
#    0.000    1.875    1.250    4.500    0.000    4.000 
#    0.000    5.000    0.000    3.375    0.000    0.000 
#    0.000    0.000    0.000    0.000    0.000    0.000 
#
# Total GULP energy -178756.558222 kJ/mol
# GULP energy per Si atom -5586.142444 kJ/mol
# Density = 1.890892 g / cm^3
# Si number density = 18.952061 Si / 1000 Ang^3
#
#
#
# Elastic Constant Matrix: (Units=GPa)
#
#
# Indices 1 2 3 4 5 6 
#
# 1 124.3374 6.2091 66.7079 0.0232 14.2905 0.0370
# 2 6.2091 18.2093 6.7782 0.0636 0.3437 -0.0373
# 3 66.7079 6.7782 159.2083 0.0115 11.2349 0.0012
# 4 0.0232 0.0636 0.0115 24.4562 -0.0053 10.6168
# 5 14.2905 0.3437 11.2349 -0.0053 27.7594 0.0037
# 6 0.0370 -0.0373 0.0012 10.6168 0.0037 14.3901
#
#
#
# Elastic Compliance Matrix: (Units=1/GPa)
#
#
# Indices 1 2 3 4 5 6 
#
# 1 0.010831 -0.002065 -0.004178 0.000015 -0.003859 -0.000043
# 2 -0.002065 0.056199 -0.001599 -0.000307 0.001014 0.000377
# 3 -0.004178 -0.001599 0.008180 0.000002 -0.001140 0.000005
# 4 0.000015 -0.000307 0.000002 0.060158 0.000013 -0.044385
# 5 -0.003859 0.001014 -0.001140 0.000013 0.038459 -0.000007
# 6 -0.000043 0.000377 0.000005 -0.044385 -0.000007 0.102240
#
#
# Mechanical properties :
#
#
# Convention : Reuss Voigt Hill
#
# Bulk Modulus (GPa) = 16.79939 51.23836 34.01888
# Shear Modulus (GPa) = 16.04656 28.12513 22.08584
#
# Velocity S-wave (km/s) = 2.91295 3.85647 3.41743
# Velocity P-wave (km/s) = 4.49412 6.85013 5.79316
#
# Compressibility (1/GPa) = 0.05952597
#
# Stress axis : x y z
#
# Youngs Moduli (GPa) = 92.32972 17.79392 122.24794
#
# Poissons Ratio (x) = 0.03675 0.51073
# Poissons Ratio (y) = 0.19069 0.19546
# Poissons Ratio (z) = 0.38573 0.02845
#
# Static dielectric constant tensor:
#      x y z
#    x 1.660150 -0.000110 -0.013350 
#    y -0.000110 1.658040 0.000020 
#    z -0.013350 0.000020 1.644140 
# 
# From -- ./inp_files/378055.got.cif
#   From: 2010.05.17/outbox.cif.g08.bks.cpg/sg12_190_cif.got.tgz:378055.got - 2010.06.03 13:09:07.
