data_PCOD9176354
_publ_section_title
;
Structure prediction by ZEFSAII (Michael W. Deem and Ramdas Pophale) SiO2 
 PCOD9176354
Probable space group: C 2/M
;
_chemical_formula_sum "Si O2"
_cell_formula_units_Z 58
_cell_length_a 28.566091
_cell_length_b 7.500913
_cell_length_c 12.061731
_cell_angle_alpha 90.000000
_cell_angle_beta 93.962491
_cell_angle_gamma 90.000000
_cell_volume 2578.310159
_symmetry_space_group_name_H-M "C 2/M"
_symmetry_group_IT_number 12
_symmetry_cell_setting 'monoclinic'
loop_
_space_group_symop_operation_xyz
x,y,z
-x,y,-z
-x,-y,-z
x,-y,z
1/2+x,1/2+y,z
1/2-x,1/2+y,-z
1/2-x,1/2-y,-z
1/2+x,1/2-y,z
loop_
_atom_site_type_symbol
_atom_site_label
_atom_site_fract_x
_atom_site_fract_y
_atom_site_fract_z
Si Si1 0.420241 0.787317 0.169677
Si Si2 0.037464 0.205012 0.418027
Si Si3 0.827369 0.293275 0.043606
Si Si4 0.774253 0.287226 0.389023
Si Si5 0.974338 0.798979 0.832687
Si Si6 0.619816 0.788665 0.589278
Si Si7 0.500000 0.000000 0.000000
Si Si8 0.734457 0.715871 0.157232
O O1 0.377529 0.720494 0.086857
O O2 0.469160 0.691783 0.166355
O O3 0.402978 0.769287 0.293285
O O4 0.431174 0.000000 0.147963
O O5 0.086778 0.209633 0.489456
O O6 0.000000 0.286668 0.500000
O O7 0.040199 0.273513 0.292390
O O8 0.022095 0.000000 0.399041
O O9 0.830601 0.500000 0.078856
O O10 0.781980 0.220721 0.102003
O O11 0.811369 0.280699 0.914431
O O12 0.778361 0.500000 0.373039
O O13 0.750000 0.250000 0.500000
O O14 0.827314 0.217077 0.396533
O O15 0.741908 0.223216 0.283248
O O16 0.955500 0.000000 0.848467
O O17 0.968626 0.657251 0.929710
O O18 0.621855 0.000000 0.566811
O O19 0.733013 0.500000 0.150598
#
# Coordination Sequence:
#
# PCOD9176354 Si02
#       8
#     8   8   8   8   8   8   2   8
#     4  10  18  34  59  92 122 156 203 260 319 377
#     4  10  21  37  60  97 134 156 195 266 330 376
#     4   9  17  30  53  82 114 144 190 249 304 357
#     4  10  21  38  56  81 115 161 207 250 303 374
#     4  11  24  42  67  97 129 167 215 264 310 386
#     4  10  20  34  60  90 122 159 207 257 316 387
#     4  12  26  48  66  86 124 180 218 242 316 382
#     4   9  17  32  51  76 111 150 192 247 304 355
#
# _framework density 22.495352
#
# number of rings (size 3 to 8) (size 9 to 14) (size 15 to 20)
#    0.000    2.069    3.448    0.207    0.966    1.931 
#    0.000    1.379    0.000    1.655    0.000    0.000 
#    0.000    0.000    0.000    0.000    0.000    0.000 
#
# Total GULP energy -161687.983650 kJ/mol
# GULP energy per Si atom -5575.447712 kJ/mol
# Density = 2.244415 g / cm^3
# Si number density = 22.495352 Si / 1000 Ang^3
#
#
#
# Elastic Constant Matrix: (Units=GPa)
#
#
# Indices 1 2 3 4 5 6 
#
# 1 39.1769 -1.3200 12.9014 0.0000 29.0337 0.0000
# 2 -1.3200 82.0436 15.6976 0.0000 -3.4187 0.0000
# 3 12.9014 15.6976 150.4024 0.0000 35.1168 0.0000
# 4 0.0000 0.0000 0.0000 22.6610 0.0000 8.2391
# 5 29.0337 -3.4187 35.1168 0.0000 41.9893 0.0000
# 6 0.0000 0.0000 0.0000 8.2391 0.0000 41.6486
#
#
#
# Elastic Compliance Matrix: (Units=1/GPa)
#
#
# Indices 1 2 3 4 5 6 
#
# 1 0.055763 -0.001970 0.005545 0.000000 -0.043356 0.000000
# 2 -0.001970 0.012741 -0.002139 0.000000 0.004188 0.000000
# 3 0.005545 -0.002139 0.009111 0.000000 -0.011629 0.000000
# 4 0.000000 0.000000 0.000000 0.047549 0.000000 -0.009406
# 5 -0.043356 0.004188 -0.011629 0.000000 0.063861 0.000000
# 6 0.000000 0.000000 0.000000 -0.009406 0.000000 0.025871
#
#
# Mechanical properties :
#
#
# Convention : Reuss Voigt Hill
#
# Bulk Modulus (GPa) = 12.42422 36.24234 24.33328
# Shear Modulus (GPa) = 20.93337 37.54937 29.24137
#
# Velocity S-wave (km/s) = 3.05382 4.09002 3.60930
# Velocity P-wave (km/s) = 4.23904 6.20084 5.31130
#
# Compressibility (1/GPa) = 0.08048798
#
# Stress axis : x y z
#
# Youngs Moduli (GPa) = 17.93288 78.48887 109.75159
#
# Poissons Ratio (x) = 0.15466 -0.60861
# Poissons Ratio (y) = 0.03534 0.23472
# Poissons Ratio (z) = -0.09944 0.16786
#
# Static dielectric constant tensor:
#      x y z
#    x 9.570040 0.000000 -2.486400 
#    y 0.000000 2.112640 0.000000 
#    z -2.486400 0.000000 2.631310 
# 
# From -- ./inp_files/186763.got.cif
#   From: 2010.05.17/outbox.cif.g08.bks.cpg/sg12_94_cif.got.tgz:186763.got - 2010.06.03 13:09:07.
