data_PCOD9176325
_publ_section_title
;
Structure prediction by ZEFSAII (Michael W. Deem and Ramdas Pophale) SiO2 
 PCOD9176325
Probable space group: C 2/M
;
_chemical_formula_sum "Si O2"
_cell_formula_units_Z 32
_cell_length_a 25.219818
_cell_length_b 8.887578
_cell_length_c 26.265194
_cell_angle_alpha 90.000000
_cell_angle_beta 163.904564
_cell_angle_gamma 90.000000
_cell_volume 1632.145723
_symmetry_space_group_name_H-M "C 2/M"
_symmetry_group_IT_number 12
_symmetry_cell_setting 'monoclinic'
loop_
_space_group_symop_operation_xyz
x,y,z
-x,y,-z
-x,-y,-z
x,-y,z
1/2+x,1/2+y,z
1/2-x,1/2+y,-z
1/2-x,1/2-y,-z
1/2+x,1/2-y,z
loop_
_atom_site_type_symbol
_atom_site_label
_atom_site_fract_x
_atom_site_fract_y
_atom_site_fract_z
Si Si1 0.319122 0.820588 0.867616
Si Si2 0.985711 0.823677 0.859583
Si Si3 0.058400 0.676009 0.466827
Si Si4 0.731643 0.820536 0.427621
O O1 0.118383 0.746958 0.667151
O O2 0.302574 0.000000 0.851443
O O3 0.500000 0.776563 0.000000
O O4 0.369204 0.760966 0.970234
O O5 0.771487 0.811640 0.686764
O O6 0.948095 0.747466 0.770038
O O7 0.031088 0.000000 0.896415
O O8 0.023118 0.500000 0.424915
O O9 0.091252 0.764901 0.444057
O O10 0.750000 0.750000 0.500000
O O11 0.722516 0.000000 0.420934
#
# Coordination Sequence:
#
# PCOD9176325 Si02
#       4
#     8   8   8   8
#     4  11  23  37  56  83 114 149 187 229 279 331
#     4   9  20  37  57  82 112 146 187 230 275 328
#     4   9  20  37  57  82 112 146 187 230 275 328
#     4  10  18  34  59  84 113 146 182 225 277 331
#
# _framework density 19.606093000000001
#
# number of rings (size 3 to 8) (size 9 to 14) (size 15 to 20)
#    1.500    0.750    0.000    3.750    0.000    3.000 
#    0.000    6.250    0.000    0.000    0.000    0.000 
#    0.000    0.000    0.000    0.000    0.000    0.000 
#
# Total GULP energy -89109.707411 kJ/mol
# GULP energy per Si atom -5569.356713 kJ/mol
# Density = 1.956147 g / cm^3
# Si number density = 19.606093 Si / 1000 Ang^3
#
#
#
# Elastic Constant Matrix: (Units=GPa)
#
#
# Indices 1 2 3 4 5 6 
#
# 1 38.3212 11.7528 -1.8503 0.0033 -8.2213 0.0000
# 2 11.7528 79.4649 14.7313 0.0044 2.3755 0.0009
# 3 -1.8503 14.7313 44.2734 0.0173 -5.7954 0.0042
# 4 0.0033 0.0044 0.0173 22.8227 0.0042 8.6070
# 5 -8.2213 2.3755 -5.7954 0.0042 30.0419 -0.0002
# 6 0.0000 0.0009 0.0042 8.6070 -0.0002 21.7811
#
#
#
# Elastic Compliance Matrix: (Units=1/GPa)
#
#
# Indices 1 2 3 4 5 6 
#
# 1 0.030038 -0.005531 0.004338 -0.000010 0.009494 0.000003
# 2 -0.005531 0.014545 -0.005560 0.000003 -0.003736 -0.000001
# 3 0.004338 -0.005560 0.025474 -0.000022 0.006541 0.000004
# 4 -0.000010 0.000003 -0.000022 0.051489 -0.000014 -0.020346
# 5 0.009494 -0.003736 0.006541 -0.000014 0.037442 0.000005
# 6 0.000003 -0.000001 0.000004 -0.020346 0.000005 0.053951
#
#
# Mechanical properties :
#
#
# Convention : Reuss Voigt Hill
#
# Bulk Modulus (GPa) = 17.68255 23.48078 20.58166
# Shear Modulus (GPa) = 20.38365 24.09084 22.23725
#
# Velocity S-wave (km/s) = 3.22787 3.50915 3.37144
# Velocity P-wave (km/s) = 4.78860 5.33114 5.06714
#
# Compressibility (1/GPa) = 0.05655294
#
# Stress axis : x y z
#
# Youngs Moduli (GPa) = 33.29136 68.75448 39.25511
#
# Poissons Ratio (x) = 0.38026 -0.17031
# Poissons Ratio (y) = 0.18412 0.21825
# Poissons Ratio (z) = -0.14443 0.38225
#
# Static dielectric constant tensor:
#      x y z
#    x 1.701180 0.000000 0.017890 
#    y 0.000000 1.642790 0.000000 
#    z 0.017890 0.000000 1.716340 
# 
# From -- ./inp_files/81844.got.cif
#   From: 2010.05.17/outbox.cif.g08.bks.cpg/sg12_41_cif.got.tgz:81844.got - 2010.06.03 13:09:07.
