data_PCOD9176404
_publ_section_title
;
Structure prediction by ZEFSAII (Michael W. Deem and Ramdas Pophale) SiO2 
 PCOD9176404
Probable space group: C 2/M
;
_chemical_formula_sum "Si O2"
_cell_formula_units_Z 52
_cell_length_a 14.717103
_cell_length_b 17.823964
_cell_length_c 11.654505
_cell_angle_alpha 90.000000
_cell_angle_beta 137.110371
_cell_angle_gamma 90.000000
_cell_volume 2080.678179
_symmetry_space_group_name_H-M "C 2/M"
_symmetry_group_IT_number 12
_symmetry_cell_setting 'monoclinic'
loop_
_space_group_symop_operation_xyz
x,y,z
-x,y,-z
-x,-y,-z
x,-y,z
1/2+x,1/2+y,z
1/2-x,1/2+y,-z
1/2-x,1/2-y,-z
1/2+x,1/2-y,z
loop_
_atom_site_type_symbol
_atom_site_label
_atom_site_fract_x
_atom_site_fract_y
_atom_site_fract_z
Si Si1 0.000000 0.705865 0.000000
Si Si2 0.058054 0.085834 0.185106
Si Si3 0.649784 0.357218 0.607020
Si Si4 0.092959 0.415557 0.720776
Si Si5 0.189219 0.914720 0.879857
Si Si6 0.746299 0.798500 0.709766
Si Si7 0.106051 0.414875 0.279536
O O1 0.871269 0.760289 0.894904
O O2 0.961615 0.650638 0.859408
O O3 0.173225 0.146729 0.299069
O O4 0.941415 0.104366 0.167023
O O5 0.102206 0.000000 0.245340
O O6 0.000000 0.086295 0.000000
O O7 0.500000 0.379572 0.500000
O O8 0.714744 0.365057 0.793409
O O9 0.664232 0.270999 0.582699
O O10 0.737128 0.406392 0.602123
O O11 0.107936 0.500000 0.685232
O O12 0.148034 0.350443 0.692169
O O13 0.946933 0.405841 0.640039
O O14 0.189502 0.413449 0.920189
O O15 0.173317 0.000000 0.822835
O O16 0.066018 0.500000 0.207945
#
# Coordination Sequence:
#
# PCOD9176404 Si02
#       7
#     4   8   8   8   8   8   8
#     4  10  19  30  51  84 118 148 184 226 291 350
#     4  10  18  34  60  92 123 146 180 232 289 352
#     4  11  26  42  56  78 113 161 207 240 275 333
#     4  10  19  34  59  92 119 144 183 235 303 358
#     4  10  20  35  61  90 116 151 190 235 290 342
#     4  11  20  35  58  86 124 156 182 232 295 345
#     4  10  21  36  55  78 110 149 191 243 290 335
#
# _framework density 24.991852000000002
#
# number of rings (size 3 to 8) (size 9 to 14) (size 15 to 20)
#    0.000    1.692    2.308    3.000    0.000    7.385 
#    0.000    3.077    0.000    3.692    0.000    0.000 
#    0.000    0.000    0.000    0.000    0.000    0.000 
#
# Total GULP energy -145486.906665 kJ/mol
# GULP energy per Si atom -5595.650256 kJ/mol
# Density = 2.493497 g / cm^3
# Si number density = 24.991852 Si / 1000 Ang^3
#
#
#
# Elastic Constant Matrix: (Units=GPa)
#
#
# Indices 1 2 3 4 5 6 
#
# 1 154.5981 77.4669 29.0564 0.0000 37.9362 0.0000
# 2 77.4669 143.2762 22.7165 0.0000 9.8452 0.0000
# 3 29.0564 22.7165 80.3849 0.0000 16.7398 0.0000
# 4 0.0000 0.0000 0.0000 14.4498 0.0000 3.3059
# 5 37.9362 9.8452 16.7398 0.0000 50.3641 0.0000
# 6 0.0000 0.0000 0.0000 3.3059 0.0000 33.1940
#
#
#
# Elastic Compliance Matrix: (Units=1/GPa)
#
#
# Indices 1 2 3 4 5 6 
#
# 1 0.011030 -0.005323 -0.001041 0.000000 -0.006921 0.000000
# 2 -0.005323 0.009906 -0.001404 0.000000 0.002540 0.000000
# 3 -0.001041 -0.001404 0.013959 0.000000 -0.003581 0.000000
# 4 0.000000 0.000000 0.000000 0.070819 0.000000 -0.007053
# 5 -0.006921 0.002540 -0.003581 0.000000 0.025763 0.000000
# 6 0.000000 0.000000 0.000000 -0.007053 0.000000 0.030828
#
#
# Mechanical properties :
#
#
# Convention : Reuss Voigt Hill
#
# Bulk Modulus (GPa) = 51.65888 70.74877 61.20383
# Shear Modulus (GPa) = 27.13065 36.20286 31.66676
#
# Velocity S-wave (km/s) = 3.29839 3.81016 3.56347
# Velocity P-wave (km/s) = 5.93473 6.90844 6.44002
#
# Compressibility (1/GPa) = 0.01935775
#
# Stress axis : x y z
#
# Youngs Moduli (GPa) = 90.66411 100.95277 71.63818
#
# Poissons Ratio (x) = 0.53736 0.07460
# Poissons Ratio (y) = 0.48259 0.10059
# Poissons Ratio (z) = 0.09441 0.14175
#
# Static dielectric constant tensor:
#      x y z
#    x 1.922460 0.000000 0.040440 
#    y 0.000000 1.925850 0.000000 
#    z 0.040440 0.000000 2.118350 
# 
# From -- ./inp_files/216889.got.cif
#   From: 2010.05.17/outbox.cif.g08.bks.cpg/sg12_109_cif.got.tgz:216889.got - 2010.06.03 13:09:07.
