data_PCOD9176922
_publ_section_title
;
Structure prediction by ZEFSAII (Michael W. Deem and Ramdas Pophale) SiO2 
 PCOD9176922
Probable space group: C 2/M
;
_chemical_formula_sum "Si O2"
_cell_formula_units_Z 44
_cell_length_a 16.810189
_cell_length_b 16.142545
_cell_length_c 13.470949
_cell_angle_alpha 90.000000
_cell_angle_beta 138.406564
_cell_angle_gamma 90.000000
_cell_volume 2426.646768
_symmetry_space_group_name_H-M "C 2/M"
_symmetry_group_IT_number 12
_symmetry_cell_setting 'monoclinic'
loop_
_space_group_symop_operation_xyz
x,y,z
-x,y,-z
-x,-y,-z
x,-y,z
1/2+x,1/2+y,z
1/2-x,1/2+y,-z
1/2-x,1/2-y,-z
1/2+x,1/2-y,z
loop_
_atom_site_type_symbol
_atom_site_label
_atom_site_fract_x
_atom_site_fract_y
_atom_site_fract_z
Si Si1 0.729022 0.096181 0.569095
Si Si2 0.000000 0.341516 0.000000
Si Si3 0.183509 0.770697 0.040236
Si Si4 0.497400 0.594282 0.877895
Si Si5 0.719794 0.092783 0.325744
Si Si6 0.138930 0.255464 0.612189
O O1 0.867345 0.121812 0.718681
O O2 0.703307 0.096671 0.428574
O O3 0.652704 0.165900 0.552413
O O4 0.715191 0.000000 0.591846
O O5 0.081945 0.287938 0.998884
O O6 0.094781 0.393389 0.152233
O O7 0.285698 0.778913 0.219169
O O8 0.250000 0.750000 0.000000
O O9 0.107722 0.852266 0.945949
O O10 0.511238 0.500000 0.858925
O O11 0.500000 0.598179 0.000000
O O12 0.802729 0.170432 0.373814
O O13 0.766867 0.000000 0.345988
O O14 0.000000 0.240785 0.500000
#
# Coordination Sequence:
#
# PCOD9176922 Si02
#       6
#     8   4   8   8   8   8
#     4  10  21  38  64  90 114 154 202 247 304 362
#     4  10  21  42  63  84 120 160 199 254 298 352
#     4  11  23  38  60  91 119 159 204 241 297 366
#     4  10  18  36  62  85 116 152 193 249 301 348
#     4  10  22  40  63  87 113 159 207 243 297 359
#     4  11  24  38  57  88 124 158 191 249 303 353
#
# _framework density 18.132017000000001
#
# number of rings (size 3 to 8) (size 9 to 14) (size 15 to 20)
#    0.000    1.636    2.727    1.909    5.091    0.727 
#    0.000    4.545    0.000    0.000    0.000    0.000 
#    0.000    0.000    0.000    0.000    0.000    0.000 
#
# Total GULP energy -122668.994002 kJ/mol
# GULP energy per Si atom -5575.863364 kJ/mol
# Density = 1.809075 g / cm^3
# Si number density = 18.132017 Si / 1000 Ang^3
#
#
#
# Elastic Constant Matrix: (Units=GPa)
#
#
# Indices 1 2 3 4 5 6 
#
# 1 101.1856 55.2884 31.2959 0.0000 4.9607 0.0000
# 2 55.2884 82.6436 31.9391 0.0000 10.8205 0.0000
# 3 31.2959 31.9391 87.1490 0.0000 1.0975 0.0000
# 4 0.0000 0.0000 0.0000 17.9821 0.0000 1.3484
# 5 4.9607 10.8205 1.0975 0.0000 26.1523 0.0000
# 6 0.0000 0.0000 0.0000 1.3484 0.0000 -43.2265
#
#
#
# Elastic Compliance Matrix: (Units=1/GPa)
#
#
# Indices 1 2 3 4 5 6 
#
# 1 0.015939 -0.010024 -0.002066 0.000000 0.001210 0.000000
# 2 -0.010024 0.021277 -0.004113 0.000000 -0.006729 0.000000
# 3 -0.002066 -0.004113 0.013705 0.000000 0.001519 0.000000
# 4 0.000000 0.000000 0.000000 0.055481 0.000000 0.001731
# 5 0.001210 -0.006729 0.001519 0.000000 0.040728 0.000000
# 6 0.000000 0.000000 0.000000 0.001731 0.000000 -0.023080
#
#
# Mechanical properties :
#
#
# Convention : Reuss Voigt Hill
#
# Bulk Modulus (GPa) = 54.00858 56.44722 55.22790
# Shear Modulus (GPa) = 30.74514 10.34522 20.54518
#
# Velocity S-wave (km/s) = 4.12227 2.39121 3.36979
# Velocity P-wave (km/s) = 7.24627 6.23078 6.75763
#
# Compressibility (1/GPa) = 0.01851558
#
# Stress axis : x y z
#
# Youngs Moduli (GPa) = 62.73803 46.99999 72.96732
#
# Poissons Ratio (x) = 0.47111 0.15073
# Poissons Ratio (y) = 0.62886 0.30014
# Poissons Ratio (z) = 0.12960 0.19333
#
# Static dielectric constant tensor:
#      x y z
#    x 1.930860 0.000000 0.072270 
#    y 0.000000 1.665410 0.000000 
#    z 0.072270 0.000000 1.631240 
# 
# From -- ./inp_files/145788.got.cif
#   From: 2010.05.17/outbox.cif.g08.bks.cpg/sg12_73_cif.got.tgz:145788.got - 2010.06.03 13:09:07.
