data_PCOD9176076
_publ_section_title
;
Structure prediction by ZEFSAII (Michael W. Deem and Ramdas Pophale) SiO2 
 PCOD9176076
Probable space group: C 2/M
;
_chemical_formula_sum "Si O2"
_cell_formula_units_Z 52
_cell_length_a 22.068241
_cell_length_b 13.456113
_cell_length_c 7.934922
_cell_angle_alpha 90.000000
_cell_angle_beta 76.951867
_cell_angle_gamma 90.000000
_cell_volume 2295.459035
_symmetry_space_group_name_H-M "C 2/M"
_symmetry_group_IT_number 12
_symmetry_cell_setting 'monoclinic'
loop_
_space_group_symop_operation_xyz
x,y,z
-x,y,-z
-x,-y,-z
x,-y,z
1/2+x,1/2+y,z
1/2-x,1/2+y,-z
1/2-x,1/2-y,-z
1/2+x,1/2-y,z
loop_
_atom_site_type_symbol
_atom_site_label
_atom_site_fract_x
_atom_site_fract_y
_atom_site_fract_z
Si Si1 0.552686 0.391128 0.724361
Si Si2 0.380207 0.390561 0.970371
Si Si3 0.500000 0.231054 0.500000
Si Si4 0.873164 0.701576 0.733687
Si Si5 0.676693 0.307998 0.556775
Si Si6 0.205926 0.608521 0.669480
Si Si7 0.758607 0.366296 0.975559
O O1 0.525144 0.500000 0.712208
O O2 0.569895 0.380252 0.910732
O O3 0.519049 0.303513 0.643838
O O4 0.622045 0.385573 0.606508
O O5 0.390342 0.500000 0.883608
O O6 0.306707 0.395744 0.069746
O O7 0.386188 0.292679 0.853632
O O8 0.438867 0.172743 0.605047
O O9 0.833033 0.752947 0.613694
O O10 0.825937 0.621545 0.844776
O O11 0.741246 0.365565 0.501357
O O12 0.669327 0.214417 0.690441
O O13 0.176515 0.500000 0.650408
O O14 0.235902 0.599045 0.835344
O O15 0.750000 0.250000 0.000000
#
# Coordination Sequence:
#
# PCOD9176076 Si02
#       7
#     8   8   4   8   8   8   8
#     4  10  21  36  57  86 121 161 200 242 298 367
#     4  10  20  33  54  86 119 151 191 242 302 362
#     4  10  23  40  54  84 115 164 207 246 294 364
#     4  10  21  37  58  78 116 159 199 244 297 348
#     4  10  20  34  54  82 124 156 192 241 296 357
#     4  11  21  33  55  87 122 160 196 237 299 370
#     4  10  18  34  54  81 116 155 196 241 298 354
#
# _framework density 22.653421999999999
#
# number of rings (size 3 to 8) (size 9 to 14) (size 15 to 20)
#    0.000    1.846    3.077    3.000    2.154    3.692 
#    0.000    2.308    0.000    0.000    0.000   23.692 
#    0.000    0.000    0.000    0.000    0.000    0.000 
#
# Total GULP energy -144759.565649 kJ/mol
# GULP energy per Si atom -5567.675602 kJ/mol
# Density = 2.260186 g / cm^3
# Si number density = 22.653422 Si / 1000 Ang^3
#
#
#
# Elastic Constant Matrix: (Units=GPa)
#
#
# Indices 1 2 3 4 5 6 
#
# 1 123.5993 16.3602 39.5112 0.0000 -35.2286 0.0000
# 2 16.3602 99.3521 14.6126 0.0000 -4.2264 0.0000
# 3 39.5112 14.6126 69.4343 0.0000 2.3350 0.0000
# 4 0.0000 0.0000 0.0000 0.1829 0.0000 3.4419
# 5 -35.2286 -4.2264 2.3350 0.0000 53.1093 0.0000
# 6 0.0000 0.0000 0.0000 3.4419 0.0000 -0.1412
#
#
#
# Elastic Compliance Matrix: (Units=1/GPa)
#
#
# Indices 1 2 3 4 5 6 
#
# 1 0.013214 -0.000661 -0.007685 0.000000 0.009051 0.000000
# 2 -0.000661 0.010465 -0.001842 0.000000 0.000476 0.000000
# 3 -0.007685 -0.001842 0.019368 0.000000 -0.006096 0.000000
# 4 0.000000 0.000000 0.000000 0.011889 0.000000 0.289907
# 5 0.009051 0.000476 -0.006096 0.000000 0.025138 0.000000
# 6 0.000000 0.000000 0.000000 0.289907 0.000000 -0.015405
#
#
# Mechanical properties :
#
#
# Convention : Reuss Voigt Hill
#
# Bulk Modulus (GPa) = 44.10841 48.15040 46.12940
# Shear Modulus (GPa) = 53.99384 25.42366 39.70875
#
# Velocity S-wave (km/s) = 4.88738 3.35369 4.19128
# Velocity P-wave (km/s) = 7.16672 6.02476 6.62041
#
# Compressibility (1/GPa) = 0.02267142
#
# Stress axis : x y z
#
# Youngs Moduli (GPa) = 75.67490 95.55460 51.63183
#
# Poissons Ratio (x) = 0.06313 0.39679
# Poissons Ratio (y) = 0.05000 0.09513
# Poissons Ratio (z) = 0.58155 0.17605
#
# Static dielectric constant tensor:
#      x y z
#    x 1.885900 0.000000 -0.040320 
#    y 0.000000 1.579920 0.000000 
#    z -0.040320 0.000000 1.949590 
# 
# From -- ./inp_files/95740.got.cif
#   From: 2010.05.17/outbox.cif.g08.bks.cpg/sg12_48_cif.got.tgz:95740.got - 2010.06.03 13:09:07.
