data_PCOD9176484
_publ_section_title
;
Structure prediction by ZEFSAII (Michael W. Deem and Ramdas Pophale) SiO2 
 PCOD9176484
Probable space group: C 2/M
;
_chemical_formula_sum "Si O2"
_cell_formula_units_Z 40
_cell_length_a 11.236005
_cell_length_b 18.782367
_cell_length_c 9.925213
_cell_angle_alpha 90.000000
_cell_angle_beta 106.453698
_cell_angle_gamma 90.000000
_cell_volume 2008.828456
_symmetry_space_group_name_H-M "C 2/M"
_symmetry_group_IT_number 12
_symmetry_cell_setting 'monoclinic'
loop_
_space_group_symop_operation_xyz
x,y,z
-x,y,-z
-x,-y,-z
x,-y,z
1/2+x,1/2+y,z
1/2-x,1/2+y,-z
1/2-x,1/2-y,-z
1/2+x,1/2-y,z
loop_
_atom_site_type_symbol
_atom_site_label
_atom_site_fract_x
_atom_site_fract_y
_atom_site_fract_z
Si Si1 0.573719 0.919325 0.663942
Si Si2 0.139295 0.078191 0.495965
Si Si3 0.354390 0.778636 0.930708
Si Si4 0.768105 0.200072 0.638428
Si Si5 0.846203 0.582243 0.790709
O O1 0.500000 0.925278 0.500000
O O2 0.657593 0.849268 0.665064
O O3 0.473363 0.905973 0.748785
O O4 0.627023 0.000000 0.706044
O O5 0.142578 0.138220 0.385455
O O6 0.234366 0.094785 0.647933
O O7 0.000000 0.074138 0.500000
O O8 0.178288 0.000000 0.457839
O O9 0.320623 0.747507 0.773793
O O10 0.340265 0.863636 0.911521
O O11 0.500000 0.761542 0.000000
O O12 0.250000 0.750000 0.000000
O O13 0.750000 0.250000 0.500000
O O14 0.840146 0.500000 0.830176
#
# Coordination Sequence:
#
# PCOD9176484 Si02
#       5
#     8   8   8   8   8
#     4  10  18  34  64  99 127 154 211 280 324 367
#     4  10  21  37  63  97 129 162 213 271 321 380
#     4  12  28  46  64  96 139 177 215 269 331 396
#     4  12  23  39  67  95 128 168 214 268 328 387
#     4  10  21  42  68  94 125 169 220 272 327 385
#
# _framework density 19.912102000000001
#
# number of rings (size 3 to 8) (size 9 to 14) (size 15 to 20)
#    0.000    1.200    4.000    1.800    2.800    2.800 
#    0.000    2.000    0.000    3.000    0.000    0.000 
#    0.000    0.000    0.000    0.000    0.000    0.000 
#
# Total GULP energy -111540.186315 kJ/mol
# GULP energy per Si atom -5577.009316 kJ/mol
# Density = 1.986678 g / cm^3
# Si number density = 19.912102 Si / 1000 Ang^3
#
#
#
# Elastic Constant Matrix: (Units=GPa)
#
#
# Indices 1 2 3 4 5 6 
#
# 1 132.6232 55.5014 45.9812 0.0000 -8.3094 0.0000
# 2 55.5014 132.0438 52.7732 0.0000 -2.9839 0.0000
# 3 45.9812 52.7732 92.5798 0.0000 -4.7584 0.0000
# 4 0.0000 0.0000 0.0000 26.2258 0.0000 -29.5503
# 5 -8.3094 -2.9839 -4.7584 0.0000 24.7277 0.0000
# 6 0.0000 0.0000 0.0000 -29.5503 0.0000 50.0770
#
#
#
# Elastic Compliance Matrix: (Units=1/GPa)
#
#
# Indices 1 2 3 4 5 6 
#
# 1 0.010004 -0.002867 -0.003211 0.000000 0.002398 0.000000
# 2 -0.002867 0.010630 -0.004665 0.000000 -0.000578 0.000000
# 3 -0.003211 -0.004665 0.015120 0.000000 0.001268 0.000000
# 4 0.000000 0.000000 0.000000 0.113789 0.000000 0.067147
# 5 0.002398 -0.000578 0.001268 0.000000 0.041420 0.000000
# 6 0.000000 0.000000 0.000000 0.067147 0.000000 0.059592
#
#
# Mechanical properties :
#
#
# Convention : Reuss Voigt Hill
#
# Bulk Modulus (GPa) = 70.08772 73.97313 72.03043
# Shear Modulus (GPa) = 18.06377 33.73884 25.90131
#
# Velocity S-wave (km/s) = 3.01520 4.12076 3.61055
# Velocity P-wave (km/s) = 6.88454 7.73766 7.32353
#
# Compressibility (1/GPa) = 0.01426783
#
# Stress axis : x y z
#
# Youngs Moduli (GPa) = 99.96500 94.07531 66.13571
#
# Poissons Ratio (x) = 0.26975 0.21234
# Poissons Ratio (y) = 0.28663 0.30852
# Poissons Ratio (z) = 0.32096 0.43885
#
# Static dielectric constant tensor:
#      x y z
#    x 1.723520 0.000000 0.000310 
#    y 0.000000 1.784090 0.000000 
#    z 0.000310 0.000000 1.666340 
# 
# From -- ./inp_files/47128.got.cif
#   From: 2010.05.17/outbox.cif.g08.bks.cpg/sg12_24_cif.got.tgz:47128.got - 2010.06.03 13:09:07.
