data_PCOD9176543
_publ_section_title
;
Structure prediction by ZEFSAII (Michael W. Deem and Ramdas Pophale) SiO2 
 PCOD9176543
Probable space group: C 2/M
;
_chemical_formula_sum "Si O2"
_cell_formula_units_Z 40
_cell_length_a 14.841242
_cell_length_b 17.960230
_cell_length_c 21.150643
_cell_angle_alpha 90.000000
_cell_angle_beta 159.795303
_cell_angle_gamma 90.000000
_cell_volume 1947.138220
_symmetry_space_group_name_H-M "C 2/M"
_symmetry_group_IT_number 12
_symmetry_cell_setting 'monoclinic'
loop_
_space_group_symop_operation_xyz
x,y,z
-x,y,-z
-x,-y,-z
x,-y,z
1/2+x,1/2+y,z
1/2-x,1/2+y,-z
1/2-x,1/2-y,-z
1/2+x,1/2-y,z
loop_
_atom_site_type_symbol
_atom_site_label
_atom_site_fract_x
_atom_site_fract_y
_atom_site_fract_z
Si Si1 0.015144 0.214041 0.203608
Si Si2 0.369345 0.580722 0.810866
Si Si3 0.691836 0.707839 0.800569
Si Si4 0.116722 0.614581 0.768047
Si Si5 0.361194 0.644769 0.468873
O O1 0.935522 0.178701 0.218488
O O2 0.133925 0.151317 0.236855
O O3 0.212702 0.281990 0.344201
O O4 0.750000 0.250000 0.000000
O O5 0.367506 0.500000 0.777751
O O6 0.146389 0.582849 0.717515
O O7 0.637632 0.589734 0.027832
O O8 0.638429 0.796392 0.770899
O O9 0.562519 0.673298 0.653889
O O10 0.000000 0.696838 0.000000
O O11 0.857866 0.599246 0.637342
O O12 0.500000 0.608287 0.500000
#
# Coordination Sequence:
#
# PCOD9176543 Si02
#       5
#     8   8   8   8   8
#     4  11  19  36  58  90 125 157 199 251 300 359
#     4  11  21  35  62  90 124 163 197 242 303 366
#     4  11  20  34  60  91 120 158 202 263 302 349
#     4  10  18  35  55  86 125 157 201 237 299 358
#     4  11  22  33  59  93 125 154 202 261 305 349
#
# _framework density 20.542967000000001
#
# number of rings (size 3 to 8) (size 9 to 14) (size 15 to 20)
#    0.000    1.200    6.000    6.000    0.000    0.000 
#    0.000    0.000    0.000   22.800    0.000    0.000 
#    0.000    0.000    0.000    0.000    0.000    0.000 
#
# Total GULP energy -111776.265105 kJ/mol
# GULP energy per Si atom -5588.813255 kJ/mol
# Density = 2.049621 g / cm^3
# Si number density = 20.542967 Si / 1000 Ang^3
#
#
#
# Elastic Constant Matrix: (Units=GPa)
#
#
# Indices 1 2 3 4 5 6 
#
# 1 155.1003 27.6036 34.9433 -0.9195 18.3048 0.2049
# 2 27.6036 62.2822 -2.7629 -2.7113 1.7133 0.5139
# 3 34.9433 -2.7629 79.4568 -4.8832 6.2525 0.9322
# 4 -0.9195 -2.7113 -4.8832 -539.3050 -0.8824 112.1583
# 5 18.3048 1.7133 6.2525 -0.8824 38.8176 0.2043
# 6 0.2049 0.5139 0.9322 112.1583 0.2043 -19.6416
#
#
#
# Elastic Compliance Matrix: (Units=1/GPa)
#
#
# Indices 1 2 3 4 5 6 
#
# 1 0.008280 -0.003737 -0.003519 0.000012 -0.003172 -0.000143
# 2 -0.003737 0.017789 0.002207 -0.000041 0.000619 0.000302
# 3 -0.003519 0.002207 0.014260 -0.000056 -0.000738 0.000370
# 4 0.000012 -0.000041 -0.000056 0.009887 -0.000067 0.056454
# 5 -0.003172 0.000619 -0.000738 -0.000067 0.027348 -0.000151
# 6 -0.000143 0.000302 0.000370 0.056454 -0.000151 0.271474
#
#
# Mechanical properties :
#
#
# Convention : Reuss Voigt Hill
#
# Bulk Modulus (GPa) = 33.07876 46.26749 39.67313
# Shear Modulus (GPa) = 13.54233 -88.22212 -37.33989
#
# Velocity S-wave (km/s) = 2.57031 -6.56037 -4.26801
# Velocity P-wave (km/s) = 4.99458 5.90028 2.22120
#
# Compressibility (1/GPa) = 0.03023088
#
# Stress axis : x y z
#
# Youngs Moduli (GPa) = 120.77365 56.21540 70.12533
#
# Poissons Ratio (x) = 0.21007 0.24679
# Poissons Ratio (y) = 0.45131 -0.15478
# Poissons Ratio (z) = 0.42504 -0.12408
#
# Static dielectric constant tensor:
#      x y z
#    x 1.784170 0.000000 0.017380 
#    y 0.000000 1.707450 -0.000020 
#    z 0.017380 -0.000020 1.741130 
# 
# From -- ./inp_files/60866.got.cif
#   From: 2010.05.17/outbox.cif.g08.bks.cpg/sg12_31_cif.got.tgz:60866.got - 2010.06.03 13:09:07.
