data_PCOD9176713
_publ_section_title
;
Structure prediction by ZEFSAII (Michael W. Deem and Ramdas Pophale) SiO2 
 PCOD9176713
Probable space group: C 2/M
;
_chemical_formula_sum "Si O2"
_cell_formula_units_Z 56
_cell_length_a 17.907822
_cell_length_b 15.107465
_cell_length_c 20.851379
_cell_angle_alpha 90.000000
_cell_angle_beta 32.257939
_cell_angle_gamma 90.000000
_cell_volume 3010.870958
_symmetry_space_group_name_H-M "C 2/M"
_symmetry_group_IT_number 12
_symmetry_cell_setting 'monoclinic'
loop_
_space_group_symop_operation_xyz
x,y,z
-x,y,-z
-x,-y,-z
x,-y,z
1/2+x,1/2+y,z
1/2-x,1/2+y,-z
1/2-x,1/2-y,-z
1/2+x,1/2-y,z
loop_
_atom_site_type_symbol
_atom_site_label
_atom_site_fract_x
_atom_site_fract_y
_atom_site_fract_z
Si Si1 0.845005 0.833951 0.118826
Si Si2 0.141209 0.635122 0.936986
Si Si3 0.498130 0.900383 0.834206
Si Si4 0.932058 0.401363 0.734342
Si Si5 0.747977 0.769381 0.689134
Si Si6 0.584307 0.601234 0.342448
Si Si7 0.873328 0.249678 0.462482
O O1 0.850443 0.741209 0.075614
O O2 0.725696 0.893556 0.175452
O O3 0.799972 0.802008 0.222944
O O4 0.000000 0.872379 0.000000
O O5 0.282265 0.600003 0.802527
O O6 0.118930 0.607247 0.026006
O O7 0.000000 0.608562 0.000000
O O8 0.442570 0.886567 0.803032
O O9 0.614606 0.828685 0.767115
O O10 0.558485 0.000000 0.793912
O O11 0.987649 0.500000 0.680850
O O12 0.017858 0.325013 0.636754
O O13 0.857467 0.837156 0.642454
O O14 0.812751 0.731962 0.577139
O O15 0.549822 0.500000 0.384580
O O16 0.454841 0.655735 0.406753
O O17 0.750000 0.250000 0.500000
#
# Coordination Sequence:
#
# PCOD9176713 Si02
#       7
#     8   8   8   8   8   8   8
#     4  10  20  41  64  94 117 160 210 253 310 361
#     4  10  18  35  61  96 131 159 190 244 311 383
#     4  11  21  35  61  97 127 163 203 245 314 385
#     4  11  25  44  64  88 123 169 215 258 307 359
#     4  11  21  37  65  92 123 159 205 251 310 376
#     4  11  23  38  64  98 128 158 198 252 315 377
#     4  12  25  43  60  86 126 167 209 256 304 361
#
# _framework density 18.599270000000001
#
# number of rings (size 3 to 8) (size 9 to 14) (size 15 to 20)
#    0.000    1.143    8.571    1.286    0.000    3.714 
#    2.571    1.429    0.000    0.000    0.000    0.000 
#    0.000    0.000    0.000    0.000    0.000    0.000 
#
# Total GULP energy -156356.939210 kJ/mol
# GULP energy per Si atom -5584.176400 kJ/mol
# Density = 1.855694 g / cm^3
# Si number density = 18.599270 Si / 1000 Ang^3
#
#
#
# Elastic Constant Matrix: (Units=GPa)
#
#
# Indices 1 2 3 4 5 6 
#
# 1 111.7102 35.3696 52.3689 0.0000 4.1739 0.0000
# 2 35.3696 49.9299 21.0141 0.0000 6.1278 0.0000
# 3 52.3689 21.0141 96.5149 0.0004 11.1591 -0.0002
# 4 0.0000 0.0000 0.0004 -2.0608 0.0000 3.7636
# 5 4.1739 6.1278 11.1591 0.0000 41.6713 -0.0001
# 6 0.0000 0.0000 -0.0002 3.7636 -0.0001 16.2602
#
#
#
# Elastic Compliance Matrix: (Units=1/GPa)
#
#
# Indices 1 2 3 4 5 6 
#
# 1 0.014232 -0.007632 -0.006218 -0.000001 0.001362 0.000000
# 2 -0.007632 0.026307 -0.001267 0.000000 -0.002765 0.000000
# 3 -0.006218 -0.001267 0.014362 0.000002 -0.003037 0.000000
# 4 -0.000001 0.000000 0.000002 -0.341079 0.000000 0.078945
# 5 0.001362 -0.002765 -0.003037 0.000000 0.025081 0.000000
# 6 0.000000 0.000000 0.000000 0.078945 0.000000 0.043227
#
#
# Mechanical properties :
#
#
# Convention : Reuss Voigt Hill
#
# Bulk Modulus (GPa) = 40.54008 52.85115 46.69561
# Shear Modulus (GPa) = -27.86872 21.13432 -3.36720
#
# Velocity S-wave (km/s) = -3.87509 3.37456 -1.34697
# Velocity P-wave (km/s) = 1.34988 6.60764 4.76881
#
# Compressibility (1/GPa) = 0.02466695
#
# Stress axis : x y z
#
# Youngs Moduli (GPa) = 70.26243 38.01256 69.62787
#
# Poissons Ratio (x) = 0.29011 0.43296
# Poissons Ratio (y) = 0.53625 0.08822
# Poissons Ratio (z) = 0.43691 0.04816
#
# Static dielectric constant tensor:
#      x y z
#    x 1.636040 0.000000 -0.006470 
#    y 0.000000 1.636380 0.000000 
#    z -0.006470 0.000000 1.667690 
# 
# From -- ./inp_files/316703.got.cif
#   From: 2010.05.17/outbox.cif.g08.bks.cpg/sg12_159_cif.got.tgz:316703.got - 2010.06.03 13:09:07.
