data_PCOD9176486
_publ_section_title
;
Structure prediction by ZEFSAII (Michael W. Deem and Ramdas Pophale) SiO2 
 PCOD9176486
Probable space group: C 2/M
;
_chemical_formula_sum "Si O2"
_cell_formula_units_Z 40
_cell_length_a 11.235246
_cell_length_b 22.187334
_cell_length_c 16.842016
_cell_angle_alpha 90.000000
_cell_angle_beta 156.682924
_cell_angle_gamma 90.000000
_cell_volume 1661.799608
_symmetry_space_group_name_H-M "C 2/M"
_symmetry_group_IT_number 12
_symmetry_cell_setting 'monoclinic'
loop_
_space_group_symop_operation_xyz
x,y,z
-x,y,-z
-x,-y,-z
x,-y,z
1/2+x,1/2+y,z
1/2-x,1/2+y,-z
1/2-x,1/2-y,-z
1/2+x,1/2-y,z
loop_
_atom_site_type_symbol
_atom_site_label
_atom_site_fract_x
_atom_site_fract_y
_atom_site_fract_z
Si Si1 0.157634 0.771095 0.819626
Si Si2 0.324794 0.604601 0.103691
Si Si3 0.187615 0.660146 0.421805
Si Si4 0.256255 0.567717 0.779397
Si Si5 0.651560 0.430324 0.694887
O O1 0.134835 0.823116 0.871046
O O2 0.017751 0.706330 0.752535
O O3 0.949051 0.799245 0.621982
O O4 0.500000 0.766377 0.000000
O O5 0.561320 0.574800 0.190197
O O6 0.357209 0.581153 0.214159
O O7 0.982669 0.590031 0.872049
O O8 0.369994 0.607515 0.491835
O O9 0.973876 0.623111 0.351302
O O10 0.120081 0.500000 0.700190
O O11 0.500000 0.572305 0.000000
O O12 0.616456 0.500000 0.657779
#
# Coordination Sequence:
#
# PCOD9176486 Si02
#       5
#     8   8   8   8   8
#     4  10  19  39  66  90 130 164 215 268 319 387
#     4  10  19  38  66  96 126 168 212 270 329 375
#     4  10  21  37  63  92 130 168 210 262 321 388
#     4  11  24  42  63  94 136 175 213 262 330 397
#     4  10  18  34  65  99 127 161 215 274 325 380
#
# _framework density 24.07029
#
# number of rings (size 3 to 8) (size 9 to 14) (size 15 to 20)
#    0.000    1.800    4.000    3.600    0.000    3.200 
#    0.000   10.000   13.200    3.600    0.000    0.000 
#    0.000    0.000    0.000    0.000    0.000    0.000 
#
# Total GULP energy -111886.711757 kJ/mol
# GULP energy per Si atom -5594.335588 kJ/mol
# Density = 2.401550 g / cm^3
# Si number density = 24.070290 Si / 1000 Ang^3
#
#
#
# Elastic Constant Matrix: (Units=GPa)
#
#
# Indices 1 2 3 4 5 6 
#
# 1 74.1131 10.8691 34.5021 -0.1244 2.8401 0.0341
# 2 10.8691 203.9305 67.9473 0.0700 11.5920 -0.0155
# 3 34.5021 67.9473 125.4252 0.3207 6.4850 -0.0929
# 4 -0.1244 0.0700 0.3207 26.5392 -0.0656 6.9391
# 5 2.8401 11.5920 6.4850 -0.0656 36.9980 0.0136
# 6 0.0341 -0.0155 -0.0929 6.9391 0.0136 -0.5571
#
#
#
# Elastic Compliance Matrix: (Units=1/GPa)
#
#
# Indices 1 2 3 4 5 6 
#
# 1 0.015575 0.000759 -0.004663 -0.000075 -0.000616 0.000766
# 2 0.000759 0.006085 -0.003435 -0.000020 -0.001363 0.000173
# 3 -0.004663 -0.003435 0.011142 0.000092 -0.000518 -0.000919
# 4 -0.000075 -0.000020 0.000092 0.008852 -0.000029 0.110250
# 5 -0.000616 -0.001363 -0.000518 -0.000029 0.027593 0.000398
# 6 0.000766 0.000173 -0.000919 0.110250 0.000398 -0.421601
#
#
# Mechanical properties :
#
#
# Convention : Reuss Voigt Hill
#
# Bulk Modulus (GPa) = 55.17237 70.01175 62.59206
# Shear Modulus (GPa) = -15.07688 31.93938 8.43125
#
# Velocity S-wave (km/s) = -2.50545 3.64664 1.87360
# Velocity P-wave (km/s) = 3.82118 6.84691 5.54444
#
# Compressibility (1/GPa) = 0.01812502
#
# Stress axis : x y z
#
# Youngs Moduli (GPa) = 64.20340 164.33782 89.75027
#
# Poissons Ratio (x) = -0.12467 0.41849
# Poissons Ratio (y) = -0.04870 0.30825
# Poissons Ratio (z) = 0.29937 0.56442
#
# Static dielectric constant tensor:
#      x y z
#    x 1.956600 0.000020 -0.057350 
#    y 0.000020 1.915830 -0.000150 
#    z -0.057350 -0.000150 1.910980 
# 
# From -- ./inp_files/65092.got.cif
#   From: 2010.05.17/outbox.cif.g08.bks.cpg/sg12_33_cif.got.tgz:65092.got - 2010.06.03 13:09:07.
