data_PCOD9176138
_publ_section_title
;
Structure prediction by ZEFSAII (Michael W. Deem and Ramdas Pophale) SiO2 
 PCOD9176138
Probable space group: C 2/M
;
_chemical_formula_sum "Si O2"
_cell_formula_units_Z 64
_cell_length_a 12.979551
_cell_length_b 22.671901
_cell_length_c 10.669166
_cell_angle_alpha 90.000000
_cell_angle_beta 93.640909
_cell_angle_gamma 90.000000
_cell_volume 3133.290273
_symmetry_space_group_name_H-M "C 2/M"
_symmetry_group_IT_number 12
_symmetry_cell_setting 'monoclinic'
loop_
_space_group_symop_operation_xyz
x,y,z
-x,y,-z
-x,-y,-z
x,-y,z
1/2+x,1/2+y,z
1/2-x,1/2+y,-z
1/2-x,1/2-y,-z
1/2+x,1/2-y,z
loop_
_atom_site_type_symbol
_atom_site_label
_atom_site_fract_x
_atom_site_fract_y
_atom_site_fract_z
Si Si1 0.569108 0.759619 0.878474
Si Si2 0.424622 0.433375 0.092312
Si Si3 0.628138 0.779494 0.295472
Si Si4 0.885152 0.067051 0.721451
Si Si5 0.299425 0.351585 0.200951
Si Si6 0.618561 0.869158 0.514731
Si Si7 0.235234 0.332854 0.769393
Si Si8 0.814508 0.931173 0.438886
O O1 0.486736 0.770556 0.761760
O O2 0.624595 0.698343 0.846656
O O3 0.663874 0.806711 0.875308
O O4 0.500000 0.758651 0.000000
O O5 0.408098 0.500000 0.049555
O O6 0.498092 0.432471 0.220173
O O7 0.315796 0.404431 0.106937
O O8 0.500000 0.402316 0.000000
O O9 0.686930 0.825707 0.209953
O O10 0.630576 0.809790 0.431365
O O11 0.695316 0.720332 0.283070
O O12 0.815309 0.113493 0.791903
O O13 0.877336 0.079697 0.572383
O O14 0.846401 0.000000 0.735216
O O15 0.332196 0.380503 0.336724
O O16 0.500000 0.886935 0.500000
O O17 0.657061 0.854548 0.656283
O O18 0.695245 0.919014 0.467531
O O19 0.829706 0.000000 0.401178
#
# Coordination Sequence:
#
# PCOD9176138 Si02
#       8
#     8   8   8   8   8   8   8   8
#     4  11  23  37  55  81 109 146 188 224 267 322
#     4  10  20  34  54  80 109 146 188 224 267 321
#     4  10  21  36  53  80 111 140 182 224 269 326
#     4   9  19  36  57  82 112 141 181 228 269 326
#     4  10  21  35  55  76 109 144 178 229 274 320
#     4  10  18  34  56  79 113 141 177 223 269 327
#     4  10  20  35  57  79 107 147 179 223 278 322
#     4   9  19  35  55  83 112 140 179 221 275 330
#
# _framework density 20.425813000000002
#
# number of rings (size 3 to 8) (size 9 to 14) (size 15 to 20)
#    0.000    2.125    1.250    1.875    0.000    4.750 
#    0.000    3.125    0.000    0.375    0.000    0.000 
#    0.000    0.000    0.000    0.000    0.000    0.000 
#
# Total GULP energy -178397.740716 kJ/mol
# GULP energy per Si atom -5574.929397 kJ/mol
# Density = 2.037932 g / cm^3
# Si number density = 20.425813 Si / 1000 Ang^3
#
#
#
# Elastic Constant Matrix: (Units=GPa)
#
#
# Indices 1 2 3 4 5 6 
#
# 1 43.2087 -0.3848 -0.3860 0.0000 -12.6259 0.0000
# 2 -0.3848 60.1586 8.8854 0.0000 -16.4242 0.0000
# 3 -0.3860 8.8854 42.0243 0.0000 -17.0087 0.0000
# 4 0.0000 0.0000 0.0000 19.3915 0.0000 -12.8169
# 5 -12.6259 -16.4242 -17.0087 0.0000 33.4299 0.0000
# 6 0.0000 0.0000 0.0000 -12.8169 0.0000 -6.4665
#
#
#
# Elastic Compliance Matrix: (Units=1/GPa)
#
#
# Indices 1 2 3 4 5 6 
#
# 1 0.027591 0.003433 0.005576 0.000000 0.014944 0.000000
# 2 0.003433 0.019628 0.000389 0.000000 0.011138 0.000000
# 3 0.005576 0.000389 0.031098 0.000000 0.018120 0.000000
# 4 0.000000 0.000000 0.000000 0.022324 0.000000 -0.044247
# 5 0.014944 0.011138 0.018120 0.000000 0.050248 0.000000
# 6 0.000000 0.000000 0.000000 -0.044247 0.000000 -0.066944
#
#
# Mechanical properties :
#
#
# Convention : Reuss Voigt Hill
#
# Bulk Modulus (GPa) = 10.29728 17.95788 14.12758
# Shear Modulus (GPa) = 51.27161 18.42278 34.84720
#
# Velocity S-wave (km/s) = 5.01556 3.00648 4.13490
# Velocity P-wave (km/s) = 6.21236 4.56758 5.45235
#
# Compressibility (1/GPa) = 0.09711301
#
# Stress axis : x y z
#
# Youngs Moduli (GPa) = 36.24425 50.94774 32.15614
#
# Poissons Ratio (x) = -0.17489 -0.17930
# Poissons Ratio (y) = -0.12442 -0.01252
# Poissons Ratio (z) = -0.20209 -0.01984
#
# Static dielectric constant tensor:
#      x y z
#    x 1.715080 0.000000 -0.021440 
#    y 0.000000 1.749940 0.000000 
#    z -0.021440 0.000000 1.795060 
# 
# From -- ./inp_files/135336.got.cif
#   From: 2010.05.17/outbox.cif.g08.bks.cpg/sg12_68_cif.got.tgz:135336.got - 2010.06.03 13:09:07.
