data_PCOD9176690
_publ_section_title
;
Structure prediction by ZEFSAII (Michael W. Deem and Ramdas Pophale) SiO2 
 PCOD9176690
Probable space group: C 2/M
;
_chemical_formula_sum "Si O2"
_cell_formula_units_Z 56
_cell_length_a 15.627706
_cell_length_b 8.600972
_cell_length_c 24.370524
_cell_angle_alpha 90.000000
_cell_angle_beta 116.424138
_cell_angle_gamma 90.000000
_cell_volume 2933.492878
_symmetry_space_group_name_H-M "C 2/M"
_symmetry_group_IT_number 12
_symmetry_cell_setting 'monoclinic'
loop_
_space_group_symop_operation_xyz
x,y,z
-x,y,-z
-x,-y,-z
x,-y,z
1/2+x,1/2+y,z
1/2-x,1/2+y,-z
1/2-x,1/2-y,-z
1/2+x,1/2-y,z
loop_
_atom_site_type_symbol
_atom_site_label
_atom_site_fract_x
_atom_site_fract_y
_atom_site_fract_z
Si Si1 0.093217 0.184039 0.488086
Si Si2 0.759413 0.189609 0.379110
Si Si3 0.847929 0.185797 0.289100
Si Si4 0.230026 0.813841 0.153772
Si Si5 0.021291 0.312287 0.069288
Si Si6 0.555766 0.815424 0.358061
Si Si7 0.676359 0.187883 0.933767
O O1 0.182391 0.239147 0.550200
O O2 0.077625 0.274929 0.427616
O O3 0.000000 0.197999 0.500000
O O4 0.104370 0.000000 0.478452
O O5 0.811332 0.241346 0.338447
O O6 0.649248 0.236927 0.351165
O O7 0.762658 0.000000 0.380714
O O8 0.781318 0.250552 0.222335
O O9 0.957197 0.236663 0.312978
O O10 0.842745 0.000000 0.287549
O O11 0.121484 0.756493 0.117089
O O12 0.288154 0.761562 0.116008
O O13 0.231191 0.000000 0.155204
O O14 0.028080 0.500000 0.072918
O O15 0.930714 0.263565 0.080226
O O16 0.000000 0.267600 0.000000
O O17 0.545578 0.000000 0.348759
O O18 0.678577 0.000000 0.936118
O O19 0.750000 0.250000 0.000000
#
# Coordination Sequence:
#
# PCOD9176690 Si02
#       7
#     8   8   8   8   8   8   8
#     4  10  18  35  61  86 116 155 199 238 287 355
#     4   9  20  38  60  84 115 156 196 240 292 347
#     4  11  23  43  63  80 112 162 204 234 284 356
#     4  11  24  40  59  89 123 152 189 245 299 338
#     4  10  20  37  62  89 116 152 195 231 277 350
#     4  11  22  37  59  89 120 148 192 250 301 340
#     4  10  21  37  60  88 120 152 188 234 289 343
#
# _framework density 19.089870999999999
#
# number of rings (size 3 to 8) (size 9 to 14) (size 15 to 20)
#    0.000    1.714    2.857    1.714    0.000    2.857 
#    0.000    9.286    0.000    0.000    0.000    0.000 
#    0.000    0.000    0.000    0.000    0.000    0.000 
#
# Total GULP energy -156440.321407 kJ/mol
# GULP energy per Si atom -5587.154336 kJ/mol
# Density = 1.904642 g / cm^3
# Si number density = 19.089871 Si / 1000 Ang^3
#
#
#
# Elastic Constant Matrix: (Units=GPa)
#
#
# Indices 1 2 3 4 5 6 
#
# 1 126.4536 23.6292 44.3210 0.0000 34.1056 0.0000
# 2 23.6292 20.0379 20.5130 0.0000 7.2236 0.0000
# 3 44.3210 20.5130 116.2689 0.0000 33.7558 0.0000
# 4 0.0000 0.0000 0.0000 32.1690 0.0000 6.1165
# 5 34.1056 7.2236 33.7558 0.0000 27.5528 0.0000
# 6 0.0000 0.0000 0.0000 6.1165 0.0000 26.0036
#
#
#
# Elastic Compliance Matrix: (Units=1/GPa)
#
#
# Indices 1 2 3 4 5 6 
#
# 1 0.013959 -0.012218 0.001429 0.000000 -0.015826 0.000000
# 2 -0.012218 0.071938 -0.010786 0.000000 0.009478 0.000000
# 3 0.001429 -0.010786 0.014980 0.000000 -0.017294 0.000000
# 4 0.000000 0.000000 0.000000 0.032541 0.000000 -0.007654
# 5 -0.015826 0.009478 -0.017294 0.000000 0.074586 0.000000
# 6 0.000000 0.000000 0.000000 -0.007654 0.000000 0.040257
#
#
# Mechanical properties :
#
#
# Convention : Reuss Voigt Hill
#
# Bulk Modulus (GPa) = 17.32301 48.85407 33.08854
# Shear Modulus (GPa) = 16.09514 28.76490 22.43002
#
# Velocity S-wave (km/s) = 2.90681 3.88598 3.43150
# Velocity P-wave (km/s) = 4.51223 6.76621 5.75073
#
# Compressibility (1/GPa) = 0.05772670
#
# Stress axis : x y z
#
# Youngs Moduli (GPa) = 71.64011 13.90079 66.75763
#
# Poissons Ratio (x) = 0.16984 -0.09543
# Poissons Ratio (y) = 0.87532 0.72005
# Poissons Ratio (z) = -0.10241 0.14994
#
# Static dielectric constant tensor:
#      x y z
#    x 1.670840 0.000000 -0.008380 
#    y 0.000000 1.651770 0.000000 
#    z -0.008380 0.000000 1.624620 
# 
# From -- ./inp_files/339034.got.cif
#   From: 2010.05.17/outbox.cif.g08.bks.cpg/sg12_170_cif.got.tgz:339034.got - 2010.06.03 13:09:07.
