data_PCOD9176679
_publ_section_title
;
Structure prediction by ZEFSAII (Michael W. Deem and Ramdas Pophale) SiO2 
 PCOD9176679
Probable space group: C 2/M
;
_chemical_formula_sum "Si O2"
_cell_formula_units_Z 56
_cell_length_a 15.105577
_cell_length_b 7.590539
_cell_length_c 22.030310
_cell_angle_alpha 90.000000
_cell_angle_beta 59.609824
_cell_angle_gamma 90.000000
_cell_volume 2178.914603
_symmetry_space_group_name_H-M "C 2/M"
_symmetry_group_IT_number 12
_symmetry_cell_setting 'monoclinic'
loop_
_space_group_symop_operation_xyz
x,y,z
-x,y,-z
-x,-y,-z
x,-y,z
1/2+x,1/2+y,z
1/2-x,1/2+y,-z
1/2-x,1/2-y,-z
1/2+x,1/2-y,z
loop_
_atom_site_type_symbol
_atom_site_label
_atom_site_fract_x
_atom_site_fract_y
_atom_site_fract_z
Si Si1 0.843511 0.794699 0.547410
Si Si2 0.908911 0.792121 0.649988
Si Si3 0.876986 0.786705 0.397885
Si Si4 0.681691 0.301714 0.762636
Si Si5 0.755522 0.706043 0.135604
Si Si6 0.410866 0.712429 0.984893
Si Si7 0.459640 0.716680 0.830880
O O1 0.904345 0.716877 0.583075
O O2 0.860358 0.725566 0.473861
O O3 0.721611 0.782587 0.603471
O O4 0.871123 0.000000 0.533779
O O5 0.793807 0.776336 0.713617
O O6 0.006211 0.729241 0.655099
O O7 0.928374 0.000000 0.637376
O O8 0.868406 0.000000 0.396777
O O9 0.687106 0.500000 0.736992
O O10 0.675601 0.302303 0.838261
O O11 0.575014 0.222741 0.776033
O O12 0.755956 0.500000 0.151220
O O13 0.805330 0.726436 0.052191
O O14 0.638183 0.770542 0.174738
O O15 0.409955 0.500000 0.984555
O O16 0.500000 0.772697 0.000000
O O17 0.433277 0.770989 0.908929
O O18 0.462376 0.500000 0.827927
#
# Coordination Sequence:
#
# PCOD9176679 Si02
#       7
#     8   8   8   8   8   8   8
#     4   9  18  34  57  84 113 144 182 226 270 323
#     4  10  21  37  56  80 111 146 185 226 274 323
#     4   9  18  34  57  83 113 147 180 221 276 328
#     4  11  23  41  58  76 107 150 190 223 271 329
#     4  11  22  37  58  85 112 139 181 231 277 322
#     4  10  18  35  61  83 111 146 179 218 274 332
#     4   9  20  38  58  79 108 146 181 220 273 331
#
# _framework density 25.700869999999998
#
# number of rings (size 3 to 8) (size 9 to 14) (size 15 to 20)
#    0.000    2.143    1.429    1.714    0.000    4.286 
#    0.000    7.857    0.000    4.286    0.000    0.000 
#    0.000    0.000    0.000    0.000    0.000    0.000 
#
# Total GULP energy -156531.784255 kJ/mol
# GULP energy per Si atom -5590.420866 kJ/mol
# Density = 2.564237 g / cm^3
# Si number density = 25.700870 Si / 1000 Ang^3
#
#
#
# Elastic Constant Matrix: (Units=GPa)
#
#
# Indices 1 2 3 4 5 6 
#
# 1 171.8345 1.5552 26.4021 0.0000 -32.1436 0.0001
# 2 1.5552 60.6301 -5.4343 0.0001 -1.5488 0.0002
# 3 26.4021 -5.4343 75.4873 0.0000 -22.6802 0.0000
# 4 0.0000 0.0001 0.0000 13.5617 0.0000 -5.1275
# 5 -32.1436 -1.5488 -22.6802 0.0000 50.8510 0.0000
# 6 0.0001 0.0002 0.0000 -5.1275 0.0000 13.4613
#
#
#
# Elastic Compliance Matrix: (Units=1/GPa)
#
#
# Indices 1 2 3 4 5 6 
#
# 1 0.006701 -0.000191 -0.001255 0.000000 0.003670 0.000000
# 2 -0.000191 0.016670 0.001597 0.000000 0.001100 0.000000
# 3 -0.001255 0.001597 0.015678 0.000000 0.006248 0.000000
# 4 0.000000 0.000000 0.000000 0.086143 0.000000 0.032812
# 5 0.003670 0.001100 0.006248 0.000000 0.024806 0.000000
# 6 0.000000 0.000000 0.000000 0.032812 0.000000 0.086786
#
#
# Mechanical properties :
#
#
# Convention : Reuss Voigt Hill
#
# Bulk Modulus (GPa) = 25.41145 39.22198 32.31671
# Shear Modulus (GPa) = 20.03238 34.60340 27.31789
#
# Velocity S-wave (km/s) = 2.79488 3.67330 3.26378
# Velocity P-wave (km/s) = 4.50821 5.76931 5.17730
#
# Compressibility (1/GPa) = 0.03935234
#
# Stress axis : x y z
#
# Youngs Moduli (GPa) = 149.24063 59.98950 63.78217
#
# Poissons Ratio (x) = 0.01143 0.08002
# Poissons Ratio (y) = 0.02844 -0.10186
# Poissons Ratio (z) = 0.18723 -0.09581
#
# Static dielectric constant tensor:
#      x y z
#    x 2.021910 0.000000 -0.016860 
#    y 0.000000 1.999240 0.000000 
#    z -0.016860 0.000000 2.109730 
# 
# From -- ./inp_files/308956.got.cif
#   From: 2010.05.17/outbox.cif.g08.bks.cpg/sg12_155_cif.got.tgz:308956.got - 2010.06.03 13:09:07.
