data_PCOD9176535
_publ_section_title
;
Structure prediction by ZEFSAII (Michael W. Deem and Ramdas Pophale) SiO2 
 PCOD9176535
Probable space group: C 2/M
;
_chemical_formula_sum "Si O2"
_cell_formula_units_Z 56
_cell_length_a 24.019520
_cell_length_b 17.765346
_cell_length_c 7.810227
_cell_angle_alpha 90.000000
_cell_angle_beta 125.276553
_cell_angle_gamma 90.000000
_cell_volume 2720.763635
_symmetry_space_group_name_H-M "C 2/M"
_symmetry_group_IT_number 12
_symmetry_cell_setting 'monoclinic'
loop_
_space_group_symop_operation_xyz
x,y,z
-x,y,-z
-x,-y,-z
x,-y,z
1/2+x,1/2+y,z
1/2-x,1/2+y,-z
1/2-x,1/2-y,-z
1/2+x,1/2-y,z
loop_
_atom_site_type_symbol
_atom_site_label
_atom_site_fract_x
_atom_site_fract_y
_atom_site_fract_z
Si Si1 0.333770 0.082367 0.831269
Si Si2 0.520164 0.246919 0.844210
Si Si3 0.024090 0.417807 0.739029
Si Si4 0.340463 0.750180 0.763918
Si Si5 0.204678 0.084849 0.847905
Si Si6 0.887468 0.209079 0.478426
Si Si7 0.272673 0.805292 0.194135
O O1 0.341247 0.159143 0.737551
O O2 0.261875 0.087298 0.800457
O O3 0.338254 0.000000 0.751980
O O4 0.394357 0.082859 0.080643
O O5 0.502231 0.158480 0.792954
O O6 0.468624 0.287995 0.626254
O O7 0.500000 0.269109 0.000000
O O8 0.600965 0.260595 0.984956
O O9 0.999808 0.500000 0.761561
O O10 0.000000 0.412794 0.500000
O O11 0.361882 0.706692 0.630979
O O12 0.269626 0.722375 0.716517
O O13 0.145324 0.141750 0.686688
O O14 0.180580 0.000000 0.826364
O O15 0.245241 0.114559 0.086522
O O16 0.852328 0.287301 0.354067
O O17 0.250000 0.750000 0.000000
#
# Coordination Sequence:
#
# PCOD9176535 Si02
#       7
#     8   8   8   8   8   8   8
#     4   9  17  30  49  74 107 141 169 206 257 308
#     4   9  20  33  50  77 105 135 175 213 258 307
#     4   9  18  29  46  71 104 141 176 204 247 308
#     4  10  18  35  55  78 108 141 175 219 256 311
#     4  10  21  36  53  75 108 137 171 220 272 312
#     4  10  20  34  57  79 103 138 180 215 258 312
#     4  10  19  32  53  77 103 135 173 215 259 305
#
# _framework density 20.582457000000002
#
# number of rings (size 3 to 8) (size 9 to 14) (size 15 to 20)
#    0.000    2.429    2.857    0.429    2.000    1.429 
#    0.000    3.571    0.000    5.571    0.000    0.000 
#    0.000    0.000    0.000    0.000    0.000    0.000 
#
# Total GULP energy -156025.329560 kJ/mol
# GULP energy per Si atom -5572.333199 kJ/mol
# Density = 2.053561 g / cm^3
# Si number density = 20.582457 Si / 1000 Ang^3
#
#
#
# Elastic Constant Matrix: (Units=GPa)
#
#
# Indices 1 2 3 4 5 6 
#
# 1 28.6517 1.0208 6.2548 0.0000 -0.1732 0.0000
# 2 1.0208 104.1417 34.9633 0.0000 7.7372 0.0000
# 3 6.2548 34.9633 90.6574 0.0000 22.4543 0.0000
# 4 0.0000 0.0000 0.0000 24.9504 0.0000 2.8084
# 5 -0.1732 7.7372 22.4543 0.0000 37.8449 0.0000
# 6 0.0000 0.0000 0.0000 2.8084 0.0000 17.0412
#
#
#
# Elastic Compliance Matrix: (Units=1/GPa)
#
#
# Indices 1 2 3 4 5 6 
#
# 1 0.035580 0.000566 -0.003147 0.000000 0.001915 0.000000
# 2 0.000566 0.011043 -0.004383 0.000000 0.000346 0.000000
# 3 -0.003147 -0.004383 0.014911 0.000000 -0.007965 0.000000
# 4 0.000000 0.000000 0.000000 0.040837 0.000000 -0.006730
# 5 0.001915 0.000346 -0.007965 0.000000 0.031088 0.000000
# 6 0.000000 0.000000 0.000000 -0.006730 0.000000 0.059790
#
#
# Mechanical properties :
#
#
# Convention : Reuss Voigt Hill
#
# Bulk Modulus (GPa) = 21.00656 34.21431 27.61043
# Shear Modulus (GPa) = 22.41677 28.04810 25.23243
#
# Velocity S-wave (km/s) = 3.30376 3.69551 3.50511
# Velocity P-wave (km/s) = 4.97809 5.90493 5.46120
#
# Compressibility (1/GPa) = 0.04760418
#
# Stress axis : x y z
#
# Youngs Moduli (GPa) = 28.10535 90.55743 67.06413
#
# Poissons Ratio (x) = -0.05122 0.21106
# Poissons Ratio (y) = -0.01590 0.29397
# Poissons Ratio (z) = 0.08845 0.39695
#
# Static dielectric constant tensor:
#      x y z
#    x 1.742290 0.000000 0.008960 
#    y 0.000000 1.752740 0.000000 
#    z 0.008960 0.000000 1.813470 
# 
# From -- ./inp_files/87229.got.cif
#   From: 2010.05.17/outbox.cif.g08.bks.cpg/sg12_44_cif.got.tgz:87229.got - 2010.06.03 13:09:07.
