data_PCOD9176181
_publ_section_title
;
Structure prediction by ZEFSAII (Michael W. Deem and Ramdas Pophale) SiO2 
 PCOD9176181
Probable space group: C 2/M
;
_chemical_formula_sum "Si O2"
_cell_formula_units_Z 56
_cell_length_a 16.997666
_cell_length_b 16.205194
_cell_length_c 17.194505
_cell_angle_alpha 90.000000
_cell_angle_beta 30.132105
_cell_angle_gamma 90.000000
_cell_volume 2377.568136
_symmetry_space_group_name_H-M "C 2/M"
_symmetry_group_IT_number 12
_symmetry_cell_setting 'monoclinic'
loop_
_space_group_symop_operation_xyz
x,y,z
-x,y,-z
-x,-y,-z
x,-y,z
1/2+x,1/2+y,z
1/2-x,1/2+y,-z
1/2-x,1/2-y,-z
1/2+x,1/2-y,z
loop_
_atom_site_type_symbol
_atom_site_label
_atom_site_fract_x
_atom_site_fract_y
_atom_site_fract_z
Si Si1 0.970284 0.858639 0.433331
Si Si2 0.363025 0.089392 0.691705
Si Si3 0.885384 0.632779 0.257189
Si Si4 0.392533 0.178886 0.428437
Si Si5 0.661563 0.341083 0.991925
Si Si6 0.825029 0.809284 0.264727
Si Si7 0.733531 0.855091 0.922096
O O1 0.133098 0.887800 0.252085
O O2 0.000000 0.852914 0.500000
O O3 0.794873 0.902055 0.577709
O O4 0.947747 0.768029 0.412812
O O5 0.530771 0.109047 0.583778
O O6 0.302964 0.159092 0.685179
O O7 0.347168 0.000000 0.669682
O O8 0.262796 0.098681 0.854501
O O9 0.925532 0.661473 0.311094
O O10 0.849431 0.712194 0.234808
O O11 0.056976 0.603696 0.077520
O O12 0.214748 0.177722 0.609879
O O13 0.486066 0.353904 0.113931
O O14 0.690333 0.358813 0.057323
O O15 0.703952 0.244557 0.937575
#
# Coordination Sequence:
#
# PCOD9176181 Si02
#       7
#     8   8   8   8   8   8   8
#     4  11  20  31  52  85 116 139 173 238 306 349
#     4  12  24  37  53  79 121 164 195 228 276 346
#     4  10  20  34  56  80 104 151 200 240 290 330
#     4  11  19  36  53  74 108 153 202 236 274 337
#     4  10  19  35  53  75 103 152 197 236 276 338
#     4  10  21  32  52  77 106 149 193 242 287 329
#     4  10  18  34  57  76 107 149 190 240 292 332
#
# _framework density 23.55348
#
# number of rings (size 3 to 8) (size 9 to 14) (size 15 to 20)
#    0.000    1.429    2.857    6.857    0.000    2.857 
#    0.000    0.000    0.000    0.000    0.000    0.000 
#    0.000    3.429    0.000    3.429    0.000    6.286 
#
# Total GULP energy -155946.841750 kJ/mol
# GULP energy per Si atom -5569.530062 kJ/mol
# Density = 2.349987 g / cm^3
# Si number density = 23.553480 Si / 1000 Ang^3
#
#
#
# Elastic Constant Matrix: (Units=GPa)
#
#
# Indices 1 2 3 4 5 6 
#
# 1 91.3950 17.9055 46.4310 -0.0002 5.6671 -0.0001
# 2 17.9055 47.1006 -0.0786 -0.0010 3.8340 0.0009
# 3 46.4310 -0.0786 196.5713 -0.0008 -5.6435 0.0015
# 4 -0.0002 -0.0010 -0.0008 -16.2749 0.0008 3.7514
# 5 5.6671 3.8340 -5.6435 0.0008 40.3101 -0.0007
# 6 -0.0001 0.0009 0.0015 3.7514 -0.0007 -3.8125
#
#
#
# Elastic Compliance Matrix: (Units=1/GPa)
#
#
# Indices 1 2 3 4 5 6 
#
# 1 0.013730 -0.005069 -0.003300 0.000000 -0.001910 -0.000003
# 2 -0.005069 0.023269 0.001168 0.000000 -0.001337 0.000007
# 3 -0.003300 0.001168 0.005901 0.000000 0.001179 0.000003
# 4 0.000000 0.000000 0.000000 -0.079469 0.000000 -0.078195
# 5 -0.001910 -0.001337 0.001179 0.000000 0.025368 -0.000004
# 6 -0.000003 0.000007 0.000003 -0.078195 -0.000004 -0.339237
#
#
# Mechanical properties :
#
#
# Convention : Reuss Voigt Hill
#
# Bulk Modulus (GPa) = 35.09042 51.50918 43.29980
# Shear Modulus (GPa) = -15.31220 22.09849 3.39314
#
# Velocity S-wave (km/s) = -2.55248 3.06637 1.20156
# Velocity P-wave (km/s) = 2.49873 5.86970 4.51093
#
# Compressibility (1/GPa) = 0.02849781
#
# Stress axis : x y z
#
# Youngs Moduli (GPa) = 72.83584 42.97546 169.46394
#
# Poissons Ratio (x) = 0.21786 0.55920
# Poissons Ratio (y) = 0.36923 -0.19799
# Poissons Ratio (z) = 0.24035 -0.05021
#
# Static dielectric constant tensor:
#      x y z
#    x 1.851620 0.000000 -0.033940 
#    y 0.000000 1.880090 0.000000 
#    z -0.033940 0.000000 2.038580 
# 
# From -- ./inp_files/278979.got.cif
#   From: 2010.05.17/outbox.cif.g08.bks.cpg/sg12_140_cif.got.tgz:278979.got - 2010.06.03 13:09:07.
