data_PCOD9176330
_publ_section_title
;
Structure prediction by ZEFSAII (Michael W. Deem and Ramdas Pophale) SiO2 
 PCOD9176330
Probable space group: C 2/M
;
_chemical_formula_sum "Si O2"
_cell_formula_units_Z 36
_cell_length_a 24.353878
_cell_length_b 7.946264
_cell_length_c 23.863622
_cell_angle_alpha 90.000000
_cell_angle_beta 18.446298
_cell_angle_gamma 90.000000
_cell_volume 1461.253174
_symmetry_space_group_name_H-M "C 2/M"
_symmetry_group_IT_number 12
_symmetry_cell_setting 'monoclinic'
loop_
_space_group_symop_operation_xyz
x,y,z
-x,y,-z
-x,-y,-z
x,-y,z
1/2+x,1/2+y,z
1/2-x,1/2+y,-z
1/2-x,1/2-y,-z
1/2+x,1/2-y,z
loop_
_atom_site_type_symbol
_atom_site_label
_atom_site_fract_x
_atom_site_fract_y
_atom_site_fract_z
Si Si1 0.000000 0.740778 0.000000
Si Si2 0.451934 0.701571 0.814243
Si Si3 0.954083 0.194189 0.393419
Si Si4 0.337743 0.692535 0.038164
Si Si5 0.175304 0.306489 0.365304
O O1 0.081911 0.811386 0.978397
O O2 0.179444 0.681048 0.798269
O O3 0.470934 0.500000 0.791986
O O4 0.558317 0.768256 0.657740
O O5 0.250000 0.750000 0.000000
O O6 0.472823 0.751020 0.859049
O O7 0.160969 0.202458 0.206812
O O8 0.862639 0.288902 0.532510
O O9 0.898216 0.000000 0.448326
O O10 0.287313 0.500000 0.072857
O O11 0.234526 0.500000 0.296906
O O12 0.000000 0.281889 0.500000
#
# Coordination Sequence:
#
# PCOD9176330 Si02
#       5
#     4   8   8   8   8
#     4  12  23  38  61  88 113 144 193 242 281 328
#     4   8  16  30  53  81 110 146 186 229 276 328
#     4  10  20  36  56  83 117 151 187 229 283 340
#     4  10  18  34  59  85 113 148 191 236 278 327
#     4  11  22  38  60  84 112 148 192 236 278 331
#
# _framework density 24.636388
#
# number of rings (size 3 to 8) (size 9 to 14) (size 15 to 20)
#    0.000    2.000    2.222    2.667    0.000    1.333 
#    0.000    3.333    0.000    0.000    0.000    0.000 
#    0.000    0.000    0.000    0.000    0.000    0.000 
#
# Total GULP energy -100285.315025 kJ/mol
# GULP energy per Si atom -5571.406390 kJ/mol
# Density = 2.458031 g / cm^3
# Si number density = 24.636388 Si / 1000 Ang^3
#
#
#
# Elastic Constant Matrix: (Units=GPa)
#
#
# Indices 1 2 3 4 5 6 
#
# 1 142.0966 10.4713 72.7112 -0.0023 53.3631 0.0002
# 2 10.4713 65.1949 22.2776 -0.0181 6.8130 0.0074
# 3 72.7112 22.2776 148.8268 -0.0164 45.3045 0.0078
# 4 -0.0023 -0.0181 -0.0164 -3.5787 0.0072 16.1644
# 5 53.3631 6.8130 45.3045 0.0072 67.3448 -0.0019
# 6 0.0002 0.0074 0.0078 16.1644 -0.0019 -1.8780
#
#
#
# Elastic Compliance Matrix: (Units=1/GPa)
#
#
# Indices 1 2 3 4 5 6 
#
# 1 0.011317 0.000079 -0.003532 0.000001 -0.006600 0.000001
# 2 0.000079 0.016166 -0.002441 -0.000005 -0.000055 0.000015
# 3 -0.003532 -0.002441 0.009913 -0.000003 -0.003623 0.000008
# 4 0.000001 -0.000005 -0.000003 0.007377 0.000003 0.063498
# 5 -0.006600 -0.000055 -0.003623 0.000003 0.022521 -0.000014
# 6 0.000001 0.000015 0.000008 0.063498 -0.000014 0.014058
#
#
# Mechanical properties :
#
#
# Convention : Reuss Voigt Hill
#
# Bulk Modulus (GPa) = 39.05135 63.00426 51.02781
# Shear Modulus (GPa) = 49.17462 29.08819 39.13141
#
# Velocity S-wave (km/s) = 4.47253 3.43986 3.98974
# Velocity P-wave (km/s) = 6.52356 6.43475 6.47931
#
# Compressibility (1/GPa) = 0.02560731
#
# Stress axis : x y z
#
# Youngs Moduli (GPa) = 88.35900 61.85812 100.87523
#
# Poissons Ratio (x) = -0.00488 0.35630
# Poissons Ratio (y) = -0.00697 0.24629
# Poissons Ratio (z) = 0.31209 0.15103
#
# Static dielectric constant tensor:
#      x y z
#    x 1.950030 0.000000 0.035970 
#    y 0.000000 1.940280 0.000000 
#    z 0.035970 0.000000 1.974570 
# 
# From -- ./inp_files/351191.got.cif
#   From: 2010.05.17/outbox.cif.g08.bks.cpg/sg12_176_cif.got.tgz:351191.got - 2010.06.03 13:09:07.
