data_PCOD9176592
_publ_section_title
;
Structure prediction by ZEFSAII (Michael W. Deem and Ramdas Pophale) SiO2 
 PCOD9176592
Probable space group: C 2/M
;
_chemical_formula_sum "Si O2"
_cell_formula_units_Z 40
_cell_length_a 17.098682
_cell_length_b 26.853477
_cell_length_c 7.282877
_cell_angle_alpha 90.000000
_cell_angle_beta 142.403327
_cell_angle_gamma 90.000000
_cell_volume 2040.170962
_symmetry_space_group_name_H-M "C 2/M"
_symmetry_group_IT_number 12
_symmetry_cell_setting 'monoclinic'
loop_
_space_group_symop_operation_xyz
x,y,z
-x,y,-z
-x,-y,-z
x,-y,z
1/2+x,1/2+y,z
1/2-x,1/2+y,-z
1/2-x,1/2-y,-z
1/2+x,1/2-y,z
loop_
_atom_site_type_symbol
_atom_site_label
_atom_site_fract_x
_atom_site_fract_y
_atom_site_fract_z
Si Si1 0.762186 0.817519 0.688804
Si Si2 0.360125 0.377563 0.187656
Si Si3 0.760010 0.207286 0.276447
Si Si4 0.486665 0.848570 0.251509
Si Si5 0.624606 0.944266 0.864395
O O1 0.808436 0.803508 0.572706
O O2 0.729108 0.766084 0.734472
O O3 0.625731 0.844845 0.425493
O O4 0.854448 0.852500 0.977153
O O5 0.500000 0.396639 0.500000
O O6 0.325003 0.331405 0.258414
O O7 0.249285 0.419288 0.001184
O O8 0.608729 0.194726 0.986344
O O9 0.500000 0.845596 0.500000
O O10 0.419397 0.901016 0.078858
O O11 0.500000 0.948035 0.500000
O O12 0.651842 0.000000 0.982601
#
# Coordination Sequence:
#
# PCOD9176592 Si02
#       5
#     8   8   8   8   8
#     4  11  21  36  53  80 117 154 191 228 275 332
#     4  11  23  37  57  83 115 150 187 236 283 333
#     4  10  23  34  54  80 114 158 191 226 274 335
#     4  10  18  35  58  84 108 147 190 238 276 328
#     4   9  17  36  63  86 107 143 192 236 289 340
#
# _framework density 19.606200999999999
#
# number of rings (size 3 to 8) (size 9 to 14) (size 15 to 20)
#    0.000    1.800    6.000    1.200    2.800    1.200 
#    0.000    0.000    0.000   14.400    0.000    7.000 
#    0.000    0.000    0.000    0.000    0.000    0.000 
#
# Total GULP energy -111511.826250 kJ/mol
# GULP energy per Si atom -5575.591313 kJ/mol
# Density = 1.956158 g / cm^3
# Si number density = 19.606201 Si / 1000 Ang^3
#
#
#
# Elastic Constant Matrix: (Units=GPa)
#
#
# Indices 1 2 3 4 5 6 
#
# 1 29.1459 8.9984 18.0307 0.0000 -5.1653 0.0000
# 2 8.9984 115.6456 29.0002 0.0000 3.0123 0.0000
# 3 18.0307 29.0002 96.1331 0.0000 16.7984 0.0000
# 4 0.0000 0.0000 0.0000 12.2868 0.0000 2.6979
# 5 -5.1653 3.0123 16.7984 0.0000 26.1793 0.0000
# 6 0.0000 0.0000 0.0000 2.6979 0.0000 7.0833
#
#
#
# Elastic Compliance Matrix: (Units=1/GPa)
#
#
# Indices 1 2 3 4 5 6 
#
# 1 0.044026 -0.001165 -0.010640 0.000000 0.015648 0.000000
# 2 -0.001165 0.009402 -0.002690 0.000000 0.000414 0.000000
# 3 -0.010640 -0.002690 0.015230 0.000000 -0.011562 0.000000
# 4 0.000000 0.000000 0.000000 0.088816 0.000000 -0.033828
# 5 0.015648 0.000414 -0.011562 0.000000 0.048657 0.000000
# 6 0.000000 0.000000 0.000000 -0.033828 0.000000 0.154063
#
#
# Mechanical properties :
#
#
# Convention : Reuss Voigt Hill
#
# Bulk Modulus (GPa) = 25.21040 39.22037 32.21538
# Shear Modulus (GPa) = 12.42527 21.43621 16.93074
#
# Velocity S-wave (km/s) = 2.52015 3.31015 2.94179
# Velocity P-wave (km/s) = 4.62110 5.88702 5.29205
#
# Compressibility (1/GPa) = 0.03966617
#
# Stress axis : x y z
#
# Youngs Moduli (GPa) = 22.71409 106.36555 65.66039
#
# Poissons Ratio (x) = 0.12391 0.69865
# Poissons Ratio (y) = 0.02646 0.17663
# Poissons Ratio (z) = 0.24169 0.28613
#
# Static dielectric constant tensor:
#      x y z
#    x 1.714210 0.000000 -0.016470 
#    y 0.000000 1.692570 0.000000 
#    z -0.016470 0.000000 1.719810 
# 
# From -- ./inp_files/90753.got.cif
#   From: 2010.05.17/outbox.cif.g08.bks.cpg/sg12_46_cif.got.tgz:90753.got - 2010.06.03 13:09:07.
