data_PCOD9176388
_publ_section_title
;
Structure prediction by ZEFSAII (Michael W. Deem and Ramdas Pophale) SiO2 
 PCOD9176388
Probable space group: C 2/M
;
_chemical_formula_sum "Si O2"
_cell_formula_units_Z 56
_cell_length_a 24.657685
_cell_length_b 19.261503
_cell_length_c 11.981869
_cell_angle_alpha 90.000000
_cell_angle_beta 25.776309
_cell_angle_gamma 90.000000
_cell_volume 2474.658618
_symmetry_space_group_name_H-M "C 2/M"
_symmetry_group_IT_number 12
_symmetry_cell_setting 'monoclinic'
loop_
_space_group_symop_operation_xyz
x,y,z
-x,y,-z
-x,-y,-z
x,-y,z
1/2+x,1/2+y,z
1/2-x,1/2+y,-z
1/2-x,1/2-y,-z
1/2+x,1/2-y,z
loop_
_atom_site_type_symbol
_atom_site_label
_atom_site_fract_x
_atom_site_fract_y
_atom_site_fract_z
Si Si1 0.465637 0.078722 0.733314
Si Si2 0.529142 0.581182 0.264310
Si Si3 0.622943 0.719797 0.053132
Si Si4 0.106416 0.714967 0.455617
Si Si5 0.880001 0.578650 0.148708
Si Si6 0.799951 0.918462 0.832175
Si Si7 0.749256 0.215149 0.621195
O O1 0.574894 0.133771 0.517312
O O2 0.497699 0.000000 0.637966
O O3 0.425971 0.076271 0.935956
O O4 0.340619 0.107964 0.905032
O O5 0.526013 0.500000 0.234896
O O6 0.586652 0.641717 0.083193
O O7 0.620066 0.585279 0.203995
O O8 0.391889 0.604265 0.562230
O O9 0.523004 0.746704 0.327487
O O10 0.761605 0.723892 0.847924
O O11 0.635917 0.765400 0.916628
O O12 0.138807 0.749998 0.516357
O O13 0.844738 0.500000 0.247150
O O14 0.767711 0.633152 0.365044
O O15 0.000000 0.599997 0.000000
O O16 0.780956 0.000000 0.844174
O O17 0.750000 0.250000 0.500000
#
# Coordination Sequence:
#
# PCOD9176388 Si02
#       7
#     8   8   8   8   8   8   8
#     4  10  18  34  60  87 117 152 204 258 298 362
#     4   9  18  37  61  92 125 159 209 255 313 382
#     4  10  23  37  59  83 120 164 196 256 308 371
#     4  10  22  38  56  87 120 155 207 244 313 378
#     4  10  20  35  60  91 117 152 205 258 297 357
#     4   8  17  33  63  93 119 164 208 253 311 378
#     4  10  22  37  60  84 124 162 200 247 319 371
#
# _framework density 22.629383000000001
#
# number of rings (size 3 to 8) (size 9 to 14) (size 15 to 20)
#    0.857    1.571    1.429    1.714    4.000    0.571 
#    0.000    2.143    0.000    2.571    0.000    2.000 
#    0.000    0.000    0.000    0.000    0.000    0.000 
#
# Total GULP energy -156062.757641 kJ/mol
# GULP energy per Si atom -5573.669916 kJ/mol
# Density = 2.257788 g / cm^3
# Si number density = 22.629383 Si / 1000 Ang^3
#
#
#
# Elastic Constant Matrix: (Units=GPa)
#
#
# Indices 1 2 3 4 5 6 
#
# 1 69.3661 22.1358 12.1659 -0.0001 -7.3531 0.0000
# 2 22.1358 136.5811 55.3970 0.0000 -17.2954 0.0000
# 3 12.1659 55.3970 89.3849 -0.0001 -21.9121 0.0000
# 4 -0.0001 0.0000 -0.0001 30.2104 0.0000 -14.7587
# 5 -7.3531 -17.2954 -21.9121 0.0000 28.5452 0.0000
# 6 0.0000 0.0000 0.0000 -14.7587 0.0000 20.9953
#
#
#
# Elastic Compliance Matrix: (Units=1/GPa)
#
#
# Indices 1 2 3 4 5 6 
#
# 1 0.015388 -0.002103 -0.000162 0.000000 0.002565 0.000000
# 2 -0.002103 0.010125 -0.005688 0.000000 0.001227 0.000000
# 3 -0.000162 -0.005688 0.017097 0.000000 0.009636 0.000000
# 4 0.000000 0.000000 0.000000 0.050414 0.000000 0.035438
# 5 0.002565 0.001227 0.009636 0.000000 0.043833 0.000000
# 6 0.000000 0.000000 0.000000 0.035438 0.000000 0.072541
#
#
# Mechanical properties :
#
#
# Convention : Reuss Voigt Hill
#
# Bulk Modulus (GPa) = 37.44909 52.74774 45.09842
# Shear Modulus (GPa) = 21.34876 29.65908 25.50392
#
# Velocity S-wave (km/s) = 3.07483 3.62421 3.36076
# Velocity P-wave (km/s) = 5.40286 6.39322 5.91879
#
# Compressibility (1/GPa) = 0.02670292
#
# Stress axis : x y z
#
# Youngs Moduli (GPa) = 64.98652 98.76608 58.48958
#
# Poissons Ratio (x) = 0.20774 0.00947
# Poissons Ratio (y) = 0.13669 0.33269
# Poissons Ratio (z) = 0.01053 0.56179
#
# Static dielectric constant tensor:
#      x y z
#    x 1.857660 0.000000 -0.067510 
#    y 0.000000 1.911470 0.000000 
#    z -0.067510 0.000000 1.896090 
# 
# From -- ./inp_files/177887.got.cif
#   From: 2010.05.17/outbox.cif.g08.bks.cpg/sg12_89_cif.got.tgz:177887.got - 2010.06.03 13:09:07.
