data_PCOD9176326
_publ_section_title
;
Structure prediction by ZEFSAII (Michael W. Deem and Ramdas Pophale) SiO2 
 PCOD9176326
Probable space group: C 2/M
;
_chemical_formula_sum "Si O2"
_cell_formula_units_Z 56
_cell_length_a 26.573464
_cell_length_b 7.759668
_cell_length_c 11.836027
_cell_angle_alpha 90.000000
_cell_angle_beta 80.609529
_cell_angle_gamma 90.000000
_cell_volume 2407.897890
_symmetry_space_group_name_H-M "C 2/M"
_symmetry_group_IT_number 12
_symmetry_cell_setting 'monoclinic'
loop_
_space_group_symop_operation_xyz
x,y,z
-x,y,-z
-x,-y,-z
x,-y,z
1/2+x,1/2+y,z
1/2-x,1/2+y,-z
1/2-x,1/2-y,-z
1/2+x,1/2-y,z
loop_
_atom_site_type_symbol
_atom_site_label
_atom_site_fract_x
_atom_site_fract_y
_atom_site_fract_z
Si Si1 0.568966 0.291310 0.671738
Si Si2 0.444926 0.288909 0.067550
Si Si3 0.863606 0.309094 0.541696
Si Si4 0.542575 0.706744 0.344658
Si Si5 0.772591 0.208702 0.867021
Si Si6 0.615755 0.707805 0.116671
Si Si7 0.259024 0.310995 0.626946
O O1 0.569659 0.500000 0.666882
O O2 0.564544 0.234256 0.801817
O O3 0.619496 0.226903 0.592103
O O4 0.515832 0.236616 0.631880
O O5 0.445697 0.500000 0.067129
O O6 0.500000 0.234614 0.000000
O O7 0.399844 0.231429 0.001341
O O8 0.842778 0.500000 0.563152
O O9 0.916463 0.288382 0.587959
O O10 0.820812 0.184604 0.604573
O O11 0.543273 0.500000 0.364357
O O12 0.567029 0.740802 0.213277
O O13 0.831202 0.274041 0.853696
O O14 0.747833 0.271879 0.755940
O O15 0.772375 0.000000 0.857730
O O16 0.750000 0.250000 0.000000
O O17 0.621001 0.500000 0.110809
O O18 0.235640 0.500000 0.638924
O O19 0.250000 0.250000 0.500000
#
# Coordination Sequence:
#
# PCOD9176326 Si02
#       7
#     8   8   8   8   8   8   8
#     4  10  20  33  56  89 122 159 202 250 301 358
#     4   9  15  27  52  86 116 144 189 244 296 355
#     4  12  25  39  57  84 121 161 205 252 302 364
#     4  10  18  34  59  84 115 155 203 249 295 352
#     4  10  22  40  64  92 124 158 201 257 313 375
#     4   9  16  31  56  85 115 149 188 239 295 349
#     4  11  24  45  70  95 125 161 207 261 318 377
#
# _framework density 23.256799000000001
#
# number of rings (size 3 to 8) (size 9 to 14) (size 15 to 20)
#    0.000    1.857    2.857    2.143    0.000    4.571 
#    0.000    1.429    0.000    1.286    0.000    0.000 
#    0.000    0.000    0.000    0.000    0.000    0.000 
#
# Total GULP energy -156210.911014 kJ/mol
# GULP energy per Si atom -5578.961108 kJ/mol
# Density = 2.320387 g / cm^3
# Si number density = 23.256799 Si / 1000 Ang^3
#
#
#
# Elastic Constant Matrix: (Units=GPa)
#
#
# Indices 1 2 3 4 5 6 
#
# 1 49.3827 0.8884 27.2185 0.0000 18.2349 0.0000
# 2 0.8884 43.2265 8.1871 0.0000 2.1959 0.0000
# 3 27.2185 8.1871 142.2651 0.0000 25.6362 0.0000
# 4 0.0000 0.0000 0.0000-1742.7457 0.0000-1512.8856
# 5 18.2349 2.1959 25.6362 0.0000 43.9836 0.0000
# 6 0.0000 0.0000 0.0000-1512.8856 0.0000-1290.8730
#
#
#
# Elastic Compliance Matrix: (Units=1/GPa)
#
#
# Indices 1 2 3 4 5 6 
#
# 1 0.025226 0.000544 -0.003317 0.000000 -0.008553 0.000000
# 2 0.000544 0.023408 -0.001341 0.000000 -0.000613 0.000000
# 3 -0.003317 -0.001341 0.008359 0.000000 -0.003430 0.000000
# 4 0.000000 0.000000 0.000000 0.032964 0.000000 -0.038634
# 5 -0.008553 -0.000613 -0.003430 0.000000 0.028311 0.000000
# 6 0.000000 0.000000 0.000000 -0.038634 0.000000 0.044504
#
#
# Mechanical properties :
#
#
# Convention : Reuss Voigt Hill
#
# Bulk Modulus (GPa) = 20.50574 34.16247 27.33411
# Shear Modulus (GPa) = 26.70164 -584.68833 -278.99335
#
# Velocity S-wave (km/s) = 3.39207 -15.87297 -10.96460
# Velocity P-wave (km/s) = 4.91709 17.92244 12.18679
#
# Compressibility (1/GPa) = 0.04876682
#
# Stress axis : x y z
#
# Youngs Moduli (GPa) = 39.64125 42.72070 119.63257
#
# Poissons Ratio (x) = -0.02325 0.39676
# Poissons Ratio (y) = -0.02157 0.16040
# Poissons Ratio (z) = 0.13147 0.05728
#
# Static dielectric constant tensor:
#      x y z
#    x 1.851750 0.000000 0.051790 
#    y 0.000000 1.931060 0.000000 
#    z 0.051790 0.000000 1.941620 
# 
# From -- ./inp_files/180810.got.cif
#   From: 2010.05.17/outbox.cif.g08.bks.cpg/sg12_91_cif.got.tgz:180810.got - 2010.06.03 13:09:07.
