data_PCOD9176733
_publ_section_title
;
Structure prediction by ZEFSAII (Michael W. Deem and Ramdas Pophale) SiO2 
 PCOD9176733
Probable space group: C 2/M
;
_chemical_formula_sum "Si O2"
_cell_formula_units_Z 60
_cell_length_a 13.509102
_cell_length_b 11.468628
_cell_length_c 18.418762
_cell_angle_alpha 90.000000
_cell_angle_beta 116.587284
_cell_angle_gamma 90.000000
_cell_volume 2551.873105
_symmetry_space_group_name_H-M "C 2/M"
_symmetry_group_IT_number 12
_symmetry_cell_setting 'monoclinic'
loop_
_space_group_symop_operation_xyz
x,y,z
-x,y,-z
-x,-y,-z
x,-y,z
1/2+x,1/2+y,z
1/2-x,1/2+y,-z
1/2-x,1/2-y,-z
1/2+x,1/2-y,z
loop_
_atom_site_type_symbol
_atom_site_label
_atom_site_fract_x
_atom_site_fract_y
_atom_site_fract_z
Si Si1 0.537634 0.195369 0.392859
Si Si2 0.554264 0.869655 0.907731
Si Si3 0.857903 0.500000 0.680337
Si Si4 0.614731 0.373217 0.993851
Si Si5 0.842224 0.366941 0.432684
Si Si6 0.193970 0.373564 0.821989
Si Si7 0.333614 0.802630 0.790144
Si Si8 0.089870 0.867548 0.296955
O O1 0.592403 0.101007 0.358191
O O2 0.619890 0.214104 0.488350
O O3 0.424309 0.154481 0.392719
O O4 0.520148 0.306880 0.336855
O O5 0.613378 0.752524 0.954438
O O6 0.579318 0.873118 0.828763
O O7 0.422364 0.856515 0.875649
O O8 0.588310 0.000000 0.944998
O O9 0.813156 0.397757 0.722153
O O10 0.621322 0.500000 0.955639
O O11 0.500000 0.375302 0.000000
O O12 0.713991 0.375188 0.084260
O O13 0.860686 0.500000 0.464194
O O14 0.716350 0.357096 0.367654
O O15 0.200811 0.500000 0.784962
O O16 0.227215 0.260660 0.788015
O O17 0.404887 0.697425 0.777732
O O18 0.058865 0.000000 0.276759
#
# Coordination Sequence:
#
# PCOD9176733 Si02
#       8
#     8   8   4   8   8   8   8   8
#     4  10  18  36  63  84 119 145 195 253 297 352
#     4  11  23  41  64  94 120 161 209 257 301 350
#     4  10  20  35  56  85 114 153 186 253 302 335
#     4  10  20  38  65  92 125 163 200 248 310 362
#     4  10  18  35  62  93 107 151 204 238 299 357
#     4  10  22  41  64  89 123 163 205 244 297 367
#     4  11  22  39  58  84 122 156 203 245 299 353
#     4  10  23  36  56  85 119 155 198 238 298 367
#
# _framework density 23.512141
#
# number of rings (size 3 to 8) (size 9 to 14) (size 15 to 20)
#    0.000    1.733    3.333    1.600    0.000    2.933 
#    2.400    1.333   11.733    0.000    0.000    0.000 
#    0.000    0.000    0.000    0.000    0.000    0.000 
#
# Total GULP energy -167105.479437 kJ/mol
# GULP energy per Si atom -5570.182648 kJ/mol
# Density = 2.345863 g / cm^3
# Si number density = 23.512141 Si / 1000 Ang^3
#
#
#
# Elastic Constant Matrix: (Units=GPa)
#
#
# Indices 1 2 3 4 5 6 
#
# 1 74.0407 19.1880 9.4588 0.0000 -2.5277 0.0000
# 2 19.1880 190.9425 35.7843 0.0000 -27.2492 0.0000
# 3 9.4588 35.7843 46.5086 0.0000 -1.8069 0.0000
# 4 0.0000 0.0000 0.0000 30.4587 0.0000 -19.4780
# 5 -2.5277 -27.2492 -1.8069 0.0000 35.4935 0.0000
# 6 0.0000 0.0000 0.0000 -19.4780 0.0000 7.9628
#
#
#
# Elastic Compliance Matrix: (Units=1/GPa)
#
#
# Indices 1 2 3 4 5 6 
#
# 1 0.014036 -0.001003 -0.002078 0.000000 0.000123 0.000000
# 2 -0.001003 0.006991 -0.004979 0.000000 0.005042 0.000000
# 3 -0.002078 -0.004979 0.025651 0.000000 -0.002664 0.000000
# 4 0.000000 0.000000 0.000000 -0.058183 0.000000 -0.142323
# 5 0.000123 0.005042 -0.002664 0.000000 0.031918 0.000000
# 6 0.000000 0.000000 0.000000 -0.142323 0.000000 -0.222558
#
#
# Mechanical properties :
#
#
# Convention : Reuss Voigt Hill
#
# Bulk Modulus (GPa) = 32.72489 48.92822 40.82656
# Shear Modulus (GPa) = -28.43501 31.25372 1.40936
#
# Velocity S-wave (km/s) = -3.48138 3.64986 0.77506
# Velocity P-wave (km/s) = 1.48711 6.21425 4.26646
#
# Compressibility (1/GPa) = 0.03055778
#
# Stress axis : x y z
#
# Youngs Moduli (GPa) = 71.24648 143.04927 38.98468
#
# Poissons Ratio (x) = 0.14355 0.08100
# Poissons Ratio (y) = 0.07149 0.19409
# Poissons Ratio (z) = 0.14803 0.71220
#
# Static dielectric constant tensor:
#      x y z
#    x 1.900660 0.000000 0.027400 
#    y 0.000000 1.921350 0.000000 
#    z 0.027400 0.000000 1.931650 
# 
# From -- ./inp_files/309492.got.cif
#   From: 2010.05.17/outbox.cif.g08.bks.cpg/sg12_155_cif.got.tgz:309492.got - 2010.06.03 13:09:07.
