data_PCOD9176939
_publ_section_title
;
Structure prediction by ZEFSAII (Michael W. Deem and Ramdas Pophale) SiO2 
 PCOD9176939
Probable space group: C 2/M
;
_chemical_formula_sum "Si O2"
_cell_formula_units_Z 42
_cell_length_a 16.747168
_cell_length_b 16.897534
_cell_length_c 19.317377
_cell_angle_alpha 90.000000
_cell_angle_beta 23.484797
_cell_angle_gamma 90.000000
_cell_volume 2178.449120
_symmetry_space_group_name_H-M "C 2/M"
_symmetry_group_IT_number 12
_symmetry_cell_setting 'monoclinic'
loop_
_space_group_symop_operation_xyz
x,y,z
-x,y,-z
-x,-y,-z
x,-y,z
1/2+x,1/2+y,z
1/2-x,1/2+y,-z
1/2-x,1/2-y,-z
1/2+x,1/2-y,z
loop_
_atom_site_type_symbol
_atom_site_label
_atom_site_fract_x
_atom_site_fract_y
_atom_site_fract_z
Si Si1 0.945787 0.257521 0.688272
Si Si2 0.000000 0.500000 0.000000
Si Si3 0.219746 0.911199 0.857462
Si Si4 0.449845 0.411871 0.855487
Si Si5 0.872671 0.255230 0.301510
Si Si6 0.864276 0.639906 0.010175
O O1 0.868534 0.340853 0.720813
O O2 0.761471 0.196959 0.838644
O O3 0.022464 0.269098 0.706911
O O4 0.138800 0.225688 0.494423
O O5 0.027872 0.569683 0.036610
O O6 0.287174 0.000000 0.785071
O O7 0.180699 0.907933 0.970886
O O8 0.000000 0.898801 0.000000
O O9 0.540077 0.500000 0.779961
O O10 0.600566 0.338118 0.735462
O O11 0.301795 0.397170 0.909214
O O12 0.988810 0.305798 0.152247
#
# Coordination Sequence:
#
# PCOD9176939 Si02
#       6
#     8   2   8   8   8   8
#     4  10  20  37  65  91 120 166 205 255 313 372
#     4  12  28  40  70  88 124 178 214 254 332 354
#     4  10  20  34  57  92 122 155 199 250 310 375
#     4  10  18  36  63  86 124 162 197 252 311 366
#     4  10  20  37  64  94 119 160 216 251 307 377
#     4  11  21  42  58  89 121 164 211 260 299 377
#
# _framework density 19.279772000000001
#
# number of rings (size 3 to 8) (size 9 to 14) (size 15 to 20)
#    0.000    1.714    4.762    1.143    1.333    0.762 
#    0.000    5.714    0.000    3.429    0.000    0.000 
#    0.000    0.000    0.000    0.000    0.000    0.000 
#
# Total GULP energy -116963.733258 kJ/mol
# GULP energy per Si atom -5569.701584 kJ/mol
# Density = 1.923589 g / cm^3
# Si number density = 19.279772 Si / 1000 Ang^3
#
#
#
# Elastic Constant Matrix: (Units=GPa)
#
#
# Indices 1 2 3 4 5 6 
#
# 1 21.4700 21.8963 -4.0586 -0.0065 2.2641 -0.0082
# 2 21.8963 144.3936 62.9553 -0.0108 -4.4188 0.0012
# 3 -4.0586 62.9553 96.8973 -0.0307 7.6405 0.0069
# 4 -0.0065 -0.0108 -0.0307 8.7228 0.0199 -7.9634
# 5 2.2641 -4.4188 7.6405 0.0199 8.2123 -0.0008
# 6 -0.0082 0.0012 0.0069 -7.9634 -0.0008 26.9124
#
#
#
# Elastic Compliance Matrix: (Units=1/GPa)
#
#
# Indices 1 2 3 4 5 6 
#
# 1 0.082895 -0.024997 0.024363 0.000367 -0.058972 0.000127
# 2 -0.024997 0.018417 -0.015473 -0.000171 0.031197 -0.000054
# 3 0.024363 -0.015473 0.024367 0.000235 -0.037714 0.000070
# 4 0.000367 -0.000171 0.000235 0.157079 -0.000788 0.046480
# 5 -0.058972 0.031197 -0.037714 -0.000788 0.189903 -0.000237
# 6 0.000127 -0.000054 0.000070 0.046480 -0.000237 0.050911
#
#
# Mechanical properties :
#
#
# Convention : Reuss Voigt Hill
#
# Bulk Modulus (GPa) = 10.69914 47.14966 28.92440
# Shear Modulus (GPa) = 8.51875 20.90069 14.70972
#
# Velocity S-wave (km/s) = 2.10430 3.29610 2.76517
# Velocity P-wave (km/s) = 3.38609 6.24454 5.02294
#
# Compressibility (1/GPa) = 0.09346545
#
# Stress axis : x y z
#
# Youngs Moduli (GPa) = 12.06349 54.29772 41.03850
#
# Poissons Ratio (x) = 1.35730 -0.99984
# Poissons Ratio (y) = 0.30156 0.63498
# Poissons Ratio (z) = -0.29391 0.84014
#
# Static dielectric constant tensor:
#      x y z
#    x 1.683850 0.000000 -0.001860 
#    y 0.000000 1.671500 0.000010 
#    z -0.001860 0.000010 1.657160 
# 
# From -- ./inp_files/87112.got.cif
#   From: 2010.05.17/outbox.cif.g08.bks.cpg/sg12_44_cif.got.tgz:87112.got - 2010.06.03 13:09:07.
