data_PCOD9176313
_publ_section_title
;
Structure prediction by ZEFSAII (Michael W. Deem and Ramdas Pophale) SiO2 
 PCOD9176313
Probable space group: C 2/M
;
_chemical_formula_sum "Si O2"
_cell_formula_units_Z 56
_cell_length_a 30.497622
_cell_length_b 24.022173
_cell_length_c 12.801159
_cell_angle_alpha 90.000000
_cell_angle_beta 160.773969
_cell_angle_gamma 90.000000
_cell_volume 3088.258014
_symmetry_space_group_name_H-M "C 2/M"
_symmetry_group_IT_number 12
_symmetry_cell_setting 'monoclinic'
loop_
_space_group_symop_operation_xyz
x,y,z
-x,y,-z
-x,-y,-z
x,-y,z
1/2+x,1/2+y,z
1/2-x,1/2+y,-z
1/2-x,1/2-y,-z
1/2+x,1/2-y,z
loop_
_atom_site_type_symbol
_atom_site_label
_atom_site_fract_x
_atom_site_fract_y
_atom_site_fract_z
Si Si1 0.505837 0.287703 0.887205
Si Si2 0.587859 0.936913 0.302775
Si Si3 0.142851 0.064146 0.421563
Si Si4 0.241434 0.148902 0.778266
Si Si5 0.493887 0.829398 0.751562
Si Si6 0.657319 0.392283 0.234206
Si Si7 0.856518 0.700702 0.232661
O O1 0.385293 0.316306 0.550441
O O2 0.503013 0.223452 0.849154
O O3 0.500000 0.292660 0.000000
O O4 0.632361 0.327881 0.147201
O O5 0.537403 0.887443 0.262832
O O6 0.737202 0.921854 0.601865
O O7 0.580273 0.000000 0.328531
O O8 0.500000 0.935697 0.000000
O O9 0.214645 0.085468 0.686225
O O10 0.196478 0.100088 0.444018
O O11 0.162312 0.000000 0.441243
O O12 0.986940 0.077692 0.088473
O O13 0.365773 0.169045 0.990873
O O14 0.282904 0.157236 0.990708
O O15 0.388495 0.818868 0.421474
O O16 0.000000 0.714967 0.500000
O O17 0.750000 0.750000 0.000000
#
# Coordination Sequence:
#
# PCOD9176313 Si02
#       7
#     8   8   8   8   8   8   8
#     4  11  21  34  56  88 118 146 185 237 298 345
#     4  11  24  39  55  82 121 162 198 233 291 358
#     4  10  18  34  59  82 113 152 191 238 283 339
#     4  10  21  38  55  86 113 146 197 236 284 352
#     4  11  24  37  59  84 118 156 191 244 294 346
#     4  10  19  34  56  85 115 154 192 233 284 355
#     4  10  21  40  62  83 115 155 201 245 297 357
#
# _framework density 18.133199999999999
#
# number of rings (size 3 to 8) (size 9 to 14) (size 15 to 20)
#    0.000    1.571    4.286    3.000    2.000    2.286 
#    0.000    0.714    0.000    2.571    0.000    5.000 
#    0.000    0.000    0.000    0.000    0.000    0.000 
#
# Total GULP energy -156066.870668 kJ/mol
# GULP energy per Si atom -5573.816810 kJ/mol
# Density = 1.809193 g / cm^3
# Si number density = 18.133200 Si / 1000 Ang^3
#
#
#
# Elastic Constant Matrix: (Units=GPa)
#
#
# Indices 1 2 3 4 5 6 
#
# 1 32.0105 32.0670 10.2235 0.0000 -12.8098 0.0000
# 2 32.0670 133.6527 29.1385 0.0000 -15.6981 0.0000
# 3 10.2235 29.1385 66.1811 0.0000 -19.6075 0.0000
# 4 0.0000 0.0000 0.0000 24.6274 0.0000 -3.6369
# 5 -12.8098 -15.6981 -19.6075 0.0000 26.4755 0.0000
# 6 0.0000 0.0000 0.0000 -3.6369 0.0000 18.5488
#
#
#
# Elastic Compliance Matrix: (Units=1/GPa)
#
#
# Indices 1 2 3 4 5 6 
#
# 1 0.047968 -0.009813 0.002642 0.000000 0.019347 0.000000
# 2 -0.009813 0.010453 -0.003403 0.000000 -0.001071 0.000000
# 3 0.002642 -0.003403 0.020473 0.000000 0.014423 0.000000
# 4 0.000000 0.000000 0.000000 0.041816 0.000000 0.008199
# 5 0.019347 -0.001071 0.014423 0.000000 0.057178 0.000000
# 6 0.000000 0.000000 0.000000 0.008199 0.000000 0.055519
#
#
# Mechanical properties :
#
#
# Convention : Reuss Voigt Hill
#
# Bulk Modulus (GPa) = 17.31700 41.63360 29.47530
# Shear Modulus (GPa) = 18.26124 24.62470 21.44297
#
# Velocity S-wave (km/s) = 3.17687 3.68909 3.44252
# Velocity P-wave (km/s) = 4.79867 6.41526 5.66493
#
# Compressibility (1/GPa) = 0.05774671
#
# Stress axis : x y z
#
# Youngs Moduli (GPa) = 20.84726 95.66949 48.84372
#
# Poissons Ratio (x) = 0.93876 -0.12906
# Poissons Ratio (y) = 0.20456 0.16624
# Poissons Ratio (z) = -0.05509 0.32561
#
# Static dielectric constant tensor:
#      x y z
#    x 1.638860 0.000000 -0.009860 
#    y 0.000000 1.647450 0.000000 
#    z -0.009860 0.000000 1.670460 
# 
# From -- ./inp_files/190400.got.cif
#   From: 2010.05.17/outbox.cif.g08.bks.cpg/sg12_96_cif.got.tgz:190400.got - 2010.06.03 13:09:07.
