data_PCOD9176960
_publ_section_title
;
Structure prediction by ZEFSAII (Michael W. Deem and Ramdas Pophale) SiO2 
 PCOD9176960
Probable space group: C 2/M
;
_chemical_formula_sum "Si O2"
_cell_formula_units_Z 44
_cell_length_a 22.124466
_cell_length_b 19.862497
_cell_length_c 14.275238
_cell_angle_alpha 90.000000
_cell_angle_beta 159.925615
_cell_angle_gamma 90.000000
_cell_volume 2153.216350
_symmetry_space_group_name_H-M "C 2/M"
_symmetry_group_IT_number 12
_symmetry_cell_setting 'monoclinic'
loop_
_space_group_symop_operation_xyz
x,y,z
-x,y,-z
-x,-y,-z
x,-y,z
1/2+x,1/2+y,z
1/2-x,1/2+y,-z
1/2-x,1/2-y,-z
1/2+x,1/2-y,z
loop_
_atom_site_type_symbol
_atom_site_label
_atom_site_fract_x
_atom_site_fract_y
_atom_site_fract_z
Si Si1 0.899862 0.645498 0.454286
Si Si2 0.479024 0.645251 0.816997
Si Si3 0.663457 0.500000 0.868505
Si Si4 0.931939 0.500000 0.539505
Si Si5 0.148634 0.793506 0.561758
Si Si6 0.469364 0.500000 0.121702
Si Si7 0.500000 0.387967 0.500000
Si Si8 0.000000 0.756626 0.000000
O O1 0.931074 0.580416 0.566438
O O2 0.939572 0.719643 0.552812
O O3 0.000000 0.635275 0.500000
O O4 0.691098 0.648829 0.130148
O O5 0.424156 0.669849 0.635773
O O6 0.436749 0.567597 0.774884
O O7 0.403568 0.694183 0.786176
O O8 0.538666 0.500000 0.777336
O O9 0.618359 0.435762 0.738527
O O10 0.863627 0.500000 0.197195
O O11 0.736089 0.500000 0.208223
O O12 0.113040 0.839567 0.598868
O O13 0.355873 0.784484 0.845830
#
# Coordination Sequence:
#
# PCOD9176960 Si02
#       8
#     8   8   4   4   8   4   4   4
#     4  10  20  33  55  91 120 154 203 245 308 370
#     4  10  21  38  62  85 124 164 202 256 309 364
#     4  11  21  38  59  91 135 157 197 258 309 376
#     4  10  20  33  53  84 124 161 193 243 307 360
#     4  11  22  41  62  89 126 164 205 258 307 367
#     4  10  18  36  64  90 120 166 201 252 315 367
#     4  11  24  38  64  97 124 162 208 245 320 376
#     4  10  24  41  58  87 120 166 218 252 302 363
#
# _framework density 20.434546999999998
#
# number of rings (size 3 to 8) (size 9 to 14) (size 15 to 20)
#    0.000    1.636    2.727    3.273    0.000    4.000 
#    0.000    2.727    0.000    4.909    0.000    0.000 
#    0.000    0.000    0.000    0.000    0.000    0.000 
#
# Total GULP energy -122528.751079 kJ/mol
# GULP energy per Si atom -5569.488685 kJ/mol
# Density = 2.038804 g / cm^3
# Si number density = 20.434547 Si / 1000 Ang^3
#
#
#
# Elastic Constant Matrix: (Units=GPa)
#
#
# Indices 1 2 3 4 5 6 
#
# 1 85.0976 36.8856 8.6026 0.0000 9.2578 0.0000
# 2 36.8856 150.5820 25.9298 0.0000 14.2786 0.0000
# 3 8.6026 25.9298 20.3169 0.0000 7.3032 0.0000
# 4 0.0000 0.0000 0.0000 11.4382 0.0000 -16.0418
# 5 9.2578 14.2786 7.3032 0.0000 14.2037 0.0000
# 6 0.0000 0.0000 0.0000 -16.0418 0.0000 79.9144
#
#
#
# Elastic Compliance Matrix: (Units=1/GPa)
#
#
# Indices 1 2 3 4 5 6 
#
# 1 0.013609 -0.002745 -0.000077 0.000000 -0.006072 0.000000
# 2 -0.002745 0.009222 -0.009713 0.000000 -0.002487 0.000000
# 3 -0.000077 -0.009713 0.071299 0.000000 -0.026846 0.000000
# 4 0.000000 0.000000 0.000000 0.121684 0.000000 0.024427
# 5 -0.006072 -0.002487 -0.026846 0.000000 0.090665 0.000000
# 6 0.000000 0.000000 0.000000 0.024427 0.000000 0.017417
#
#
# Mechanical properties :
#
#
# Convention : Reuss Voigt Hill
#
# Bulk Modulus (GPa) = 14.48004 44.31472 29.39738
# Shear Modulus (GPa) = 13.44137 33.41649 23.42893
#
# Velocity S-wave (km/s) = 2.56750 4.04826 3.38973
# Velocity P-wave (km/s) = 3.98633 6.60186 5.45323
#
# Compressibility (1/GPa) = 0.06906060
#
# Stress axis : x y z
#
# Youngs Moduli (GPa) = 73.47967 108.44100 14.02541
#
# Poissons Ratio (x) = 0.29763 0.00108
# Poissons Ratio (y) = 0.20167 0.13623
# Poissons Ratio (z) = 0.00566 1.05329
#
# Static dielectric constant tensor:
#      x y z
#    x 1.740570 0.000000 -0.007630 
#    y 0.000000 1.797650 0.000000 
#    z -0.007630 0.000000 1.701150 
# 
# From -- ./inp_files/49360.got.cif
#   From: 2010.05.17/outbox.cif.g08.bks.cpg/sg12_25_cif.got.tgz:49360.got - 2010.06.03 13:09:07.
