data_PCOD9176432
_publ_section_title
;
Structure prediction by ZEFSAII (Michael W. Deem and Ramdas Pophale) SiO2 
 PCOD9176432
Probable space group: C 2/M
;
_chemical_formula_sum "Si O2"
_cell_formula_units_Z 56
_cell_length_a 22.393272
_cell_length_b 13.115734
_cell_length_c 19.003852
_cell_angle_alpha 90.000000
_cell_angle_beta 148.897960
_cell_angle_gamma 90.000000
_cell_volume 2883.206686
_symmetry_space_group_name_H-M "C 2/M"
_symmetry_group_IT_number 12
_symmetry_cell_setting 'monoclinic'
loop_
_space_group_symop_operation_xyz
x,y,z
-x,y,-z
-x,-y,-z
x,-y,z
1/2+x,1/2+y,z
1/2-x,1/2+y,-z
1/2-x,1/2-y,-z
1/2+x,1/2-y,z
loop_
_atom_site_type_symbol
_atom_site_label
_atom_site_fract_x
_atom_site_fract_y
_atom_site_fract_z
Si Si1 0.997615 0.296792 0.179483
Si Si2 0.050514 0.795945 0.472521
Si Si3 0.552249 0.879445 0.714406
Si Si4 0.184097 0.121574 0.991661
Si Si5 0.336483 0.380344 0.189275
Si Si6 0.690263 0.124662 0.289281
Si Si7 0.142668 0.619930 0.089280
O O1 0.131283 0.311176 0.292630
O O2 0.978341 0.338487 0.238365
O O3 0.926390 0.190602 0.099064
O O4 0.939850 0.366288 0.060570
O O5 0.178656 0.839012 0.592167
O O6 0.000000 0.811175 0.500000
O O7 0.024309 0.680895 0.419826
O O8 0.968696 0.856864 0.335765
O O9 0.533772 0.000000 0.693275
O O10 0.691261 0.861229 0.845798
O O11 0.203735 0.147831 0.928941
O O12 0.159008 0.000000 0.971418
O O13 0.318278 0.500000 0.174664
O O14 0.261885 0.336635 0.177966
O O15 0.624853 0.157406 0.150411
O O16 0.685255 0.000000 0.295305
O O17 0.151751 0.500000 0.110952
#
# Coordination Sequence:
#
# PCOD9176432 Si02
#       7
#     8   8   8   8   8   8   8
#     4  12  21  38  63  89 122 156 194 243 305 361
#     4  12  24  39  60  85 118 165 204 242 292 351
#     4  11  23  40  63  90 119 156 204 251 290 344
#     4  10  21  38  65  95 117 146 196 256 304 346
#     4  10  18  34  61  92 117 143 190 251 307 356
#     4  11  25  39  57  91 128 160 194 240 300 360
#     4  10  19  34  60  91 120 149 186 246 310 361
#
# _framework density 19.422817999999999
#
# number of rings (size 3 to 8) (size 9 to 14) (size 15 to 20)
#    0.000    1.143    4.286    3.429    0.000    2.571 
#    0.000    0.714    0.000    1.714    0.000    0.000 
#    0.000    0.000    0.000    0.000    0.000    0.000 
#
# Total GULP energy -155978.988048 kJ/mol
# GULP energy per Si atom -5570.678145 kJ/mol
# Density = 1.937861 g / cm^3
# Si number density = 19.422818 Si / 1000 Ang^3
#
#
#
# Elastic Constant Matrix: (Units=GPa)
#
#
# Indices 1 2 3 4 5 6 
#
# 1 86.7164 43.4451 10.6229 0.0000 22.1207 0.0000
# 2 43.4451 91.8710 2.8861 0.0000 8.8663 0.0000
# 3 10.6229 2.8861 53.9306 0.0000 8.7569 0.0000
# 4 0.0000 0.0000 0.0000 26.0159 0.0000 -3.6869
# 5 22.1207 8.8663 8.7569 0.0000 28.5632 0.0000
# 6 0.0000 0.0000 0.0000 -3.6869 0.0000 13.8505
#
#
#
# Elastic Compliance Matrix: (Units=1/GPa)
#
#
# Indices 1 2 3 4 5 6 
#
# 1 0.018418 -0.007557 -0.001356 0.000000 -0.011503 0.000000
# 2 -0.007557 0.014322 0.000520 0.000000 0.001248 0.000000
# 3 -0.001356 0.000520 0.019614 0.000000 -0.005124 0.000000
# 4 0.000000 0.000000 0.000000 0.039945 0.000000 0.010633
# 5 -0.011503 0.001248 -0.005124 0.000000 0.045102 0.000000
# 6 0.000000 0.000000 0.000000 0.010633 0.000000 0.075030
#
#
# Mechanical properties :
#
#
# Convention : Reuss Voigt Hill
#
# Bulk Modulus (GPa) = 28.11603 38.49179 33.30391
# Shear Modulus (GPa) = 20.74061 25.39020 23.06540
#
# Velocity S-wave (km/s) = 3.27134 3.61949 3.44981
# Velocity P-wave (km/s) = 5.36433 6.10970 5.74911
#
# Compressibility (1/GPa) = 0.03556690
#
# Stress axis : x y z
#
# Youngs Moduli (GPa) = 54.29375 69.82342 50.98486
#
# Poissons Ratio (x) = 0.52767 0.06913
# Poissons Ratio (y) = 0.41031 -0.02649
# Poissons Ratio (z) = 0.07361 -0.03628
#
# Static dielectric constant tensor:
#      x y z
#    x 1.729440 0.000000 0.045750 
#    y 0.000000 1.718560 0.000000 
#    z 0.045750 0.000000 1.757390 
# 
# From -- ./inp_files/284591.got.cif
#   From: 2010.05.17/outbox.cif.g08.bks.cpg/sg12_143_cif.got.tgz:284591.got - 2010.06.03 13:09:07.
