data_PCOD9176614
_publ_section_title
;
Structure prediction by ZEFSAII (Michael W. Deem and Ramdas Pophale) SiO2 
 PCOD9176614
Probable space group: C 2/M
;
_chemical_formula_sum "Si O2"
_cell_formula_units_Z 48
_cell_length_a 14.897429
_cell_length_b 8.534511
_cell_length_c 18.995432
_cell_angle_alpha 90.000000
_cell_angle_beta 84.468954
_cell_angle_gamma 90.000000
_cell_volume 2403.877850
_symmetry_space_group_name_H-M "C 2/M"
_symmetry_group_IT_number 12
_symmetry_cell_setting 'monoclinic'
loop_
_space_group_symop_operation_xyz
x,y,z
-x,y,-z
-x,-y,-z
x,-y,z
1/2+x,1/2+y,z
1/2-x,1/2+y,-z
1/2-x,1/2-y,-z
1/2+x,1/2-y,z
loop_
_atom_site_type_symbol
_atom_site_label
_atom_site_fract_x
_atom_site_fract_y
_atom_site_fract_z
Si Si1 0.138085 0.809505 0.630380
Si Si2 0.986406 0.314195 0.104648
Si Si3 0.325648 0.184975 0.671945
Si Si4 0.148452 0.187075 0.997130
Si Si5 0.607395 0.316697 0.479038
Si Si6 0.518226 0.686027 0.255399
O O1 0.221982 0.765472 0.672362
O O2 0.148344 0.754395 0.549321
O O3 0.046638 0.761645 0.675621
O O4 0.136345 0.000000 0.625102
O O5 0.983278 0.500000 0.095187
O O6 0.991034 0.269334 0.185768
O O7 0.899888 0.240467 0.071772
O O8 0.077652 0.250062 0.060815
O O9 0.366313 0.221793 0.591807
O O10 0.381636 0.274007 0.726765
O O11 0.330364 0.000000 0.685382
O O12 0.150378 0.000000 0.000035
O O13 0.250000 0.250000 0.000000
O O14 0.500000 0.313555 0.500000
O O15 0.632339 0.500000 0.465851
O O16 0.507726 0.500000 0.247168
#
# Coordination Sequence:
#
# PCOD9176614 Si02
#       6
#     8   8   8   8   8   8
#     4   9  20  37  57  79 110 151 194 240 296 358
#     4  11  23  41  63  94 129 161 200 252 300 356
#     4  11  22  36  55  84 114 145 192 252 305 351
#     4  11  22  41  68  98 127 164 204 244 293 352
#     4  10  18  35  59  79 105 149 196 239 295 365
#     4  11  22  41  61  81 115 161 200 237 293 364
#
# _framework density 19.967738000000001
#
# number of rings (size 3 to 8) (size 9 to 14) (size 15 to 20)
#    0.000    1.500    1.667    5.500    0.000    1.667 
#    0.000    9.167    0.000    0.000    0.000    0.000 
#    0.000    0.000    0.000    0.000    0.000    0.000 
#
# Total GULP energy -134105.977142 kJ/mol
# GULP energy per Si atom -5587.749048 kJ/mol
# Density = 1.992229 g / cm^3
# Si number density = 19.967738 Si / 1000 Ang^3
#
#
#
# Elastic Constant Matrix: (Units=GPa)
#
#
# Indices 1 2 3 4 5 6 
#
# 1 105.5601 25.6959 18.7879 0.0000 23.0720 0.0000
# 2 25.6959 88.0770 10.8901 0.0000 4.6823 0.0000
# 3 18.7879 10.8901 80.4528 0.0000 23.2903 0.0000
# 4 0.0000 0.0000 0.0000 30.5310 0.0000 5.4469
# 5 23.0720 4.6823 23.2903 0.0000 19.7279 0.0000
# 6 0.0000 0.0000 0.0000 5.4469 0.0000 27.4256
#
#
#
# Elastic Compliance Matrix: (Units=1/GPa)
#
#
# Indices 1 2 3 4 5 6 
#
# 1 0.013872 -0.003383 0.002556 0.000000 -0.018438 0.000000
# 2 -0.003383 0.012396 -0.001795 0.000000 0.003133 0.000000
# 3 0.002556 -0.001795 0.019473 0.000000 -0.025553 0.000000
# 4 0.000000 0.000000 0.000000 0.033957 0.000000 -0.006744
# 5 -0.018438 0.003133 -0.025553 0.000000 0.101676 0.000000
# 6 0.000000 0.000000 0.000000 -0.006744 0.000000 0.037802
#
#
# Mechanical properties :
#
#
# Convention : Reuss Voigt Hill
#
# Bulk Modulus (GPa) = 24.69312 42.75973 33.72642
# Shear Modulus (GPa) = 21.01568 30.11797 25.56683
#
# Velocity S-wave (km/s) = 3.24772 3.88794 3.58216
# Velocity P-wave (km/s) = 5.14363 6.45102 5.83406
#
# Compressibility (1/GPa) = 0.04049711
#
# Stress axis : x y z
#
# Youngs Moduli (GPa) = 72.08917 80.67127 51.35336
#
# Poissons Ratio (x) = 0.27290 -0.13126
# Poissons Ratio (y) = 0.24387 0.09218
# Poissons Ratio (z) = -0.18426 0.14480
#
# Static dielectric constant tensor:
#      x y z
#    x 1.711750 0.000000 0.011730 
#    y 0.000000 1.681230 0.000000 
#    z 0.011730 0.000000 1.693280 
# 
# From -- ./inp_files/267714.got.cif
#   From: 2010.05.17/outbox.cif.g08.bks.cpg/sg12_134_cif.got.tgz:267714.got - 2010.06.03 13:09:07.
