data_PCOD9176011
_publ_section_title
;
Structure prediction by ZEFSAII (Michael W. Deem and Ramdas Pophale) SiO2 
 PCOD9176011
Probable space group: C 2/M
;
_chemical_formula_sum "Si O2"
_cell_formula_units_Z 56
_cell_length_a 35.627248
_cell_length_b 19.505272
_cell_length_c 4.964819
_cell_angle_alpha 90.000000
_cell_angle_beta 93.958897
_cell_angle_gamma 90.000000
_cell_volume 3441.915243
_symmetry_space_group_name_H-M "C 2/M"
_symmetry_group_IT_number 12
_symmetry_cell_setting 'monoclinic'
loop_
_space_group_symop_operation_xyz
x,y,z
-x,y,-z
-x,-y,-z
x,-y,z
1/2+x,1/2+y,z
1/2-x,1/2+y,-z
1/2-x,1/2-y,-z
1/2+x,1/2-y,z
loop_
_atom_site_type_symbol
_atom_site_label
_atom_site_fract_x
_atom_site_fract_y
_atom_site_fract_z
Si Si1 0.208679 0.280547 0.919202
Si Si2 0.525232 0.640995 0.766618
Si Si3 0.705315 0.576955 0.530861
Si Si4 0.093990 0.922429 0.052652
Si Si5 0.330515 0.719969 0.602271
Si Si6 0.758243 0.576866 0.054532
Si Si7 0.599438 0.667518 0.585556
O O1 0.179116 0.246482 0.107980
O O2 0.212670 0.361742 0.962416
O O3 0.250000 0.250000 0.000000
O O4 0.196813 0.260511 0.613322
O O5 0.500000 0.620345 0.500000
O O6 0.448387 0.581765 0.091708
O O7 0.558269 0.690448 0.668656
O O8 0.500000 0.667642 0.000000
O O9 0.688820 0.500000 0.506270
O O10 0.678820 0.639153 0.434492
O O11 0.723219 0.587507 0.833325
O O12 0.740371 0.579734 0.342270
O O13 0.093149 0.887224 0.342619
O O14 0.107488 0.000000 0.066101
O O15 0.116056 0.873861 0.851755
O O16 0.373068 0.724461 0.517980
O O17 0.772761 0.500000 0.011051
#
# Coordination Sequence:
#
# PCOD9176011 Si02
#       7
#     8   8   8   8   8   8   8
#     4  12  21  34  56  72  94 126 168 200 244 294
#     4  10  18  34  50  65  88 121 160 206 248 294
#     4  10  19  31  47  66  93 125 155 201 251 284
#     4  10  20  33  48  66  93 124 162 208 251 297
#     4  12  22  35  51  71  96 126 165 209 245 296
#     4  10  20  34  49  72  95 117 156 205 243 287
#     4  10  22  34  45  68  94 119 160 204 251 298
#
# _framework density 16.270011
#
# number of rings (size 3 to 8) (size 9 to 14) (size 15 to 20)
#    0.857    0.571    4.286    2.571    0.000    1.714 
#    0.000    1.429    0.000    0.000    0.000    0.000 
#    0.000    0.000    0.000    0.000    0.000   14.286 
#
# Total GULP energy -156074.841907 kJ/mol
# GULP energy per Si atom -5574.101497 kJ/mol
# Density = 1.623298 g / cm^3
# Si number density = 16.270011 Si / 1000 Ang^3
#
#
#
# Elastic Constant Matrix: (Units=GPa)
#
#
# Indices 1 2 3 4 5 6 
#
# 1 41.6680 16.0505 6.0165 0.0000 -9.7788 0.0000
# 2 16.0505 66.2429 3.7074 0.0000 -4.8368 0.0000
# 3 6.0165 3.7074 74.7689 0.0000 -7.3746 0.0000
# 4 0.0000 0.0000 0.0000 19.6638 0.0000 0.6284
# 5 -9.7788 -4.8368 -7.3746 0.0000 30.0710 0.0000
# 6 0.0000 0.0000 0.0000 0.6284 0.0000 8.6334
#
#
#
# Elastic Compliance Matrix: (Units=1/GPa)
#
#
# Indices 1 2 3 4 5 6 
#
# 1 0.028443 -0.006244 -0.001195 0.000000 0.007952 0.000000
# 2 -0.006244 0.016667 -0.000266 0.000000 0.000585 0.000000
# 3 -0.001195 -0.000266 0.013775 0.000000 0.002947 0.000000
# 4 0.000000 0.000000 0.000000 0.050973 0.000000 -0.003710
# 5 0.007952 0.000585 0.002947 0.000000 0.036657 0.000000
# 6 0.000000 0.000000 0.000000 -0.003710 0.000000 0.116099
#
#
# Mechanical properties :
#
#
# Convention : Reuss Voigt Hill
#
# Bulk Modulus (GPa) = 23.00240 26.02540 24.51390
# Shear Modulus (GPa) = 17.09310 22.13401 19.61355
#
# Velocity S-wave (km/s) = 3.24480 3.69239 3.47580
# Velocity P-wave (km/s) = 5.31101 5.84884 5.58640
#
# Compressibility (1/GPa) = 0.04347373
#
# Stress axis : x y z
#
# Youngs Moduli (GPa) = 35.15772 60.00052 72.59775
#
# Poissons Ratio (x) = 0.37466 0.08674
# Poissons Ratio (y) = 0.21953 0.01933
# Poissons Ratio (z) = 0.04201 0.01598
#
# Static dielectric constant tensor:
#      x y z
#    x 1.598300 0.000000 -0.014530 
#    y 0.000000 1.549810 0.000000 
#    z -0.014530 0.000000 1.582880 
# 
# From -- ./inp_files/31851.got.cif
#   From: 2010.05.17/outbox.cif.g08.bks.cpg/sg12_16_cif.got.tgz:31851.got - 2010.06.03 13:09:07.
