data_PCOD9176707
_publ_section_title
;
Structure prediction by ZEFSAII (Michael W. Deem and Ramdas Pophale) SiO2 
 PCOD9176707
Probable space group: C 2/M
;
_chemical_formula_sum "Si O2"
_cell_formula_units_Z 60
_cell_length_a 15.506046
_cell_length_b 23.739225
_cell_length_c 8.617845
_cell_angle_alpha 90.000000
_cell_angle_beta 69.641654
_cell_angle_gamma 90.000000
_cell_volume 2974.088202
_symmetry_space_group_name_H-M "C 2/M"
_symmetry_group_IT_number 12
_symmetry_cell_setting 'monoclinic'
loop_
_space_group_symop_operation_xyz
x,y,z
-x,y,-z
-x,-y,-z
x,-y,z
1/2+x,1/2+y,z
1/2-x,1/2+y,-z
1/2-x,1/2-y,-z
1/2+x,1/2-y,z
loop_
_atom_site_type_symbol
_atom_site_label
_atom_site_fract_x
_atom_site_fract_y
_atom_site_fract_z
Si Si1 0.280126 0.932137 0.010304
Si Si2 0.842830 0.284515 0.459062
Si Si3 0.052226 0.436439 0.616519
Si Si4 0.915171 0.357255 0.136966
Si Si5 0.000000 0.792842 0.500000
Si Si6 0.607179 0.563909 0.627011
Si Si7 0.407729 0.397747 0.716048
Si Si8 0.284096 0.894234 0.655540
O O1 0.349233 0.894390 0.069933
O O2 0.178801 0.909736 0.121832
O O3 0.287727 0.000000 0.032344
O O4 0.296366 0.918364 0.819226
O O5 0.750000 0.250000 0.500000
O O6 0.860613 0.316304 0.285538
O O7 0.825635 0.332434 0.600208
O O8 0.928845 0.245743 0.450503
O O9 0.021527 0.500000 0.657518
O O10 0.035840 0.401361 0.778491
O O11 0.159112 0.432498 0.502504
O O12 0.000000 0.412343 0.500000
O O13 0.000000 0.327054 0.000000
O O14 0.939230 0.834450 0.648094
O O15 0.631105 0.500000 0.651813
O O16 0.614682 0.573899 0.437068
O O17 0.500373 0.575365 0.727823
O O18 0.677960 0.603990 0.671037
#
# Coordination Sequence:
#
# PCOD9176707 Si02
#       8
#     8   8   8   8   4   8   8   8
#     4  12  24  40  62  96 140 172 200 261 332 396
#     4  11  24  46  69  91 122 174 226 278 328 376
#     4  10  20  36  59  85 121 166 208 248 307 379
#     4  11  25  40  63  93 131 160 219 263 320 384
#     4  10  22  42  73  86 121 168 220 282 332 366
#     4  10  18  35  61  89 124 167 210 260 319 390
#     4  10  21  39  63  95 121 161 219 265 324 396
#     4  11  24  37  61  90 129 165 219 256 312 397
#
# _framework density 20.174251000000002
#
# number of rings (size 3 to 8) (size 9 to 14) (size 15 to 20)
#    0.000    1.467    0.000    8.000    5.600    2.667 
#    2.400    2.667    0.000    0.000    0.000    0.000 
#    0.000    0.000    0.000    0.000    0.000    0.000 
#
# Total GULP energy -167563.185871 kJ/mol
# GULP energy per Si atom -5585.439529 kJ/mol
# Density = 2.012833 g / cm^3
# Si number density = 20.174251 Si / 1000 Ang^3
#
#
#
# Elastic Constant Matrix: (Units=GPa)
#
#
# Indices 1 2 3 4 5 6 
#
# 1 92.4824 33.0465 30.3361 0.0000 -6.5807 0.0000
# 2 33.0465 112.7893 33.1227 0.0000 -9.3850 0.0000
# 3 30.3361 33.1227 78.9260 0.0000 -19.3144 0.0000
# 4 0.0000 0.0000 0.0000 28.8241 0.0000 -16.3353
# 5 -6.5807 -9.3850 -19.3144 0.0000 28.1260 0.0000
# 6 0.0000 0.0000 0.0000 -16.3353 0.0000 67.8909
#
#
#
# Elastic Compliance Matrix: (Units=1/GPa)
#
#
# Indices 1 2 3 4 5 6 
#
# 1 0.013055 -0.002690 -0.004040 0.000000 -0.000617 0.000000
# 2 -0.002690 0.010674 -0.003279 0.000000 0.000681 0.000000
# 3 -0.004040 -0.003279 0.018150 0.000000 0.010424 0.000000
# 4 0.000000 0.000000 0.000000 0.040171 0.000000 0.009666
# 5 -0.000617 0.000681 0.010424 0.000000 0.042795 0.000000
# 6 0.000000 0.000000 0.000000 0.009666 0.000000 0.017055
#
#
# Mechanical properties :
#
#
# Convention : Reuss Voigt Hill
#
# Bulk Modulus (GPa) = 45.74371 53.02314 49.38343
# Shear Modulus (GPa) = 29.54977 37.48104 33.51541
#
# Velocity S-wave (km/s) = 3.83133 4.31497 4.08032
# Velocity P-wave (km/s) = 6.50351 7.15297 6.83596
#
# Compressibility (1/GPa) = 0.02186093
#
# Stress axis : x y z
#
# Youngs Moduli (GPa) = 76.59659 93.68730 55.09622
#
# Poissons Ratio (x) = 0.25202 0.22260
# Poissons Ratio (y) = 0.20605 0.18066
# Poissons Ratio (z) = 0.30946 0.30720
#
# Static dielectric constant tensor:
#      x y z
#    x 1.758990 0.000000 -0.037950 
#    y 0.000000 1.719040 0.000000 
#    z -0.037950 0.000000 1.716110 
# 
# From -- ./inp_files/65832.got.cif
#   From: 2010.05.17/outbox.cif.g08.bks.cpg/sg12_33_cif.got.tgz:65832.got - 2010.06.03 13:09:07.
