data_PCOD9176554
_publ_section_title
;
Structure prediction by ZEFSAII (Michael W. Deem and Ramdas Pophale) SiO2 
 PCOD9176554
Probable space group: C 2/M
;
_chemical_formula_sum "Si O2"
_cell_formula_units_Z 56
_cell_length_a 27.124719
_cell_length_b 14.871574
_cell_length_c 11.865047
_cell_angle_alpha 90.000000
_cell_angle_beta 141.899651
_cell_angle_gamma 90.000000
_cell_volume 2953.285520
_symmetry_space_group_name_H-M "C 2/M"
_symmetry_group_IT_number 12
_symmetry_cell_setting 'monoclinic'
loop_
_space_group_symop_operation_xyz
x,y,z
-x,y,-z
-x,-y,-z
x,-y,z
1/2+x,1/2+y,z
1/2-x,1/2+y,-z
1/2-x,1/2-y,-z
1/2+x,1/2-y,z
loop_
_atom_site_type_symbol
_atom_site_label
_atom_site_fract_x
_atom_site_fract_y
_atom_site_fract_z
Si Si1 0.694459 0.728965 0.506077
Si Si2 0.112236 0.896795 0.965097
Si Si3 0.820938 0.324331 0.137776
Si Si4 0.957696 0.895572 0.802435
Si Si5 0.408199 0.652807 0.320443
Si Si6 0.236152 0.897699 0.778575
Si Si7 0.710939 0.894267 0.672763
O O1 0.750000 0.750000 0.500000
O O2 0.619655 0.666516 0.338760
O O3 0.740985 0.672355 0.685926
O O4 0.667257 0.822845 0.514711
O O5 0.122506 0.891270 0.850054
O O6 0.026858 0.856868 0.844488
O O7 0.104844 0.000000 0.988026
O O8 0.195122 0.866184 0.167979
O O9 0.897745 0.260134 0.283852
O O10 0.812169 0.377926 0.238253
O O11 0.750000 0.250000 0.000000
O O12 0.804138 0.381643 0.995975
O O13 0.936846 0.000000 0.736166
O O14 0.000000 0.896034 0.000000
O O15 0.500000 0.627658 0.500000
O O16 0.349722 0.621450 0.315142
O O17 0.238469 0.000000 0.743956
O O18 0.702635 0.000000 0.630946
#
# Coordination Sequence:
#
# PCOD9176554 Si02
#       7
#     8   8   8   8   8   8   8
#     4  12  24  38  58  87 118 157 201 242 291 352
#     4  10  19  32  55  87 117 150 186 232 301 364
#     4  10  18  35  56  84 120 158 195 232 284 348
#     4  10  22  40  60  88 124 154 190 242 303 363
#     4  11  20  31  53  87 123 154 187 231 294 357
#     4  11  21  37  61  89 122 151 190 247 300 353
#     4  11  21  38  61  86 117 156 201 243 289 348
#
# _framework density 18.961932999999998
#
# number of rings (size 3 to 8) (size 9 to 14) (size 15 to 20)
#    0.000    1.286    5.714    3.000    0.000    4.571 
#    0.000    0.000    0.000    2.143    0.000    1.000 
#    0.000    0.000    0.000    0.000    0.000    0.000 
#
# Total GULP energy -156193.237775 kJ/mol
# GULP energy per Si atom -5578.329921 kJ/mol
# Density = 1.891878 g / cm^3
# Si number density = 18.961933 Si / 1000 Ang^3
#
#
#
# Elastic Constant Matrix: (Units=GPa)
#
#
# Indices 1 2 3 4 5 6 
#
# 1 79.0522 25.0255 11.1341 0.0000 -16.7316 0.0000
# 2 25.0255 122.0651 32.3143 0.0000 -7.5922 0.0000
# 3 11.1341 32.3143 49.2515 0.0000 -2.3775 0.0000
# 4 0.0000 0.0000 0.0000 24.4511 0.0000 -0.1310
# 5 -16.7316 -7.5922 -2.3775 0.0000 28.7239 0.0000
# 6 0.0000 0.0000 0.0000 -0.1310 0.0000 21.8682
#
#
#
# Elastic Compliance Matrix: (Units=1/GPa)
#
#
# Indices 1 2 3 4 5 6 
#
# 1 0.015311 -0.002199 -0.001622 0.000000 0.008203 0.000000
# 2 -0.002199 0.010357 -0.006253 0.000000 0.000939 0.000000
# 3 -0.001622 -0.006253 0.024747 0.000000 -0.000549 0.000000
# 4 0.000000 0.000000 0.000000 0.040899 0.000000 0.000245
# 5 0.008203 0.000939 -0.000549 0.000000 0.039795 0.000000
# 6 0.000000 0.000000 0.000000 0.000245 0.000000 0.045730
#
#
# Mechanical properties :
#
#
# Convention : Reuss Voigt Hill
#
# Bulk Modulus (GPa) = 33.04076 43.03516 38.03796
# Shear Modulus (GPa) = 24.14574 27.13496 25.64035
#
# Velocity S-wave (km/s) = 3.57232 3.78699 3.68122
# Velocity P-wave (km/s) = 5.87179 6.47044 6.17837
#
# Compressibility (1/GPa) = 0.03026564
#
# Stress axis : x y z
#
# Youngs Moduli (GPa) = 65.31357 96.55364 40.40949
#
# Poissons Ratio (x) = 0.21235 0.06556
# Poissons Ratio (y) = 0.14364 0.25267
# Poissons Ratio (z) = 0.10596 0.60373
#
# Static dielectric constant tensor:
#      x y z
#    x 1.704150 0.000000 -0.001200 
#    y 0.000000 1.691870 0.000000 
#    z -0.001200 0.000000 1.701120 
# 
# From -- ./inp_files/183533.got.cif
#   From: 2010.05.17/outbox.cif.g08.bks.cpg/sg12_92_cif.got.tgz:183533.got - 2010.06.03 13:09:07.
