data_PCOD9176874
_publ_section_title
;
Structure prediction by ZEFSAII (Michael W. Deem and Ramdas Pophale) SiO2 
 PCOD9176874
Probable space group: C 2/M
;
_chemical_formula_sum "Si O2"
_cell_formula_units_Z 42
_cell_length_a 26.311841
_cell_length_b 9.949897
_cell_length_c 8.061280
_cell_angle_alpha 90.000000
_cell_angle_beta 63.918133
_cell_angle_gamma 90.000000
_cell_volume 1895.530632
_symmetry_space_group_name_H-M "C 2/M"
_symmetry_group_IT_number 12
_symmetry_cell_setting 'monoclinic'
loop_
_space_group_symop_operation_xyz
x,y,z
-x,y,-z
-x,-y,-z
x,-y,z
1/2+x,1/2+y,z
1/2-x,1/2+y,-z
1/2-x,1/2-y,-z
1/2+x,1/2-y,z
loop_
_atom_site_type_symbol
_atom_site_label
_atom_site_fract_x
_atom_site_fract_y
_atom_site_fract_z
Si Si1 0.417534 0.157066 0.013174
Si Si2 0.863379 0.145798 0.552655
Si Si3 0.784360 0.655445 0.824819
Si Si4 0.178226 0.149145 0.762003
Si Si5 0.000000 0.500000 0.500000
Si Si6 0.031321 0.277496 0.702699
O O1 0.358075 0.233191 0.099993
O O2 0.440192 0.164681 0.169931
O O3 0.416811 0.000000 0.960090
O O4 0.465122 0.236726 0.841142
O O5 0.841570 0.267448 0.695839
O O6 0.831682 0.156973 0.420447
O O7 0.929379 0.156678 0.411725
O O8 0.849830 0.000000 0.646219
O O9 0.792106 0.500000 0.866581
O O10 0.743057 0.654271 0.723557
O O11 0.750000 0.750000 0.000000
O O12 0.156777 0.000000 0.844425
O O13 0.033419 0.385037 0.556479
#
# Coordination Sequence:
#
# PCOD9176874 Si02
#       6
#     8   8   8   8   2   8
#     4  10  18  36  59  85 119 155 203 244 298 353
#     4  10  22  41  64  88 119 156 206 253 302 357
#     4  11  24  41  62  88 124 161 200 248 306 361
#     4   9  21  39  61  90 119 157 200 251 303 357
#     4  12  20  34  54  84 120 150 210 240 296 350
#     4  10  21  35  57  86 120 155 196 251 294 358
#
# _framework density 22.157384
#
# number of rings (size 3 to 8) (size 9 to 14) (size 15 to 20)
#    0.000    1.905    1.905    1.714    1.333    4.571 
#    0.000    4.286    0.000    0.000    0.000    0.000 
#    0.000    0.000    0.000    0.000    0.000    0.000 
#
# Total GULP energy -116938.477671 kJ/mol
# GULP energy per Si atom -5568.498937 kJ/mol
# Density = 2.210695 g / cm^3
# Si number density = 22.157384 Si / 1000 Ang^3
#
#
#
# Elastic Constant Matrix: (Units=GPa)
#
#
# Indices 1 2 3 4 5 6 
#
# 1 34.4509 21.7871 16.0848 0.0000 -10.9121 0.0000
# 2 21.7871 145.1668 54.6370 0.0000 -23.9064 0.0000
# 3 16.0848 54.6370 58.3164 0.0000 -19.7521 0.0000
# 4 0.0000 0.0000 0.0000 10.9583 0.0000 17.6901
# 5 -10.9121 -23.9064 -19.7521 0.0000 32.6804 0.0000
# 6 0.0000 0.0000 0.0000 17.6901 0.0000 -5.0998
#
#
#
# Elastic Compliance Matrix: (Units=1/GPa)
#
#
# Indices 1 2 3 4 5 6 
#
# 1 0.035051 -0.002107 -0.005346 0.000000 0.006931 0.000000
# 2 -0.002107 0.010896 -0.009011 0.000000 0.001821 0.000000
# 3 -0.005346 -0.009011 0.030464 0.000000 0.010036 0.000000
# 4 0.000000 0.000000 0.000000 0.013827 0.000000 0.047963
# 5 0.006931 0.001821 0.010036 0.000000 0.040312 0.000000
# 6 0.000000 0.000000 0.000000 0.047963 0.000000 -0.029711
#
#
# Mechanical properties :
#
#
# Convention : Reuss Voigt Hill
#
# Bulk Modulus (GPa) = 22.99741 46.99466 34.99604
# Shear Modulus (GPa) = 33.72461 17.40279 25.56370
#
# Velocity S-wave (km/s) = 3.90558 2.80557 3.40035
# Velocity P-wave (km/s) = 5.54434 5.63476 5.58973
#
# Compressibility (1/GPa) = 0.04348316
#
# Stress axis : x y z
#
# Youngs Moduli (GPa) = 28.53009 91.77557 32.82602
#
# Poissons Ratio (x) = 0.19337 0.17549
# Poissons Ratio (y) = 0.06011 0.29578
# Poissons Ratio (z) = 0.15252 0.82696
#
# Static dielectric constant tensor:
#      x y z
#    x 1.817560 0.000000 0.004810 
#    y 0.000000 1.771340 0.000000 
#    z 0.004810 0.000000 1.849750 
# 
# From -- ./inp_files/108505.got.cif
#   From: 2010.05.17/outbox.cif.g08.bks.cpg/sg12_55_cif.got.tgz:108505.got - 2010.06.03 13:09:07.
