data_PCOD9176835
_publ_section_title
;
Structure prediction by ZEFSAII (Michael W. Deem and Ramdas Pophale) SiO2 
 PCOD9176835
Probable space group: C 2/M
;
_chemical_formula_sum "Si O2"
_cell_formula_units_Z 52
_cell_length_a 19.141302
_cell_length_b 28.083409
_cell_length_c 5.158735
_cell_angle_alpha 90.000000
_cell_angle_beta 77.858391
_cell_angle_gamma 90.000000
_cell_volume 2711.061522
_symmetry_space_group_name_H-M "C 2/M"
_symmetry_group_IT_number 12
_symmetry_cell_setting 'monoclinic'
loop_
_space_group_symop_operation_xyz
x,y,z
-x,y,-z
-x,-y,-z
x,-y,z
1/2+x,1/2+y,z
1/2-x,1/2+y,-z
1/2-x,1/2-y,-z
1/2+x,1/2-y,z
loop_
_atom_site_type_symbol
_atom_site_label
_atom_site_fract_x
_atom_site_fract_y
_atom_site_fract_z
Si Si1 0.263831 0.555202 0.453436
Si Si2 0.291366 0.821661 0.064260
Si Si3 0.349149 0.640242 0.556091
Si Si4 0.050189 0.500000 0.208962
Si Si5 0.830717 0.421366 0.969561
Si Si6 0.046011 0.807898 0.225200
Si Si7 0.323627 0.275904 0.176867
O O1 0.283604 0.500000 0.432442
O O2 0.331269 0.590084 0.441502
O O3 0.225989 0.569807 0.215773
O O4 0.205776 0.562565 0.730835
O O5 0.222364 0.848830 0.228007
O O6 0.316446 0.780044 0.238129
O O7 0.345264 0.864473 0.966542
O O8 0.254583 0.794129 0.852680
O O9 0.418042 0.644265 0.684768
O O10 0.351322 0.684838 0.356591
O O11 0.101821 0.454053 0.150348
O O12 0.000000 0.500000 0.500000
O O13 0.000000 0.500000 0.000000
O O14 0.000000 0.787482 0.500000
O O15 0.116092 0.777576 0.095417
O O16 0.000000 0.813910 0.000000
#
# Coordination Sequence:
#
# PCOD9176835 Si02
#       7
#     8   8   8   4   8   8   8
#     4  11  20  36  61  92 116 144 191 256 307 350
#     4   9  20  33  58  90 121 146 187 256 315 352
#     4  10  20  34  62  87 121 149 200 240 312 355
#     4  12  24  40  62  82 118 168 218 247 292 361
#     4  11  21  39  58  86 117 156 196 250 307 352
#     4  11  22  38  57  81 114 161 201 229 276 361
#     4  10  18  36  57  91 117 152 192 246 302 365
#
# _framework density 19.180679999999999
#
# number of rings (size 3 to 8) (size 9 to 14) (size 15 to 20)
#    0.000    1.538    4.615    1.385    0.000    0.000 
#    0.000    1.538    0.000    0.923    0.000    0.000 
#    0.000    0.000    0.000    0.000    0.000    0.000 
#
# Total GULP energy -144839.908656 kJ/mol
# GULP energy per Si atom -5570.765718 kJ/mol
# Density = 1.913702 g / cm^3
# Si number density = 19.180680 Si / 1000 Ang^3
#
#
#
# Elastic Constant Matrix: (Units=GPa)
#
#
# Indices 1 2 3 4 5 6 
#
# 1 60.5834 34.7132 25.0860 0.0000 -1.5480 0.0000
# 2 34.7132 162.0040 23.0524 0.0000 9.6806 0.0000
# 3 25.0860 23.0524 100.6217 0.0000 4.6830 0.0000
# 4 0.0000 0.0000 0.0000 15.7559 0.0000 -1.2539
# 5 -1.5480 9.6806 4.6830 0.0000 29.4687 0.0000
# 6 0.0000 0.0000 0.0000 -1.2539 0.0000 15.5235
#
#
#
# Elastic Compliance Matrix: (Units=1/GPa)
#
#
# Indices 1 2 3 4 5 6 
#
# 1 0.020691 -0.003994 -0.004387 0.000000 0.003096 0.000000
# 2 -0.003994 0.007257 -0.000550 0.000000 -0.002506 0.000000
# 3 -0.004387 -0.000550 0.011244 0.000000 -0.001837 0.000000
# 4 0.000000 0.000000 0.000000 0.063879 0.000000 0.005160
# 5 0.003096 -0.002506 -0.001837 0.000000 0.035212 0.000000
# 6 0.000000 0.000000 0.000000 0.005160 0.000000 0.064835
#
#
# Mechanical properties :
#
#
# Convention : Reuss Voigt Hill
#
# Bulk Modulus (GPa) = 46.88795 54.32359 50.60577
# Shear Modulus (GPa) = 21.92123 28.17345 25.04734
#
# Velocity S-wave (km/s) = 3.38432 3.83671 3.61759
# Velocity P-wave (km/s) = 6.30634 6.92897 6.62498
#
# Compressibility (1/GPa) = 0.02132744
#
# Stress axis : x y z
#
# Youngs Moduli (GPa) = 48.33116 137.80642 88.94006
#
# Poissons Ratio (x) = 0.55042 0.39022
# Poissons Ratio (y) = 0.19304 0.04892
# Poissons Ratio (z) = 0.21205 0.07580
#
# Static dielectric constant tensor:
#      x y z
#    x 1.686200 0.000000 0.012900 
#    y 0.000000 1.651200 0.000000 
#    z 0.012900 0.000000 1.757200 
# 
# From -- ./inp_files/17392.got.cif
#   From: 2010.05.17/outbox.cif.g08.bks.cpg/sg12_9_cif.got.tgz:17392.got - 2010.06.03 13:09:07.
