data_PCOD9176937
_publ_section_title
;
Structure prediction by ZEFSAII (Michael W. Deem and Ramdas Pophale) SiO2 
 PCOD9176937
Probable space group: C 2/M
;
_chemical_formula_sum "Si O2"
_cell_formula_units_Z 40
_cell_length_a 9.568074
_cell_length_b 30.281372
_cell_length_c 12.677850
_cell_angle_alpha 90.000000
_cell_angle_beta 35.253993
_cell_angle_gamma 90.000000
_cell_volume 2120.184164
_symmetry_space_group_name_H-M "C 2/M"
_symmetry_group_IT_number 12
_symmetry_cell_setting 'monoclinic'
loop_
_space_group_symop_operation_xyz
x,y,z
-x,y,-z
-x,-y,-z
x,-y,z
1/2+x,1/2+y,z
1/2-x,1/2+y,-z
1/2-x,1/2-y,-z
1/2+x,1/2-y,z
loop_
_atom_site_type_symbol
_atom_site_label
_atom_site_fract_x
_atom_site_fract_y
_atom_site_fract_z
Si Si1 0.484590 0.080508 0.162982
Si Si2 0.179114 0.321728 0.803768
Si Si3 0.097603 0.950085 0.251394
Si Si4 0.763637 0.801360 0.516976
Si Si5 0.388521 0.105231 0.455252
O O1 0.411895 0.128655 0.162644
O O2 0.256365 0.052439 0.261037
O O3 0.511269 0.085850 0.272392
O O4 0.717991 0.062427 0.957366
O O5 0.175117 0.300991 0.691721
O O6 0.457891 0.317428 0.665074
O O7 0.000000 0.301636 0.000000
O O8 0.880195 0.915408 0.386031
O O9 0.008212 0.000000 0.292451
O O10 0.750000 0.750000 0.500000
O O11 0.618623 0.841212 0.550251
O O12 0.500000 0.093272 0.500000
#
# Coordination Sequence:
#
# PCOD9176937 Si02
#       5
#     8   8   8   8   8
#     4  10  19  39  64  89 115 153 205 251 295 347
#     4  10  18  36  63  85 113 150 198 257 295 337
#     4  11  22  39  66  92 116 154 208 256 296 355
#     4  10  22  37  60  86 119 159 201 247 296 358
#     4  11  24  39  59  88 128 166 192 243 311 369
#
# _framework density 18.866285999999999
#
# number of rings (size 3 to 8) (size 9 to 14) (size 15 to 20)
#    0.000    1.600    4.000    1.800    2.800    4.400 
#    0.000    1.000    0.000    0.000    0.000    0.000 
#    0.000    0.000    0.000    0.000    0.000    0.000 
#
# Total GULP energy -111407.056667 kJ/mol
# GULP energy per Si atom -5570.352833 kJ/mol
# Density = 1.882335 g / cm^3
# Si number density = 18.866286 Si / 1000 Ang^3
#
#
#
# Elastic Constant Matrix: (Units=GPa)
#
#
# Indices 1 2 3 4 5 6 
#
# 1 59.5203 -11.7379 19.2687 0.0000 23.6030 0.0000
# 2 -11.7379 76.6607 4.3720 0.0000 -2.8889 0.0000
# 3 19.2687 4.3720 91.9646 0.0000 23.2484 0.0000
# 4 0.0000 0.0000 0.0000 23.2808 0.0000 -0.6925
# 5 23.6030 -2.8889 23.2484 0.0000 18.4655 0.0000
# 6 0.0000 0.0000 0.0000 -0.6925 0.0000 -158.0754
#
#
#
# Elastic Compliance Matrix: (Units=1/GPa)
#
#
# Indices 1 2 3 4 5 6 
#
# 1 0.037023 0.003304 0.005748 0.000000 -0.054043 0.000000
# 2 0.003304 0.013595 -0.001186 0.000000 -0.000603 0.000000
# 3 0.005748 -0.001186 0.017060 0.000000 -0.029011 0.000000
# 4 0.000000 0.000000 0.000000 0.042948 0.000000 -0.000188
# 5 -0.054043 -0.000603 -0.029011 0.000000 0.159665 0.000000
# 6 0.000000 0.000000 0.000000 -0.000188 0.000000 -0.006325
#
#
# Mechanical properties :
#
#
# Convention : Reuss Voigt Hill
#
# Bulk Modulus (GPa) = 11.98900 27.99457 19.99179
# Shear Modulus (GPa) = 18.11353 -8.84963 4.63195
#
# Velocity S-wave (km/s) = 3.10191 -2.16815 1.56859
# Velocity P-wave (km/s) = 4.38151 2.93305 3.72830
#
# Compressibility (1/GPa) = 0.08340976
#
# Stress axis : x y z
#
# Youngs Moduli (GPa) = 27.01044 73.55454 58.61744
#
# Poissons Ratio (x) = -0.24305 -0.33691
# Poissons Ratio (y) = -0.08925 0.06953
# Poissons Ratio (z) = -0.15525 0.08724
#
# Static dielectric constant tensor:
#      x y z
#    x 1.678700 0.000000 0.017970 
#    y 0.000000 1.690710 0.000000 
#    z 0.017970 0.000000 1.682480 
# 
# From -- ./inp_files/125017.got.cif
#   From: 2010.05.17/outbox.cif.g08.bks.cpg/sg12_63_cif.got.tgz:125017.got - 2010.06.03 13:09:07.
