data_PCOD9176657
_publ_section_title
;
Structure prediction by ZEFSAII (Michael W. Deem and Ramdas Pophale) SiO2 
 PCOD9176657
Probable space group: C 2/M
;
_chemical_formula_sum "Si O2"
_cell_formula_units_Z 56
_cell_length_a 17.315259
_cell_length_b 20.386937
_cell_length_c 15.099949
_cell_angle_alpha 90.000000
_cell_angle_beta 32.545973
_cell_angle_gamma 90.000000
_cell_volume 2867.606002
_symmetry_space_group_name_H-M "C 2/M"
_symmetry_group_IT_number 12
_symmetry_cell_setting 'monoclinic'
loop_
_space_group_symop_operation_xyz
x,y,z
-x,y,-z
-x,-y,-z
x,-y,z
1/2+x,1/2+y,z
1/2-x,1/2+y,-z
1/2-x,1/2-y,-z
1/2+x,1/2-y,z
loop_
_atom_site_type_symbol
_atom_site_label
_atom_site_fract_x
_atom_site_fract_y
_atom_site_fract_z
Si Si1 0.705807 0.428255 0.900369
Si Si2 0.899545 0.697961 0.180954
Si Si3 0.080552 0.255558 0.176299
Si Si4 0.982554 0.381774 0.369378
Si Si5 0.708847 0.073367 0.612934
Si Si6 0.213773 0.839851 0.731126
Si Si7 0.522689 0.384103 0.748336
O O1 0.667670 0.500000 0.900684
O O2 0.667415 0.370628 0.868991
O O3 0.876364 0.423712 0.749002
O O4 0.619516 0.417639 0.075031
O O5 0.818850 0.632783 0.292161
O O6 0.798849 0.761052 0.257811
O O7 0.002619 0.721120 0.161645
O O8 0.000000 0.684832 0.000000
O O9 0.040704 0.310112 0.285946
O O10 0.019312 0.184138 0.256886
O O11 0.250000 0.250000 0.000000
O O12 0.894713 0.411520 0.371209
O O13 0.869662 0.369135 0.556726
O O14 0.870373 0.077203 0.418450
O O15 0.679828 0.000000 0.674751
O O16 0.114366 0.865758 0.747450
#
# Coordination Sequence:
#
# PCOD9176657 Si02
#       7
#     8   8   8   8   8   8   8
#     4  12  23  34  52  83 121 160 191 227 283 347
#     4  10  21  37  60  87 113 145 192 245 288 341
#     4  10  18  35  60  85 111 144 193 242 286 332
#     4  10  21  35  55  83 114 151 192 236 285 339
#     4  10  21  38  59  83 112 150 194 241 292 343
#     4  10  21  36  53  79 117 151 190 236 279 338
#     4  10  20  36  57  80 110 149 197 238 281 337
#
# _framework density 19.528485
#
# number of rings (size 3 to 8) (size 9 to 14) (size 15 to 20)
#    0.000    1.714    1.429    4.286    0.000    8.286 
#    0.000    0.000    0.000    0.000    0.000    1.000 
#    0.000    0.000    0.000    0.000    0.000    0.000 
#
# Total GULP energy -156335.917131 kJ/mol
# GULP energy per Si atom -5583.425612 kJ/mol
# Density = 1.948404 g / cm^3
# Si number density = 19.528485 Si / 1000 Ang^3
#
#
#
# Elastic Constant Matrix: (Units=GPa)
#
#
# Indices 1 2 3 4 5 6 
#
# 1 14.5643 20.7208 6.5662 0.0026 -5.5408 -0.0036
# 2 20.7208 146.3146 40.2505 -0.0019 2.3849 -0.0013
# 3 6.5662 40.2505 114.9288 -0.0009 -5.4999 -0.0019
# 4 0.0026 -0.0019 -0.0009 11.1929 -0.0008 2.7994
# 5 -5.5408 2.3849 -5.4999 -0.0008 30.5189 0.0016
# 6 -0.0036 -0.0013 -0.0019 2.7994 0.0016 15.4413
#
#
#
# Elastic Compliance Matrix: (Units=1/GPa)
#
#
# Indices 1 2 3 4 5 6 
#
# 1 0.095283 -0.013876 0.000298 -0.000029 0.018437 0.000024
# 2 -0.013876 0.009619 -0.002756 0.000005 -0.003768 -0.000003
# 3 0.000298 -0.002756 0.009746 0.000000 0.002026 0.000001
# 4 -0.000029 0.000005 0.000000 0.093585 -0.000002 -0.016966
# 5 0.018437 -0.003768 0.002026 -0.000002 0.036773 0.000001
# 6 0.000024 -0.000003 0.000001 -0.016966 0.000001 0.067837
#
#
# Mechanical properties :
#
#
# Convention : Reuss Voigt Hill
#
# Bulk Modulus (GPa) = 12.19813 45.65362 28.92587
# Shear Modulus (GPa) = 13.41056 25.31529 19.36293
#
# Velocity S-wave (km/s) = 2.62337 3.60436 3.15226
# Velocity P-wave (km/s) = 3.92887 6.38362 5.30031
#
# Compressibility (1/GPa) = 0.08197979
#
# Stress axis : x y z
#
# Youngs Moduli (GPa) = 10.49505 103.95623 102.60293
#
# Poissons Ratio (x) = 1.44254 -0.03061
# Poissons Ratio (y) = 0.14563 0.28282
# Poissons Ratio (z) = -0.00313 0.28655
#
# Static dielectric constant tensor:
#      x y z
#    x 1.680610 0.000000 -0.023970 
#    y 0.000000 1.692060 0.000000 
#    z -0.023970 0.000000 1.714420 
# 
# From -- ./inp_files/75968.got.cif
#   From: 2010.05.17/outbox.cif.g08.bks.cpg/sg12_38_cif.got.tgz:75968.got - 2010.06.03 13:09:07.
