data_PCOD9176773
_publ_section_title
;
Structure prediction by ZEFSAII (Michael W. Deem and Ramdas Pophale) SiO2 
 PCOD9176773
Probable space group: C 2/M
;
_chemical_formula_sum "Si O2"
_cell_formula_units_Z 56
_cell_length_a 24.803290
_cell_length_b 21.135360
_cell_length_c 9.075945
_cell_angle_alpha 90.000000
_cell_angle_beta 40.100054
_cell_angle_gamma 90.000000
_cell_volume 3064.647395
_symmetry_space_group_name_H-M "C 2/M"
_symmetry_group_IT_number 12
_symmetry_cell_setting 'monoclinic'
loop_
_space_group_symop_operation_xyz
x,y,z
-x,y,-z
-x,-y,-z
x,-y,z
1/2+x,1/2+y,z
1/2-x,1/2+y,-z
1/2-x,1/2-y,-z
1/2+x,1/2-y,z
loop_
_atom_site_type_symbol
_atom_site_label
_atom_site_fract_x
_atom_site_fract_y
_atom_site_fract_z
Si Si1 0.745793 0.354464 0.832909
Si Si2 0.451468 0.259309 0.243754
Si Si3 0.770909 0.223854 0.620626
Si Si4 0.426622 0.701518 0.753875
Si Si5 0.889278 0.613349 0.332928
Si Si6 0.442029 0.928391 0.896914
Si Si7 0.347917 0.165916 0.906088
O O1 0.764077 0.283312 0.742421
O O2 0.797870 0.392924 0.599427
O O3 0.790275 0.362246 0.897566
O O4 0.644963 0.349704 0.057337
O O5 0.366000 0.298554 0.434871
O O6 0.520291 0.268341 0.224158
O O7 0.420971 0.186638 0.283271
O O8 0.500000 0.280654 0.000000
O O9 0.750000 0.250000 0.500000
O O10 0.705584 0.177153 0.832221
O O11 0.500000 0.674094 0.500000
O O12 0.382891 0.765403 0.779911
O O13 0.959130 0.575269 0.276946
O O14 0.899366 0.593179 0.141819
O O15 0.419030 0.881574 0.812300
O O16 0.416554 0.000000 0.917819
#
# Coordination Sequence:
#
# PCOD9176773 Si02
#       7
#     8   8   8   8   8   8   8
#     4  10  21  32  50  74 104 145 173 215 272 328
#     4  11  17  27  48  75 102 138 175 208 254 316
#     4  10  19  31  48  74 105 144 183 210 262 332
#     4  11  19  31  49  75 108 141 177 203 254 329
#     4  10  18  36  51  73 104 140 179 222 278 310
#     4  11  22  36  57  76 100 143 193 233 263 319
#     4  11  20  34  48  72 109 145 178 222 272 307
#
# _framework density 18.272901000000001
#
# number of rings (size 3 to 8) (size 9 to 14) (size 15 to 20)
#    0.000    1.429    2.857    8.571    0.000    0.000 
#    0.000    2.143    0.000    0.000    0.000    0.000 
#    0.000   26.286    0.000    0.000    0.000    0.000 
#
# Total GULP energy -155912.050516 kJ/mol
# GULP energy per Si atom -5568.287518 kJ/mol
# Density = 1.823131 g / cm^3
# Si number density = 18.272901 Si / 1000 Ang^3
#
#
#
# Elastic Constant Matrix: (Units=GPa)
#
#
# Indices 1 2 3 4 5 6 
#
# 1 65.3475 6.1533 9.8259 0.0000 -6.7143 0.0000
# 2 6.1533 29.8904 7.5345 0.0000 -0.1639 0.0000
# 3 9.8259 7.5345 127.4384 0.0000 -23.7905 0.0000
# 4 0.0000 0.0000 0.0000 5.0440 0.0000 -2.3927
# 5 -6.7143 -0.1639 -23.7905 0.0000 23.1469 0.0000
# 6 0.0000 0.0000 0.0000 -2.3927 0.0000 6.5607
#
#
#
# Elastic Compliance Matrix: (Units=1/GPa)
#
#
# Indices 1 2 3 4 5 6 
#
# 1 0.016095 -0.003232 -0.000226 0.000000 0.004414 0.000000
# 2 -0.003232 0.034706 -0.002391 0.000000 -0.003149 0.000000
# 3 -0.000226 -0.002391 0.009887 0.000000 0.010080 0.000000
# 4 0.000000 0.000000 0.000000 0.239728 0.000000 0.087428
# 5 0.004414 -0.003149 0.010080 0.000000 0.054820 0.000000
# 6 0.000000 0.000000 0.000000 0.087428 0.000000 0.184307
#
#
# Mechanical properties :
#
#
# Convention : Reuss Voigt Hill
#
# Bulk Modulus (GPa) = 20.41191 29.96710 25.18950
# Shear Modulus (GPa) = 8.80947 20.22784 14.51865
#
# Velocity S-wave (km/s) = 2.19807 3.33075 2.82183
# Velocity P-wave (km/s) = 4.19963 5.58813 4.94288
#
# Compressibility (1/GPa) = 0.04899101
#
# Stress axis : x y z
#
# Youngs Moduli (GPa) = 62.13265 28.81328 101.13867
#
# Poissons Ratio (x) = 0.09313 0.02285
# Poissons Ratio (y) = 0.20082 0.24178
# Poissons Ratio (z) = 0.01404 0.06888
#
# Static dielectric constant tensor:
#      x y z
#    x 1.631170 0.000000 -0.024680 
#    y 0.000000 1.638680 0.000000 
#    z -0.024680 0.000000 1.741840 
# 
# From -- ./inp_files/99630.got.cif
#   From: 2010.05.17/outbox.cif.g08.bks.cpg/sg12_50_cif.got.tgz:99630.got - 2010.06.03 13:09:07.
