data_PCOD9176473
_publ_section_title
;
Structure prediction by ZEFSAII (Michael W. Deem and Ramdas Pophale) SiO2 
 PCOD9176473
Probable space group: C 2/M
;
_chemical_formula_sum "Si O2"
_cell_formula_units_Z 56
_cell_length_a 16.995386
_cell_length_b 28.098131
_cell_length_c 9.100831
_cell_angle_alpha 90.000000
_cell_angle_beta 139.396711
_cell_angle_gamma 90.000000
_cell_volume 2828.452819
_symmetry_space_group_name_H-M "C 2/M"
_symmetry_group_IT_number 12
_symmetry_cell_setting 'monoclinic'
loop_
_space_group_symop_operation_xyz
x,y,z
-x,y,-z
-x,-y,-z
x,-y,z
1/2+x,1/2+y,z
1/2-x,1/2+y,-z
1/2-x,1/2-y,-z
1/2+x,1/2-y,z
loop_
_atom_site_type_symbol
_atom_site_label
_atom_site_fract_x
_atom_site_fract_y
_atom_site_fract_z
Si Si1 0.300818 0.368142 0.922986
Si Si2 0.403358 0.849622 0.129442
Si Si3 0.350162 0.798504 0.482639
Si Si4 0.941714 0.860262 0.759232
Si Si5 0.237069 0.296756 0.322244
Si Si6 0.199174 0.945543 0.296052
Si Si7 0.983770 0.553742 0.655483
O O1 0.203665 0.356677 0.906896
O O2 0.244085 0.339155 0.703239
O O3 0.314042 0.422026 0.883896
O O4 0.436242 0.356945 0.163197
O O5 0.515913 0.818811 0.351273
O O6 0.451529 0.902947 0.171954
O O7 0.346825 0.824203 0.909618
O O8 0.298747 0.750079 0.339705
O O9 0.342394 0.786413 0.645105
O O10 0.843775 0.828627 0.539947
O O11 0.878404 0.911161 0.706997
O O12 0.000000 0.844652 0.000000
O O13 0.345112 0.944577 0.514686
O O14 0.159554 0.000000 0.249840
O O15 0.029463 0.500000 0.745913
O O16 0.000000 0.562151 0.500000
#
# Coordination Sequence:
#
# PCOD9176473 Si02
#       7
#     8   8   8   8   8   8   8
#     4  11  22  39  63  89 128 166 208 266 318 381
#     4  12  23  40  63  97 136 163 211 282 327 381
#     4  11  23  42  62  88 122 174 219 261 315 395
#     4  10  21  41  61  84 124 163 216 264 301 390
#     4  11  25  40  66  90 122 173 218 265 333 374
#     4  10  19  36  66  97 120 165 223 260 304 384
#     4  10  18  34  63  95 131 173 213 258 327 402
#
# _framework density 19.798811000000001
#
# number of rings (size 3 to 8) (size 9 to 14) (size 15 to 20)
#    0.000    1.286    5.714    0.857    2.000    3.714 
#    2.571    0.714    0.000    2.571    0.000    6.000 
#    0.000    0.000    0.000    0.000    0.000    0.000 
#
# Total GULP energy -155973.813328 kJ/mol
# GULP energy per Si atom -5570.493333 kJ/mol
# Density = 1.975375 g / cm^3
# Si number density = 19.798811 Si / 1000 Ang^3
#
#
#
# Elastic Constant Matrix: (Units=GPa)
#
#
# Indices 1 2 3 4 5 6 
#
# 1 84.4327 20.9320 21.5731 0.0000 34.8948 0.0000
# 2 20.9320 113.7990 54.2290 0.0000 7.8279 0.0000
# 3 21.5731 54.2290 89.7229 0.0000 22.2070 0.0000
# 4 0.0000 0.0000 0.0000 76.5233 0.0000 -20.4059
# 5 34.8948 7.8279 22.2070 0.0000 29.0418 0.0000
# 6 0.0000 0.0000 0.0000 -20.4059 0.0000 21.6850
#
#
#
# Elastic Compliance Matrix: (Units=1/GPa)
#
#
# Indices 1 2 3 4 5 6 
#
# 1 0.025410 -0.004756 0.004939 0.000000 -0.033025 0.000000
# 2 -0.004756 0.013438 -0.009246 0.000000 0.009162 0.000000
# 3 0.004939 -0.009246 0.020226 0.000000 -0.018908 0.000000
# 4 0.000000 0.000000 0.000000 0.017446 0.000000 0.016417
# 5 -0.033025 0.009162 -0.018908 0.000000 0.086103 0.000000
# 6 0.000000 0.000000 0.000000 0.016417 0.000000 0.061563
#
#
# Mechanical properties :
#
#
# Convention : Reuss Voigt Hill
#
# Bulk Modulus (GPa) = 24.42133 53.49141 38.95637
# Shear Modulus (GPa) = 19.53421 38.19806 28.86613
#
# Velocity S-wave (km/s) = 3.14448 4.39716 3.82248
# Velocity P-wave (km/s) = 5.05423 7.27022 6.26104
#
# Compressibility (1/GPa) = 0.04094781
#
# Stress axis : x y z
#
# Youngs Moduli (GPa) = 39.35500 74.41539 49.44056
#
# Poissons Ratio (x) = 0.35389 -0.24417
# Poissons Ratio (y) = 0.18715 0.45714
# Poissons Ratio (z) = -0.19436 0.68807
#
# Static dielectric constant tensor:
#      x y z
#    x 1.801290 0.000000 0.011420 
#    y 0.000000 1.733650 0.000000 
#    z 0.011420 0.000000 1.697670 
# 
# From -- ./inp_files/80067.got.cif
#   From: 2010.05.17/outbox.cif.g08.bks.cpg/sg12_41_cif.got.tgz:80067.got - 2010.06.03 13:09:07.
