data_PCOD9176381
_publ_section_title
;
Structure prediction by ZEFSAII (Michael W. Deem and Ramdas Pophale) SiO2 
 PCOD9176381
Probable space group: C 2/M
;
_chemical_formula_sum "Si O2"
_cell_formula_units_Z 48
_cell_length_a 23.307018
_cell_length_b 12.937478
_cell_length_c 15.081108
_cell_angle_alpha 90.000000
_cell_angle_beta 153.463758
_cell_angle_gamma 90.000000
_cell_volume 2031.643811
_symmetry_space_group_name_H-M "C 2/M"
_symmetry_group_IT_number 12
_symmetry_cell_setting 'monoclinic'
loop_
_space_group_symop_operation_xyz
x,y,z
-x,y,-z
-x,-y,-z
x,-y,z
1/2+x,1/2+y,z
1/2-x,1/2+y,-z
1/2-x,1/2-y,-z
1/2+x,1/2-y,z
loop_
_atom_site_type_symbol
_atom_site_label
_atom_site_fract_x
_atom_site_fract_y
_atom_site_fract_z
Si Si1 0.971430 0.158049 0.560584
Si Si2 0.625221 0.619895 0.055914
Si Si3 0.269429 0.636874 0.989264
Si Si4 0.015239 0.389015 0.361104
Si Si5 0.460964 0.812267 0.804169
Si Si6 0.801252 0.681743 0.748949
O O1 0.832154 0.132920 0.406775
O O2 0.000000 0.127427 0.500000
O O3 0.088878 0.112294 0.779016
O O4 0.967528 0.284151 0.559295
O O5 0.600572 0.500000 0.043438
O O6 0.689361 0.693213 0.219484
O O7 0.717498 0.626035 0.097747
O O8 0.499658 0.689630 0.856284
O O9 0.250000 0.750000 0.000000
O O10 0.137500 0.593944 0.843221
O O11 0.076639 0.500000 0.471597
O O12 0.049341 0.357705 0.307479
O O13 0.341914 0.832796 0.703891
O O14 0.585770 0.857081 0.028983
#
# Coordination Sequence:
#
# PCOD9176381 Si02
#       6
#     8   8   8   8   8   8
#     4  11  20  34  60  86 111 144 185 238 290 326
#     4  10  18  34  60  86 111 146 187 227 279 336
#     4  10  18  35  55  79 111 150 184 221 281 339
#     4  11  22  37  57  82 114 152 191 228 276 337
#     4   9  19  38  56  80 114 159 185 216 281 337
#     4   9  19  34  59  83 116 144 184 231 279 331
#
# _framework density 23.626189
#
# number of rings (size 3 to 8) (size 9 to 14) (size 15 to 20)
#    1.000    1.000    3.333    3.500    0.000    3.000 
#    0.000    1.667    0.000   10.000    0.000    0.000 
#    0.000    0.000    0.000    0.000    0.000    0.000 
#
# Total GULP energy -133748.368635 kJ/mol
# GULP energy per Si atom -5572.848693 kJ/mol
# Density = 2.357241 g / cm^3
# Si number density = 23.626189 Si / 1000 Ang^3
#
#
#
# Elastic Constant Matrix: (Units=GPa)
#
#
# Indices 1 2 3 4 5 6 
#
# 1 196.5627 -9.5398 45.8849 0.0000 16.7577 0.0000
# 2 -9.5398 83.8322 -6.7364 0.0000 12.9956 0.0000
# 3 45.8849 -6.7364 67.7621 0.0000 16.7290 0.0000
# 4 0.0000 0.0000 0.0000 6.8832 0.0000 -32.3200
# 5 16.7577 12.9956 16.7290 0.0000 34.5109 0.0000
# 6 0.0000 0.0000 0.0000 -32.3200 0.0000 96.1771
#
#
#
# Elastic Compliance Matrix: (Units=1/GPa)
#
#
# Indices 1 2 3 4 5 6 
#
# 1 0.006106 0.000610 -0.003732 0.000000 -0.001386 0.000000
# 2 0.000610 0.013203 0.002499 0.000000 -0.006480 0.000000
# 3 -0.003732 0.002499 0.019672 0.000000 -0.008665 0.000000
# 4 0.000000 0.000000 0.000000 -0.251392 0.000000 -0.084479
# 5 -0.001386 -0.006480 -0.008665 0.000000 0.036289 0.000000
# 6 0.000000 0.000000 0.000000 -0.084479 0.000000 -0.017991
#
#
# Mechanical properties :
#
#
# Convention : Reuss Voigt Hill
#
# Bulk Modulus (GPa) = 26.50001 45.26381 35.88191
# Shear Modulus (GPa) = -27.73361 48.75078 10.50858
#
# Velocity S-wave (km/s) = -3.42987 4.54742 2.11128
# Velocity P-wave (km/s) = 2.10822 6.83900 4.60040
#
# Compressibility (1/GPa) = 0.03773584
#
# Stress axis : x y z
#
# Youngs Moduli (GPa) = 163.76267 75.73881 50.83244
#
# Poissons Ratio (x) = -0.04618 0.18972
# Poissons Ratio (y) = -0.09986 -0.12705
# Poissons Ratio (z) = 0.61120 -0.18930
#
# Static dielectric constant tensor:
#      x y z
#    x 1.832730 0.000000 0.032390 
#    y 0.000000 2.017970 0.000000 
#    z 0.032390 0.000000 1.939110 
# 
# From -- ./inp_files/240753.got.cif
#   From: 2010.05.17/outbox.cif.g08.bks.cpg/sg12_121_cif.got.tgz:240753.got - 2010.06.03 13:09:07.
