data_PCOD9176496
_publ_section_title
;
Structure prediction by ZEFSAII (Michael W. Deem and Ramdas Pophale) SiO2 
 PCOD9176496
Probable space group: C 2/M
;
_chemical_formula_sum "Si O2"
_cell_formula_units_Z 36
_cell_length_a 12.530392
_cell_length_b 20.682439
_cell_length_c 13.282028
_cell_angle_alpha 90.000000
_cell_angle_beta 142.990256
_cell_angle_gamma 90.000000
_cell_volume 2072.009880
_symmetry_space_group_name_H-M "C 2/M"
_symmetry_group_IT_number 12
_symmetry_cell_setting 'monoclinic'
loop_
_space_group_symop_operation_xyz
x,y,z
-x,y,-z
-x,-y,-z
x,-y,z
1/2+x,1/2+y,z
1/2-x,1/2+y,-z
1/2-x,1/2-y,-z
1/2+x,1/2-y,z
loop_
_atom_site_type_symbol
_atom_site_label
_atom_site_fract_x
_atom_site_fract_y
_atom_site_fract_z
Si Si1 0.024301 0.000000 0.852446
Si Si2 0.549489 0.364864 0.258116
Si Si3 0.657147 0.248264 0.822203
Si Si4 0.533576 0.131823 0.414225
Si Si5 0.500000 0.301066 0.000000
Si Si6 0.695047 0.000000 0.755983
O O1 0.038944 0.934716 0.800703
O O2 0.830349 0.000000 0.762589
O O3 0.173745 0.000000 0.050523
O O4 0.466419 0.310939 0.268269
O O5 0.756514 0.373645 0.436902
O O6 0.518942 0.343414 0.116843
O O7 0.546028 0.182836 0.723801
O O8 0.750000 0.250000 0.000000
O O9 0.822786 0.241832 0.871647
O O10 0.500000 0.160597 0.500000
O O11 0.427173 0.063972 0.333341
#
# Coordination Sequence:
#
# PCOD9176496 Si02
#       6
#     4   8   8   8   4   4
#     4  11  19  32  51  77 110 139 175 209 265 322
#     4  11  21  33  53  78 108 140 176 217 261 313
#     4  10  21  35  52  75 107 142 177 216 262 313
#     4  12  20  33  52  80 113 139 174 212 263 317
#     4  10  18  35  52  75 106 136 176 220 264 311
#     4  11  20  31  52  78 109 146 162 211 273 324
#
# _framework density 17.374434000000001
#
# number of rings (size 3 to 8) (size 9 to 14) (size 15 to 20)
#    0.000    1.111    4.444    5.667    0.000    0.000 
#    0.000    0.000    0.000    0.667    0.000    2.333 
#    0.000    0.000    0.000    0.000    0.000    0.000 
#
# Total GULP energy -100395.016689 kJ/mol
# GULP energy per Si atom -5577.500927 kJ/mol
# Density = 1.733489 g / cm^3
# Si number density = 17.374434 Si / 1000 Ang^3
#
#
#
# Elastic Constant Matrix: (Units=GPa)
#
#
# Indices 1 2 3 4 5 6 
#
# 1 26.4671 33.2801 14.3963 0.0000 13.0301 0.0000
# 2 33.2801 134.5676 49.2508 0.0000 5.7519 0.0000
# 3 14.3963 49.2508 103.1689 0.0000 16.1778 0.0000
# 4 0.0000 0.0000 0.0000 37.9393 0.0000 4.9728
# 5 13.0301 5.7519 16.1778 0.0000 29.3473 0.0000
# 6 0.0000 0.0000 0.0000 4.9728 0.0000 18.4048
#
#
#
# Elastic Compliance Matrix: (Units=1/GPa)
#
#
# Indices 1 2 3 4 5 6 
#
# 1 0.074298 -0.018221 0.003222 0.000000 -0.031193 0.000000
# 2 -0.018221 0.013485 -0.005198 0.000000 0.008313 0.000000
# 3 0.003222 -0.005198 0.012905 0.000000 -0.007526 0.000000
# 4 0.000000 0.000000 0.000000 0.027326 0.000000 -0.007383
# 5 -0.031193 0.008313 -0.007526 0.000000 0.050444 0.000000
# 6 0.000000 0.000000 0.000000 -0.007383 0.000000 0.056329
#
#
# Mechanical properties :
#
#
# Convention : Reuss Voigt Hill
#
# Bulk Modulus (GPa) = 16.58554 50.89533 33.74043
# Shear Modulus (GPa) = 16.93327 28.29004 22.61166
#
# Velocity S-wave (km/s) = 3.12526 4.03954 3.61145
# Velocity P-wave (km/s) = 4.75286 7.14941 6.07057
#
# Compressibility (1/GPa) = 0.06029350
#
# Stress axis : x y z
#
# Youngs Moduli (GPa) = 13.45933 74.15881 77.49024
#
# Poissons Ratio (x) = 1.35122 -0.24967
# Poissons Ratio (y) = 0.24524 0.40281
# Poissons Ratio (z) = -0.04336 0.38549
#
# Static dielectric constant tensor:
#      x y z
#    x 1.601380 0.000000 0.020050 
#    y 0.000000 1.623620 0.000000 
#    z 0.020050 0.000000 1.623440 
# 
# From -- ./inp_files/46861.got.cif
#   From: 2010.05.17/outbox.cif.g08.bks.cpg/sg12_24_cif.got.tgz:46861.got - 2010.06.03 13:09:07.
