data_PCOD9176154
_publ_section_title
;
Structure prediction by ZEFSAII (Michael W. Deem and Ramdas Pophale) SiO2 
 PCOD9176154
Probable space group: C 2/M
;
_chemical_formula_sum "Si O2"
_cell_formula_units_Z 52
_cell_length_a 26.864020
_cell_length_b 11.416559
_cell_length_c 7.609693
_cell_angle_alpha 90.000000
_cell_angle_beta 104.581098
_cell_angle_gamma 90.000000
_cell_volume 2258.684208
_symmetry_space_group_name_H-M "C 2/M"
_symmetry_group_IT_number 12
_symmetry_cell_setting 'monoclinic'
loop_
_space_group_symop_operation_xyz
x,y,z
-x,y,-z
-x,-y,-z
x,-y,z
1/2+x,1/2+y,z
1/2-x,1/2+y,-z
1/2-x,1/2-y,-z
1/2+x,1/2-y,z
loop_
_atom_site_type_symbol
_atom_site_label
_atom_site_fract_x
_atom_site_fract_y
_atom_site_fract_z
Si Si1 0.102160 0.628435 0.278963
Si Si2 0.331244 0.000000 0.307863
Si Si3 0.242246 0.810166 0.306812
Si Si4 0.986814 0.365401 0.284481
Si Si5 0.619936 0.807340 0.903556
Si Si6 0.199845 0.869754 0.832696
Si Si7 0.645254 0.375641 0.406580
O O1 0.119521 0.500000 0.382843
O O2 0.117866 0.749818 0.381441
O O3 0.040517 0.632212 0.227488
O O4 0.123962 0.635859 0.101546
O O5 0.288352 0.100619 0.325317
O O6 0.364586 0.102744 0.234503
O O7 0.250000 0.750000 0.500000
O O8 0.250118 0.708627 0.168793
O O9 0.187240 0.868653 0.288215
O O10 0.968244 0.500000 0.256592
O O11 0.941052 0.283912 0.176354
O O12 0.000000 0.341149 0.500000
O O13 0.656960 0.696535 0.908617
O O14 0.173353 0.881851 0.618635
O O15 0.214153 0.000000 0.910870
O O16 0.615966 0.500000 0.360352
#
# Coordination Sequence:
#
# PCOD9176154 Si02
#       7
#     8   4   8   8   8   8   8
#     4  11  23  38  58  89 123 159 205 242 300 363
#     4  10  18  34  56  82 113 156 195 230 303 346
#     4   9  18  33  58  83 110 151 198 249 295 354
#     4  10  20  36  59  90 120 149 198 253 302 354
#     4  11  20  37  61  83 122 161 191 245 304 365
#     4   9  20  36  58  87 117 151 201 251 304 358
#     4  10  20  39  60  85 121 160 202 257 301 348
#
# _framework density 23.022254
#
# number of rings (size 3 to 8) (size 9 to 14) (size 15 to 20)
#    0.000    2.000    2.308    1.385    1.077    2.462 
#   13.846    3.846    3.385    4.615    0.000    0.000 
#    0.000    0.000    0.000    0.000    0.000    0.000 
#
# Total GULP energy -144741.597291 kJ/mol
# GULP energy per Si atom -5566.984511 kJ/mol
# Density = 2.296985 g / cm^3
# Si number density = 23.022254 Si / 1000 Ang^3
#
#
#
# Elastic Constant Matrix: (Units=GPa)
#
#
# Indices 1 2 3 4 5 6 
#
# 1 87.3823 34.0129 12.5664 0.0000 -24.5266 0.0000
# 2 34.0129 155.7381 28.4074 0.0000 -8.4697 0.0000
# 3 12.5664 28.4074 178.4272 0.0000 -36.0648 0.0000
# 4 0.0000 0.0000 0.0000 11.1986 0.0000 -3.5064
# 5 -24.5266 -8.4697 -36.0648 0.0000 35.5912 0.0000
# 6 0.0000 0.0000 0.0000 -3.5064 0.0000 23.6230
#
#
#
# Elastic Compliance Matrix: (Units=1/GPa)
#
#
# Indices 1 2 3 4 5 6 
#
# 1 0.015749 -0.003119 0.001800 0.000000 0.011934 0.000000
# 2 -0.003119 0.007242 -0.001282 0.000000 -0.001725 0.000000
# 3 0.001800 -0.001282 0.007383 0.000000 0.008416 0.000000
# 4 0.000000 0.000000 0.000000 0.093650 0.000000 0.013901
# 5 0.011934 -0.001725 0.008416 0.000000 0.044439 0.000000
# 6 0.000000 0.000000 0.000000 0.013901 0.000000 0.044395
#
#
# Mechanical properties :
#
#
# Convention : Reuss Voigt Hill
#
# Bulk Modulus (GPa) = 39.72713 63.50233 51.61473
# Shear Modulus (GPa) = 22.07989 37.18660 29.63325
#
# Velocity S-wave (km/s) = 3.10024 4.02337 3.59159
# Velocity P-wave (km/s) = 5.48714 7.01614 6.29822
#
# Compressibility (1/GPa) = 0.02517171
#
# Stress axis : x y z
#
# Youngs Moduli (GPa) = 63.49687 138.07946 135.44536
#
# Poissons Ratio (x) = 0.43063 -0.24374
# Poissons Ratio (y) = 0.19803 0.17364
# Poissons Ratio (z) = -0.11427 0.17702
#
# Static dielectric constant tensor:
#      x y z
#    x 1.756600 0.000000 -0.224420 
#    y 0.000000 1.892230 0.000000 
#    z -0.224420 0.000000 1.842570 
# 
# From -- ./inp_files/102710.got.cif
#   From: 2010.05.17/outbox.cif.g08.bks.cpg/sg12_52_cif.got.tgz:102710.got - 2010.06.03 13:09:07.
