data_PCOD9176071
_publ_section_title
;
Structure prediction by ZEFSAII (Michael W. Deem and Ramdas Pophale) SiO2 
 PCOD9176071
Probable space group: C 2/M
;
_chemical_formula_sum "Si O2"
_cell_formula_units_Z 48
_cell_length_a 8.643126
_cell_length_b 18.557166
_cell_length_c 15.517376
_cell_angle_alpha 90.000000
_cell_angle_beta 83.716072
_cell_angle_gamma 90.000000
_cell_volume 2473.907957
_symmetry_space_group_name_H-M "C 2/M"
_symmetry_group_IT_number 12
_symmetry_cell_setting 'monoclinic'
loop_
_space_group_symop_operation_xyz
x,y,z
-x,y,-z
-x,-y,-z
x,-y,z
1/2+x,1/2+y,z
1/2-x,1/2+y,-z
1/2-x,1/2-y,-z
1/2+x,1/2-y,z
loop_
_atom_site_type_symbol
_atom_site_label
_atom_site_fract_x
_atom_site_fract_y
_atom_site_fract_z
Si Si1 0.299309 0.155505 0.435728
Si Si2 0.771653 0.915497 0.378336
Si Si3 0.507801 0.712206 0.356047
Si Si4 0.359469 0.295490 0.059232
Si Si5 0.936573 0.704709 0.820509
Si Si6 0.463573 0.077353 0.283709
O O1 0.295810 0.121667 0.530514
O O2 0.413366 0.222052 0.405940
O O3 0.133941 0.185639 0.416461
O O4 0.345352 0.092032 0.367944
O O5 0.633377 0.917491 0.317542
O O6 0.902065 0.857737 0.342171
O O7 0.819272 0.000000 0.389974
O O8 0.582467 0.744741 0.263472
O O9 0.225984 0.325615 0.131467
O O10 0.465120 0.245592 0.113526
O O11 0.500000 0.337436 0.000000
O O12 0.250000 0.250000 0.000000
O O13 0.045366 0.640062 0.783603
O O14 0.440404 0.000000 0.245645
#
# Coordination Sequence:
#
# PCOD9176071 Si02
#       6
#     8   8   8   8   8   8
#     4  11  22  36  53  75 106 144 192 235 269 309
#     4  11  23  37  51  73 109 149 189 230 271 314
#     4  11  22  35  55  79 105 141 184 229 276 315
#     4   9  18  32  56  83 105 129 160 207 263 319
#     4  10  18  34  54  80 108 132 171 218 262 319
#     4  10  21  36  55  77 106 147 184 220 271 317
#
# _framework density 19.4025
#
# number of rings (size 3 to 8) (size 9 to 14) (size 15 to 20)
#    0.000    1.667    0.000    7.000    0.000    6.000 
#    0.000    0.000    0.000    5.000    0.000    4.667 
#    0.000    0.000    0.000    0.000    0.000    0.000 
#
# Total GULP energy -133785.773406 kJ/mol
# GULP energy per Si atom -5574.407225 kJ/mol
# Density = 1.935834 g / cm^3
# Si number density = 19.402500 Si / 1000 Ang^3
#
#
#
# Elastic Constant Matrix: (Units=GPa)
#
#
# Indices 1 2 3 4 5 6 
#
# 1 45.3385 -5.5248 1.1025 0.0000 -12.0761 0.0000
# 2 -5.5248 86.2112 9.5810 0.0000 -3.4334 0.0000
# 3 1.1025 9.5810 63.5199 0.0000 -11.6902 0.0000
# 4 0.0000 0.0000 0.0000 2.7340 0.0000 1.7869
# 5 -12.0761 -3.4334 -11.6902 0.0000 31.3891 0.0000
# 6 0.0000 0.0000 0.0000 1.7869 0.0000 17.4815
#
#
#
# Elastic Compliance Matrix: (Units=1/GPa)
#
#
# Indices 1 2 3 4 5 6 
#
# 1 0.024988 0.001880 0.001170 0.000000 0.010255 0.000000
# 2 0.001880 0.011952 -0.001569 0.000000 0.001446 0.000000
# 3 0.001170 -0.001569 0.017189 0.000000 0.006680 0.000000
# 4 0.000000 0.000000 0.000000 0.391956 0.000000 -0.040064
# 5 0.010255 0.001446 0.006680 0.000000 0.038450 0.000000
# 6 0.000000 0.000000 0.000000 -0.040064 0.000000 0.061298
#
#
# Mechanical properties :
#
#
# Convention : Reuss Voigt Hill
#
# Bulk Modulus (GPa) = 17.51613 22.82078 20.16845
# Shear Modulus (GPa) = 8.89834 22.98164 15.93999
#
# Velocity S-wave (km/s) = 2.14386 3.44534 2.86937
# Velocity P-wave (km/s) = 3.89558 5.25495 4.62548
#
# Compressibility (1/GPa) = 0.05709025
#
# Stress axis : x y z
#
# Youngs Moduli (GPa) = 40.01865 83.66892 58.17708
#
# Poissons Ratio (x) = -0.15728 -0.06807
# Poissons Ratio (y) = -0.07522 0.09129
# Poissons Ratio (z) = -0.04682 0.13130
#
# Static dielectric constant tensor:
#      x y z
#    x 1.730600 0.000000 -0.050970 
#    y 0.000000 1.691200 0.000000 
#    z -0.050970 0.000000 1.737070 
# 
# From -- ./inp_files/195917.got.cif
#   From: 2010.05.17/outbox.cif.g08.bks.cpg/sg12_98_cif.got.tgz:195917.got - 2010.06.03 13:09:07.
