data_PCOD9176886
_publ_section_title
;
Structure prediction by ZEFSAII (Michael W. Deem and Ramdas Pophale) SiO2 
 PCOD9176886
Probable space group: C 2/M
;
_chemical_formula_sum "Si O2"
_cell_formula_units_Z 46
_cell_length_a 22.364912
_cell_length_b 15.325343
_cell_length_c 17.728325
_cell_angle_alpha 90.000000
_cell_angle_beta 26.101089
_cell_angle_gamma 90.000000
_cell_volume 2673.342371
_symmetry_space_group_name_H-M "C 2/M"
_symmetry_group_IT_number 12
_symmetry_cell_setting 'monoclinic'
loop_
_space_group_symop_operation_xyz
x,y,z
-x,y,-z
-x,-y,-z
x,-y,z
1/2+x,1/2+y,z
1/2-x,1/2+y,-z
1/2-x,1/2-y,-z
1/2+x,1/2-y,z
loop_
_atom_site_type_symbol
_atom_site_label
_atom_site_fract_x
_atom_site_fract_y
_atom_site_fract_z
Si Si1 0.345149 0.851355 0.455285
Si Si2 0.020536 0.396216 0.393371
Si Si3 0.325154 0.500000 0.546814
Si Si4 0.580456 0.653224 0.670793
Si Si5 0.771143 0.847154 0.006539
Si Si6 0.050592 0.500000 0.775417
Si Si7 0.000000 0.000000 0.500000
Si Si8 0.254645 0.500000 0.901154
O O1 0.394254 0.875438 0.482454
O O2 0.389533 0.752003 0.389639
O O3 0.185686 0.862743 0.619509
O O4 0.418402 0.916148 0.312932
O O5 0.033895 0.500000 0.383199
O O6 0.000000 0.359116 0.500000
O O7 0.154857 0.363310 0.199418
O O8 0.381587 0.584780 0.437972
O O9 0.162114 0.500000 0.715800
O O10 0.379926 0.500000 0.569380
O O11 0.422571 0.643573 0.867764
O O12 0.758476 0.916414 0.952716
O O13 0.750000 0.750000 0.000000
O O14 0.891765 0.500000 0.974304
O O15 0.118210 0.000000 0.298966
#
# Coordination Sequence:
#
# PCOD9176886 Si02
#       8
#     8   8   4   8   8   4   2   4
#     4  10  18  36  60  86 112 146 196 239 279 347
#     4  11  22  38  60  89 118 150 195 245 289 338
#     4  10  22  37  55  84 120 152 188 240 293 332
#     4  10  20  34  60  86 110 152 196 231 284 347
#     4  12  20  38  62  87 112 158 194 232 292 348
#     4  10  18  37  64  81 108 157 196 234 286 349
#     4  12  24  38  56  92 130 150 186 250 292 340
#     4  12  22  39  59  85 123 149 198 241 282 355
#
# _framework density 17.206924999999998
#
# number of rings (size 3 to 8) (size 9 to 14) (size 15 to 20)
#    0.000    1.217    6.957    0.000    0.000    0.348 
#    6.261    0.870    0.000    2.087    0.000    0.000 
#    0.000    0.000    0.000    0.000    0.000    0.000 
#
# Total GULP energy -128056.875716 kJ/mol
# GULP energy per Si atom -5567.690249 kJ/mol
# Density = 1.716776 g / cm^3
# Si number density = 17.206925 Si / 1000 Ang^3
#
#
#
# Elastic Constant Matrix: (Units=GPa)
#
#
# Indices 1 2 3 4 5 6 
#
# 1 152.4876 21.1433 86.3032 0.0000 -10.5235 0.0000
# 2 21.1433 103.7432 33.6274 0.0001 6.3705 -0.0001
# 3 86.3032 33.6274 133.0912 0.0000 -8.8702 0.0001
# 4 0.0000 0.0001 0.0000 -29.5758 0.0000 46.6617
# 5 -10.5235 6.3705 -8.8702 0.0000 38.2933 -0.0001
# 6 0.0000 -0.0001 0.0001 46.6617 -0.0001 -45.8496
#
#
#
# Elastic Compliance Matrix: (Units=1/GPa)
#
#
# Indices 1 2 3 4 5 6 
#
# 1 0.010426 -0.000048 -0.006660 0.000000 0.001330 0.000000
# 2 -0.000048 0.010721 -0.002841 0.000000 -0.002455 0.000000
# 3 -0.006660 -0.002841 0.012655 0.000000 0.001574 0.000000
# 4 0.000000 0.000000 0.000000 0.055828 0.000000 0.056816
# 5 0.001330 -0.002455 0.001574 0.000000 0.027253 0.000000
# 6 0.000000 0.000000 0.000000 0.056816 0.000000 0.036012
#
#
# Mechanical properties :
#
#
# Convention : Reuss Voigt Hill
#
# Bulk Modulus (GPa) = 68.01121 74.60774 71.30948
# Shear Modulus (GPa) = 28.26575 9.12345 18.69460
#
# Velocity S-wave (km/s) = 4.05742 2.30515 3.29972
# Velocity P-wave (km/s) = 7.84611 7.10902 7.48664
#
# Compressibility (1/GPa) = 0.01470346
#
# Stress axis : x y z
#
# Youngs Moduli (GPa) = 95.91836 93.27780 79.02045
#
# Poissons Ratio (x) = 0.00446 0.52625
# Poissons Ratio (y) = 0.00458 0.22453
# Poissons Ratio (z) = 0.63879 0.26504
#
# Static dielectric constant tensor:
#      x y z
#    x 1.616400 0.000000 0.002190 
#    y 0.000000 1.587610 0.000000 
#    z 0.002190 0.000000 1.644780 
# 
# From -- ./inp_files/234274.got.cif
#   From: 2010.05.17/outbox.cif.g08.bks.cpg/sg12_118_cif.got.tgz:234274.got - 2010.06.03 13:09:07.
