data_PCOD9176671
_publ_section_title
;
Structure prediction by ZEFSAII (Michael W. Deem and Ramdas Pophale) SiO2 
 PCOD9176671
Probable space group: C 2/M
;
_chemical_formula_sum "Si O2"
_cell_formula_units_Z 50
_cell_length_a 27.997965
_cell_length_b 12.133250
_cell_length_c 12.116964
_cell_angle_alpha 90.000000
_cell_angle_beta 32.275572
_cell_angle_gamma 90.000000
_cell_volume 2198.022426
_symmetry_space_group_name_H-M "C 2/M"
_symmetry_group_IT_number 12
_symmetry_cell_setting 'monoclinic'
loop_
_space_group_symop_operation_xyz
x,y,z
-x,y,-z
-x,-y,-z
x,-y,z
1/2+x,1/2+y,z
1/2-x,1/2+y,-z
1/2-x,1/2-y,-z
1/2+x,1/2-y,z
loop_
_atom_site_type_symbol
_atom_site_label
_atom_site_fract_x
_atom_site_fract_y
_atom_site_fract_z
Si Si1 0.648957 0.271813 0.534122
Si Si2 0.391518 0.125595 0.191013
Si Si3 0.379005 0.811458 0.772815
Si Si4 0.063127 0.760876 0.105904
Si Si5 0.572218 0.500000 0.032107
Si Si6 0.187675 0.129437 0.231840
Si Si7 0.500000 0.000000 0.500000
Si Si8 0.130675 0.000000 0.672451
O O1 0.658963 0.173965 0.603129
O O2 0.542594 0.263937 0.714256
O O3 0.694653 0.293216 0.327107
O O4 0.670537 0.385317 0.555244
O O5 0.365377 0.000000 0.218748
O O6 0.500000 0.125055 0.000000
O O7 0.385021 0.204759 0.097712
O O8 0.418456 0.804006 0.818750
O O9 0.383193 0.693056 0.706185
O O10 0.429129 0.903058 0.605897
O O11 0.279418 0.856791 0.986523
O O12 0.090447 0.888440 0.061506
O O13 0.624856 0.500000 0.814714
O O14 0.469077 0.500000 0.188948
O O15 0.169591 0.000000 0.292113
#
# Coordination Sequence:
#
# PCOD9176671 Si02
#       8
#     8   8   8   8   4   8   2   4
#     4  10  18  35  60  91 123 165 213 261 329 393
#     4   9  18  32  55  91 131 169 210 262 322 395
#     4  11  26  44  67  94 126 174 226 278 344 396
#     4  10  20  35  61  93 126 165 217 278 324 383
#     4   9  16  28  54  89 122 155 195 264 320 371
#     4  11  24  46  66  90 130 178 223 278 341 407
#     4  12  24  50  68  98 128 170 228 280 324 414
#     4   9  14  27  53  84 117 152 198 240 309 388
#
# _framework density 22.747720999999999
#
# number of rings (size 3 to 8) (size 9 to 14) (size 15 to 20)
#    0.000    1.920    3.200    0.960    2.240    0.000 
#    7.200    2.000    0.000    0.000    0.000    0.000 
#    0.000    0.000    0.000    0.000    0.000    0.000 
#
# Total GULP energy -139304.059148 kJ/mol
# GULP energy per Si atom -5572.162366 kJ/mol
# Density = 2.269595 g / cm^3
# Si number density = 22.747721 Si / 1000 Ang^3
#
#
#
# Elastic Constant Matrix: (Units=GPa)
#
#
# Indices 1 2 3 4 5 6 
#
# 1 51.4841 22.9485 -2.2812 0.0000 5.3254 0.0000
# 2 22.9485 143.9342 20.0073 0.0000 1.3685 0.0000
# 3 -2.2812 20.0073 63.8816 0.0000 6.1654 0.0000
# 4 0.0000 0.0000 0.0000 13.7734 0.0000 -9.3981
# 5 5.3254 1.3685 6.1654 0.0000 25.2881 0.0000
# 6 0.0000 0.0000 0.0000 -9.3981 0.0000 7.7991
#
#
#
# Elastic Compliance Matrix: (Units=1/GPa)
#
#
# Indices 1 2 3 4 5 6 
#
# 1 0.021717 -0.003753 0.002430 0.000000 -0.004963 0.000000
# 2 -0.003753 0.007913 -0.002711 0.000000 0.001023 0.000000
# 3 0.002430 -0.002711 0.017026 0.000000 -0.004516 0.000000
# 4 0.000000 0.000000 0.000000 0.408438 0.000000 0.492183
# 5 -0.004963 0.001023 -0.004516 0.000000 0.041635 0.000000
# 6 0.000000 0.000000 0.000000 0.492183 0.000000 0.721318
#
#
# Mechanical properties :
#
#
# Convention : Reuss Voigt Hill
#
# Bulk Modulus (GPa) = 25.91505 37.84990 31.88248
# Shear Modulus (GPa) = 4.03558 23.94714 13.99136
#
# Velocity S-wave (km/s) = 1.33338 3.24810 2.48274
# Velocity P-wave (km/s) = 3.71317 5.54454 4.71856
#
# Compressibility (1/GPa) = 0.03858762
#
# Stress axis : x y z
#
# Youngs Moduli (GPa) = 46.04595 126.37214 58.73486
#
# Poissons Ratio (x) = 0.47429 -0.14272
# Poissons Ratio (y) = 0.17282 0.15924
# Poissons Ratio (z) = -0.11189 0.34261
#
# Static dielectric constant tensor:
#      x y z
#    x 1.857800 0.000000 -0.051070 
#    y 0.000000 1.588980 0.000000 
#    z -0.051070 0.000000 1.897580 
# 
# From -- ./inp_files/188668.got.cif
#   From: 2010.05.17/outbox.cif.g08.bks.cpg/sg12_95_cif.got.tgz:188668.got - 2010.06.03 13:09:07.
