data_PCOD9176811
_publ_section_title
;
Structure prediction by ZEFSAII (Michael W. Deem and Ramdas Pophale) SiO2 
 PCOD9176811
Probable space group: C 2/M
;
_chemical_formula_sum "Si O2"
_cell_formula_units_Z 48
_cell_length_a 9.273128
_cell_length_b 23.267729
_cell_length_c 20.851165
_cell_angle_alpha 90.000000
_cell_angle_beta 145.363904
_cell_angle_gamma 90.000000
_cell_volume 2557.029660
_symmetry_space_group_name_H-M "C 2/M"
_symmetry_group_IT_number 12
_symmetry_cell_setting 'monoclinic'
loop_
_space_group_symop_operation_xyz
x,y,z
-x,y,-z
-x,-y,-z
x,-y,z
1/2+x,1/2+y,z
1/2-x,1/2+y,-z
1/2-x,1/2-y,-z
1/2+x,1/2-y,z
loop_
_atom_site_type_symbol
_atom_site_label
_atom_site_fract_x
_atom_site_fract_y
_atom_site_fract_z
Si Si1 0.850900 0.844077 0.789545
Si Si2 0.715163 0.311065 0.022467
Si Si3 0.169647 0.627804 0.348591
Si Si4 0.749979 0.791324 0.272346
Si Si5 0.213482 0.142082 0.379664
Si Si6 0.089181 0.934442 0.444197
O O1 0.628019 0.869796 0.751070
O O2 0.787464 0.776156 0.753781
O O3 0.839694 0.868601 0.714245
O O4 0.104899 0.849434 0.924338
O O5 0.500000 0.307667 0.000000
O O6 0.750000 0.250000 0.000000
O O7 0.994126 0.322613 0.152439
O O8 0.257127 0.688226 0.349063
O O9 0.276406 0.609670 0.457217
O O10 0.293436 0.580251 0.347289
O O11 0.000420 0.814283 0.328779
O O12 0.500000 0.162422 0.500000
O O13 0.175074 0.083863 0.405825
O O14 0.145259 0.000000 0.480534
#
# Coordination Sequence:
#
# PCOD9176811 Si02
#       6
#     8   8   8   8   8   8
#     4  11  21  36  54  85 125 153 192 229 272 337
#     4  10  21  35  57  82 114 162 206 229 258 325
#     4  10  18  36  56  84 108 148 197 228 285 344
#     4  10  22  36  55  82 125 162 188 226 277 330
#     4  11  23  38  52  86 117 150 195 231 290 353
#     4  10  22  41  59  78 110 149 196 250 297 347
#
# _framework density 18.77178
#
# number of rings (size 3 to 8) (size 9 to 14) (size 15 to 20)
#    0.000    1.667    3.333    2.000    7.000    1.000 
#    9.000    0.000    0.000    0.000    0.000   32.667 
#    0.000    0.000    0.000    0.000    0.000    0.000 
#
# Total GULP energy -133676.539838 kJ/mol
# GULP energy per Si atom -5569.855827 kJ/mol
# Density = 1.872905 g / cm^3
# Si number density = 18.771780 Si / 1000 Ang^3
#
#
#
# Elastic Constant Matrix: (Units=GPa)
#
#
# Indices 1 2 3 4 5 6 
#
# 1 110.4527 7.4302 53.9474 0.0013 -0.5275 0.0013
# 2 7.4302 35.1022 32.3850 0.0034 0.9331 0.0016
# 3 53.9474 32.3850 119.8058 -0.0085 2.3953 -0.0047
# 4 0.0013 0.0034 -0.0085 4.1778 -0.0040 -1.3036
# 5 -0.5275 0.9331 2.3953 -0.0040 32.9912 -0.0016
# 6 0.0013 0.0016 -0.0047 -1.3036 -0.0016 12.0937
#
#
#
# Elastic Compliance Matrix: (Units=1/GPa)
#
#
# Indices 1 2 3 4 5 6 
#
# 1 0.011884 0.003220 -0.006233 -0.000020 0.000551 -0.000006
# 2 0.003220 0.038829 -0.011942 -0.000063 -0.000180 -0.000017
# 3 -0.006233 -0.011942 0.014398 0.000044 -0.000807 0.000013
# 4 -0.000020 -0.000063 0.000044 0.247692 0.000030 0.026700
# 5 0.000551 -0.000180 -0.000807 0.000030 0.030384 0.000007
# 6 -0.000006 -0.000017 0.000013 0.026700 0.000007 0.085566
#
#
# Mechanical properties :
#
#
# Convention : Reuss Voigt Hill
#
# Bulk Modulus (GPa) = 28.40843 50.32066 39.36454
# Shear Modulus (GPa) = 10.62934 21.29242 15.96088
#
# Velocity S-wave (km/s) = 2.38216 3.37156 2.91908
# Velocity P-wave (km/s) = 4.76788 6.48238 5.69008
#
# Compressibility (1/GPa) = 0.03520082
#
# Stress axis : x y z
#
# Youngs Moduli (GPa) = 84.14823 25.75366 69.45578
#
# Poissons Ratio (x) = -0.08293 0.43289
# Poissons Ratio (y) = -0.27096 0.82947
# Poissons Ratio (z) = 0.52446 0.30756
#
# Static dielectric constant tensor:
#      x y z
#    x 1.698370 0.000000 -0.000950 
#    y 0.000000 1.645550 0.000000 
#    z -0.000950 0.000000 1.715750 
# 
# From -- ./inp_files/302583.got.cif
#   From: 2010.05.17/outbox.cif.g08.bks.cpg/sg12_152_cif.got.tgz:302583.got - 2010.06.03 13:09:07.
