data_PCOD9176194
_publ_section_title
;
Structure prediction by ZEFSAII (Michael W. Deem and Ramdas Pophale) SiO2 
 PCOD9176194
Probable space group: C 2/M
;
_chemical_formula_sum "Si O2"
_cell_formula_units_Z 40
_cell_length_a 23.135324
_cell_length_b 10.565954
_cell_length_c 8.692718
_cell_angle_alpha 90.000000
_cell_angle_beta 103.265818
_cell_angle_gamma 90.000000
_cell_volume 2068.205699
_symmetry_space_group_name_H-M "C 2/M"
_symmetry_group_IT_number 12
_symmetry_cell_setting 'monoclinic'
loop_
_space_group_symop_operation_xyz
x,y,z
-x,y,-z
-x,-y,-z
x,-y,z
1/2+x,1/2+y,z
1/2-x,1/2+y,-z
1/2-x,1/2-y,-z
1/2+x,1/2-y,z
loop_
_atom_site_type_symbol
_atom_site_label
_atom_site_fract_x
_atom_site_fract_y
_atom_site_fract_z
Si Si1 0.243427 0.778132 0.752993
Si Si2 0.678590 0.137673 0.466217
Si Si3 0.082206 0.151197 0.411947
Si Si4 0.338077 0.645616 0.023813
Si Si5 0.546840 0.348536 0.747771
O O1 0.269204 0.857954 0.627792
O O2 0.207547 0.664670 0.649837
O O3 0.198942 0.850110 0.839006
O O4 0.298910 0.726852 0.883966
O O5 0.635397 0.255263 0.405139
O O6 0.649244 0.000000 0.444697
O O7 0.067885 0.172119 0.584581
O O8 0.022006 0.188348 0.284568
O O9 0.093829 0.000000 0.398006
O O10 0.342537 0.500000 0.973707
O O11 0.403398 0.698981 0.103806
O O12 0.547023 0.500000 0.766870
#
# Coordination Sequence:
#
# PCOD9176194 Si02
#       5
#     8   8   8   8   8
#     4  10  22  34  52  77 111 145 179 215 266 324
#     4  11  22  36  53  80 114 147 178 215 265 324
#     4   9  17  32  56  81 105 137 180 224 264 312
#     4  10  18  34  57  80 103 136 180 228 269 311
#     4   8  15  30  55  81 103 132 178 227 268 308
#
# _framework density 19.340433999999998
#
# number of rings (size 3 to 8) (size 9 to 14) (size 15 to 20)
#    0.000    2.400    2.000    2.400    0.000    4.000 
#    0.000    3.000    0.000    4.800    0.000    0.000 
#    0.000    0.000    0.000    0.000    0.000    0.000 
#
# Total GULP energy -111479.268809 kJ/mol
# GULP energy per Si atom -5573.963440 kJ/mol
# Density = 1.929641 g / cm^3
# Si number density = 19.340434 Si / 1000 Ang^3
#
#
#
# Elastic Constant Matrix: (Units=GPa)
#
#
# Indices 1 2 3 4 5 6 
#
# 1 74.2360 24.5931 21.5823 0.0000 30.2817 0.0000
# 2 24.5931 71.0788 4.5064 0.0000 5.5547 0.0000
# 3 21.5823 4.5064 46.4658 0.0000 18.9465 0.0000
# 4 0.0000 0.0000 0.0000 2.1541 0.0000 4.1120
# 5 30.2817 5.5547 18.9465 0.0000 39.9105 0.0000
# 6 0.0000 0.0000 0.0000 4.1120 0.0000 22.3711
#
#
#
# Elastic Compliance Matrix: (Units=1/GPa)
#
#
# Indices 1 2 3 4 5 6 
#
# 1 0.022642 -0.006456 -0.004033 0.000000 -0.014366 0.000000
# 2 -0.006456 0.016083 0.000439 0.000000 0.002451 0.000000
# 3 -0.004033 0.000439 0.027441 0.000000 -0.010028 0.000000
# 4 0.000000 0.000000 0.000000 0.715172 0.000000 -0.131454
# 5 -0.014366 0.002451 -0.010028 0.000000 0.040376 0.000000
# 6 0.000000 0.000000 0.000000 -0.131454 0.000000 0.068863
#
#
# Mechanical properties :
#
#
# Convention : Reuss Voigt Hill
#
# Bulk Modulus (GPa) = 21.70724 32.57157 27.13940
# Shear Modulus (GPa) = 5.39939 22.29372 13.84655
#
# Velocity S-wave (km/s) = 1.67267 3.39883 2.67860
# Velocity P-wave (km/s) = 3.87021 5.68159 4.86102
#
# Compressibility (1/GPa) = 0.04606758
#
# Stress axis : x y z
#
# Youngs Moduli (GPa) = 44.16612 62.17698 36.44227
#
# Poissons Ratio (x) = 0.40139 0.14696
# Poissons Ratio (y) = 0.28512 -0.01601
# Poissons Ratio (z) = 0.17810 -0.02731
#
# Static dielectric constant tensor:
#      x y z
#    x 1.715890 0.000000 0.015210 
#    y 0.000000 1.667870 0.000000 
#    z 0.015210 0.000000 1.703540 
# 
# From -- ./inp_files/83392.got.cif
#   From: 2010.05.17/outbox.cif.g08.bks.cpg/sg12_42_cif.got.tgz:83392.got - 2010.06.03 13:09:07.
