data_PCOD9176032
_publ_section_title
;
Structure prediction by ZEFSAII (Michael W. Deem and Ramdas Pophale) SiO2 
 PCOD9176032
Probable space group: C 2/M
;
_chemical_formula_sum "Si O2"
_cell_formula_units_Z 52
_cell_length_a 17.683127
_cell_length_b 22.695815
_cell_length_c 9.602742
_cell_angle_alpha 90.000000
_cell_angle_beta 47.986843
_cell_angle_gamma 90.000000
_cell_volume 2863.411409
_symmetry_space_group_name_H-M "C 2/M"
_symmetry_group_IT_number 12
_symmetry_cell_setting 'monoclinic'
loop_
_space_group_symop_operation_xyz
x,y,z
-x,y,-z
-x,-y,-z
x,-y,z
1/2+x,1/2+y,z
1/2-x,1/2+y,-z
1/2-x,1/2-y,-z
1/2+x,1/2-y,z
loop_
_atom_site_type_symbol
_atom_site_label
_atom_site_fract_x
_atom_site_fract_y
_atom_site_fract_z
Si Si1 0.231725 0.703251 0.329617
Si Si2 0.864223 0.867462 0.374277
Si Si3 0.034542 0.067406 0.295060
Si Si4 0.174995 0.178974 0.086984
Si Si5 0.000000 0.669343 0.000000
Si Si6 0.713147 0.166997 0.772002
Si Si7 0.980191 0.747996 0.296223
O O1 0.281346 0.650165 0.359137
O O2 0.282154 0.767428 0.303429
O O3 0.110615 0.715055 0.505807
O O4 0.269848 0.691022 0.126599
O O5 0.801428 0.869966 0.593997
O O6 0.932232 0.808672 0.299293
O O7 0.944046 0.920217 0.293626
O O8 0.119282 0.115960 0.156527
O O9 0.000000 0.077334 0.500000
O O10 0.068406 0.000000 0.243276
O O11 0.258323 0.177283 0.104742
O O12 0.086163 0.227533 0.230853
O O13 0.893305 0.637001 0.129798
O O14 0.006209 0.708618 0.131096
#
# Coordination Sequence:
#
# PCOD9176032 Si02
#       7
#     8   8   8   8   4   8   8
#     4  11  20  32  50  78 113 153 182 218 275 334
#     4  10  18  34  52  75 109 145 186 221 279 325
#     4  10  21  38  61  83 105 145 196 241 288 334
#     4  11  22  36  53  80 117 148 190 233 278 328
#     4  12  18  32  50  74 112 152 192 212 260 338
#     4  11  20  33  49  79 108 158 186 220 265 342
#     4  10  19  30  50  73 111 154 182 214 264 336
#
# _framework density 18.160156000000001
#
# number of rings (size 3 to 8) (size 9 to 14) (size 15 to 20)
#    0.000    1.385    6.154    1.385    0.000    1.846 
#    0.000    1.538    0.000    0.000    0.000    2.154 
#    0.000    1.231    0.000    0.000    0.000    0.000 
#
# Total GULP energy -144757.841352 kJ/mol
# GULP energy per Si atom -5567.609283 kJ/mol
# Density = 1.811882 g / cm^3
# Si number density = 18.160156 Si / 1000 Ang^3
#
#
#
# Elastic Constant Matrix: (Units=GPa)
#
#
# Indices 1 2 3 4 5 6 
#
# 1 85.8915 21.6733 9.8737 0.0000 3.4120 0.0000
# 2 21.6733 64.7082 27.5687 0.0000 -9.6340 0.0000
# 3 9.8737 27.5687 64.0342 0.0000 5.5971 0.0000
# 4 0.0000 0.0000 0.0000 13.8562 0.0000 -1.3360
# 5 3.4120 -9.6340 5.5971 0.0000 18.2381 0.0000
# 6 0.0000 0.0000 0.0000 -1.3360 0.0000 16.4350
#
#
#
# Elastic Compliance Matrix: (Units=1/GPa)
#
#
# Indices 1 2 3 4 5 6 
#
# 1 0.013194 -0.005657 0.000902 0.000000 -0.005734 0.000000
# 2 -0.005657 0.024814 -0.011354 0.000000 0.017650 0.000000
# 3 0.000902 -0.011354 0.021481 0.000000 -0.012758 0.000000
# 4 0.000000 0.000000 0.000000 0.072740 0.000000 0.005913
# 5 -0.005734 0.017650 -0.012758 0.000000 0.069142 0.000000
# 6 0.000000 0.000000 0.000000 0.005913 0.000000 0.061326
#
#
# Mechanical properties :
#
#
# Convention : Reuss Voigt Hill
#
# Bulk Modulus (GPa) = 36.66805 36.98501 36.82653
# Shear Modulus (GPa) = 16.44713 20.07375 18.26044
#
# Velocity S-wave (km/s) = 3.01270 3.32832 3.17444
# Velocity P-wave (km/s) = 5.68658 5.93132 5.81024
#
# Compressibility (1/GPa) = 0.02727170
#
# Stress axis : x y z
#
# Youngs Moduli (GPa) = 75.79103 40.30013 46.55332
#
# Poissons Ratio (x) = 0.22799 -0.04201
# Poissons Ratio (y) = 0.42878 0.52855
# Poissons Ratio (z) = -0.06839 0.45755
#
# Static dielectric constant tensor:
#      x y z
#    x 1.696150 0.000000 0.000360 
#    y 0.000000 1.596880 0.000000 
#    z 0.000360 0.000000 1.680910 
# 
# From -- ./inp_files/66586.got.cif
#   From: 2010.05.17/outbox.cif.g08.bks.cpg/sg12_34_cif.got.tgz:66586.got - 2010.06.03 13:09:07.
