data_PCOD9176049
_publ_section_title
;
Structure prediction by ZEFSAII (Michael W. Deem and Ramdas Pophale) SiO2 
 PCOD9176049
Probable space group: C 2/M
;
_chemical_formula_sum "Si O2"
_cell_formula_units_Z 36
_cell_length_a 17.353928
_cell_length_b 21.449122
_cell_length_c 5.372838
_cell_angle_alpha 90.000000
_cell_angle_beta 119.902530
_cell_angle_gamma 90.000000
_cell_volume 1733.673869
_symmetry_space_group_name_H-M "C 2/M"
_symmetry_group_IT_number 12
_symmetry_cell_setting 'monoclinic'
loop_
_space_group_symop_operation_xyz
x,y,z
-x,y,-z
-x,-y,-z
x,-y,z
1/2+x,1/2+y,z
1/2-x,1/2+y,-z
1/2-x,1/2-y,-z
1/2+x,1/2-y,z
loop_
_atom_site_type_symbol
_atom_site_label
_atom_site_fract_x
_atom_site_fract_y
_atom_site_fract_z
Si Si1 0.500000 0.667940 0.500000
Si Si2 0.853758 0.267614 0.209953
Si Si3 0.406516 0.430830 0.073848
Si Si4 0.680347 0.807995 0.344727
Si Si5 0.789673 0.070271 0.388283
O O1 0.414101 0.710734 0.397097
O O2 0.522492 0.622618 0.763692
O O3 0.858283 0.316796 0.441283
O O4 0.750000 0.250000 0.000000
O O5 0.884069 0.287305 0.983027
O O6 0.447020 0.500000 0.154039
O O7 0.340507 0.424923 0.206052
O O8 0.353749 0.425943 0.732422
O O9 0.750000 0.750000 0.500000
O O10 0.725919 0.870781 0.320463
O O11 0.749930 0.000000 0.331058
#
# Coordination Sequence:
#
# PCOD9176049 Si02
#       5
#     4   8   8   8   8
#     4  12  23  38  58  82 117 158 184 232 286 328
#     4  10  22  35  54  79 107 144 189 229 274 327
#     4  10  21  34  52  82 118 153 185 216 271 355
#     4  10  18  34  53  78 110 143 184 233 268 318
#     4  10  20  36  58  84 116 153 188 227 281 342
#
# _framework density 20.765150999999999
#
# number of rings (size 3 to 8) (size 9 to 14) (size 15 to 20)
#    0.000    1.778    0.000    7.000    0.000    3.556 
#    0.000    3.333    0.000    0.000    0.000    4.667 
#    0.000    0.000    0.000    0.000    0.000    0.000 
#
# Total GULP energy -100457.878351 kJ/mol
# GULP energy per Si atom -5580.993242 kJ/mol
# Density = 2.071789 g / cm^3
# Si number density = 20.765151 Si / 1000 Ang^3
#
#
#
# Elastic Constant Matrix: (Units=GPa)
#
#
# Indices 1 2 3 4 5 6 
#
# 1 53.6476 32.8882 30.1933 0.0000 -19.1457 0.0000
# 2 32.8882 127.6884 15.8558 0.0000 10.4777 0.0000
# 3 30.1933 15.8558 86.4548 0.0000 -35.4438 0.0000
# 4 0.0000 0.0000 0.0000 10.7548 0.0000 41.0918
# 5 -19.1457 10.4777 -35.4438 0.0000 47.8638 0.0000
# 6 0.0000 0.0000 0.0000 41.0918 0.0000 -9.2397
#
#
#
# Elastic Compliance Matrix: (Units=1/GPa)
#
#
# Indices 1 2 3 4 5 6 
#
# 1 0.029796 -0.007902 -0.004827 0.000000 0.010074 0.000000
# 2 -0.007902 0.010706 -0.002097 0.000000 -0.007058 0.000000
# 3 -0.004827 -0.002097 0.018716 0.000000 0.012388 0.000000
# 4 0.000000 0.000000 0.000000 0.005168 0.000000 0.022983
# 5 0.010074 -0.007058 0.012388 0.000000 0.035640 0.000000
# 6 0.000000 0.000000 0.000000 0.022983 0.000000 -0.006015
#
#
# Mechanical properties :
#
#
# Convention : Reuss Voigt Hill
#
# Bulk Modulus (GPa) = 33.82213 47.29615 40.55914
# Shear Modulus (GPa) = 37.44818 22.46601 29.95710
#
# Velocity S-wave (km/s) = 4.25127 3.29281 3.80236
# Velocity P-wave (km/s) = 6.35775 6.10597 6.23313
#
# Compressibility (1/GPa) = 0.02956644
#
# Stress axis : x y z
#
# Youngs Moduli (GPa) = 33.56152 93.40255 53.43147
#
# Poissons Ratio (x) = 0.73804 0.25790
# Poissons Ratio (y) = 0.26519 0.11206
# Poissons Ratio (z) = 0.16199 0.19589
#
# Static dielectric constant tensor:
#      x y z
#    x 1.975300 0.000000 -0.081480 
#    y 0.000000 1.775830 0.000000 
#    z -0.081480 0.000000 1.778300 
# 
# From -- ./inp_files/10853.got.cif
#   From: 2010.05.17/outbox.cif.g08.bks.cpg/sg12_6_cif.got.tgz:10853.got - 2010.06.03 13:09:07.
