data_PCOD9176289
_publ_section_title
;
Structure prediction by ZEFSAII (Michael W. Deem and Ramdas Pophale) SiO2 
 PCOD9176289
Probable space group: C 2/M
;
_chemical_formula_sum "Si O2"
_cell_formula_units_Z 48
_cell_length_a 14.356439
_cell_length_b 30.234691
_cell_length_c 10.919645
_cell_angle_alpha 90.000000
_cell_angle_beta 28.901887
_cell_angle_gamma 90.000000
_cell_volume 2290.802549
_symmetry_space_group_name_H-M "C 2/M"
_symmetry_group_IT_number 12
_symmetry_cell_setting 'monoclinic'
loop_
_space_group_symop_operation_xyz
x,y,z
-x,y,-z
-x,-y,-z
x,-y,z
1/2+x,1/2+y,z
1/2-x,1/2+y,-z
1/2-x,1/2-y,-z
1/2+x,1/2-y,z
loop_
_atom_site_type_symbol
_atom_site_label
_atom_site_fract_x
_atom_site_fract_y
_atom_site_fract_z
Si Si1 0.719546 0.908743 0.743704
Si Si2 0.128762 0.207728 0.178678
Si Si3 0.447403 0.450200 0.261223
Si Si4 0.722429 0.194025 0.719509
Si Si5 0.753056 0.610670 0.006359
Si Si6 0.931024 0.450337 0.439885
O O1 0.834200 0.939463 0.518378
O O2 0.714660 0.858295 0.697820
O O3 0.794529 0.902125 0.796939
O O4 0.500000 0.924870 0.000000
O O5 0.185395 0.200506 0.254189
O O6 0.210249 0.161835 0.029689
O O7 0.895677 0.212805 0.433788
O O8 0.250000 0.250000 0.000000
O O9 0.522075 0.500000 0.176249
O O10 0.620877 0.416497 0.065852
O O11 0.294989 0.445751 0.327309
O O12 0.500000 0.209093 0.000000
O O13 0.964860 0.590924 0.744197
O O14 0.982030 0.500000 0.331653
O O15 0.000000 0.449915 0.500000
#
# Coordination Sequence:
#
# PCOD9176289 Si02
#       6
#     8   8   8   8   8   8
#     4  10  18  34  58  87 123 158 192 237 307 375
#     4  10  21  37  60  89 120 158 203 250 300 371
#     4  11  22  35  59  91 121 157 200 247 303 367
#     4   9  19  37  60  84 120 162 194 238 312 376
#     4  11  21  37  61  87 120 160 198 254 310 365
#     4  10  23  42  59  81 117 165 213 250 295 360
#
# _framework density 20.953354999999998
#
# number of rings (size 3 to 8) (size 9 to 14) (size 15 to 20)
#    0.000    1.833    3.333    1.000    0.000    3.667 
#    3.000    2.500    0.000    0.000    0.000    0.000 
#    0.000    0.000    0.000    0.000    0.000    0.000 
#
# Total GULP energy -133716.942621 kJ/mol
# GULP energy per Si atom -5571.539276 kJ/mol
# Density = 2.090566 g / cm^3
# Si number density = 20.953355 Si / 1000 Ang^3
#
#
#
# Elastic Constant Matrix: (Units=GPa)
#
#
# Indices 1 2 3 4 5 6 
#
# 1 75.8984 29.3655 6.5532 0.0000 -16.7884 0.0000
# 2 29.3655 122.6474 49.9878 0.0000 -12.9964 0.0000
# 3 6.5532 49.9878 90.6539 -0.0001 -31.7550 0.0000
# 4 0.0000 0.0000 -0.0001 32.8617 0.0000 -6.2930
# 5 -16.7884 -12.9964 -31.7550 0.0000 35.2455 0.0000
# 6 0.0000 0.0000 0.0000 -6.2930 0.0000 17.2586
#
#
#
# Elastic Compliance Matrix: (Units=1/GPa)
#
#
# Indices 1 2 3 4 5 6 
#
# 1 0.017206 -0.005197 0.005584 0.000000 0.011310 0.000000
# 2 -0.005197 0.012181 -0.008233 0.000000 -0.005402 0.000000
# 3 0.005584 -0.008233 0.021969 0.000000 0.019417 0.000000
# 4 0.000000 0.000000 0.000000 0.032715 0.000000 0.011929
# 5 0.011310 -0.005402 0.019417 0.000000 0.049262 0.000000
# 6 0.000000 0.000000 0.000000 0.011929 0.000000 0.062292
#
#
# Mechanical properties :
#
#
# Convention : Reuss Voigt Hill
#
# Bulk Modulus (GPa) = 28.04064 51.22364 39.63214
# Shear Modulus (GPa) = 22.40099 30.62603 26.51351
#
# Velocity S-wave (km/s) = 3.27324 3.82727 3.56105
# Velocity P-wave (km/s) = 5.26279 6.63553 5.98862
#
# Compressibility (1/GPa) = 0.03566252
#
# Stress axis : x y z
#
# Youngs Moduli (GPa) = 58.11995 82.09513 45.51926
#
# Poissons Ratio (x) = 0.42663 -0.25416
# Poissons Ratio (y) = 0.30204 0.37477
# Poissons Ratio (z) = -0.32452 0.67591
#
# Static dielectric constant tensor:
#      x y z
#    x 1.750380 0.000000 -0.014530 
#    y 0.000000 1.750790 0.000000 
#    z -0.014530 0.000000 1.892570 
# 
# From -- ./inp_files/149615.got.cif
#   From: 2010.05.17/outbox.cif.g08.bks.cpg/sg12_75_cif.got.tgz:149615.got - 2010.06.03 13:09:07.
