data_PCOD9176189
_publ_section_title
;
Structure prediction by ZEFSAII (Michael W. Deem and Ramdas Pophale) SiO2 
 PCOD9176189
Probable space group: C 2/M
;
_chemical_formula_sum "Si O2"
_cell_formula_units_Z 56
_cell_length_a 30.375180
_cell_length_b 7.712995
_cell_length_c 23.066011
_cell_angle_alpha 90.000000
_cell_angle_beta 151.309292
_cell_angle_gamma 90.000000
_cell_volume 2594.353427
_symmetry_space_group_name_H-M "C 2/M"
_symmetry_group_IT_number 12
_symmetry_cell_setting 'monoclinic'
loop_
_space_group_symop_operation_xyz
x,y,z
-x,y,-z
-x,-y,-z
x,-y,z
1/2+x,1/2+y,z
1/2-x,1/2+y,-z
1/2-x,1/2-y,-z
1/2+x,1/2-y,z
loop_
_atom_site_type_symbol
_atom_site_label
_atom_site_fract_x
_atom_site_fract_y
_atom_site_fract_z
Si Si1 0.565996 0.289842 0.991954
Si Si2 0.866918 0.788064 0.805452
Si Si3 0.647282 0.798839 0.962576
Si Si4 0.902130 0.199759 0.410950
Si Si5 0.482115 0.213261 0.289842
Si Si6 0.658910 0.799917 0.777307
Si Si7 0.670585 0.199688 0.550569
O O1 0.570408 0.500000 0.994309
O O2 0.459989 0.239437 0.879949
O O3 0.605834 0.218978 0.978737
O O4 0.620649 0.235591 0.113003
O O5 0.772245 0.722246 0.668988
O O6 0.864106 0.000000 0.802643
O O7 0.574500 0.730545 0.831783
O O8 0.663030 0.000000 0.967038
O O9 0.746702 0.712367 0.078599
O O10 0.836055 0.208946 0.278937
O O11 0.863998 0.296683 0.422642
O O12 0.000000 0.266011 0.500000
O O13 0.914635 0.000000 0.442739
O O14 0.423632 0.268354 0.278465
O O15 0.586528 0.275110 0.416502
O O16 0.483879 0.000000 0.292450
O O17 0.640670 0.000000 0.743246
O O18 0.680598 0.000000 0.543575
#
# Coordination Sequence:
#
# PCOD9176189 Si02
#       7
#     8   8   8   8   8   8   8
#     4   9  17  34  55  81 106 131 171 219 266 320
#     4   8  16  31  57  82 103 129 169 222 267 308
#     4  11  22  36  52  76 107 140 175 224 275 314
#     4  11  22  34  50  79 115 142 166 212 269 313
#     4   9  20  35  52  74 105 141 183 222 260 309
#     4  11  21  36  56  77 100 140 187 224 257 311
#     4  10  18  34  57  79 103 143 186 218 255 312
#
# _framework density 21.585339999999999
#
# number of rings (size 3 to 8) (size 9 to 14) (size 15 to 20)
#    0.000    2.143    1.429    3.429    0.000    1.714 
#    0.000    6.429    0.000    0.000    0.000    0.000 
#    0.000    0.000    0.000    0.000    0.000    0.000 
#
# Total GULP energy -156410.851143 kJ/mol
# GULP energy per Si atom -5586.101827 kJ/mol
# Density = 2.153621 g / cm^3
# Si number density = 21.585340 Si / 1000 Ang^3
#
#
#
# Elastic Constant Matrix: (Units=GPa)
#
#
# Indices 1 2 3 4 5 6 
#
# 1 24.6188 -3.6351 11.9444 0.0000 9.3652 0.0000
# 2 -3.6351 43.1954 3.3383 0.0000 0.3002 -0.0001
# 3 11.9444 3.3383 160.6157 0.0000 19.5590 0.0000
# 4 0.0000 0.0000 0.0000 16.2104 0.0000 2.2697
# 5 9.3652 0.3002 19.5590 0.0000 29.3580 0.0000
# 6 0.0000 -0.0001 0.0000 2.2697 0.0000 22.9609
#
#
#
# Elastic Compliance Matrix: (Units=1/GPa)
#
#
# Indices 1 2 3 4 5 6 
#
# 1 0.047468 0.004240 -0.001925 0.000000 -0.013903 0.000000
# 2 0.004240 0.023567 -0.000665 0.000000 -0.001150 0.000000
# 3 -0.001925 -0.000665 0.006864 0.000000 -0.003952 0.000000
# 4 0.000000 0.000000 0.000000 0.062554 0.000000 -0.006184
# 5 -0.013903 -0.001150 -0.003952 0.000000 0.041142 0.000000
# 6 0.000000 0.000000 0.000000 -0.006184 0.000000 0.044164
#
#
# Mechanical properties :
#
#
# Convention : Reuss Voigt Hill
#
# Bulk Modulus (GPa) = 12.31539 27.96945 20.14242
# Shear Modulus (GPa) = 20.03798 28.15803 24.09801
#
# Velocity S-wave (km/s) = 3.05013 3.61570 3.34489
# Velocity P-wave (km/s) = 4.25702 5.51514 4.92641
#
# Compressibility (1/GPa) = 0.08119920
#
# Stress axis : x y z
#
# Youngs Moduli (GPa) = 21.06672 42.43251 145.68106
#
# Poissons Ratio (x) = -0.17992 0.28045
# Poissons Ratio (y) = -0.08932 0.09688
# Poissons Ratio (z) = 0.04056 0.02822
#
# Static dielectric constant tensor:
#      x y z
#    x 1.734080 0.000000 0.015580 
#    y 0.000000 1.790710 0.000000 
#    z 0.015580 0.000000 1.831410 
# 
# From -- ./inp_files/230970.got.cif
#   From: 2010.05.17/outbox.cif.g08.bks.cpg/sg12_116_cif.got.tgz:230970.got - 2010.06.03 13:09:07.
