data_PCOD9176825
_publ_section_title
;
Structure prediction by ZEFSAII (Michael W. Deem and Ramdas Pophale) SiO2 
 PCOD9176825
Probable space group: C 2/M
;
_chemical_formula_sum "Si O2"
_cell_formula_units_Z 40
_cell_length_a 8.581644
_cell_length_b 22.242453
_cell_length_c 13.993556
_cell_angle_alpha 90.000000
_cell_angle_beta 47.226778
_cell_angle_gamma 90.000000
_cell_volume 1960.673729
_symmetry_space_group_name_H-M "C 2/M"
_symmetry_group_IT_number 12
_symmetry_cell_setting 'monoclinic'
loop_
_space_group_symop_operation_xyz
x,y,z
-x,y,-z
-x,-y,-z
x,-y,z
1/2+x,1/2+y,z
1/2-x,1/2+y,-z
1/2-x,1/2-y,-z
1/2+x,1/2-y,z
loop_
_atom_site_type_symbol
_atom_site_label
_atom_site_fract_x
_atom_site_fract_y
_atom_site_fract_z
Si Si1 0.577909 0.592143 0.683123
Si Si2 0.644983 0.825106 0.128774
Si Si3 0.916834 0.430790 0.136927
Si Si4 0.546525 0.697985 0.826978
Si Si5 0.858993 0.500000 0.658259
Si Si6 0.290373 0.500000 0.523595
O O1 0.336087 0.572761 0.767000
O O2 0.578777 0.660879 0.715820
O O3 0.700496 0.556391 0.717080
O O4 0.688156 0.562952 0.544494
O O5 0.513858 0.886171 0.174100
O O6 0.492746 0.768479 0.171776
O O7 0.761182 0.814140 0.180702
O O8 0.833191 0.824704 0.970634
O O9 0.982903 0.500000 0.119305
O O10 0.000000 0.408374 0.000000
O O11 0.000000 0.500000 0.500000
O O12 0.045363 0.500000 0.658258
O O13 0.500000 0.500000 0.500000
#
# Coordination Sequence:
#
# PCOD9176825 Si02
#       6
#     8   8   8   8   4   4
#     4  10  18  36  57  84 118 155 199 238 304 351
#     4  10  21  34  52  80 123 166 208 235 282 343
#     4  11  20  33  53  85 125 163 195 240 292 356
#     4  10  20  35  54  80 115 168 209 243 277 355
#     4   8  18  36  56  81 110 144 191 255 298 350
#     4  10  22  40  62  89 117 152 200 262 318 363
#
# _framework density 20.401150000000001
#
# number of rings (size 3 to 8) (size 9 to 14) (size 15 to 20)
#    0.000    2.200    4.000    1.200    2.800    1.600 
#    3.600    1.000    0.000    0.000    0.000   72.800 
#    0.000    0.000    0.000    0.000    0.000    0.000 
#
# Total GULP energy -111416.585261 kJ/mol
# GULP energy per Si atom -5570.829263 kJ/mol
# Density = 2.035472 g / cm^3
# Si number density = 20.401150 Si / 1000 Ang^3
#
#
#
# Elastic Constant Matrix: (Units=GPa)
#
#
# Indices 1 2 3 4 5 6 
#
# 1 129.8942 68.8402 18.3380 0.0000 -24.8226 0.0000
# 2 68.8402 125.7753 12.9256 0.0000 -14.2510 0.0000
# 3 18.3380 12.9256 30.3487 0.0000 -12.5671 0.0000
# 4 0.0000 0.0000 0.0000 24.8799 0.0000 2.1673
# 5 -24.8226 -14.2510 -12.5671 0.0000 39.1917 0.0000
# 6 0.0000 0.0000 0.0000 2.1673 0.0000 32.9463
#
#
#
# Elastic Compliance Matrix: (Units=1/GPa)
#
#
# Indices 1 2 3 4 5 6 
#
# 1 0.012049 -0.005774 -0.002918 0.000000 0.004596 0.000000
# 2 -0.005774 0.011246 -0.001294 0.000000 0.000017 0.000000
# 3 -0.002918 -0.001294 0.039557 0.000000 0.010366 0.000000
# 4 0.000000 0.000000 0.000000 0.040425 0.000000 -0.002659
# 5 0.004596 0.000017 0.010366 0.000000 0.031757 0.000000
# 6 0.000000 0.000000 0.000000 -0.002659 0.000000 0.030527
#
#
# Mechanical properties :
#
#
# Convention : Reuss Voigt Hill
#
# Bulk Modulus (GPa) = 23.32079 54.02510 38.67294
# Shear Modulus (GPa) = 25.02189 31.79788 28.40989
#
# Velocity S-wave (km/s) = 3.50593 3.95223 3.73575
# Velocity P-wave (km/s) = 5.27681 6.88228 6.13231
#
# Compressibility (1/GPa) = 0.04288020
#
# Stress axis : x y z
#
# Youngs Moduli (GPa) = 82.99499 88.92140 25.28013
#
# Poissons Ratio (x) = 0.51344 0.07377
# Poissons Ratio (y) = 0.47922 0.03270
# Poissons Ratio (z) = 0.24219 0.11502
#
# Static dielectric constant tensor:
#      x y z
#    x 1.818370 0.000000 0.030670 
#    y 0.000000 1.714400 0.000000 
#    z 0.030670 0.000000 1.750120 
# 
# From -- ./inp_files/257861.got.cif
#   From: 2010.05.17/outbox.cif.g08.bks.cpg/sg12_129_cif.got.tgz:257861.got - 2010.06.03 13:09:07.
