data_PCOD9176208
_publ_section_title
;
Structure prediction by ZEFSAII (Michael W. Deem and Ramdas Pophale) SiO2 
 PCOD9176208
Probable space group: C 2/M
;
_chemical_formula_sum "Si O2"
_cell_formula_units_Z 56
_cell_length_a 19.611346
_cell_length_b 7.411364
_cell_length_c 30.140252
_cell_angle_alpha 90.000000
_cell_angle_beta 148.625942
_cell_angle_gamma 90.000000
_cell_volume 2280.740474
_symmetry_space_group_name_H-M "C 2/M"
_symmetry_group_IT_number 12
_symmetry_cell_setting 'monoclinic'
loop_
_space_group_symop_operation_xyz
x,y,z
-x,y,-z
-x,-y,-z
x,-y,z
1/2+x,1/2+y,z
1/2-x,1/2+y,-z
1/2-x,1/2-y,-z
1/2+x,1/2-y,z
loop_
_atom_site_type_symbol
_atom_site_label
_atom_site_fract_x
_atom_site_fract_y
_atom_site_fract_z
Si Si1 0.529154 0.221243 0.659951
Si Si2 0.696230 0.794824 0.402799
Si Si3 0.984186 0.703685 0.539689
Si Si4 0.795624 0.219271 0.854045
Si Si5 0.042661 0.206520 0.231028
Si Si6 0.982385 0.779022 0.878628
Si Si7 0.237771 0.218446 0.065545
O O1 0.394229 0.279957 0.608057
O O2 0.546076 0.283108 0.618770
O O3 0.650991 0.274033 0.757976
O O4 0.525425 0.000000 0.657201
O O5 0.830455 0.697284 0.465986
O O6 0.605443 0.797707 0.308486
O O7 0.732039 0.000000 0.433667
O O8 0.038630 0.500000 0.565842
O O9 0.000000 0.789624 0.500000
O O10 0.897597 0.278748 0.873572
O O11 0.817955 0.272313 0.917062
O O12 0.799751 0.000000 0.856035
O O13 0.074861 0.281588 0.200194
O O14 0.884928 0.211784 0.144478
O O15 0.087798 0.000000 0.258387
O O16 0.981629 0.000000 0.876971
O O17 0.132478 0.723006 0.970476
O O18 0.245653 0.000000 0.068775
#
# Coordination Sequence:
#
# PCOD9176208 Si02
#       7
#     8   8   8   8   8   8   8
#     4   9  18  34  57  84 111 144 184 225 270 322
#     4  11  22  39  60  82 111 148 187 225 269 324
#     4  10  22  38  61  90 115 141 176 223 278 332
#     4   9  16  30  55  83 110 140 184 233 270 317
#     4  11  22  35  54  82 114 148 186 228 275 327
#     4   9  19  31  52  83 112 144 185 233 278 323
#     4  10  18  34  57  82 109 143 187 231 278 327
#
# _framework density 24.553428
#
# number of rings (size 3 to 8) (size 9 to 14) (size 15 to 20)
#    0.000    2.143    1.429    2.143    2.000    2.000 
#    0.000    1.429    0.000    3.429    0.000    0.000 
#    0.000    0.000    0.000    0.000    0.000    0.000 
#
# Total GULP energy -156603.042547 kJ/mol
# GULP energy per Si atom -5592.965805 kJ/mol
# Density = 2.449754 g / cm^3
# Si number density = 24.553428 Si / 1000 Ang^3
#
#
#
# Elastic Constant Matrix: (Units=GPa)
#
#
# Indices 1 2 3 4 5 6 
#
# 1 96.1239 -2.8559 9.4162 -0.0003 -23.8343 0.0005
# 2 -2.8559 86.9917 0.6744 -0.0010 -6.1350 0.0033
# 3 9.4162 0.6744 68.0358 -0.0001 -22.3232 0.0002
# 4 -0.0003 -0.0010 -0.0001 12.6376 0.0000 7.2432
# 5 -23.8343 -6.1350 -22.3232 0.0000 50.3722 -0.0003
# 6 0.0005 0.0033 0.0002 7.2432 -0.0003 -10.2828
#
#
#
# Elastic Compliance Matrix: (Units=1/GPa)
#
#
# Indices 1 2 3 4 5 6 
#
# 1 0.011844 0.000797 0.000262 0.000000 0.005817 0.000001
# 2 0.000797 0.011658 0.000426 -0.000001 0.001986 0.000003
# 3 0.000262 0.000426 0.017219 0.000000 0.007807 0.000000
# 4 0.000000 -0.000001 0.000000 0.056371 0.000000 0.039708
# 5 0.005817 0.001986 0.007807 0.000000 0.026306 0.000000
# 6 0.000001 0.000003 0.000000 0.039708 0.000000 -0.069280
#
#
# Mechanical properties :
#
#
# Convention : Reuss Voigt Hill
#
# Bulk Modulus (GPa) = 22.88883 29.51341 26.20112
# Shear Modulus (GPa) = 76.08868 26.80651 51.44759
#
# Velocity S-wave (km/s) = 5.57282 3.30777 4.58245
# Velocity P-wave (km/s) = 7.12395 5.16087 6.22034
#
# Compressibility (1/GPa) = 0.04368944
#
# Stress axis : x y z
#
# Youngs Moduli (GPa) = 84.43352 85.77613 58.07493
#
# Poissons Ratio (x) = -0.06837 -0.01519
# Poissons Ratio (y) = -0.06730 -0.02472
# Poissons Ratio (z) = -0.02208 -0.03651
#
# Static dielectric constant tensor:
#      x y z
#    x 1.935100 0.000000 -0.012860 
#    y 0.000000 1.990980 0.000000 
#    z -0.012860 0.000000 1.896540 
# 
# From -- ./inp_files/380767.got.cif
#   From: 2010.05.17/outbox.cif.g08.bks.cpg/sg12_191_cif.got.tgz:380767.got - 2010.06.03 13:09:07.
