data_PCOD9176807
_publ_section_title
;
Structure prediction by ZEFSAII (Michael W. Deem and Ramdas Pophale) SiO2 
 PCOD9176807
Probable space group: C 2/M
;
_chemical_formula_sum "Si O2"
_cell_formula_units_Z 56
_cell_length_a 20.420754
_cell_length_b 11.002654
_cell_length_c 20.095677
_cell_angle_alpha 90.000000
_cell_angle_beta 140.346753
_cell_angle_gamma 90.000000
_cell_volume 2881.294759
_symmetry_space_group_name_H-M "C 2/M"
_symmetry_group_IT_number 12
_symmetry_cell_setting 'monoclinic'
loop_
_space_group_symop_operation_xyz
x,y,z
-x,y,-z
-x,-y,-z
x,-y,z
1/2+x,1/2+y,z
1/2-x,1/2+y,-z
1/2-x,1/2-y,-z
1/2+x,1/2-y,z
loop_
_atom_site_type_symbol
_atom_site_label
_atom_site_fract_x
_atom_site_fract_y
_atom_site_fract_z
Si Si1 0.220316 0.733227 0.710128
Si Si2 0.889693 0.642240 0.641626
Si Si3 0.645647 0.500000 0.155603
Si Si4 0.098071 0.638164 0.726015
Si Si5 0.615637 0.858233 0.081395
Si Si6 0.707569 0.296062 0.035733
Si Si7 0.263567 0.645131 0.603670
Si Si8 0.060820 0.000000 0.939518
O O1 0.285505 0.616479 0.783492
O O2 0.122679 0.727140 0.683004
O O3 0.302798 0.836152 0.794958
O O4 0.203823 0.705407 0.619808
O O5 0.890797 0.500000 0.669054
O O6 0.808313 0.643017 0.517390
O O7 0.854565 0.755721 0.660815
O O8 0.999956 0.667708 0.694445
O O9 0.600124 0.500000 0.046537
O O10 0.558956 0.500000 0.143767
O O11 0.082720 0.500000 0.688786
O O12 0.197815 0.641482 0.851573
O O13 0.665696 0.802842 0.054583
O O14 0.603301 0.000000 0.062236
O O15 0.500000 0.803993 0.000000
O O16 0.612174 0.383994 0.947144
O O17 0.750000 0.250000 0.000000
O O18 0.287453 0.500000 0.634162
#
# Coordination Sequence:
#
# PCOD9176807 Si02
#       8
#     8   8   4   8   8   8   8   4
#     4  11  19  34  57  81 109 137 180 235 276 318
#     4   9  21  37  59  82 113 149 183 224 286 342
#     4  11  18  32  58  78 101 136 182 231 269 317
#     4  10  18  36  56  80 107 142 182 228 277 327
#     4  10  22  38  55  77 110 149 189 227 269 329
#     4  11  22  35  53  77 113 144 179 228 274 322
#     4  10  20  38  58  85 113 143 185 237 278 332
#     4  11  20  34  54  77 101 145 185 221 272 319
#
# _framework density 19.435707000000001
#
# number of rings (size 3 to 8) (size 9 to 14) (size 15 to 20)
#    0.000    1.714    5.000    0.857    1.000    3.429 
#    0.000    7.857    0.000    0.000    0.000    8.000 
#    0.000    0.000    0.000    0.000    0.000    0.000 
#
# Total GULP energy -155930.579905 kJ/mol
# GULP energy per Si atom -5568.949282 kJ/mol
# Density = 1.939147 g / cm^3
# Si number density = 19.435707 Si / 1000 Ang^3
#
#
#
# Elastic Constant Matrix: (Units=GPa)
#
#
# Indices 1 2 3 4 5 6 
#
# 1 115.5983 39.2816 2.8046 0.0000 9.0814 0.0000
# 2 39.2816 77.4682 4.0476 0.0000 5.2696 0.0000
# 3 2.8046 4.0476 12.2179 0.0000 2.0831 0.0000
# 4 0.0000 0.0000 0.0000 11.9707 0.0000 5.7288
# 5 9.0814 5.2696 2.0831 0.0000 33.4909 0.0000
# 6 0.0000 0.0000 0.0000 5.7288 0.0000 24.6810
#
#
#
# Elastic Compliance Matrix: (Units=1/GPa)
#
#
# Indices 1 2 3 4 5 6 
#
# 1 0.010590 -0.005213 -0.000358 0.000000 -0.002029 0.000000
# 2 -0.005213 0.015812 -0.003900 0.000000 -0.000832 0.000000
# 3 -0.000358 -0.003900 0.083991 0.000000 -0.004514 0.000000
# 4 0.000000 0.000000 0.000000 0.093977 0.000000 -0.021813
# 5 -0.002029 -0.000832 -0.004514 0.000000 0.030821 0.000000
# 6 0.000000 0.000000 0.000000 -0.021813 0.000000 0.045580
#
#
# Mechanical properties :
#
#
# Convention : Reuss Voigt Hill
#
# Bulk Modulus (GPa) = 10.93479 33.06135 21.99807
# Shear Modulus (GPa) = 15.14247 24.63853 19.89050
#
# Velocity S-wave (km/s) = 2.79427 3.56433 3.20253
# Velocity P-wave (km/s) = 4.00612 5.82982 5.00179
#
# Compressibility (1/GPa) = 0.09145127
#
# Stress axis : x y z
#
# Youngs Moduli (GPa) = 94.42635 63.24175 11.90605
#
# Poissons Ratio (x) = 0.32970 0.00426
# Poissons Ratio (y) = 0.49227 0.04643
# Poissons Ratio (z) = 0.03380 0.24664
#
# Static dielectric constant tensor:
#      x y z
#    x 1.762970 0.000000 0.000120 
#    y 0.000000 1.702550 0.000000 
#    z 0.000120 0.000000 1.708850 
# 
# From -- ./inp_files/315414.got.cif
#   From: 2010.05.17/outbox.cif.g08.bks.cpg/sg12_158_cif.got.tgz:315414.got - 2010.06.03 13:09:07.
