data_PCOD9176470
_publ_section_title
;
Structure prediction by ZEFSAII (Michael W. Deem and Ramdas Pophale) SiO2 
 PCOD9176470
Probable space group: C 2/M
;
_chemical_formula_sum "Si O2"
_cell_formula_units_Z 48
_cell_length_a 15.255249
_cell_length_b 19.160054
_cell_length_c 19.540182
_cell_angle_alpha 90.000000
_cell_angle_beta 154.033594
_cell_angle_gamma 90.000000
_cell_volume 2500.714551
_symmetry_space_group_name_H-M "C 2/M"
_symmetry_group_IT_number 12
_symmetry_cell_setting 'monoclinic'
loop_
_space_group_symop_operation_xyz
x,y,z
-x,y,-z
-x,-y,-z
x,-y,z
1/2+x,1/2+y,z
1/2-x,1/2+y,-z
1/2-x,1/2-y,-z
1/2+x,1/2-y,z
loop_
_atom_site_type_symbol
_atom_site_label
_atom_site_fract_x
_atom_site_fract_y
_atom_site_fract_z
Si Si1 0.439366 0.695791 0.840330
Si Si2 0.592197 0.424647 0.489829
Si Si3 0.062955 0.683337 0.277362
Si Si4 0.225636 0.396303 0.140327
Si Si5 0.786245 0.266377 0.193533
Si Si6 0.711684 0.418033 0.976336
O O1 0.429279 0.755788 0.775051
O O2 0.250389 0.696891 0.759112
O O3 0.509590 0.622812 0.856972
O O4 0.618482 0.713606 0.019221
O O5 0.500000 0.415383 0.500000
O O6 0.701341 0.500000 0.564810
O O7 0.733663 0.359678 0.573734
O O8 0.404996 0.428916 0.308282
O O9 0.991247 0.715827 0.298902
O O10 0.896392 0.625935 0.137752
O O11 0.249078 0.315178 0.176511
O O12 0.261646 0.409322 0.086025
O O13 0.000000 0.418273 0.000000
O O14 0.711864 0.500000 0.994605
#
# Coordination Sequence:
#
# PCOD9176470 Si02
#       6
#     8   8   8   8   8   8
#     4  10  18  36  59  88 119 152 199 249 288 343
#     4  11  25  39  54  85 124 156 190 241 305 364
#     4  11  20  39  60  84 118 157 199 244 296 343
#     4  12  21  38  62  87 113 154 198 248 295 350
#     4  10  18  34  63  88 111 151 204 247 285 342
#     4  11  21  35  58  87 120 157 197 243 297 349
#
# _framework density 19.194514000000002
#
# number of rings (size 3 to 8) (size 9 to 14) (size 15 to 20)
#    0.000    1.167    5.000    4.000    0.000    3.333 
#    0.000    7.500    0.000    0.000    0.000    2.333 
#    0.000    0.000    0.000    0.000    0.000    0.167 
#
# Total GULP energy -133928.856989 kJ/mol
# GULP energy per Si atom -5580.369041 kJ/mol
# Density = 1.915083 g / cm^3
# Si number density = 19.194514 Si / 1000 Ang^3
#
#
#
# Elastic Constant Matrix: (Units=GPa)
#
#
# Indices 1 2 3 4 5 6 
#
# 1 135.7771 52.0977 35.3059 -0.0025 23.2871 -0.0130
# 2 52.0977 109.7135 36.0808 -0.0112 10.5459 0.0229
# 3 35.3059 36.0808 64.7099 -0.0403 10.0478 0.0243
# 4 -0.0025 -0.0112 -0.0403 21.1607 -0.0097 -0.4974
# 5 23.2871 10.5459 10.0478 -0.0097 13.7861 0.0023
# 6 -0.0130 0.0229 0.0243 -0.4974 0.0023 7.1915
#
#
#
# Elastic Compliance Matrix: (Units=1/GPa)
#
#
# Indices 1 2 3 4 5 6 
#
# 1 0.012001 -0.003454 -0.002125 -0.000011 -0.016081 0.000044
# 2 -0.003454 0.012410 -0.005037 -0.000004 0.000012 -0.000029
# 3 -0.002125 -0.005037 0.020597 0.000032 -0.007569 -0.000053
# 4 -0.000011 -0.000004 0.000032 0.047335 0.000031 0.003274
# 5 -0.016081 0.000012 -0.007569 0.000031 0.105208 -0.000035
# 6 0.000044 -0.000029 -0.000053 0.003274 -0.000035 0.139279
#
#
# Mechanical properties :
#
#
# Convention : Reuss Voigt Hill
#
# Bulk Modulus (GPa) = 42.05937 61.90769 51.98353
# Shear Modulus (GPa) = 13.66172 20.87540 17.26856
#
# Velocity S-wave (km/s) = 2.67076 3.30141 3.00269
# Velocity P-wave (km/s) = 5.60985 6.84509 6.25802
#
# Compressibility (1/GPa) = 0.02377591
#
# Stress axis : x y z
#
# Youngs Moduli (GPa) = 83.32710 80.57928 48.55132
#
# Poissons Ratio (x) = 0.27833 0.10316
# Poissons Ratio (y) = 0.28782 0.24455
# Poissons Ratio (z) = 0.17706 0.40587
#
# Static dielectric constant tensor:
#      x y z
#    x 1.693520 0.000000 0.020690 
#    y 0.000000 1.700700 -0.000020 
#    z 0.020690 -0.000020 1.723810 
# 
# From -- ./inp_files/344498.got.cif
#   From: 2010.05.17/outbox.cif.g08.bks.cpg/sg12_173_cif.got.tgz:344498.got - 2010.06.03 13:09:07.
