data_PCOD9176088
_publ_section_title
;
Structure prediction by ZEFSAII (Michael W. Deem and Ramdas Pophale) SiO2 
 PCOD9176088
Probable space group: C 2/M
;
_chemical_formula_sum "Si O2"
_cell_formula_units_Z 56
_cell_length_a 9.178139
_cell_length_b 27.808234
_cell_length_c 14.116821
_cell_angle_alpha 90.000000
_cell_angle_beta 61.052346
_cell_angle_gamma 90.000000
_cell_volume 3152.854334
_symmetry_space_group_name_H-M "C 2/M"
_symmetry_group_IT_number 12
_symmetry_cell_setting 'monoclinic'
loop_
_space_group_symop_operation_xyz
x,y,z
-x,y,-z
-x,-y,-z
x,-y,z
1/2+x,1/2+y,z
1/2-x,1/2+y,-z
1/2-x,1/2-y,-z
1/2+x,1/2-y,z
loop_
_atom_site_type_symbol
_atom_site_label
_atom_site_fract_x
_atom_site_fract_y
_atom_site_fract_z
Si Si1 0.311701 0.216597 0.095614
Si Si2 0.140978 0.799406 0.338884
Si Si3 0.336126 0.125543 0.735009
Si Si4 0.799403 0.555203 0.581318
Si Si5 0.215225 0.368099 0.565196
Si Si6 0.235770 0.796588 0.614483
Si Si7 0.196242 0.175569 0.950699
O O1 0.279900 0.202609 0.213123
O O2 0.243635 0.271026 0.102492
O O3 0.500000 0.218490 0.000000
O O4 0.227736 0.178073 0.052620
O O5 0.162523 0.847386 0.393791
O O6 0.182753 0.754869 0.394199
O O7 0.960975 0.793937 0.347072
O O8 0.270193 0.081227 0.691542
O O9 0.535592 0.122413 0.667452
O O10 0.270608 0.171946 0.697016
O O11 0.279273 0.134926 0.860058
O O12 0.745924 0.500000 0.597299
O O13 0.727858 0.587245 0.517624
O O14 0.000000 0.556709 0.500000
O O15 0.185985 0.325846 0.497147
O O16 0.000000 0.172570 0.000000
#
# Coordination Sequence:
#
# PCOD9176088 Si02
#       7
#     8   8   8   8   8   8   8
#     4  10  21  31  47  65  95 133 177 210 238 280
#     4  12  22  33  48  69 102 140 172 210 242 292
#     4  10  18  34  55  73  99 130 167 207 253 299
#     4   8  16  32  55  81 101 122 158 207 254 305
#     4  10  21  33  50  73 101 130 165 204 249 304
#     4  11  22  33  46  69 101 138 171 203 242 292
#     4  10  19  32  48  68  94 131 170 209 245 281
#
# _framework density 17.761683999999999
#
# number of rings (size 3 to 8) (size 9 to 14) (size 15 to 20)
#    0.000    1.857    1.429    4.714    4.000    1.143 
#    0.000    0.000    0.000    7.286    0.000    1.000 
#    0.000    5.714    0.000    0.000    0.000    0.000 
#
# Total GULP energy -156240.090777 kJ/mol
# GULP energy per Si atom -5580.003242 kJ/mol
# Density = 1.772126 g / cm^3
# Si number density = 17.761684 Si / 1000 Ang^3
#
#
#
# Elastic Constant Matrix: (Units=GPa)
#
#
# Indices 1 2 3 4 5 6 
#
# 1 53.7756 15.3458 -3.1219 0.0000 -5.6834 0.0000
# 2 15.3458 97.2980 28.8516 0.0000 8.4414 0.0000
# 3 -3.1219 28.8516 91.9309 0.0000 4.8151 0.0000
# 4 0.0000 0.0000 0.0000 12.5544 0.0000 1.7758
# 5 -5.6834 8.4414 4.8151 0.0000 21.4771 0.0000
# 6 0.0000 0.0000 0.0000 1.7758 0.0000 13.7379
#
#
#
# Elastic Compliance Matrix: (Units=1/GPa)
#
#
# Indices 1 2 3 4 5 6 
#
# 1 0.020656 -0.004355 0.001712 0.000000 0.006794 0.000000
# 2 -0.004355 0.012549 -0.003812 0.000000 -0.005230 0.000000
# 3 0.001712 -0.003812 0.012173 0.000000 -0.000778 0.000000
# 4 0.000000 0.000000 0.000000 0.081137 0.000000 -0.010488
# 5 0.006794 -0.005230 -0.000778 0.000000 0.050589 0.000000
# 6 0.000000 0.000000 0.000000 -0.010488 0.000000 0.074147
#
#
# Mechanical properties :
#
#
# Convention : Reuss Voigt Hill
#
# Bulk Modulus (GPa) = 30.79955 36.12840 33.46397
# Shear Modulus (GPa) = 18.18293 23.01582 20.59938
#
# Velocity S-wave (km/s) = 3.20303 3.60365 3.40923
# Velocity P-wave (km/s) = 5.57291 6.14002 5.86332
#
# Compressibility (1/GPa) = 0.03246801
#
# Stress axis : x y z
#
# Youngs Moduli (GPa) = 48.41200 79.68907 82.14857
#
# Poissons Ratio (x) = 0.34705 -0.14067
# Poissons Ratio (y) = 0.21084 0.31317
# Poissons Ratio (z) = -0.08290 0.30380
#
# Static dielectric constant tensor:
#      x y z
#    x 1.659360 0.000000 0.017690 
#    y 0.000000 1.603500 0.000000 
#    z 0.017690 0.000000 1.652390 
# 
# From -- ./inp_files/185135.got.cif
#   From: 2010.05.17/outbox.cif.g08.bks.cpg/sg12_93_cif.got.tgz:185135.got - 2010.06.03 13:09:07.
