data_PCOD9176564
_publ_section_title
;
Structure prediction by ZEFSAII (Michael W. Deem and Ramdas Pophale) SiO2 
 PCOD9176564
Probable space group: C 2/M
;
_chemical_formula_sum "Si O2"
_cell_formula_units_Z 56
_cell_length_a 14.133811
_cell_length_b 33.444168
_cell_length_c 10.702296
_cell_angle_alpha 90.000000
_cell_angle_beta 150.071549
_cell_angle_gamma 90.000000
_cell_volume 2523.980153
_symmetry_space_group_name_H-M "C 2/M"
_symmetry_group_IT_number 12
_symmetry_cell_setting 'monoclinic'
loop_
_space_group_symop_operation_xyz
x,y,z
-x,y,-z
-x,-y,-z
x,-y,z
1/2+x,1/2+y,z
1/2-x,1/2+y,-z
1/2-x,1/2-y,-z
1/2+x,1/2-y,z
loop_
_atom_site_type_symbol
_atom_site_label
_atom_site_fract_x
_atom_site_fract_y
_atom_site_fract_z
Si Si1 0.787266 0.663874 0.779840
Si Si2 0.241818 0.543799 0.096742
Si Si3 0.687480 0.124997 0.953208
Si Si4 0.734485 0.836647 0.759925
Si Si5 0.213315 0.248819 0.805632
Si Si6 0.187039 0.045788 0.536719
Si Si7 0.243989 0.368411 0.507669
O O1 0.800520 0.708482 0.848703
O O2 0.689091 0.658039 0.534013
O O3 0.704230 0.637315 0.796849
O O4 0.000000 0.648040 0.000000
O O5 0.169890 0.500000 0.985238
O O6 0.463569 0.545629 0.314623
O O7 0.217886 0.550536 0.217565
O O8 0.150145 0.578206 0.911973
O O9 0.790008 0.139088 0.947172
O O10 0.478852 0.143182 0.728721
O O11 0.500000 0.837820 0.500000
O O12 0.791045 0.790628 0.842494
O O13 0.811960 0.855945 0.722226
O O14 0.000000 0.247026 0.500000
O O15 0.250000 0.250000 0.000000
O O16 0.229242 0.085001 0.501497
O O17 0.229754 0.000000 0.540560
#
# Coordination Sequence:
#
# PCOD9176564 Si02
#       7
#     8   8   8   8   8   8   8
#     4  10  21  36  58  86 118 148 197 250 302 350
#     4   9  18  32  53  80 110 145 188 240 293 352
#     4  10  18  35  57  79 111 149 189 238 292 360
#     4   9  20  38  58  79 116 152 192 237 299 354
#     4  11  23  42  65  88 120 166 207 248 305 370
#     4   9  18  33  52  79 114 146 185 240 298 353
#     4  10  20  35  56  84 112 152 189 246 295 352
#
# _framework density 22.187179
#
# number of rings (size 3 to 8) (size 9 to 14) (size 15 to 20)
#    0.000    2.286    2.857    0.857    2.000    2.286 
#    0.000    2.857    0.000    4.286    0.000    0.000 
#    0.000    0.000    0.000    0.000    0.000    0.000 
#
# Total GULP energy -156057.368956 kJ/mol
# GULP energy per Si atom -5573.477463 kJ/mol
# Density = 2.213668 g / cm^3
# Si number density = 22.187179 Si / 1000 Ang^3
#
#
#
# Elastic Constant Matrix: (Units=GPa)
#
#
# Indices 1 2 3 4 5 6 
#
# 1 116.8744 51.5041 63.7906 0.0000 -35.0489 0.0000
# 2 51.5041 163.0727 31.7931 0.0000 -60.0708 0.0000
# 3 63.7906 31.7931 84.7489 0.0000 -30.6592 0.0000
# 4 0.0000 0.0000 0.0000 21.2599 0.0000 -6.0807
# 5 -35.0489 -60.0708 -30.6592 0.0000 53.0983 0.0000
# 6 0.0000 0.0000 0.0000 -6.0807 0.0000 36.2806
#
#
#
# Elastic Compliance Matrix: (Units=1/GPa)
#
#
# Indices 1 2 3 4 5 6 
#
# 1 0.015757 -0.002278 -0.010334 0.000000 0.001857 0.000000
# 2 -0.002278 0.010857 0.001948 0.000000 0.011904 0.000000
# 3 -0.010334 0.001948 0.021712 0.000000 0.007919 0.000000
# 4 0.000000 0.000000 0.000000 0.049405 0.000000 0.008280
# 5 0.001857 0.011904 0.007919 0.000000 0.038098 0.000000
# 6 0.000000 0.000000 0.000000 0.008280 0.000000 0.028951
#
#
# Mechanical properties :
#
#
# Convention : Reuss Voigt Hill
#
# Bulk Modulus (GPa) = 37.03944 73.20793 55.12369
# Shear Modulus (GPa) = 25.62677 36.63496 31.13087
#
# Velocity S-wave (km/s) = 3.40225 4.06788 3.74986
# Velocity P-wave (km/s) = 5.67134 7.42501 6.60662
#
# Compressibility (1/GPa) = 0.02699825
#
# Stress axis : x y z
#
# Youngs Moduli (GPa) = 63.46225 92.10801 46.05689
#
# Poissons Ratio (x) = 0.20981 0.47596
# Poissons Ratio (y) = 0.14456 -0.08972
# Poissons Ratio (z) = 0.65584 -0.17943
#
# Static dielectric constant tensor:
#      x y z
#    x 1.845720 0.000000 0.040290 
#    y 0.000000 1.818320 0.000000 
#    z 0.040290 0.000000 1.943920 
# 
# From -- ./inp_files/54787.got.cif
#   From: 2010.05.17/outbox.cif.g08.bks.cpg/sg12_28_cif.got.tgz:54787.got - 2010.06.03 13:09:07.
