data_PCOD9176918
_publ_section_title
;
Structure prediction by ZEFSAII (Michael W. Deem and Ramdas Pophale) SiO2 
 PCOD9176918
Probable space group: C 2/M
;
_chemical_formula_sum "Si O2"
_cell_formula_units_Z 44
_cell_length_a 27.309578
_cell_length_b 11.151605
_cell_length_c 10.910163
_cell_angle_alpha 90.000000
_cell_angle_beta 38.227308
_cell_angle_gamma 90.000000
_cell_volume 2055.994236
_symmetry_space_group_name_H-M "C 2/M"
_symmetry_group_IT_number 12
_symmetry_cell_setting 'monoclinic'
loop_
_space_group_symop_operation_xyz
x,y,z
-x,y,-z
-x,-y,-z
x,-y,z
1/2+x,1/2+y,z
1/2-x,1/2+y,-z
1/2-x,1/2-y,-z
1/2+x,1/2-y,z
loop_
_atom_site_type_symbol
_atom_site_label
_atom_site_fract_x
_atom_site_fract_y
_atom_site_fract_z
Si Si1 0.902458 0.000000 0.795982
Si Si2 0.654007 0.255558 0.453659
Si Si3 0.604188 0.500000 0.908863
Si Si4 0.055053 0.000000 0.643851
Si Si5 0.094088 0.257580 0.826856
Si Si6 0.154649 0.253711 0.186121
Si Si7 0.826005 0.637357 0.099638
O O1 0.004312 0.000000 0.355409
O O2 0.875791 0.119139 0.778814
O O3 0.865234 0.000000 0.009025
O O4 0.607336 0.382121 0.546230
O O5 0.630340 0.196340 0.628060
O O6 0.631120 0.199808 0.366970
O O7 0.747238 0.282835 0.269385
O O8 0.490761 0.500000 0.879703
O O9 0.624687 0.622386 0.798963
O O10 0.118812 0.336432 0.893893
O O11 0.000000 0.253833 0.000000
O O12 0.250000 0.250000 0.000000
O O13 0.132141 0.328601 0.110517
O O14 0.800927 0.500000 0.144281
#
# Coordination Sequence:
#
# PCOD9176918 Si02
#       7
#     4   8   4   4   8   8   8
#     4  10  19  39  62 100 120 157 205 254 317 356
#     4  11  22  38  62  94 126 155 203 255 319 361
#     4  10  20  36  64 100 126 147 192 261 321 353
#     4  10  18  36  62 100 125 149 194 268 316 361
#     4  12  22  41  64  94 125 162 202 256 311 370
#     4  10  23  39  60  89 126 166 200 251 304 363
#     4  11  24  43  61  87 124 172 206 249 302 371
#
# _framework density 21.400836999999999
#
# number of rings (size 3 to 8) (size 9 to 14) (size 15 to 20)
#    0.545    0.727    4.545    1.909    3.818    1.818 
#    0.000    0.909    0.000    1.091    0.000    0.000 
#    0.000    0.000    0.000    0.000    0.000    0.000 
#
# Total GULP energy -122865.625686 kJ/mol
# GULP energy per Si atom -5584.801168 kJ/mol
# Density = 2.135213 g / cm^3
# Si number density = 21.400837 Si / 1000 Ang^3
#
#
#
# Elastic Constant Matrix: (Units=GPa)
#
#
# Indices 1 2 3 4 5 6 
#
# 1 109.9077 17.7261 41.2648 0.0000 35.4938 0.0000
# 2 17.7261 15.1655 12.0880 0.0000 3.6997 0.0000
# 3 41.2648 12.0880 114.4348 0.0000 59.3560 0.0000
# 4 0.0000 0.0000 0.0000 10.1317 0.0000 -6.8276
# 5 35.4938 3.6997 59.3560 0.0000 52.6216 0.0000
# 6 0.0000 0.0000 0.0000 -6.8276 0.0000 -1.8723
#
#
#
# Elastic Compliance Matrix: (Units=1/GPa)
#
#
# Indices 1 2 3 4 5 6 
#
# 1 0.014427 -0.015955 0.002286 0.000000 -0.011188 0.000000
# 2 -0.015955 0.091251 -0.014798 0.000000 0.021038 0.000000
# 3 0.002286 -0.014798 0.023468 0.000000 -0.026973 0.000000
# 4 0.000000 0.000000 0.000000 0.028548 0.000000 -0.104101
# 5 -0.011188 0.021038 -0.026973 0.000000 0.055496 0.000000
# 6 0.000000 0.000000 0.000000 -0.104101 0.000000 -0.154480
#
#
# Mechanical properties :
#
#
# Convention : Reuss Voigt Hill
#
# Bulk Modulus (GPa) = 13.84810 42.40732 28.12771
# Shear Modulus (GPa) = 35.78767 23.40481 29.59624
#
# Velocity S-wave (km/s) = 4.09376 3.31061 3.72284
# Velocity P-wave (km/s) = 5.36936 5.87131 5.62593
#
# Compressibility (1/GPa) = 0.07221207
#
# Stress axis : x y z
#
# Youngs Moduli (GPa) = 69.31676 10.95876 42.61161
#
# Poissons Ratio (x) = 0.17485 -0.09742
# Poissons Ratio (y) = 1.10598 0.63055
# Poissons Ratio (z) = -0.15848 0.16216
#
# Static dielectric constant tensor:
#      x y z
#    x 1.780630 0.000000 0.069610 
#    y 0.000000 1.726020 0.000000 
#    z 0.069610 0.000000 1.845630 
# 
# From -- ./inp_files/103048.got.cif
#   From: 2010.05.17/outbox.cif.g08.bks.cpg/sg12_52_cif.got.tgz:103048.got - 2010.06.03 13:09:07.
