data_PCOD9176662
_publ_section_title
;
Structure prediction by ZEFSAII (Michael W. Deem and Ramdas Pophale) SiO2 
 PCOD9176662
Probable space group: C 2/M
;
_chemical_formula_sum "Si O2"
_cell_formula_units_Z 48
_cell_length_a 16.032304
_cell_length_b 21.111218
_cell_length_c 12.396535
_cell_angle_alpha 90.000000
_cell_angle_beta 141.876317
_cell_angle_gamma 90.000000
_cell_volume 2590.292458
_symmetry_space_group_name_H-M "C 2/M"
_symmetry_group_IT_number 12
_symmetry_cell_setting 'monoclinic'
loop_
_space_group_symop_operation_xyz
x,y,z
-x,y,-z
-x,-y,-z
x,-y,z
1/2+x,1/2+y,z
1/2-x,1/2+y,-z
1/2-x,1/2-y,-z
1/2+x,1/2-y,z
loop_
_atom_site_type_symbol
_atom_site_label
_atom_site_fract_x
_atom_site_fract_y
_atom_site_fract_z
Si Si1 0.609369 0.136976 0.309404
Si Si2 0.000000 0.787713 0.500000
Si Si3 0.098989 0.500000 0.203256
Si Si4 0.500000 0.217725 0.000000
Si Si5 0.662755 0.703683 0.991132
Si Si6 0.916352 0.000000 0.525146
Si Si7 0.421070 0.163727 0.318742
Si Si8 0.417437 0.637073 0.615944
O O1 0.580105 0.063673 0.252917
O O2 0.512980 0.159599 0.307058
O O3 0.765071 0.145270 0.503197
O O4 0.577907 0.175134 0.167711
O O5 0.909669 0.737253 0.344374
O O6 0.919571 0.830726 0.500258
O O7 0.257323 0.500000 0.332283
O O8 0.000000 0.500000 0.000000
O O9 0.601831 0.259365 0.031651
O O10 0.534103 0.672011 0.801125
O O11 0.750000 0.750000 0.000000
O O12 0.767473 0.648596 0.134371
O O13 0.944064 0.936963 0.622413
O O14 0.000000 0.000000 0.500000
O O15 0.500000 0.132391 0.500000
#
# Coordination Sequence:
#
# PCOD9176662 Si02
#       8
#     8   4   4   4   8   4   8   8
#     4  11  23  40  62  90 126 164 205 254 312 365
#     4  10  18  35  60  85 124 152 198 248 298 364
#     4  10  22  40  61  92 122 162 207 258 295 371
#     4  12  24  35  66  91 124 164 204 248 326 364
#     4  12  23  39  58  94 127 161 205 254 307 380
#     4  10  22  38  62  89 120 164 204 248 308 358
#     4  10  23  40  59  87 126 158 203 255 303 366
#     4  11  23  37  61  90 126 159 201 251 308 366
#
# _framework density 18.530726000000001
#
# number of rings (size 3 to 8) (size 9 to 14) (size 15 to 20)
#    0.500    0.667    5.000    1.000    2.333    2.667 
#    0.000    0.417    0.000    0.500    0.000    0.000 
#    0.000    0.000    0.000    0.000    0.000    0.000 
#
# Total GULP energy -133770.263576 kJ/mol
# GULP energy per Si atom -5573.760982 kJ/mol
# Density = 1.848855 g / cm^3
# Si number density = 18.530726 Si / 1000 Ang^3
#
#
#
# Elastic Constant Matrix: (Units=GPa)
#
#
# Indices 1 2 3 4 5 6 
#
# 1 125.8368 50.8149 60.0609 0.0000 1.8986 0.0000
# 2 50.8149 76.0469 41.9236 0.0000 5.6614 0.0000
# 3 60.0609 41.9236 150.8985 0.0000 5.5144 0.0000
# 4 0.0000 0.0000 0.0000 20.8444 0.0000 4.6919
# 5 1.8986 5.6614 5.5144 0.0000 27.6393 0.0000
# 6 0.0000 0.0000 0.0000 4.6919 0.0000 12.4197
#
#
#
# Elastic Compliance Matrix: (Units=1/GPa)
#
#
# Indices 1 2 3 4 5 6 
#
# 1 0.011959 -0.006408 -0.003020 0.000000 0.001094 0.000000
# 2 -0.006408 0.019113 -0.002652 0.000000 -0.002946 0.000000
# 3 -0.003020 -0.002652 0.008601 0.000000 -0.000965 0.000000
# 4 0.000000 0.000000 0.000000 0.052433 0.000000 -0.019808
# 5 0.001094 -0.002946 -0.000965 0.000000 0.036901 0.000000
# 6 0.000000 0.000000 0.000000 -0.019808 0.000000 0.088001
#
#
# Mechanical properties :
#
#
# Convention : Reuss Voigt Hill
#
# Bulk Modulus (GPa) = 64.45819 73.15343 68.80581
# Shear Modulus (GPa) = 20.29730 25.51286 22.90508
#
# Velocity S-wave (km/s) = 3.31317 3.71453 3.51958
# Velocity P-wave (km/s) = 7.03535 7.61312 7.32993
#
# Compressibility (1/GPa) = 0.01551393
#
# Stress axis : x y z
#
# Youngs Moduli (GPa) = 83.61778 52.32089 116.26648
#
# Poissons Ratio (x) = 0.33527 0.35109
# Poissons Ratio (y) = 0.53581 0.30833
# Poissons Ratio (z) = 0.25250 0.13875
#
# Static dielectric constant tensor:
#      x y z
#    x 1.612750 0.000000 0.005270 
#    y 0.000000 1.642610 0.000000 
#    z 0.005270 0.000000 1.736480 
# 
# From -- ./inp_files/148093.got.cif
#   From: 2010.05.17/outbox.cif.g08.bks.cpg/sg12_75_cif.got.tgz:148093.got - 2010.06.03 13:09:07.
