data_PCOD9176236
_publ_section_title
;
Structure prediction by ZEFSAII (Michael W. Deem and Ramdas Pophale) SiO2 
 PCOD9176236
Probable space group: C 2/M
;
_chemical_formula_sum "Si O2"
_cell_formula_units_Z 64
_cell_length_a 14.739910
_cell_length_b 7.534887
_cell_length_c 27.892439
_cell_angle_alpha 90.000000
_cell_angle_beta 116.286261
_cell_angle_gamma 90.000000
_cell_volume 2777.494715
_symmetry_space_group_name_H-M "C 2/M"
_symmetry_group_IT_number 12
_symmetry_cell_setting 'monoclinic'
loop_
_space_group_symop_operation_xyz
x,y,z
-x,y,-z
-x,-y,-z
x,-y,z
1/2+x,1/2+y,z
1/2-x,1/2+y,-z
1/2-x,1/2-y,-z
1/2+x,1/2-y,z
loop_
_atom_site_type_symbol
_atom_site_label
_atom_site_fract_x
_atom_site_fract_y
_atom_site_fract_z
Si Si1 0.599399 0.209792 0.273661
Si Si2 0.003269 0.292600 0.345869
Si Si3 0.774038 0.218017 0.129157
Si Si4 0.887557 0.713617 0.987604
Si Si5 0.352275 0.201686 0.817420
Si Si6 0.056190 0.792347 0.897016
Si Si7 0.279101 0.289017 0.561109
Si Si8 0.179882 0.714664 0.631935
O O1 0.525750 0.284390 0.297917
O O2 0.606571 0.286181 0.221752
O O3 0.713666 0.232692 0.319578
O O4 0.575928 0.000000 0.264480
O O5 0.978892 0.500000 0.333034
O O6 0.110824 0.283838 0.398515
O O7 0.913943 0.217399 0.358301
O O8 0.693691 0.276459 0.069966
O O9 0.738406 0.281553 0.172841
O O10 0.882486 0.273208 0.134866
O O11 0.772877 0.000000 0.129641
O O12 0.886065 0.500000 0.986055
O O13 0.875421 0.768234 0.039942
O O14 0.000000 0.775801 0.000000
O O15 0.448791 0.197645 0.875393
O O16 0.322162 0.000000 0.798406
O O17 0.035353 0.000000 0.887492
O O18 0.287404 0.500000 0.568558
O O19 0.250000 0.250000 0.500000
O O20 0.194893 0.226833 0.580133
O O21 0.172123 0.500000 0.629606
#
# Coordination Sequence:
#
# PCOD9176236 Si02
#       8
#     8   8   8   8   8   8   8   8
#     4   9  19  34  56  79 100 131 175 220 254 294
#     4   9  18  35  55  78 106 139 176 217 259 306
#     4   9  19  35  53  73 101 135 167 200 250 310
#     4  10  18  34  58  74  94 137 172 196 246 315
#     4  10  20  38  56  73 102 139 172 203 251 317
#     4  11  22  34  51  78 105 128 163 215 257 293
#     4  10  20  34  52  78 109 145 179 216 259 305
#     4   9  19  35  55  76 106 142 174 210 264 315
#
# _framework density 23.042349000000002
#
# number of rings (size 3 to 8) (size 9 to 14) (size 15 to 20)
#    0.000    2.375    1.250    1.125    0.000    3.250 
#    0.000    4.375    0.000    0.000    0.000    0.000 
#    0.000    0.000    0.000    0.000    0.000    0.000 
#
# Total GULP energy -178604.760780 kJ/mol
# GULP energy per Si atom -5581.398774 kJ/mol
# Density = 2.298990 g / cm^3
# Si number density = 23.042349 Si / 1000 Ang^3
#
#
#
# Elastic Constant Matrix: (Units=GPa)
#
#
# Indices 1 2 3 4 5 6 
#
# 1 114.4283 11.8371 23.0119 0.0000 -42.2876 0.0000
# 2 11.8371 60.9189 -1.8314 0.0000 -13.5281 0.0000
# 3 23.0119 -1.8314 99.4878 0.0000 -39.4048 0.0000
# 4 0.0000 0.0000 0.0000 12.1892 0.0000 4.2786
# 5 -42.2876 -13.5281 -39.4048 0.0000 34.0894 0.0000
# 6 0.0000 0.0000 0.0000 4.2786 0.0000 10.2857
#
#
#
# Elastic Compliance Matrix: (Units=1/GPa)
#
#
# Indices 1 2 3 4 5 6 
#
# 1 0.021736 0.005804 0.012305 0.000000 0.043490 0.000000
# 2 0.005804 0.021593 0.009777 0.000000 0.027070 0.000000
# 3 0.012305 0.009777 0.027607 0.000000 0.051055 0.000000
# 4 0.000000 0.000000 0.000000 0.096067 0.000000 -0.039962
# 5 0.043490 0.027070 0.051055 0.000000 0.153042 0.000000
# 6 0.000000 0.000000 0.000000 -0.039962 0.000000 0.113846
#
#
# Mechanical properties :
#
#
# Convention : Reuss Voigt Hill
#
# Bulk Modulus (GPa) = 7.89224 37.87450 22.88337
# Shear Modulus (GPa) = 11.89468 27.43401 19.66434
#
# Velocity S-wave (km/s) = 2.27449 3.45424 2.92447
# Velocity P-wave (km/s) = 3.21407 5.69048 4.62125
#
# Compressibility (1/GPa) = 0.12670682
#
# Stress axis : x y z
#
# Youngs Moduli (GPa) = 46.00632 46.31181 36.22241
#
# Poissons Ratio (x) = -0.26880 -0.44570
# Poissons Ratio (y) = -0.26702 -0.35414
# Poissons Ratio (z) = -0.56609 -0.45278
#
# Static dielectric constant tensor:
#      x y z
#    x 1.865790 0.000000 -0.061910 
#    y 0.000000 1.882130 0.000000 
#    z -0.061910 0.000000 1.889200 
# 
# From -- ./inp_files/359766.got.cif
#   From: 2010.05.17/outbox.cif.g08.bks.cpg/sg12_180_cif.got.tgz:359766.got - 2010.06.03 13:09:07.
