data_PCOD9176648
_publ_section_title
;
Structure prediction by ZEFSAII (Michael W. Deem and Ramdas Pophale) SiO2 
 PCOD9176648
Probable space group: C 2/M
;
_chemical_formula_sum "Si O2"
_cell_formula_units_Z 56
_cell_length_a 15.655951
_cell_length_b 12.998295
_cell_length_c 17.473253
_cell_angle_alpha 90.000000
_cell_angle_beta 44.219167
_cell_angle_gamma 90.000000
_cell_volume 2479.845339
_symmetry_space_group_name_H-M "C 2/M"
_symmetry_group_IT_number 12
_symmetry_cell_setting 'monoclinic'
loop_
_space_group_symop_operation_xyz
x,y,z
-x,y,-z
-x,-y,-z
x,-y,z
1/2+x,1/2+y,z
1/2-x,1/2+y,-z
1/2-x,1/2-y,-z
1/2+x,1/2-y,z
loop_
_atom_site_type_symbol
_atom_site_label
_atom_site_fract_x
_atom_site_fract_y
_atom_site_fract_z
Si Si1 0.216950 0.619229 0.973238
Si Si2 0.157368 0.877175 0.627495
Si Si3 0.461592 0.616690 0.442926
Si Si4 0.469928 0.618321 0.883369
Si Si5 0.964320 0.671449 0.106394
Si Si6 0.791998 0.808613 0.764201
Si Si7 0.860332 0.619280 0.618529
O O1 0.228131 0.500000 0.942154
O O2 0.325321 0.635237 0.963930
O O3 0.244806 0.688896 0.881266
O O4 0.076089 0.636790 0.088432
O O5 0.272748 0.846108 0.604668
O O6 0.131098 0.834910 0.559367
O O7 0.039238 0.863205 0.757999
O O8 0.170173 0.000000 0.608516
O O9 0.500000 0.663985 0.500000
O O10 0.420660 0.500000 0.485723
O O11 0.591188 0.618701 0.316516
O O12 0.491768 0.500000 0.891809
O O13 0.526995 0.704741 0.900169
O O14 0.822792 0.648839 0.211930
O O15 0.000000 0.628563 0.000000
O O16 0.833282 0.697918 0.704998
O O17 0.828148 0.500000 0.658691
O O18 0.000000 0.618366 0.500000
#
# Coordination Sequence:
#
# PCOD9176648 Si02
#       7
#     8   8   8   8   8   8   8
#     4  10  21  37  58  82 113 154 194 235 288 349
#     4   9  17  34  60  83 108 152 197 235 288 344
#     4  10  20  35  57  86 115 145 192 245 287 342
#     4  10  18  35  60  82 110 150 196 238 282 341
#     4  10  22  34  53  85 116 148 189 238 289 341
#     4  11  20  34  54  82 114 147 192 234 284 343
#     4  10  21  38  60  85 115 151 196 243 293 353
#
# _framework density 22.582053999999999
#
# number of rings (size 3 to 8) (size 9 to 14) (size 15 to 20)
#    0.000    2.000    2.857    1.286    0.000    3.429 
#    0.000    6.429    0.000    0.857    0.000    1.000 
#    0.000    0.000    0.000    0.000    0.000    0.000 
#
# Total GULP energy -156114.711789 kJ/mol
# GULP energy per Si atom -5575.525421 kJ/mol
# Density = 2.253066 g / cm^3
# Si number density = 22.582054 Si / 1000 Ang^3
#
#
#
# Elastic Constant Matrix: (Units=GPa)
#
#
# Indices 1 2 3 4 5 6 
#
# 1 92.5545 14.0241 11.9400 0.0000 -11.7319 0.0000
# 2 14.0241 84.6629 17.6482 0.0000 15.7081 0.0000
# 3 11.9400 17.6482 40.0723 0.0000 -5.7888 0.0000
# 4 0.0000 0.0000 0.0000 26.8857 0.0000 -1.0136
# 5 -11.7319 15.7081 -5.7888 0.0000 41.4815 0.0000
# 6 0.0000 0.0000 0.0000 -1.0136 0.0000 19.7112
#
#
#
# Elastic Compliance Matrix: (Units=1/GPa)
#
#
# Indices 1 2 3 4 5 6 
#
# 1 0.011909 -0.002299 -0.001963 0.000000 0.003965 0.000000
# 2 -0.002299 0.015002 -0.006977 0.000000 -0.007305 0.000000
# 3 -0.001963 -0.006977 0.029509 0.000000 0.006205 0.000000
# 4 0.000000 0.000000 0.000000 0.037267 0.000000 0.001916
# 5 0.003965 -0.007305 0.006205 0.000000 0.028861 0.000000
# 6 0.000000 0.000000 0.000000 0.001916 0.000000 0.050831
#
#
# Mechanical properties :
#
#
# Convention : Reuss Voigt Hill
#
# Bulk Modulus (GPa) = 29.46285 33.83489 31.64887
# Shear Modulus (GPa) = 24.13469 29.19417 26.66443
#
# Velocity S-wave (km/s) = 3.27273 3.59946 3.43998
# Velocity P-wave (km/s) = 5.23033 5.68247 5.46108
#
# Compressibility (1/GPa) = 0.03394105
#
# Stress axis : x y z
#
# Youngs Moduli (GPa) = 83.97306 66.65715 33.88786
#
# Poissons Ratio (x) = 0.15324 0.06652
# Poissons Ratio (y) = 0.19305 0.23645
# Poissons Ratio (z) = 0.16484 0.46509
#
# Static dielectric constant tensor:
#      x y z
#    x 1.899460 0.000000 -0.005480 
#    y 0.000000 1.854530 0.000000 
#    z -0.005480 0.000000 1.869200 
# 
# From -- ./inp_files/214259.got.cif
#   From: 2010.05.17/outbox.cif.g08.bks.cpg/sg12_108_cif.got.tgz:214259.got - 2010.06.03 13:09:07.
