data_PCOD9176274
_publ_section_title
;
Structure prediction by ZEFSAII (Michael W. Deem and Ramdas Pophale) SiO2 
 PCOD9176274
Probable space group: C 2/M
;
_chemical_formula_sum "Si O2"
_cell_formula_units_Z 52
_cell_length_a 14.465959
_cell_length_b 12.465034
_cell_length_c 23.700651
_cell_angle_alpha 90.000000
_cell_angle_beta 153.410900
_cell_angle_gamma 90.000000
_cell_volume 1912.847523
_symmetry_space_group_name_H-M "C 2/M"
_symmetry_group_IT_number 12
_symmetry_cell_setting 'monoclinic'
loop_
_space_group_symop_operation_xyz
x,y,z
-x,y,-z
-x,-y,-z
x,-y,z
1/2+x,1/2+y,z
1/2-x,1/2+y,-z
1/2-x,1/2-y,-z
1/2+x,1/2-y,z
loop_
_atom_site_type_symbol
_atom_site_label
_atom_site_fract_x
_atom_site_fract_y
_atom_site_fract_z
Si Si1 0.564498 0.841941 0.172572
Si Si2 0.352934 0.883156 0.256569
Si Si3 0.243314 0.651198 0.389140
Si Si4 0.821755 0.384981 0.470306
Si Si5 0.277481 0.160645 0.855239
Si Si6 0.437748 0.500000 0.576462
Si Si7 0.401708 0.618458 0.122220
O O1 0.653563 0.879199 0.279845
O O2 0.716793 0.883924 0.205785
O O3 0.529442 0.713304 0.162578
O O4 0.331448 0.877601 0.030490
O O5 0.554238 0.880743 0.326653
O O6 0.464744 0.870016 0.378160
O O7 0.224485 0.786305 0.160495
O O8 0.253548 0.000000 0.198529
O O9 0.284423 0.778283 0.415243
O O10 0.429856 0.592166 0.521626
O O11 0.828470 0.500000 0.443446
O O12 0.641247 0.406880 0.418558
O O13 0.129454 0.136014 0.827055
O O14 0.500000 0.128158 0.000000
O O15 0.485912 0.500000 0.159082
#
# Coordination Sequence:
#
# PCOD9176274 Si02
#       7
#     8   8   8   8   8   4   8
#     4  10  23  37  59  91 116 154 203 256 296 348
#     4  10  18  34  58  85 116 154 194 235 304 356
#     4  11  17  34  56  88 119 147 205 245 292 364
#     4   8  18  31  54  86 116 155 194 238 298 361
#     4  10  22  41  58  86 124 159 202 246 302 356
#     4   8  16  28  52  86 106 154 186 240 288 353
#     4  10  22  42  61  83 120 164 204 245 305 367
#
# _framework density 27.184602999999999
#
# number of rings (size 3 to 8) (size 9 to 14) (size 15 to 20)
#    0.462    1.846    3.846    1.846    1.077    4.308 
#    0.000    0.769    0.000    1.846    0.000    2.154 
#    0.000    0.000    0.000    0.000    0.000    0.000 
#
# Total GULP energy -144884.180781 kJ/mol
# GULP energy per Si atom -5572.468492 kJ/mol
# Density = 2.712273 g / cm^3
# Si number density = 27.184603 Si / 1000 Ang^3
#
#
#
# Elastic Constant Matrix: (Units=GPa)
#
#
# Indices 1 2 3 4 5 6 
#
# 1 140.2521 18.2064 43.5846 0.0011 -6.3399 0.0070
# 2 18.2064 227.1898 13.3497 0.0038 -20.9048 0.0016
# 3 43.5846 13.3497 116.8764 0.0075 -36.7419 0.0123
# 4 0.0011 0.0038 0.0075 -59.2081 0.0013 -24.3574
# 5 -6.3399 -20.9048 -36.7419 0.0013 54.0041 -0.0002
# 6 0.0070 0.0016 0.0123 -24.3574 -0.0002 -333.0143
#
#
#
# Elastic Compliance Matrix: (Units=1/GPa)
#
#
# Indices 1 2 3 4 5 6 
#
# 1 0.008228 -0.000606 -0.003523 0.000000 -0.001665 0.000000
# 2 -0.000606 0.004609 0.000303 0.000000 0.001919 0.000000
# 3 -0.003523 0.000303 0.012392 0.000002 0.008135 0.000000
# 4 0.000000 0.000000 0.000002 -0.017414 0.000002 0.001274
# 5 -0.001665 0.001919 0.008135 0.000002 0.024599 0.000000
# 6 0.000000 0.000000 0.000000 0.001274 0.000000 -0.003096
#
#
# Mechanical properties :
#
#
# Convention : Reuss Voigt Hill
#
# Bulk Modulus (GPa) = 56.88853 70.51108 63.69980
# Shear Modulus (GPa) = 116.74229 -40.36514 38.18857
#
# Velocity S-wave (km/s) = 6.56030 -3.85756 3.75211
# Velocity P-wave (km/s) = 8.85186 2.48056 6.50033
#
# Compressibility (1/GPa) = 0.01757824
#
# Stress axis : x y z
#
# Youngs Moduli (GPa) = 121.53548 216.97053 80.69449
#
# Poissons Ratio (x) = 0.13140 0.28426
# Poissons Ratio (y) = 0.07360 -0.02442
# Poissons Ratio (z) = 0.42812 -0.06566
#
# Static dielectric constant tensor:
#      x y z
#    x 2.143240 0.000000 0.042240 
#    y 0.000000 1.914500 -0.000010 
#    z 0.042240 -0.000010 2.147030 
# 
# From -- ./inp_files/339632.got.cif
#   From: 2010.05.17/outbox.cif.g08.bks.cpg/sg12_170_cif.got.tgz:339632.got - 2010.06.03 13:09:07.
