data_PCOD9176201
_publ_section_title
;
Structure prediction by ZEFSAII (Michael W. Deem and Ramdas Pophale) SiO2 
 PCOD9176201
Probable space group: C 2/M
;
_chemical_formula_sum "Si O2"
_cell_formula_units_Z 34
_cell_length_a 14.247976
_cell_length_b 7.544378
_cell_length_c 16.173257
_cell_angle_alpha 90.000000
_cell_angle_beta 53.741992
_cell_angle_gamma 90.000000
_cell_volume 1401.858340
_symmetry_space_group_name_H-M "C 2/M"
_symmetry_group_IT_number 12
_symmetry_cell_setting 'monoclinic'
loop_
_space_group_symop_operation_xyz
x,y,z
-x,y,-z
-x,-y,-z
x,-y,z
1/2+x,1/2+y,z
1/2-x,1/2+y,-z
1/2-x,1/2-y,-z
1/2+x,1/2-y,z
loop_
_atom_site_type_symbol
_atom_site_label
_atom_site_fract_x
_atom_site_fract_y
_atom_site_fract_z
Si Si1 0.070009 0.285411 0.710848
Si Si2 0.326443 0.699170 0.550816
Si Si3 0.348601 0.794365 0.724432
Si Si4 0.000000 0.500000 0.500000
Si Si5 0.900688 0.284778 0.115527
O O1 0.067303 0.500000 0.713979
O O2 0.193139 0.238954 0.604087
O O3 0.070558 0.225836 0.805784
O O4 0.954597 0.227757 0.723828
O O5 0.350866 0.500000 0.510141
O O6 0.325506 0.690782 0.652619
O O7 0.425126 0.844245 0.488169
O O8 0.227886 0.787350 0.836880
O O9 0.371814 0.000000 0.682486
O O10 0.895062 0.500000 0.117239
O O11 0.000000 0.229669 0.000000
#
# Coordination Sequence:
#
# PCOD9176201 Si02
#       5
#     8   8   8   2   8
#     4   8  17  34  57  78 111 156 188 230 287 338
#     4  10  21  40  61  83 116 150 186 232 288 343
#     4  10  18  34  57  81 110 150 195 235 277 342
#     4  12  22  40  64  90 110 146 186 244 280 342
#     4   9  18  33  51  79 115 154 196 236 282 331
#
# _framework density 24.253518
#
# number of rings (size 3 to 8) (size 9 to 14) (size 15 to 20)
#    0.000    2.588    1.176    2.471    0.000    1.412 
#    4.235    1.176    0.000    0.000    0.000    0.000 
#    0.000    0.000    0.000    0.000    0.000    0.000 
#
# Total GULP energy -94970.497175 kJ/mol
# GULP energy per Si atom -5586.499834 kJ/mol
# Density = 2.419832 g / cm^3
# Si number density = 24.253518 Si / 1000 Ang^3
#
#
#
# Elastic Constant Matrix: (Units=GPa)
#
#
# Indices 1 2 3 4 5 6 
#
# 1 180.3738 42.4631 44.7900 0.0000 -43.0305 0.0000
# 2 42.4631 148.1562 32.7886 0.0000 -13.7577 0.0000
# 3 44.7900 32.7886 143.5885 0.0000 -20.7268 0.0000
# 4 0.0000 0.0000 0.0000 32.2121 0.0000 -4.9743
# 5 -43.0305 -13.7577 -20.7268 0.0000 36.3554 0.0000
# 6 0.0000 0.0000 0.0000 -4.9743 0.0000 25.6122
#
#
#
# Elastic Compliance Matrix: (Units=1/GPa)
#
#
# Indices 1 2 3 4 5 6 
#
# 1 0.008149 -0.001317 -0.001003 0.000000 0.008575 0.000000
# 2 -0.001317 0.007447 -0.001207 0.000000 0.000571 0.000000
# 3 -0.001003 -0.001207 0.007972 0.000000 0.002900 0.000000
# 4 0.000000 0.000000 0.000000 0.032004 0.000000 0.006216
# 5 0.008575 0.000571 0.002900 0.000000 0.039525 0.000000
# 6 0.000000 0.000000 0.000000 0.006216 0.000000 0.040251
#
#
# Mechanical properties :
#
#
# Convention : Reuss Voigt Hill
#
# Bulk Modulus (GPa) = 60.56200 79.13353 69.84777
# Shear Modulus (GPa) = 33.80484 42.30771 38.05628
#
# Velocity S-wave (km/s) = 3.73743 4.18113 3.96549
# Velocity P-wave (km/s) = 6.60675 7.48382 7.05892
#
# Compressibility (1/GPa) = 0.01651200
#
# Stress axis : x y z
#
# Youngs Moduli (GPa) = 122.71636 134.27550 125.44404
#
# Poissons Ratio (x) = 0.17688 0.12587
# Poissons Ratio (y) = 0.16165 0.15145
# Poissons Ratio (z) = 0.12313 0.16211
#
# Static dielectric constant tensor:
#      x y z
#    x 1.970790 0.000000 0.041470 
#    y 0.000000 1.899950 0.000000 
#    z 0.041470 0.000000 1.813260 
# 
# From -- ./inp_files/210620.got.cif
#   From: 2010.05.17/outbox.cif.g08.bks.cpg/sg12_106_cif.got.tgz:210620.got - 2010.06.03 13:09:07.
