data_PCOD9176199
_publ_section_title
;
Structure prediction by ZEFSAII (Michael W. Deem and Ramdas Pophale) SiO2 
 PCOD9176199
Probable space group: C 2/M
;
_chemical_formula_sum "Si O2"
_cell_formula_units_Z 48
_cell_length_a 24.171470
_cell_length_b 14.786059
_cell_length_c 11.042382
_cell_angle_alpha 90.000000
_cell_angle_beta 35.634824
_cell_angle_gamma 90.000000
_cell_volume 2299.330828
_symmetry_space_group_name_H-M "C 2/M"
_symmetry_group_IT_number 12
_symmetry_cell_setting 'monoclinic'
loop_
_space_group_symop_operation_xyz
x,y,z
-x,y,-z
-x,-y,-z
x,-y,z
1/2+x,1/2+y,z
1/2-x,1/2+y,-z
1/2-x,1/2-y,-z
1/2+x,1/2-y,z
loop_
_atom_site_type_symbol
_atom_site_label
_atom_site_fract_x
_atom_site_fract_y
_atom_site_fract_z
Si Si1 0.559018 0.647547 0.008029
Si Si2 0.455070 0.141956 0.701960
Si Si3 0.050569 0.851155 0.293848
Si Si4 0.025378 0.350108 0.827567
Si Si5 0.779913 0.391133 0.616928
Si Si6 0.234626 0.607966 0.079218
O O1 0.539475 0.609025 0.178157
O O2 0.527154 0.752630 0.073104
O O3 0.500000 0.608814 0.000000
O O4 0.671405 0.637465 0.785163
O O5 0.500000 0.101227 0.500000
O O6 0.484239 0.247505 0.652262
O O7 0.488129 0.103709 0.770981
O O8 0.342878 0.135134 0.880989
O O9 0.000000 0.893980 0.500000
O O10 0.162476 0.849933 0.122051
O O11 0.138845 0.344778 0.607785
O O12 0.000000 0.394989 0.000000
O O13 0.786774 0.500000 0.590696
O O14 0.798670 0.368167 0.725199
O O15 0.246321 0.500000 0.056047
#
# Coordination Sequence:
#
# PCOD9176199 Si02
#       6
#     8   8   8   8   8   8
#     4   9  20  38  59  83 110 151 192 224 274 343
#     4  10  18  34  57  81 104 141 186 223 267 330
#     4   9  19  35  55  82 109 138 179 236 275 312
#     4  10  21  37  57  85 115 145 184 238 283 322
#     4  10  21  38  59  83 116 153 185 227 285 339
#     4  10  20  34  55  80 109 147 182 219 275 337
#
# _framework density 20.875637999999999
#
# number of rings (size 3 to 8) (size 9 to 14) (size 15 to 20)
#    0.000    2.333    1.667    0.500    0.000    4.667 
#    3.000    0.000    0.000    0.000    0.000    0.000 
#    0.000    0.000    0.000    0.000    0.000    0.000 
#
# Total GULP energy -133839.345207 kJ/mol
# GULP energy per Si atom -5576.639384 kJ/mol
# Density = 2.082812 g / cm^3
# Si number density = 20.875638 Si / 1000 Ang^3
#
#
#
# Elastic Constant Matrix: (Units=GPa)
#
#
# Indices 1 2 3 4 5 6 
#
# 1 183.3933 -0.5874 79.3771 0.0000 11.3731 0.0000
# 2 -0.5874 73.4036 14.1684 0.0000 -1.2936 0.0000
# 3 79.3771 14.1684 145.9708 0.0000 12.3472 0.0000
# 4 0.0000 0.0000 0.0000 84.1802 0.0000 -41.0256
# 5 11.3731 -1.2936 12.3472 0.0000 36.4364 0.0000
# 6 0.0000 0.0000 0.0000 -41.0256 0.0000 -3.0978
#
#
#
# Elastic Compliance Matrix: (Units=1/GPa)
#
#
# Indices 1 2 3 4 5 6 
#
# 1 0.007208 0.000799 -0.003922 0.000000 -0.000893 0.000000
# 2 0.000799 0.014006 -0.001868 0.000000 0.000881 0.000000
# 3 -0.003922 -0.001868 0.009334 0.000000 -0.002005 0.000000
# 4 0.000000 0.000000 0.000000 0.001594 0.000000 -0.021105
# 5 -0.000893 0.000881 -0.002005 0.000000 0.028435 0.000000
# 6 0.000000 0.000000 0.000000 -0.021105 0.000000 -0.043305
#
#
# Mechanical properties :
#
#
# Convention : Reuss Voigt Hill
#
# Bulk Modulus (GPa) = 48.62446 65.40931 57.01689
# Shear Modulus (GPa) = 146.59076 44.15774 95.37425
#
# Velocity S-wave (km/s) = 8.38889 4.60420 6.76654
# Velocity P-wave (km/s) = 10.82470 7.72436 9.40319
#
# Compressibility (1/GPa) = 0.02056578
#
# Stress axis : x y z
#
# Youngs Moduli (GPa) = 138.73306 71.39862 107.13242
#
# Poissons Ratio (x) = -0.05704 0.42014
# Poissons Ratio (y) = -0.11084 0.20017
# Poissons Ratio (z) = 0.54407 0.13340
#
# Static dielectric constant tensor:
#      x y z
#    x 1.799890 0.000000 0.037860 
#    y 0.000000 1.749620 0.000000 
#    z 0.037860 0.000000 1.750890 
# 
# From -- ./inp_files/131044.got.cif
#   From: 2010.05.17/outbox.cif.g08.bks.cpg/sg12_66_cif.got.tgz:131044.got - 2010.06.03 13:09:07.
