data_PCOD9176604
_publ_section_title
;
Structure prediction by ZEFSAII (Michael W. Deem and Ramdas Pophale) SiO2 
 PCOD9176604
Probable space group: C 2/M
;
_chemical_formula_sum "Si O2"
_cell_formula_units_Z 42
_cell_length_a 15.285218
_cell_length_b 19.159390
_cell_length_c 9.851123
_cell_angle_alpha 90.000000
_cell_angle_beta 138.614082
_cell_angle_gamma 90.000000
_cell_volume 1907.323102
_symmetry_space_group_name_H-M "C 2/M"
_symmetry_group_IT_number 12
_symmetry_cell_setting 'monoclinic'
loop_
_space_group_symop_operation_xyz
x,y,z
-x,y,-z
-x,-y,-z
x,-y,z
1/2+x,1/2+y,z
1/2-x,1/2+y,-z
1/2-x,1/2-y,-z
1/2+x,1/2-y,z
loop_
_atom_site_type_symbol
_atom_site_label
_atom_site_fract_x
_atom_site_fract_y
_atom_site_fract_z
Si Si1 0.247474 0.400430 0.157481
Si Si2 0.000000 0.000000 0.500000
Si Si3 0.890171 0.232707 0.262436
Si Si4 0.555845 0.890391 0.704999
Si Si5 0.935262 0.801783 0.787807
Si Si6 0.173207 0.646959 0.350302
O O1 0.386194 0.439876 0.332717
O O2 0.270562 0.317570 0.158823
O O3 0.175665 0.401451 0.220152
O O4 0.161863 0.424633 0.929234
O O5 0.878433 0.315841 0.261060
O O6 0.000000 0.214462 0.500000
O O7 0.950478 0.211488 0.188595
O O8 0.500000 0.921672 0.500000
O O9 0.430289 0.875905 0.655946
O O10 0.869676 0.725902 0.739271
O O11 0.819672 0.847892 0.585811
O O12 0.000000 0.830263 0.000000
#
# Coordination Sequence:
#
# PCOD9176604 Si02
#       6
#     8   2   8   8   8   8
#     4  12  22  43  63  88 129 165 223 259 300 375
#     4  12  28  44  72  90 110 180 228 260 298 358
#     4  10  18  35  58  93 129 166 199 255 320 375
#     4  10  23  36  62 100 130 162 198 258 337 381
#     4  10  19  29  52  88 129 168 199 244 312 386
#     4  10  20  36  54  87 129 165 208 249 312 377
#
# _framework density 22.020389999999999
#
# number of rings (size 3 to 8) (size 9 to 14) (size 15 to 20)
#    0.000    1.524    2.857    3.429    5.333    0.000 
#    0.000    2.381    0.000    1.143    0.000    0.000 
#    0.000    0.000    0.000    0.000    0.000    0.000 
#
# Total GULP energy -117028.239715 kJ/mol
# GULP energy per Si atom -5572.773320 kJ/mol
# Density = 2.197027 g / cm^3
# Si number density = 22.020390 Si / 1000 Ang^3
#
#
#
# Elastic Constant Matrix: (Units=GPa)
#
#
# Indices 1 2 3 4 5 6 
#
# 1 74.2192 30.4934 52.2530 0.0000 -9.4931 0.0000
# 2 30.4934 82.8651 30.6852 0.0000 -2.3894 0.0000
# 3 52.2530 30.6852 198.9062 0.0000 -15.0390 0.0000
# 4 0.0000 0.0000 0.0000 1.4665 0.0000 20.1828
# 5 -9.4931 -2.3894 -15.0390 0.0000 35.8884 0.0000
# 6 0.0000 0.0000 0.0000 20.1828 0.0000 -7.8293
#
#
#
# Elastic Compliance Matrix: (Units=1/GPa)
#
#
# Indices 1 2 3 4 5 6 
#
# 1 0.018806 -0.005397 -0.003882 0.000000 0.002989 0.000000
# 2 -0.005397 0.014348 -0.000859 0.000000 -0.000832 0.000000
# 3 -0.003882 -0.000859 0.006297 0.000000 0.001555 0.000000
# 4 0.000000 0.000000 0.000000 0.018693 0.000000 0.048189
# 5 0.002989 -0.000832 0.001555 0.000000 0.029251 0.000000
# 6 0.000000 0.000000 0.000000 0.048189 0.000000 -0.003502
#
#
# Mechanical properties :
#
#
# Convention : Reuss Voigt Hill
#
# Bulk Modulus (GPa) = 52.14685 64.76153 58.45419
# Shear Modulus (GPa) = 45.22404 22.07571 33.64987
#
# Velocity S-wave (km/s) = 4.53673 3.16968 3.91336
# Velocity P-wave (km/s) = 7.15368 6.54748 6.85728
#
# Compressibility (1/GPa) = 0.01917661
#
# Stress axis : x y z
#
# Youngs Moduli (GPa) = 53.17406 69.69748 158.79852
#
# Poissons Ratio (x) = 0.37614 0.61644
# Poissons Ratio (y) = 0.28697 0.13634
# Poissons Ratio (z) = 0.20642 0.05984
#
# Static dielectric constant tensor:
#      x y z
#    x 1.932830 0.000000 0.131310 
#    y 0.000000 1.798410 0.000000 
#    z 0.131310 0.000000 1.963270 
# 
# From -- ./inp_files/63830.got.cif
#   From: 2010.05.17/outbox.cif.g08.bks.cpg/sg12_32_cif.got.tgz:63830.got - 2010.06.03 13:09:07.
