data_PCOD9176215
_publ_section_title
;
Structure prediction by ZEFSAII (Michael W. Deem and Ramdas Pophale) SiO2 
 PCOD9176215
Probable space group: C 2/M
;
_chemical_formula_sum "Si O2"
_cell_formula_units_Z 64
_cell_length_a 19.934833
_cell_length_b 21.225099
_cell_length_c 11.748455
_cell_angle_alpha 90.000000
_cell_angle_beta 44.541492
_cell_angle_gamma 90.000000
_cell_volume 3486.781189
_symmetry_space_group_name_H-M "C 2/M"
_symmetry_group_IT_number 12
_symmetry_cell_setting 'monoclinic'
loop_
_space_group_symop_operation_xyz
x,y,z
-x,y,-z
-x,-y,-z
x,-y,z
1/2+x,1/2+y,z
1/2-x,1/2+y,-z
1/2-x,1/2-y,-z
1/2+x,1/2-y,z
loop_
_atom_site_type_symbol
_atom_site_label
_atom_site_fract_x
_atom_site_fract_y
_atom_site_fract_z
Si Si1 0.121730 0.792370 0.566910
Si Si2 0.923793 0.813224 0.876760
Si Si3 0.085964 0.573707 0.181101
Si Si4 0.663945 0.721254 0.258846
Si Si5 0.624564 0.926214 0.510921
Si Si6 0.162044 0.666178 0.653004
Si Si7 0.377308 0.820447 0.041135
Si Si8 0.730356 0.134415 0.175546
O O1 0.110992 0.786704 0.443466
O O2 0.124881 0.722117 0.616072
O O3 0.224908 0.821976 0.467351
O O4 0.035131 0.829534 0.730840
O O5 0.889753 0.800724 0.788501
O O6 0.916862 0.747036 0.952680
O O7 0.844883 0.859999 0.025016
O O8 0.087848 0.500000 0.146616
O O9 0.177989 0.591767 0.144933
O O10 0.988903 0.584303 0.371077
O O11 0.082284 0.621685 0.080028
O O12 0.763969 0.684289 0.149809
O O13 0.691726 0.794314 0.207585
O O14 0.644269 0.899247 0.612185
O O15 0.692267 0.889588 0.342149
O O16 0.642719 0.000000 0.479138
O O17 0.114332 0.671461 0.834050
#
# Coordination Sequence:
#
# PCOD9176215 Si02
#       8
#     8   8   8   8   8   8   8   8
#     4  10  21  34  57  85 111 147 182 222 278 331
#     4  11  20  33  58  87 114 141 177 230 285 335
#     4  11  22  36  57  83 110 146 188 227 278 332
#     4  10  18  34  57  84 114 143 174 222 286 331
#     4  11  24  39  57  79 108 153 193 224 268 327
#     4  10  22  39  53  78 117 149 185 225 268 326
#     4  10  20  35  53  83 116 144 178 226 281 327
#     4  11  20  36  55  83 115 141 179 233 281 322
#
# _framework density 18.355038
#
# number of rings (size 3 to 8) (size 9 to 14) (size 15 to 20)
#    0.000    1.500    3.750    2.625    1.750    4.500 
#    0.000    1.250    0.000    2.250    0.000    1.750 
#    0.000    0.000    0.000    0.000    0.000    0.000 
#
# Total GULP energy -178704.517993 kJ/mol
# GULP energy per Si atom -5584.516187 kJ/mol
# Density = 1.831326 g / cm^3
# Si number density = 18.355038 Si / 1000 Ang^3
#
#
#
# Elastic Constant Matrix: (Units=GPa)
#
#
# Indices 1 2 3 4 5 6 
#
# 1 42.5293 16.7894 41.7765 0.0000 10.9895 0.0000
# 2 16.7894 54.6162 35.2125 0.0000 -0.1360 0.0000
# 3 41.7765 35.2125 139.5792 0.0000 -3.6851 0.0000
# 4 0.0000 0.0000 0.0000 16.1321 0.0000 -6.6168
# 5 10.9895 -0.1360 -3.6851 0.0000 36.6250 0.0000
# 6 0.0000 0.0000 0.0000 -6.6168 0.0000 11.1704
#
#
#
# Elastic Compliance Matrix: (Units=1/GPa)
#
#
# Indices 1 2 3 4 5 6 
#
# 1 0.039623 -0.005189 -0.010893 0.000000 -0.013004 0.000000
# 2 -0.005189 0.022554 -0.004104 0.000000 0.001228 0.000000
# 3 -0.010893 -0.004104 0.011577 0.000000 0.004418 0.000000
# 4 0.000000 0.000000 0.000000 0.081882 0.000000 0.048503
# 5 -0.013004 0.001228 0.004418 0.000000 0.031655 0.000000
# 6 0.000000 0.000000 0.000000 0.048503 0.000000 0.118253
#
#
# Mechanical properties :
#
#
# Convention : Reuss Voigt Hill
#
# Bulk Modulus (GPa) = 29.95847 47.14239 38.55043
# Shear Modulus (GPa) = 14.00386 22.31527 18.15956
#
# Velocity S-wave (km/s) = 2.76514 3.49055 3.14881
# Velocity P-wave (km/s) = 5.15284 6.47956 5.85391
#
# Compressibility (1/GPa) = 0.03337954
#
# Stress axis : x y z
#
# Youngs Moduli (GPa) = 25.23806 44.33802 86.37932
#
# Poissons Ratio (x) = 0.23009 0.94096
# Poissons Ratio (y) = 0.13097 0.35452
# Poissons Ratio (z) = 0.27493 0.18197
#
# Static dielectric constant tensor:
#      x y z
#    x 1.655960 0.000000 -0.011850 
#    y 0.000000 1.588510 0.000000 
#    z -0.011850 0.000000 1.665280 
# 
# From -- ./inp_files/169649.got.cif
#   From: 2010.05.17/outbox.cif.g08.bks.cpg/sg12_85_cif.got.tgz:169649.got - 2010.06.03 13:09:07.
