data_PCOD9176973
_publ_section_title
;
Structure prediction by ZEFSAII (Michael W. Deem and Ramdas Pophale) SiO2 
 PCOD9176973
Probable space group: C 2/M
;
_chemical_formula_sum "Si O2"
_cell_formula_units_Z 48
_cell_length_a 22.484033
_cell_length_b 13.903420
_cell_length_c 10.733681
_cell_angle_alpha 90.000000
_cell_angle_beta 38.217848
_cell_angle_gamma 90.000000
_cell_volume 2075.829977
_symmetry_space_group_name_H-M "C 2/M"
_symmetry_group_IT_number 12
_symmetry_cell_setting 'monoclinic'
loop_
_space_group_symop_operation_xyz
x,y,z
-x,y,-z
-x,-y,-z
x,-y,z
1/2+x,1/2+y,z
1/2-x,1/2+y,-z
1/2-x,1/2-y,-z
1/2+x,1/2-y,z
loop_
_atom_site_type_symbol
_atom_site_label
_atom_site_fract_x
_atom_site_fract_y
_atom_site_fract_z
Si Si1 0.903561 0.000000 0.353843
Si Si2 0.245709 0.500000 0.095111
Si Si3 0.225283 0.000000 0.679530
Si Si4 0.709657 0.789561 0.406367
Si Si5 0.261001 0.000000 0.167379
Si Si6 0.455588 0.698931 0.208097
Si Si7 0.628675 0.799095 0.015013
Si Si8 0.886152 0.310834 0.686641
O O1 0.963003 0.902121 0.266983
O O2 0.816121 0.000000 0.595662
O O3 0.143897 0.000000 0.707594
O O4 0.306674 0.500000 0.121989
O O5 0.175090 0.408567 0.216076
O O6 0.290356 0.500000 0.883904
O O7 0.287168 0.902116 0.565174
O O8 0.656266 0.728825 0.600306
O O9 0.812757 0.761841 0.181924
O O10 0.645384 0.761630 0.389249
O O11 0.328903 0.093888 0.062176
O O12 0.500000 0.683920 0.000000
O O13 0.517575 0.785421 0.164624
O O14 0.640364 0.762230 0.137817
O O15 0.000000 0.328685 0.500000
#
# Coordination Sequence:
#
# PCOD9176973 Si02
#       8
#     4   4   4   8   4   8   8   8
#     4  12  25  48  72 100 137 191 233 283 346 422
#     4   8  19  36  62 103 134 175 226 283 341 413
#     4  10  24  41  69  97 136 184 229 281 342 412
#     4  11  23  43  66 100 138 180 234 280 347 412
#     4  10  22  41  73 102 139 181 233 282 350 406
#     4  12  27  43  69  99 138 179 235 284 347 409
#     4  11  23  42  68 100 137 184 229 286 345 408
#     4  10  18  36  64  98 134 178 223 283 342 411
#
# _framework density 23.123280999999999
#
# number of rings (size 3 to 8) (size 9 to 14) (size 15 to 20)
#    0.000    1.333    3.333    2.000    2.333    2.667 
#    0.000    0.833    0.000    3.000    0.000    0.000 
#    0.000    0.000    0.000    0.000    0.000    0.000 
#
# Total GULP energy -134091.761576 kJ/mol
# GULP energy per Si atom -5587.156732 kJ/mol
# Density = 2.307065 g / cm^3
# Si number density = 23.123281 Si / 1000 Ang^3
#
#
#
# Elastic Constant Matrix: (Units=GPa)
#
#
# Indices 1 2 3 4 5 6 
#
# 1 69.8394 -5.9568 31.7066 0.0000 16.0213 0.0000
# 2 -5.9568 97.6859 32.5190 0.0000 14.5167 0.0000
# 3 31.7066 32.5190 141.3553 0.0000 19.2181 0.0000
# 4 0.0000 0.0000 0.0000 27.1107 0.0000 -0.3839
# 5 16.0213 14.5167 19.2181 0.0000 37.0104 0.0000
# 6 0.0000 0.0000 0.0000 -0.3839 0.0000 21.6837
#
#
#
# Elastic Compliance Matrix: (Units=1/GPa)
#
#
# Indices 1 2 3 4 5 6 
#
# 1 0.018002 0.003444 -0.003860 0.000000 -0.007140 0.000000
# 2 0.003444 0.012121 -0.002918 0.000000 -0.004730 0.000000
# 3 -0.003860 -0.002918 0.008854 0.000000 -0.001782 0.000000
# 4 0.000000 0.000000 0.000000 0.036895 0.000000 0.000653
# 5 -0.007140 -0.004730 -0.001782 0.000000 0.032891 0.000000
# 6 0.000000 0.000000 0.000000 0.000653 0.000000 0.046129
#
#
# Mechanical properties :
#
#
# Convention : Reuss Voigt Hill
#
# Bulk Modulus (GPa) = 30.95072 47.26869 39.10970
# Shear Modulus (GPa) = 29.01422 33.86841 31.44132
#
# Velocity S-wave (km/s) = 3.54611 3.83128 3.69145
# Velocity P-wave (km/s) = 5.49369 6.32914 5.92615
#
# Compressibility (1/GPa) = 0.03230943
#
# Stress axis : x y z
#
# Youngs Moduli (GPa) = 55.54844 82.50079 112.94807
#
# Poissons Ratio (x) = -0.28410 0.43593
# Poissons Ratio (y) = -0.19128 0.32956
# Poissons Ratio (z) = 0.21439 0.24072
#
# Static dielectric constant tensor:
#      x y z
#    x 1.930170 0.000000 0.044070 
#    y 0.000000 1.835170 0.000000 
#    z 0.044070 0.000000 1.843500 
# 
# From -- ./inp_files/183718.got.cif
#   From: 2010.05.17/outbox.cif.g08.bks.cpg/sg12_92_cif.got.tgz:183718.got - 2010.06.03 13:09:07.
