data_PCOD9176442
_publ_section_title
;
Structure prediction by ZEFSAII (Michael W. Deem and Ramdas Pophale) SiO2 
 PCOD9176442
Probable space group: C 2/M
;
_chemical_formula_sum "Si O2"
_cell_formula_units_Z 60
_cell_length_a 22.564012
_cell_length_b 17.892936
_cell_length_c 9.322431
_cell_angle_alpha 90.000000
_cell_angle_beta 119.511139
_cell_angle_gamma 90.000000
_cell_volume 3275.488687
_symmetry_space_group_name_H-M "C 2/M"
_symmetry_group_IT_number 12
_symmetry_cell_setting 'monoclinic'
loop_
_space_group_symop_operation_xyz
x,y,z
-x,y,-z
-x,-y,-z
x,-y,z
1/2+x,1/2+y,z
1/2-x,1/2+y,-z
1/2-x,1/2-y,-z
1/2+x,1/2-y,z
loop_
_atom_site_type_symbol
_atom_site_label
_atom_site_fract_x
_atom_site_fract_y
_atom_site_fract_z
Si Si1 0.382666 0.329132 0.720542
Si Si2 0.270497 0.911960 0.940853
Si Si3 0.062408 0.807735 0.676297
Si Si4 0.303411 0.694199 0.344745
Si Si5 0.000000 0.277285 0.000000
Si Si6 0.002966 0.083477 0.829847
Si Si7 0.896712 0.319081 0.107005
Si Si8 0.796239 0.184543 0.888168
O O1 0.329885 0.300328 0.538800
O O2 0.424991 0.396450 0.700303
O O3 0.340170 0.349867 0.811221
O O4 0.443824 0.272112 0.842979
O O5 0.349271 0.890451 0.065871
O O6 0.228069 0.871946 0.018490
O O7 0.259156 0.000000 0.922982
O O8 0.248855 0.871139 0.765757
O O9 0.130692 0.823107 0.672315
O O10 0.063943 0.719594 0.715129
O O11 0.000000 0.826085 0.500000
O O12 0.050672 0.857145 0.805692
O O13 0.268631 0.771527 0.254017
O O14 0.047597 0.323980 0.951077
O O15 0.022544 0.000000 0.811498
O O16 0.000000 0.087578 0.000000
O O17 0.842683 0.251910 0.006373
#
# Coordination Sequence:
#
# PCOD9176442 Si02
#       8
#     8   8   8   8   4   8   8   8
#     4  11  20  35  57  86 113 145 192 227 280 329
#     4  11  23  38  58  81 112 154 192 228 281 332
#     4  12  20  35  58  84 109 142 183 228 280 325
#     4  11  21  37  56  87 113 143 189 245 274 318
#     4  10  18  34  62  86 110 146 186 232 280 336
#     4  11  23  35  48  75 115 151 179 212 262 337
#     4  10  18  37  59  83 109 141 186 235 270 333
#     4  10  20  37  60  80 110 151 194 228 273 336
#
# _framework density 18.317876999999999
#
# number of rings (size 3 to 8) (size 9 to 14) (size 15 to 20)
#    0.000    1.200    6.000    2.000    0.000    1.867 
#    0.000    0.333    0.000    0.400    0.000    0.000 
#    0.000    0.000    0.000    0.000    0.000    0.000 
#
# Total GULP energy -167162.469268 kJ/mol
# GULP energy per Si atom -5572.082309 kJ/mol
# Density = 1.827618 g / cm^3
# Si number density = 18.317877 Si / 1000 Ang^3
#
#
#
# Elastic Constant Matrix: (Units=GPa)
#
#
# Indices 1 2 3 4 5 6 
#
# 1 100.7193 13.4384 13.3987 0.0000 -2.4420 0.0000
# 2 13.4384 57.0242 18.7700 0.0000 9.5618 0.0000
# 3 13.3987 18.7700 91.6779 0.0000 2.0793 0.0000
# 4 0.0000 0.0000 0.0000 12.2053 0.0000 1.0093
# 5 -2.4420 9.5618 2.0793 0.0000 22.8245 0.0000
# 6 0.0000 0.0000 0.0000 1.0093 0.0000 16.3456
#
#
#
# Elastic Compliance Matrix: (Units=1/GPa)
#
#
# Indices 1 2 3 4 5 6 
#
# 1 0.010458 -0.002491 -0.001070 0.000000 0.002260 0.000000
# 2 -0.002491 0.020789 -0.003696 0.000000 -0.008639 0.000000
# 3 -0.001070 -0.003696 0.011813 0.000000 0.000358 0.000000
# 4 0.000000 0.000000 0.000000 0.082352 0.000000 -0.005085
# 5 0.002260 -0.008639 0.000358 0.000000 0.047641 0.000000
# 6 0.000000 0.000000 0.000000 -0.005085 0.000000 0.061493
#
#
# Mechanical properties :
#
#
# Convention : Reuss Voigt Hill
#
# Bulk Modulus (GPa) = 35.03241 37.84842 36.44041
# Shear Modulus (GPa) = 19.33677 23.86269 21.59973
#
# Velocity S-wave (km/s) = 3.25256 3.61321 3.43762
# Velocity P-wave (km/s) = 5.76817 6.17365 5.97435
#
# Compressibility (1/GPa) = 0.02854500
#
# Stress axis : x y z
#
# Youngs Moduli (GPa) = 95.61966 48.10292 84.65459
#
# Poissons Ratio (x) = 0.11985 0.09055
# Poissons Ratio (y) = 0.23823 0.31290
# Poissons Ratio (z) = 0.10228 0.17780
#
# Static dielectric constant tensor:
#      x y z
#    x 1.653990 0.000000 0.011450 
#    y 0.000000 1.629180 0.000000 
#    z 0.011450 0.000000 1.724020 
# 
# From -- ./inp_files/98133.got.cif
#   From: 2010.05.17/outbox.cif.g08.bks.cpg/sg12_50_cif.got.tgz:98133.got - 2010.06.03 13:09:07.
