data_PCOD9176660
_publ_section_title
;
Structure prediction by ZEFSAII (Michael W. Deem and Ramdas Pophale) SiO2 
 PCOD9176660
Probable space group: C 2/M
;
_chemical_formula_sum "Si O2"
_cell_formula_units_Z 48
_cell_length_a 19.586993
_cell_length_b 13.787877
_cell_length_c 23.672950
_cell_angle_alpha 90.000000
_cell_angle_beta 19.313554
_cell_angle_gamma 90.000000
_cell_volume 2114.468340
_symmetry_space_group_name_H-M "C 2/M"
_symmetry_group_IT_number 12
_symmetry_cell_setting 'monoclinic'
loop_
_space_group_symop_operation_xyz
x,y,z
-x,y,-z
-x,-y,-z
x,-y,z
1/2+x,1/2+y,z
1/2-x,1/2+y,-z
1/2-x,1/2-y,-z
1/2+x,1/2-y,z
loop_
_atom_site_type_symbol
_atom_site_label
_atom_site_fract_x
_atom_site_fract_y
_atom_site_fract_z
Si Si1 0.756582 0.393501 0.194999
Si Si2 0.917720 0.609229 0.358693
Si Si3 0.014695 0.884641 0.824121
Si Si4 0.540281 0.677744 0.250624
Si Si5 0.877595 0.787021 0.154768
Si Si6 0.024691 0.609254 0.558246
O O1 0.658973 0.500000 0.279091
O O2 0.679597 0.343744 0.196901
O O3 0.757672 0.316328 0.245077
O O4 0.000000 0.407664 0.000000
O O5 0.948190 0.500000 0.310864
O O6 0.675145 0.626943 0.561181
O O7 0.996136 0.709266 0.270737
O O8 0.022463 0.611571 0.338465
O O9 0.891772 0.869539 0.861698
O O10 0.972077 0.818068 0.911794
O O11 0.247884 0.846596 0.626370
O O12 0.004811 0.000000 0.845612
O O13 0.679984 0.856745 0.312154
O O14 0.000000 0.798496 0.000000
O O15 0.061693 0.500000 0.513136
#
# Coordination Sequence:
#
# PCOD9176660 Si02
#       6
#     8   8   8   8   8   8
#     4  10  21  38  59  80 109 157 205 238 283 354
#     4   9  17  30  56  91 118 147 188 243 302 343
#     4  10  21  36  58  88 117 151 194 244 298 350
#     4  10  18  35  60  85 115 151 198 243 286 351
#     4  11  22  36  54  84 115 154 194 241 292 346
#     4   9  17  33  56  82 117 152 186 229 289 354
#
# _framework density 22.700742000000002
#
# number of rings (size 3 to 8) (size 9 to 14) (size 15 to 20)
#    0.000    2.167    1.667    3.500    0.000    2.667 
#    0.000    4.167    0.000    2.500    0.000    0.000 
#    0.000    0.000    0.000    0.000    0.000    0.000 
#
# Total GULP energy -133602.349193 kJ/mol
# GULP energy per Si atom -5566.764550 kJ/mol
# Density = 2.264907 g / cm^3
# Si number density = 22.700742 Si / 1000 Ang^3
#
#
#
# Elastic Constant Matrix: (Units=GPa)
#
#
# Indices 1 2 3 4 5 6 
#
# 1 109.5077 62.0494 1.4340 -0.0123 -9.5628 0.0048
# 2 62.0494 153.0472 2.1994 0.0195 16.8951 0.0057
# 3 1.4340 2.1994 36.4556 -0.0347 -3.9073 0.0076
# 4 -0.0123 0.0195 -0.0347 11.9083 0.0028 0.0536
# 5 -9.5628 16.8951 -3.9073 0.0028 29.5665 -0.0001
# 6 0.0048 0.0057 0.0076 0.0536 -0.0001 34.5103
#
#
#
# Elastic Compliance Matrix: (Units=1/GPa)
#
#
# Indices 1 2 3 4 5 6 
#
# 1 0.013418 -0.006340 0.000718 0.000024 0.008058 -0.000001
# 2 -0.006340 0.009996 -0.001203 -0.000025 -0.007922 0.000000
# 3 0.000718 -0.001203 0.027970 0.000083 0.004616 -0.000006
# 4 0.000024 -0.000025 0.000083 0.083976 0.000025 -0.000130
# 5 0.008058 -0.007922 0.004616 0.000025 0.041565 -0.000001
# 6 -0.000001 0.000000 -0.000006 -0.000130 -0.000001 0.028977
#
#
# Mechanical properties :
#
#
# Convention : Reuss Voigt Hill
#
# Bulk Modulus (GPa) = 26.50030 47.81958 37.15994
# Shear Modulus (GPa) = 21.53972 30.75221 26.14596
#
# Velocity S-wave (km/s) = 3.08369 3.68459 3.39745
# Velocity P-wave (km/s) = 4.93741 6.26199 5.63873
#
# Compressibility (1/GPa) = 0.03773543
#
# Stress axis : x y z
#
# Youngs Moduli (GPa) = 74.52450 100.03897 35.75289
#
# Poissons Ratio (x) = 0.63425 -0.02568
# Poissons Ratio (y) = 0.47249 0.04300
# Poissons Ratio (z) = -0.05354 0.12032
#
# Static dielectric constant tensor:
#      x y z
#    x 2.159990 0.000190 0.367070 
#    y 0.000190 1.971810 0.000300 
#    z 0.367070 0.000300 2.417610 
# 
# From -- ./inp_files/347478.got.cif
#   From: 2010.05.17/outbox.cif.g08.bks.cpg/sg12_174_cif.got.tgz:347478.got - 2010.06.03 13:09:07.
