data_PCOD9176344
_publ_section_title
;
Structure prediction by ZEFSAII (Michael W. Deem and Ramdas Pophale) SiO2 
 PCOD9176344
Probable space group: C 2/M
;
_chemical_formula_sum "Si O2"
_cell_formula_units_Z 58
_cell_length_a 14.821528
_cell_length_b 17.994924
_cell_length_c 26.745488
_cell_angle_alpha 90.000000
_cell_angle_beta 153.437761
_cell_angle_gamma 90.000000
_cell_volume 3189.817860
_symmetry_space_group_name_H-M "C 2/M"
_symmetry_group_IT_number 12
_symmetry_cell_setting 'monoclinic'
loop_
_space_group_symop_operation_xyz
x,y,z
-x,y,-z
-x,-y,-z
x,-y,z
1/2+x,1/2+y,z
1/2-x,1/2+y,-z
1/2-x,1/2-y,-z
1/2+x,1/2-y,z
loop_
_atom_site_type_symbol
_atom_site_label
_atom_site_fract_x
_atom_site_fract_y
_atom_site_fract_z
Si Si1 0.520571 0.585029 0.248667
Si Si2 0.507338 0.580826 0.606198
Si Si3 0.427294 0.762000 0.019499
Si Si4 0.556596 0.261484 0.585090
Si Si5 0.151815 0.417727 0.138836
Si Si6 0.000000 0.500000 0.500000
Si Si7 0.018085 0.797166 0.170220
Si Si8 0.176936 0.622550 0.519429
O O1 0.604079 0.500000 0.293248
O O2 0.298291 0.585277 0.162808
O O3 0.525862 0.619836 0.196750
O O4 0.657566 0.633082 0.354090
O O5 0.518803 0.500000 0.586934
O O6 0.510438 0.653716 0.574592
O O7 0.694208 0.585600 0.738033
O O8 0.305927 0.585675 0.539632
O O9 0.510536 0.846121 0.069419
O O10 0.508184 0.712294 0.105613
O O11 0.500000 0.740070 0.000000
O O12 0.186419 0.763620 0.907206
O O13 0.500000 0.247031 0.500000
O O14 0.786956 0.245315 0.712985
O O15 0.424034 0.199055 0.547541
O O16 0.054005 0.500000 0.090887
O O17 0.979196 0.565828 0.533180
#
# Coordination Sequence:
#
# PCOD9176344 Si02
#       8
#     8   8   8   8   8   2   8   8
#     4  10  18  34  59  88 120 148 191 245 307 362
#     4  10  21  39  58  84 119 162 203 242 295 353
#     4  11  22  39  61  82 123 156 195 246 294 358
#     4  12  23  37  60  89 121 160 200 244 291 361
#     4   9  18  34  61  87 113 146 192 255 307 349
#     4  12  16  32  56  84 120 150 186 232 314 344
#     4  11  23  38  56  90 121 156 195 238 302 354
#     4  11  20  34  58  88 123 154 185 245 305 355
#
# _framework density 18.182856999999998
#
# number of rings (size 3 to 8) (size 9 to 14) (size 15 to 20)
#    0.000    1.379    6.207    1.241    0.000    1.103 
#    2.483    0.000    0.000    0.414    0.000    0.000 
#    0.000    0.000    0.000    0.000    0.000    0.000 
#
# Total GULP energy -161543.434727 kJ/mol
# GULP energy per Si atom -5570.463266 kJ/mol
# Density = 1.814147 g / cm^3
# Si number density = 18.182857 Si / 1000 Ang^3
#
#
#
# Elastic Constant Matrix: (Units=GPa)
#
#
# Indices 1 2 3 4 5 6 
#
# 1 62.1085 14.2935 22.0002 -0.0003 -1.6841 -0.0005
# 2 14.2935 101.4131 23.0530 -0.0012 3.3792 -0.0009
# 3 22.0002 23.0530 75.0646 -0.0041 6.1746 -0.0010
# 4 -0.0003 -0.0012 -0.0041 21.7527 -0.0005 -8.1186
# 5 -1.6841 3.3792 6.1746 -0.0005 21.2664 -0.0005
# 6 -0.0005 -0.0009 -0.0010 -8.1186 -0.0005 30.9289
#
#
#
# Elastic Compliance Matrix: (Units=1/GPa)
#
#
# Indices 1 2 3 4 5 6 
#
# 1 0.018373 -0.001518 -0.005182 -0.000001 0.003201 0.000000
# 2 -0.001518 0.010738 -0.002769 0.000000 -0.001023 0.000000
# 3 -0.005182 -0.002769 0.016072 0.000003 -0.004637 0.000001
# 4 -0.000001 0.000000 0.000003 0.050964 0.000000 0.013378
# 5 0.003201 -0.001023 -0.004637 0.000000 0.048785 0.000001
# 6 0.000000 0.000000 0.000001 0.013378 0.000001 0.035844
#
#
# Mechanical properties :
#
#
# Convention : Reuss Voigt Hill
#
# Bulk Modulus (GPa) = 38.10159 39.69772 38.89965
# Shear Modulus (GPa) = 23.98529 26.73891 25.36210
#
# Velocity S-wave (km/s) = 3.63590 3.83894 3.73880
# Velocity P-wave (km/s) = 6.21503 6.44437 6.33074
#
# Compressibility (1/GPa) = 0.02624563
#
# Stress axis : x y z
#
# Youngs Moduli (GPa) = 54.42911 93.12641 62.21914
#
# Poissons Ratio (x) = 0.14139 0.32240
# Poissons Ratio (y) = 0.08264 0.17226
# Poissons Ratio (z) = 0.28203 0.25784
#
# Static dielectric constant tensor:
#      x y z
#    x 2.151220 0.000000 0.858150 
#    y 0.000000 1.645910 0.000000 
#    z 0.858150 0.000000 3.016600 
# 
# From -- ./inp_files/246888.got.cif
#   From: 2010.05.17/outbox.cif.g08.bks.cpg/sg12_124_cif.got.tgz:246888.got - 2010.06.03 13:09:07.
