data_PCOD9176059
_publ_section_title
;
Structure prediction by ZEFSAII (Michael W. Deem and Ramdas Pophale) SiO2 
 PCOD9176059
Probable space group: C 2/M
;
_chemical_formula_sum "Si O2"
_cell_formula_units_Z 40
_cell_length_a 12.479490
_cell_length_b 12.934483
_cell_length_c 14.239373
_cell_angle_alpha 90.000000
_cell_angle_beta 45.283663
_cell_angle_gamma 90.000000
_cell_volume 1633.282462
_symmetry_space_group_name_H-M "C 2/M"
_symmetry_group_IT_number 12
_symmetry_cell_setting 'monoclinic'
loop_
_space_group_symop_operation_xyz
x,y,z
-x,y,-z
-x,-y,-z
x,-y,z
1/2+x,1/2+y,z
1/2-x,1/2+y,-z
1/2-x,1/2-y,-z
1/2+x,1/2-y,z
loop_
_atom_site_type_symbol
_atom_site_label
_atom_site_fract_x
_atom_site_fract_y
_atom_site_fract_z
Si Si1 0.524496 0.110132 0.373707
Si Si2 0.680176 0.671962 0.244694
Si Si3 0.337848 0.837334 0.324342
Si Si4 0.568795 0.384556 0.749543
Si Si5 0.405539 0.772881 0.957341
O O1 0.500000 0.112749 0.500000
O O2 0.618586 0.211397 0.290687
O O3 0.373840 0.114888 0.402016
O O4 0.598521 0.000000 0.304957
O O5 0.707973 0.629281 0.332501
O O6 0.560804 0.615865 0.251378
O O7 0.843132 0.682359 0.093230
O O8 0.324710 0.712507 0.342279
O O9 0.494836 0.848519 0.169047
O O10 0.628517 0.500000 0.722341
O O11 0.493331 0.336814 0.890973
O O12 0.250000 0.750000 0.000000
#
# Coordination Sequence:
#
# PCOD9176059 Si02
#       5
#     8   8   8   8   8
#     4  10  22  38  53  74 103 137 178 218 257 304
#     4  10  18  34  54  75 105 135 174 209 257 305
#     4   9  19  33  54  76 102 135 171 212 257 308
#     4   8  17  30  48  74 106 132 161 205 249 303
#     4   8  15  31  50  74 106 137 157 204 255 316
#
# _framework density 24.490559999999999
#
# number of rings (size 3 to 8) (size 9 to 14) (size 15 to 20)
#    1.200    1.800    2.000    0.600    0.000    3.200 
#    0.000    1.000    0.000   13.200    0.000    0.000 
#    0.000    0.000    0.000    0.000    0.000    0.000 
#
# Total GULP energy -111396.545950 kJ/mol
# GULP energy per Si atom -5569.827298 kJ/mol
# Density = 2.443482 g / cm^3
# Si number density = 24.490560 Si / 1000 Ang^3
#
#
#
# Elastic Constant Matrix: (Units=GPa)
#
#
# Indices 1 2 3 4 5 6 
#
# 1 102.3696 -10.4123 28.6329 0.0000 51.7880 0.0000
# 2 -10.4123 112.2698 9.0127 0.0000 1.3179 0.0000
# 3 28.6329 9.0127 86.4749 0.0000 32.5185 0.0000
# 4 0.0000 0.0000 0.0000 6.2544 0.0000 0.4150
# 5 51.7880 1.3179 32.5185 0.0000 52.0558 0.0000
# 6 0.0000 0.0000 0.0000 0.4150 0.0000 -8.9852
#
#
#
# Elastic Compliance Matrix: (Units=1/GPa)
#
#
# Indices 1 2 3 4 5 6 
#
# 1 0.020203 0.002046 0.000882 0.000000 -0.020702 0.000000
# 2 0.002046 0.009198 -0.001024 0.000000 -0.001629 0.000000
# 3 0.000882 -0.001024 0.015291 0.000000 -0.010404 0.000000
# 4 0.000000 0.000000 0.000000 0.159398 0.000000 0.007363
# 5 -0.020702 -0.001629 -0.010404 0.000000 0.046345 0.000000
# 6 0.000000 0.000000 0.000000 0.007363 0.000000 -0.110954
#
#
# Mechanical properties :
#
#
# Convention : Reuss Voigt Hill
#
# Bulk Modulus (GPa) = 20.61834 39.50900 30.06367
# Shear Modulus (GPa) = 32.92940 28.12372 30.52656
#
# Velocity S-wave (km/s) = 3.67082 3.39241 3.53436
# Velocity P-wave (km/s) = 5.13846 5.61355 5.38125
#
# Compressibility (1/GPa) = 0.04850051
#
# Stress axis : x y z
#
# Youngs Moduli (GPa) = 49.49854 108.71756 65.39835
#
# Poissons Ratio (x) = -0.22242 -0.05769
# Poissons Ratio (y) = -0.10127 0.06694
# Poissons Ratio (z) = -0.04366 0.11128
#
# Static dielectric constant tensor:
#      x y z
#    x 2.095390 0.000000 0.034180 
#    y 0.000000 1.905830 0.000000 
#    z 0.034180 0.000000 2.030590 
# 
# From -- ./inp_files/141897.got.cif
#   From: 2010.05.17/outbox.cif.g08.bks.cpg/sg12_71_cif.got.tgz:141897.got - 2010.06.03 13:09:07.
