data_PCOD9176409
_publ_section_title
;
Structure prediction by ZEFSAII (Michael W. Deem and Ramdas Pophale) SiO2 
 PCOD9176409
Probable space group: C 2/M
;
_chemical_formula_sum "Si O2"
_cell_formula_units_Z 64
_cell_length_a 17.430288
_cell_length_b 13.288972
_cell_length_c 11.677853
_cell_angle_alpha 90.000000
_cell_angle_beta 77.788328
_cell_angle_gamma 90.000000
_cell_volume 2643.742865
_symmetry_space_group_name_H-M "C 2/M"
_symmetry_group_IT_number 12
_symmetry_cell_setting 'monoclinic'
loop_
_space_group_symop_operation_xyz
x,y,z
-x,y,-z
-x,-y,-z
x,-y,z
1/2+x,1/2+y,z
1/2-x,1/2+y,-z
1/2-x,1/2-y,-z
1/2+x,1/2-y,z
loop_
_atom_site_type_symbol
_atom_site_label
_atom_site_fract_x
_atom_site_fract_y
_atom_site_fract_z
Si Si1 0.756344 0.386030 0.346826
Si Si2 0.362830 0.885634 0.085075
Si Si3 0.548942 0.614004 0.645877
Si Si4 0.788915 0.882831 0.994508
Si Si5 0.947474 0.388187 0.691618
Si Si6 0.880853 0.814968 0.743989
Si Si7 0.107026 0.677036 0.542802
Si Si8 0.428079 0.318469 0.100852
O O1 0.726726 0.500000 0.374046
O O2 0.813352 0.389960 0.218590
O O3 0.687532 0.312443 0.328491
O O4 0.807940 0.349907 0.436674
O O5 0.298679 0.846785 0.010771
O O6 0.427672 0.802322 0.089441
O O7 0.388728 0.000000 0.050746
O O8 0.572103 0.500000 0.610605
O O9 0.454925 0.626585 0.668951
O O10 0.587869 0.704595 0.562766
O O11 0.565293 0.639950 0.773775
O O12 0.843338 0.867455 0.865548
O O13 0.776801 0.000000 0.015540
O O14 0.841697 0.846656 0.082342
O O15 0.928682 0.500000 0.737562
O O16 0.912914 0.294257 0.770872
O O17 0.911725 0.367573 0.575904
O O18 0.040620 0.374609 0.645156
O O19 0.500000 0.358098 0.000000
#
# Coordination Sequence:
#
# PCOD9176409 Si02
#       8
#     8   8   8   8   8   8   8   8
#     4  10  18  34  61  84 110 153 191 228 278 337
#     4   9  20  37  55  80 114 152 192 234 280 333
#     4  11  22  38  56  83 119 150 189 239 287 333
#     4  10  20  37  59  80 111 156 195 231 278 334
#     4  10  21  39  62  88 115 147 186 234 288 343
#     4  10  21  36  56  85 116 148 190 238 277 336
#     4  10  20  38  61  86 111 147 194 231 278 345
#     4  12  22  34  57  87 114 150 191 237 282 338
#
# _framework density 24.208102
#
# number of rings (size 3 to 8) (size 9 to 14) (size 15 to 20)
#    0.000    1.750    2.500    4.125    0.000    1.250 
#    0.000    7.500    0.000    0.000    0.000    0.000 
#    0.000    0.000    0.000    0.000    0.000    0.000 
#
# Total GULP energy -179053.572117 kJ/mol
# GULP energy per Si atom -5595.424129 kJ/mol
# Density = 2.415300 g / cm^3
# Si number density = 24.208102 Si / 1000 Ang^3
#
#
#
# Elastic Constant Matrix: (Units=GPa)
#
#
# Indices 1 2 3 4 5 6 
#
# 1 67.2703 21.8811 14.4215 0.0000 26.4201 0.0000
# 2 21.8811 124.0860 -14.6832 0.0000 -1.6112 0.0000
# 3 14.4215 -14.6832 57.9877 0.0000 10.2308 0.0000
# 4 0.0000 0.0000 0.0000 20.3314 0.0000 4.9056
# 5 26.4201 -1.6112 10.2308 0.0000 40.5617 0.0000
# 6 0.0000 0.0000 0.0000 4.9056 0.0000 17.4726
#
#
#
# Elastic Compliance Matrix: (Units=1/GPa)
#
#
# Indices 1 2 3 4 5 6 
#
# 1 0.022825 -0.004728 -0.004414 0.000000 -0.013942 0.000000
# 2 -0.004728 0.009289 0.003056 0.000000 0.002678 0.000000
# 3 -0.004414 0.003056 0.019454 0.000000 -0.001910 0.000000
# 4 0.000000 0.000000 0.000000 0.052759 0.000000 -0.014812
# 5 -0.013942 0.002678 -0.001910 0.000000 0.034323 0.000000
# 6 0.000000 0.000000 0.000000 -0.014812 0.000000 0.061391
#
#
# Mechanical properties :
#
#
# Convention : Reuss Voigt Hill
#
# Bulk Modulus (GPa) = 25.38456 32.50920 28.94688
# Shear Modulus (GPa) = 22.18807 30.85478 26.52142
#
# Velocity S-wave (km/s) = 3.03075 3.57398 3.31351
# Velocity P-wave (km/s) = 4.77033 5.52171 5.15971
#
# Compressibility (1/GPa) = 0.03939402
#
# Stress axis : x y z
#
# Youngs Moduli (GPa) = 43.81103 107.65359 51.40447
#
# Poissons Ratio (x) = 0.50902 0.22691
# Poissons Ratio (y) = 0.20715 -0.15707
# Poissons Ratio (z) = 0.19339 -0.32894
#
# Static dielectric constant tensor:
#      x y z
#    x 1.907520 0.000000 0.019420 
#    y 0.000000 1.936490 0.000000 
#    z 0.019420 0.000000 1.941880 
# 
# From -- ./inp_files/223855.got.cif
#   From: 2010.05.17/outbox.cif.g08.bks.cpg/sg12_112_cif.got.tgz:223855.got - 2010.06.03 13:09:07.
