data_PCOD9176272
_publ_section_title
;
Structure prediction by ZEFSAII (Michael W. Deem and Ramdas Pophale) SiO2 
 PCOD9176272
Probable space group: C 2/M
;
_chemical_formula_sum "Si O2"
_cell_formula_units_Z 64
_cell_length_a 15.068477
_cell_length_b 26.406767
_cell_length_c 8.882704
_cell_angle_alpha 90.000000
_cell_angle_beta 89.765188
_cell_angle_gamma 90.000000
_cell_volume 3534.484945
_symmetry_space_group_name_H-M "C 2/M"
_symmetry_group_IT_number 12
_symmetry_cell_setting 'monoclinic'
loop_
_space_group_symop_operation_xyz
x,y,z
-x,y,-z
-x,-y,-z
x,-y,z
1/2+x,1/2+y,z
1/2-x,1/2+y,-z
1/2-x,1/2-y,-z
1/2+x,1/2-y,z
loop_
_atom_site_type_symbol
_atom_site_label
_atom_site_fract_x
_atom_site_fract_y
_atom_site_fract_z
Si Si1 0.115638 0.732312 0.928783
Si Si2 0.489336 0.941394 0.183102
Si Si3 0.705876 0.231809 0.238832
Si Si4 0.802944 0.132300 0.331980
Si Si5 0.667711 0.876902 0.856820
Si Si6 0.665452 0.336974 0.335841
Si Si7 0.684102 0.060690 0.164918
Si Si8 0.980035 0.830821 0.166876
O O1 0.205694 0.751049 0.849102
O O2 0.110053 0.673308 0.892405
O O3 0.045560 0.771630 0.861323
O O4 0.132473 0.733791 0.107784
O O5 0.402413 0.911267 0.232549
O O6 0.587340 0.926536 0.236177
O O7 0.475233 0.000000 0.217157
O O8 0.500000 0.936699 0.000000
O O9 0.729698 0.176689 0.300861
O O10 0.684354 0.276619 0.355163
O O11 0.826983 0.135144 0.506291
O O12 0.760189 0.080621 0.273855
O O13 0.892276 0.144977 0.239255
O O14 0.757797 0.859391 0.773956
O O15 0.691919 0.907576 0.008938
O O16 0.567701 0.339545 0.264659
O O17 0.685892 0.000000 0.137072
O O18 0.000000 0.851462 0.000000
#
# Coordination Sequence:
#
# PCOD9176272 Si02
#       8
#     8   8   8   8   8   8   8   8
#     4   9  17  29  52  82 108 141 191 234 261 319
#     4   8  16  31  54  85 111 134 178 237 285 327
#     4   9  17  33  51  77 111 148 185 228 273 325
#     4  11  22  37  56  81 119 156 190 232 289 344
#     4  10  18  34  58  85 113 151 191 233 283 334
#     4  11  22  35  54  84 120 156 189 228 281 348
#     4  10  20  37  61  85 110 145 192 245 293 336
#     4  11  21  35  56  82 113 151 195 234 274 333
#
# _framework density 18.107306000000001
#
# number of rings (size 3 to 8) (size 9 to 14) (size 15 to 20)
#    0.000    2.125    2.500    2.625    0.000    2.500 
#    0.000    1.875    0.000    7.125    0.000    0.000 
#    0.000    0.000    0.000    0.000    0.000    0.000 
#
# Total GULP energy -178260.276897 kJ/mol
# GULP energy per Si atom -5570.633653 kJ/mol
# Density = 1.806609 g / cm^3
# Si number density = 18.107306 Si / 1000 Ang^3
#
#
#
# Elastic Constant Matrix: (Units=GPa)
#
#
# Indices 1 2 3 4 5 6 
#
# 1 127.3678 41.0825 33.4380 0.0000 20.3578 0.0000
# 2 41.0825 74.2211 25.0920 0.0000 10.3497 0.0000
# 3 33.4380 25.0920 70.7903 0.0000 17.5408 0.0000
# 4 0.0000 0.0000 0.0000 15.7407 0.0000 7.6901
# 5 20.3578 10.3497 17.5408 0.0000 18.6380 0.0000
# 6 0.0000 0.0000 0.0000 7.6901 0.0000 28.7157
#
#
#
# Elastic Compliance Matrix: (Units=1/GPa)
#
#
# Indices 1 2 3 4 5 6 
#
# 1 0.010984 -0.004408 -0.001642 0.000000 -0.008003 0.000000
# 2 -0.004408 0.017362 -0.003751 0.000000 -0.001296 0.000000
# 3 -0.001642 -0.003751 0.019915 0.000000 -0.014866 0.000000
# 4 0.000000 0.000000 0.000000 0.073093 0.000000 -0.019574
# 5 -0.008003 -0.001296 -0.014866 0.000000 0.077106 0.000000
# 6 0.000000 0.000000 0.000000 -0.019574 0.000000 0.040066
#
#
# Mechanical properties :
#
#
# Convention : Reuss Voigt Hill
#
# Bulk Modulus (GPa) = 34.89436 52.40046 43.64741
# Shear Modulus (GPa) = 18.67894 24.13667 21.40780
#
# Velocity S-wave (km/s) = 3.21529 3.65496 3.44215
# Velocity P-wave (km/s) = 5.75298 6.84203 6.32100
#
# Compressibility (1/GPa) = 0.02865793
#
# Stress axis : x y z
#
# Youngs Moduli (GPa) = 91.04500 57.59696 50.21337
#
# Poissons Ratio (x) = 0.25390 0.08247
# Poissons Ratio (y) = 0.40135 0.18833
# Poissons Ratio (z) = 0.14954 0.21602
#
# Static dielectric constant tensor:
#      x y z
#    x 1.650230 0.000000 0.007040 
#    y 0.000000 1.641370 0.000000 
#    z 0.007040 0.000000 1.631460 
# 
# From -- ./inp_files/66976.got.cif
#   From: 2010.05.17/outbox.cif.g08.bks.cpg/sg12_34_cif.got.tgz:66976.got - 2010.06.03 13:09:07.
