data_PCOD9176018
_publ_section_title
;
Structure prediction by ZEFSAII (Michael W. Deem and Ramdas Pophale) SiO2 
 PCOD9176018
Probable space group: C 2/M
;
_chemical_formula_sum "Si O2"
_cell_formula_units_Z 44
_cell_length_a 18.403435
_cell_length_b 11.948751
_cell_length_c 10.913117
_cell_angle_alpha 90.000000
_cell_angle_beta 65.209267
_cell_angle_gamma 90.000000
_cell_volume 2178.622917
_symmetry_space_group_name_H-M "C 2/M"
_symmetry_group_IT_number 12
_symmetry_cell_setting 'monoclinic'
loop_
_space_group_symop_operation_xyz
x,y,z
-x,y,-z
-x,-y,-z
x,-y,z
1/2+x,1/2+y,z
1/2-x,1/2+y,-z
1/2-x,1/2-y,-z
1/2+x,1/2-y,z
loop_
_atom_site_type_symbol
_atom_site_label
_atom_site_fract_x
_atom_site_fract_y
_atom_site_fract_z
Si Si1 0.000000 0.799482 0.500000
Si Si2 0.866092 0.375386 0.610424
Si Si3 0.457734 0.623818 0.270625
Si Si4 0.740635 0.782656 0.817375
Si Si5 0.174774 0.693129 0.621802
Si Si6 0.358968 0.370059 0.938140
O O1 0.932808 0.715159 0.597057
O O2 0.966787 0.870593 0.411735
O O3 0.882511 0.500000 0.643442
O O4 0.786323 0.323838 0.724933
O O5 0.861821 0.376382 0.464816
O O6 0.431262 0.500000 0.250721
O O7 0.391723 0.716624 0.290294
O O8 0.546552 0.643817 0.155186
O O9 0.708121 0.854290 0.725638
O O10 0.803577 0.849132 0.857155
O O11 0.672072 0.725668 0.947987
O O12 0.250000 0.750000 0.500000
O O13 0.347374 0.500000 0.985955
#
# Coordination Sequence:
#
# PCOD9176018 Si02
#       6
#     4   8   8   8   8   8
#     4  10  18  34  50  82 112 142 180 234 278 322
#     4  10  19  33  55  78 106 148 189 227 277 331
#     4  10  20  35  57  84 112 146 188 233 283 332
#     4  10  20  38  55  81 118 148 185 237 279 334
#     4   9  21  36  52  79 113 145 182 229 281 330
#     4  10  21  36  59  85 110 150 193 231 280 334
#
# _framework density 20.196244
#
# number of rings (size 3 to 8) (size 9 to 14) (size 15 to 20)
#    0.000    2.182    1.818    1.091    0.000    5.091 
#    0.000    1.818    0.000    0.000    0.000    5.091 
#    0.000    0.000    0.000    0.000    0.000    0.000 
#
# Total GULP energy -122610.481953 kJ/mol
# GULP energy per Si atom -5573.203725 kJ/mol
# Density = 2.015028 g / cm^3
# Si number density = 20.196244 Si / 1000 Ang^3
#
#
#
# Elastic Constant Matrix: (Units=GPa)
#
#
# Indices 1 2 3 4 5 6 
#
# 1 52.6756 1.3794 6.1067 0.0000 1.4036 0.0000
# 2 1.3794 72.2524 4.2427 0.0000 -19.0889 0.0000
# 3 6.1067 4.2427 31.9097 0.0000 -8.6499 0.0000
# 4 0.0000 0.0000 0.0000 12.4924 0.0000 -11.8443
# 5 1.4036 -19.0889 -8.6499 0.0000 41.8809 0.0000
# 6 0.0000 0.0000 0.0000 -11.8443 0.0000 -6.2066
#
#
#
# Elastic Compliance Matrix: (Units=1/GPa)
#
#
# Indices 1 2 3 4 5 6 
#
# 1 0.019527 -0.000601 -0.004141 0.000000 -0.001783 0.000000
# 2 -0.000601 0.015754 -0.000029 0.000000 0.007195 0.000000
# 3 -0.004141 -0.000029 0.034076 0.000000 0.007163 0.000000
# 4 0.000000 0.000000 0.000000 0.028494 0.000000 -0.054376
# 5 -0.001783 0.007195 0.007163 0.000000 0.028696 0.000000
# 6 0.000000 0.000000 0.000000 -0.054376 0.000000 -0.057351
#
#
# Mechanical properties :
#
#
# Convention : Reuss Voigt Hill
#
# Bulk Modulus (GPa) = 16.71777 20.03281 18.37529
# Shear Modulus (GPa) = 50.67023 19.30727 34.98875
#
# Velocity S-wave (km/s) = 5.01432 3.09525 4.16677
# Velocity P-wave (km/s) = 6.46685 4.76600 5.68044
#
# Compressibility (1/GPa) = 0.05981658
#
# Stress axis : x y z
#
# Youngs Moduli (GPa) = 51.21012 63.47430 29.34575
#
# Poissons Ratio (x) = 0.03814 0.12151
# Poissons Ratio (y) = 0.03077 0.00086
# Poissons Ratio (z) = 0.21204 0.00187
#
# Static dielectric constant tensor:
#      x y z
#    x 1.750350 0.000000 0.022200 
#    y 0.000000 1.702910 0.000000 
#    z 0.022200 0.000000 1.735390 
# 
# From -- ./inp_files/165461.got.cif
#   From: 2010.05.17/outbox.cif.g08.bks.cpg/sg12_83_cif.got.tgz:165461.got - 2010.06.03 13:09:07.
