data_PCOD9176890
_publ_section_title
;
Structure prediction by ZEFSAII (Michael W. Deem and Ramdas Pophale) SiO2 
 PCOD9176890
Probable space group: C 2/M
;
_chemical_formula_sum "Si O2"
_cell_formula_units_Z 60
_cell_length_a 24.608099
_cell_length_b 9.477689
_cell_length_c 13.766365
_cell_angle_alpha 90.000000
_cell_angle_beta 68.912845
_cell_angle_gamma 90.000000
_cell_volume 2995.693455
_symmetry_space_group_name_H-M "C 2/M"
_symmetry_group_IT_number 12
_symmetry_cell_setting 'monoclinic'
loop_
_space_group_symop_operation_xyz
x,y,z
-x,y,-z
-x,-y,-z
x,-y,z
1/2+x,1/2+y,z
1/2-x,1/2+y,-z
1/2-x,1/2-y,-z
1/2+x,1/2-y,z
loop_
_atom_site_type_symbol
_atom_site_label
_atom_site_fract_x
_atom_site_fract_y
_atom_site_fract_z
Si Si1 0.624514 0.668675 0.305060
Si Si2 0.011581 0.169117 0.263262
Si Si3 0.732585 0.500000 0.538820
Si Si4 0.732729 0.668964 0.108027
Si Si5 0.842657 0.670575 0.157098
Si Si6 0.948943 0.665473 0.952359
Si Si7 0.604131 0.161686 0.673599
Si Si8 0.809599 0.729279 0.552160
O O1 0.627974 0.500000 0.321192
O O2 0.558906 0.702125 0.315875
O O3 0.667883 0.698638 0.187228
O O4 0.649895 0.748647 0.381097
O O5 0.034908 0.237695 0.148509
O O6 0.949178 0.239400 0.321671
O O7 0.006939 0.000000 0.257761
O O8 0.756149 0.623878 0.598059
O O9 0.712663 0.377557 0.473592
O O10 0.738083 0.500000 0.089518
O O11 0.778531 0.710399 0.163270
O O12 0.750000 0.750000 0.000000
O O13 0.842582 0.500000 0.164154
O O14 0.866861 0.718059 0.245603
O O15 0.889257 0.708498 0.043935
O O16 0.944587 0.500000 0.926214
O O17 0.000000 0.674482 0.000000
O O18 0.652194 0.161026 0.559109
O O19 0.583778 0.000000 0.703517
#
# Coordination Sequence:
#
# PCOD9176890 Si02
#       8
#     8   8   4   8   8   8   8   8
#     4  10  23  43  64  85 127 177 205 244 324 382
#     4  11  24  40  61  88 124 168 213 263 312 373
#     4  10  24  40  70  94 132 158 208 256 310 364
#     4  10  21  39  61  88 119 158 201 249 305 372
#     4   9  19  34  61  87 115 157 202 246 309 377
#     4  10  18  36  60  86 120 164 205 250 316 377
#     4  11  23  42  63  92 123 161 207 261 314 367
#     4  11  23  43  66  98 124 168 202 258 308 375
#
# _framework density 20.028749999999999
#
# number of rings (size 3 to 8) (size 9 to 14) (size 15 to 20)
#    0.000    1.733    2.667    1.200    4.667    0.800 
#    3.600    2.667    0.000    0.000    0.000    0.000 
#    0.000    0.000    0.000    0.000    0.000    0.000 
#
# Total GULP energy -167054.546076 kJ/mol
# GULP energy per Si atom -5568.484869 kJ/mol
# Density = 1.998316 g / cm^3
# Si number density = 20.028750 Si / 1000 Ang^3
#
#
#
# Elastic Constant Matrix: (Units=GPa)
#
#
# Indices 1 2 3 4 5 6 
#
# 1 95.3201 38.7434 7.1813 0.0000 14.0463 0.0000
# 2 38.7434 92.4714 15.1155 0.0000 14.0781 0.0000
# 3 7.1813 15.1155 40.8312 0.0000 12.8057 0.0000
# 4 0.0000 0.0000 0.0000 17.6188 0.0000 3.6399
# 5 14.0463 14.0781 12.8057 0.0000 34.0771 0.0000
# 6 0.0000 0.0000 0.0000 3.6399 0.0000 18.2827
#
#
#
# Elastic Compliance Matrix: (Units=1/GPa)
#
#
# Indices 1 2 3 4 5 6 
#
# 1 0.013002 -0.005020 0.000682 0.000000 -0.003542 0.000000
# 2 -0.005020 0.013846 -0.003512 0.000000 -0.002331 0.000000
# 3 0.000682 -0.003512 0.028685 0.000000 -0.009610 0.000000
# 4 0.000000 0.000000 0.000000 0.059192 0.000000 -0.011785
# 5 -0.003542 -0.002331 -0.009610 0.000000 0.035380 0.000000
# 6 0.000000 0.000000 0.000000 -0.011785 0.000000 0.057043
#
#
# Mechanical properties :
#
#
# Convention : Reuss Voigt Hill
#
# Bulk Modulus (GPa) = 25.10366 38.96701 32.03534
# Shear Modulus (GPa) = 21.17530 25.16789 23.17160
#
# Velocity S-wave (km/s) = 3.25506 3.54868 3.40504
# Velocity P-wave (km/s) = 5.16607 6.02401 5.61146
#
# Compressibility (1/GPa) = 0.03983483
#
# Stress axis : x y z
#
# Youngs Moduli (GPa) = 76.91245 72.22138 34.86141
#
# Poissons Ratio (x) = 0.36254 -0.02379
# Poissons Ratio (y) = 0.38608 0.12243
# Poissons Ratio (z) = -0.05249 0.25363
#
# Static dielectric constant tensor:
#      x y z
#    x 1.738000 0.000000 -0.031070 
#    y 0.000000 1.682170 0.000000 
#    z -0.031070 0.000000 1.717500 
# 
# From -- ./inp_files/238536.got.cif
#   From: 2010.05.17/outbox.cif.g08.bks.cpg/sg12_120_cif.got.tgz:238536.got - 2010.06.03 13:09:07.
