data_PCOD9176131
_publ_section_title
;
Structure prediction by ZEFSAII (Michael W. Deem and Ramdas Pophale) SiO2 
 PCOD9176131
Probable space group: C 2/M
;
_chemical_formula_sum "Si O2"
_cell_formula_units_Z 40
_cell_length_a 18.579080
_cell_length_b 14.811696
_cell_length_c 10.592454
_cell_angle_alpha 90.000000
_cell_angle_beta 132.640044
_cell_angle_gamma 90.000000
_cell_volume 2144.279413
_symmetry_space_group_name_H-M "C 2/M"
_symmetry_group_IT_number 12
_symmetry_cell_setting 'monoclinic'
loop_
_space_group_symop_operation_xyz
x,y,z
-x,y,-z
-x,-y,-z
x,-y,z
1/2+x,1/2+y,z
1/2-x,1/2+y,-z
1/2-x,1/2-y,-z
1/2+x,1/2-y,z
loop_
_atom_site_type_symbol
_atom_site_label
_atom_site_fract_x
_atom_site_fract_y
_atom_site_fract_z
Si Si1 0.524318 0.500000 0.175207
Si Si2 0.178493 0.353323 0.693051
Si Si3 0.884845 0.846357 0.368925
Si Si4 0.431551 0.000000 0.294978
Si Si5 0.702794 0.500000 0.558881
Si Si6 0.369667 0.000000 0.573681
Si Si7 0.147435 0.895373 0.949321
O O1 0.634069 0.500000 0.352386
O O2 0.467517 0.411750 0.160780
O O3 0.500000 0.500000 0.000000
O O4 0.128593 0.257779 0.611619
O O5 0.129641 0.408726 0.752988
O O6 0.164161 0.414776 0.552476
O O7 0.291176 0.345056 0.870733
O O8 0.828306 0.913786 0.394704
O O9 0.842171 0.856467 0.177065
O O10 0.000000 0.871248 0.500000
O O11 0.500000 0.000000 0.500000
O O12 0.511683 0.000000 0.279803
O O13 0.812589 0.500000 0.637320
O O14 0.182469 0.000000 0.993275
#
# Coordination Sequence:
#
# PCOD9176131 Si02
#       7
#     4   8   8   4   4   4   8
#     4  10  18  34  56  75 111 151 179 219 271 335
#     4  10  19  35  60  82 105 139 191 234 265 323
#     4  12  21  36  55  84 114 144 184 224 281 320
#     4   8  15  34  55  76 104 133 186 234 257 314
#     4  12  22  35  55  79 123 147 172 231 272 338
#     4  10  20  36  53  84 106 148 184 221 282 315
#     4  10  18  34  56  81 110 141 187 223 270 330
#
# _framework density 18.654285000000002
#
# number of rings (size 3 to 8) (size 9 to 14) (size 15 to 20)
#    0.600    1.200    5.000    3.900    0.000    0.800 
#    0.000    0.000    0.000    2.400    0.000    0.000 
#    0.000    0.000    0.000    0.000    0.000    0.000 
#
# Total GULP energy -111351.508271 kJ/mol
# GULP energy per Si atom -5567.575414 kJ/mol
# Density = 1.861183 g / cm^3
# Si number density = 18.654285 Si / 1000 Ang^3
#
#
#
# Elastic Constant Matrix: (Units=GPa)
#
#
# Indices 1 2 3 4 5 6 
#
# 1 92.8241 51.3496 -17.8412 0.0000 -0.0101 0.0000
# 2 51.3496 85.7850 -3.0721 0.0000 -11.2444 0.0000
# 3 -17.8412 -3.0721 15.8491 0.0000 -4.1379 0.0000
# 4 0.0000 0.0000 0.0000 13.0697 0.0000 8.9842
# 5 -0.0101 -11.2444 -4.1379 0.0000 30.0934 0.0000
# 6 0.0000 0.0000 0.0000 8.9842 0.0000 11.6113
#
#
#
# Elastic Compliance Matrix: (Units=1/GPa)
#
#
# Indices 1 2 3 4 5 6 
#
# 1 0.021903 -0.012552 0.021783 0.000000 -0.001688 0.000000
# 2 -0.012552 0.019664 -0.008714 0.000000 0.006145 0.000000
# 3 0.021783 -0.008714 0.088247 0.000000 0.008885 0.000000
# 4 0.000000 0.000000 0.000000 0.163447 0.000000 -0.126466
# 5 -0.001688 0.006145 0.008885 0.000000 0.036747 0.000000
# 6 0.000000 0.000000 0.000000 -0.126466 0.000000 0.183976
#
#
# Mechanical properties :
#
#
# Convention : Reuss Voigt Hill
#
# Bulk Modulus (GPa) = 7.64249 28.37008 18.00628
# Shear Modulus (GPa) = 8.98366 21.88967 15.43667
#
# Velocity S-wave (km/s) = 2.19689 3.42927 2.87977
# Velocity P-wave (km/s) = 3.24668 5.56068 4.55314
#
# Compressibility (1/GPa) = 0.13084746
#
# Stress axis : x y z
#
# Youngs Moduli (GPa) = 45.65495 50.85432 11.33188
#
# Poissons Ratio (x) = 0.63833 -0.24684
# Poissons Ratio (y) = 0.57307 0.09875
# Poissons Ratio (z) = -0.99449 0.44314
#
# Static dielectric constant tensor:
#      x y z
#    x 1.732160 0.000000 0.030320 
#    y 0.000000 1.646270 0.000000 
#    z 0.030320 0.000000 1.666740 
# 
# From -- ./inp_files/166402.got.cif
#   From: 2010.05.17/outbox.cif.g08.bks.cpg/sg12_84_cif.got.tgz:166402.got - 2010.06.03 13:09:07.
