data_PCOD9176667
_publ_section_title
;
Structure prediction by ZEFSAII (Michael W. Deem and Ramdas Pophale) SiO2 
 PCOD9176667
Probable space group: C 2/M
;
_chemical_formula_sum "Si O2"
_cell_formula_units_Z 58
_cell_length_a 8.947772
_cell_length_b 19.698682
_cell_length_c 25.201978
_cell_angle_alpha 90.000000
_cell_angle_beta 142.161933
_cell_angle_gamma 90.000000
_cell_volume 2724.915620
_symmetry_space_group_name_H-M "C 2/M"
_symmetry_group_IT_number 12
_symmetry_cell_setting 'monoclinic'
loop_
_space_group_symop_operation_xyz
x,y,z
-x,y,-z
-x,-y,-z
x,-y,z
1/2+x,1/2+y,z
1/2-x,1/2+y,-z
1/2-x,1/2-y,-z
1/2+x,1/2-y,z
loop_
_atom_site_type_symbol
_atom_site_label
_atom_site_fract_x
_atom_site_fract_y
_atom_site_fract_z
Si Si1 0.865726 0.578812 0.074984
Si Si2 0.764826 0.689757 0.548667
Si Si3 0.490693 0.262955 0.288703
Si Si4 0.500000 0.000000 0.500000
Si Si5 0.675545 0.109603 0.624434
Si Si6 0.533477 0.197314 0.833180
Si Si7 0.721506 0.675781 0.941593
Si Si8 0.412637 0.427026 0.179354
O O1 0.789788 0.500000 0.056496
O O2 0.857815 0.622975 0.126552
O O3 0.150571 0.578419 0.135519
O O4 0.723710 0.626409 0.992976
O O5 0.500000 0.679204 0.500000
O O6 0.750000 0.750000 0.500000
O O7 0.941998 0.710218 0.646918
O O8 0.894603 0.623024 0.561567
O O9 0.714168 0.315357 0.351832
O O10 0.431204 0.229434 0.215042
O O11 0.255130 0.304636 0.240034
O O12 0.327375 0.940245 0.425530
O O13 0.855900 0.077390 0.718034
O O14 0.628543 0.247297 0.907466
O O15 0.569291 0.634925 0.855341
O O16 0.000000 0.678028 0.000000
O O17 0.405300 0.500000 0.149157
#
# Coordination Sequence:
#
# PCOD9176667 Si02
#       8
#     8   8   8   2   8   8   8   8
#     4  10  21  35  57  91 131 171 220 268 327 390
#     4  12  23  41  66  96 129 163 213 281 346 405
#     4  12  22  40  67  96 124 165 219 275 333 394
#     4  12  28  40  70 100 130 184 216 272 348 418
#     4  12  22  41  63  95 132 163 219 267 335 404
#     4  12  22  38  65  95 127 170 221 272 329 388
#     4  10  19  36  60  95 128 167 220 280 326 376
#     4  10  18  35  60  87 124 166 212 272 324 387
#
# _framework density 21.285062
#
# number of rings (size 3 to 8) (size 9 to 14) (size 15 to 20)
#    0.000    0.828    6.207    2.483    0.000    1.655 
#    0.000    0.345    1.517    4.552    0.000    0.000 
#    0.000    0.000    0.000    0.000    0.000    0.000 
#
# Total GULP energy -161552.144781 kJ/mol
# GULP energy per Si atom -5570.763613 kJ/mol
# Density = 2.123662 g / cm^3
# Si number density = 21.285062 Si / 1000 Ang^3
#
#
#
# Elastic Constant Matrix: (Units=GPa)
#
#
# Indices 1 2 3 4 5 6 
#
# 1 61.6492 8.6608 14.2175 -0.0002 6.5854 -0.0002
# 2 8.6608 120.6786 24.9689 -0.0003 -20.8210 0.0000
# 3 14.2175 24.9689 107.2365 -0.0012 -9.7968 0.0002
# 4 -0.0002 -0.0003 -0.0012 22.9596 -0.0001 -3.3250
# 5 6.5854 -20.8210 -9.7968 -0.0001 33.1219 0.0001
# 6 -0.0002 0.0000 0.0002 -3.3250 0.0001 7.3309
#
#
#
# Elastic Compliance Matrix: (Units=1/GPa)
#
#
# Indices 1 2 3 4 5 6 
#
# 1 0.017576 -0.001668 -0.002422 0.000000 -0.005259 0.000001
# 2 -0.001668 0.009755 -0.001500 0.000000 0.006020 0.000000
# 3 -0.002422 -0.001500 0.010230 0.000000 0.002564 0.000000
# 4 0.000000 0.000000 0.000000 0.046617 0.000000 0.021144
# 5 -0.005259 0.006020 0.002564 0.000000 0.035780 -0.000001
# 6 0.000001 0.000000 0.000000 0.021144 -0.000001 0.146000
#
#
# Mechanical properties :
#
#
# Convention : Reuss Voigt Hill
#
# Bulk Modulus (GPa) = 37.90719 42.80650 40.35685
# Shear Modulus (GPa) = 17.48672 28.79694 23.14183
#
# Velocity S-wave (km/s) = 2.86938 3.68219 3.30090
# Velocity P-wave (km/s) = 5.36896 6.18327 5.79044
#
# Compressibility (1/GPa) = 0.02638022
#
# Stress axis : x y z
#
# Youngs Moduli (GPa) = 56.89736 102.50894 97.75221
#
# Poissons Ratio (x) = 0.17094 0.23679
# Poissons Ratio (y) = 0.09488 0.14666
# Poissons Ratio (z) = 0.13783 0.15380
#
# Static dielectric constant tensor:
#      x y z
#    x 1.822100 0.000000 -0.004450 
#    y 0.000000 1.815170 0.000000 
#    z -0.004450 0.000000 1.767510 
# 
# From -- ./inp_files/374366.got.cif
#   From: 2010.05.17/outbox.cif.g08.bks.cpg/sg12_188_cif.got.tgz:374366.got - 2010.06.03 13:09:07.
