data_PCOD9176555
_publ_section_title
;
Structure prediction by ZEFSAII (Michael W. Deem and Ramdas Pophale) SiO2 
 PCOD9176555
Probable space group: C 2/M
;
_chemical_formula_sum "Si O2"
_cell_formula_units_Z 64
_cell_length_a 28.184805
_cell_length_b 16.173928
_cell_length_c 22.088905
_cell_angle_alpha 90.000000
_cell_angle_beta 17.752737
_cell_angle_gamma 90.000000
_cell_volume 3070.266700
_symmetry_space_group_name_H-M "C 2/M"
_symmetry_group_IT_number 12
_symmetry_cell_setting 'monoclinic'
loop_
_space_group_symop_operation_xyz
x,y,z
-x,y,-z
-x,-y,-z
x,-y,z
1/2+x,1/2+y,z
1/2-x,1/2+y,-z
1/2-x,1/2-y,-z
1/2+x,1/2-y,z
loop_
_atom_site_type_symbol
_atom_site_label
_atom_site_fract_x
_atom_site_fract_y
_atom_site_fract_z
Si Si1 0.997989 0.822739 0.397599
Si Si2 0.300821 0.227001 0.092538
Si Si3 0.849196 0.904837 0.220738
Si Si4 0.069459 0.592592 0.777270
Si Si5 0.379547 0.840891 0.596024
Si Si6 0.091944 0.219776 0.162262
Si Si7 0.298743 0.178753 0.488484
Si Si8 0.322163 0.096804 0.226912
O O1 0.968744 0.725469 0.445679
O O2 0.832294 0.864354 0.614537
O O3 0.155725 0.830321 0.245192
O O4 0.033645 0.844389 0.284072
O O5 0.242085 0.285349 0.217531
O O6 0.438018 0.162876 0.940171
O O7 0.363278 0.287650 0.962727
O O8 0.709143 0.899694 0.342272
O O9 0.816042 0.846347 0.318398
O O10 0.869865 0.000000 0.215270
O O11 0.000000 0.877944 0.000000
O O12 0.004723 0.500000 0.862550
O O13 0.158108 0.602091 0.606401
O O14 0.188098 0.606240 0.688135
O O15 0.500000 0.875247 0.500000
O O16 0.957326 0.288172 0.324820
O O17 0.250000 0.250000 0.000000
O O18 0.250000 0.250000 0.500000
O O19 0.323590 0.000000 0.209572
O O20 0.500000 0.128426 0.000000
#
# Coordination Sequence:
#
# PCOD9176555 Si02
#       8
#     8   8   8   8   8   8   8   8
#     4  10  18  35  56  85 110 148 201 248 302 359
#     4   9  20  33  57  87 114 147 197 251 302 361
#     4  11  26  44  63  92 131 170 208 260 319 375
#     4  10  21  36  55  85 123 160 199 252 311 374
#     4  10  21  38  63  89 117 158 209 260 304 368
#     4   9  18  34  56  84 114 145 192 253 303 354
#     4  11  22  39  63  93 117 164 210 254 311 367
#     4  10  21  35  52  78 118 158 194 239 297 362
#
# _framework density 20.845094
#
# number of rings (size 3 to 8) (size 9 to 14) (size 15 to 20)
#    0.000    2.000    1.250    1.875    3.500    1.250 
#    0.000    0.000    0.000    4.500    0.000    0.000 
#    0.000    0.000    0.000    0.000    0.000    0.000 
#
# Total GULP energy -178214.609700 kJ/mol
# GULP energy per Si atom -5569.206553 kJ/mol
# Density = 2.079765 g / cm^3
# Si number density = 20.845094 Si / 1000 Ang^3
#
#
#
# Elastic Constant Matrix: (Units=GPa)
#
#
# Indices 1 2 3 4 5 6 
#
# 1 100.5119 26.2276 36.4772 0.0115 13.7050 -0.0067
# 2 26.2276 37.5487 23.4757 0.0075 -1.6136 -0.0057
# 3 36.4772 23.4757 115.8396 0.0093 5.8776 -0.0053
# 4 0.0115 0.0075 0.0093 16.9536 -0.0101 -3.7229
# 5 13.7050 -1.6136 5.8776 -0.0101 39.5506 0.0056
# 6 -0.0067 -0.0057 -0.0053 -3.7229 0.0056 23.6318
#
#
#
# Elastic Compliance Matrix: (Units=1/GPa)
#
#
# Indices 1 2 3 4 5 6 
#
# 1 0.013595 -0.008210 -0.002379 -0.000007 -0.004692 0.000001
# 2 -0.008210 0.035642 -0.004893 -0.000004 0.005026 0.000003
# 3 -0.002379 -0.004893 0.010420 -0.000002 -0.000924 0.000000
# 4 -0.000007 -0.000004 -0.000002 0.061098 0.000017 0.009625
# 5 -0.004692 0.005026 -0.000924 0.000017 0.027252 -0.000004
# 6 0.000001 0.000003 0.000000 0.009625 -0.000004 0.043832
#
#
# Mechanical properties :
#
#
# Convention : Reuss Voigt Hill
#
# Bulk Modulus (GPa) = 34.85175 47.36235 41.10705
# Shear Modulus (GPa) = 21.51771 27.20852 24.36312
#
# Velocity S-wave (km/s) = 3.21638 3.61677 3.42244
# Velocity P-wave (km/s) = 5.52713 6.34128 5.94815
#
# Compressibility (1/GPa) = 0.02869297
#
# Stress axis : x y z
#
# Youngs Moduli (GPa) = 73.55896 28.05698 95.96771
#
# Poissons Ratio (x) = 0.23035 0.22830
# Poissons Ratio (y) = 0.60392 0.46955
# Poissons Ratio (z) = 0.17499 0.13728
#
# Static dielectric constant tensor:
#      x y z
#    x 1.826320 0.000000 0.039370 
#    y 0.000000 1.736520 0.000000 
#    z 0.039370 0.000000 1.821950 
# 
# From -- ./inp_files/328630.got.cif
#   From: 2010.05.17/outbox.cif.g08.bks.cpg/sg12_165_cif.got.tgz:328630.got - 2010.06.03 13:09:07.
