data_PCOD9176709
_publ_section_title
;
Structure prediction by ZEFSAII (Michael W. Deem and Ramdas Pophale) SiO2 
 PCOD9176709
Probable space group: C 2/M
;
_chemical_formula_sum "Si O2"
_cell_formula_units_Z 58
_cell_length_a 14.633370
_cell_length_b 18.060375
_cell_length_c 20.135450
_cell_angle_alpha 90.000000
_cell_angle_beta 36.381136
_cell_angle_gamma 90.000000
_cell_volume 3156.456528
_symmetry_space_group_name_H-M "C 2/M"
_symmetry_group_IT_number 12
_symmetry_cell_setting 'monoclinic'
loop_
_space_group_symop_operation_xyz
x,y,z
-x,y,-z
-x,-y,-z
x,-y,z
1/2+x,1/2+y,z
1/2-x,1/2+y,-z
1/2-x,1/2-y,-z
1/2+x,1/2-y,z
loop_
_atom_site_type_symbol
_atom_site_label
_atom_site_fract_x
_atom_site_fract_y
_atom_site_fract_z
Si Si1 0.685900 0.417436 0.630473
Si Si2 0.966570 0.918839 0.887610
Si Si3 0.624608 0.413879 0.267932
Si Si4 0.496089 0.258687 0.080183
Si Si5 0.819799 0.378865 0.029599
Si Si6 0.150414 0.731822 0.492907
Si Si7 0.500000 0.000000 0.000000
Si Si8 0.680840 0.291314 0.331401
O O1 0.752753 0.500000 0.587505
O O2 0.592080 0.411419 0.754602
O O3 0.552704 0.411468 0.651772
O O4 0.806251 0.351849 0.552245
O O5 0.973815 0.845046 0.926230
O O6 0.800525 0.916233 0.949541
O O7 0.989255 0.000000 0.905656
O O8 0.678913 0.500000 0.232699
O O9 0.720394 0.370388 0.155768
O O10 0.652213 0.374340 0.321382
O O11 0.334673 0.239454 0.208522
O O12 0.500000 0.243490 0.000000
O O13 0.618863 0.198432 0.034522
O O14 0.954175 0.434624 0.972267
O O15 0.250000 0.750000 0.500000
O O16 0.191530 0.781926 0.404418
O O17 0.968425 0.745672 0.607139
#
# Coordination Sequence:
#
# PCOD9176709 Si02
#       8
#     8   8   8   8   8   8   2   8
#     4   9  18  36  64  90 112 156 208 254 297 359
#     4  10  21  39  59  86 124 167 208 245 302 363
#     4  10  18  35  61  91 124 158 198 246 309 372
#     4  12  23  37  60  92 126 161 204 252 299 367
#     4  11  20  34  59  90 125 156 198 249 301 365
#     4  11  22  41  64  85 122 160 203 254 303 366
#     4  12  16  32  56  88 116 150 202 248 294 344
#     4  11  23  39  59  95 121 161 204 246 315 357
#
# _framework density 18.375036000000001
#
# number of rings (size 3 to 8) (size 9 to 14) (size 15 to 20)
#    0.000    1.379    6.207    1.241    0.000    0.276 
#    2.483    4.138    0.000    0.000    0.000    0.000 
#    0.000    0.000    0.000    0.000    0.000    0.000 
#
# Total GULP energy -161465.290165 kJ/mol
# GULP energy per Si atom -5567.768626 kJ/mol
# Density = 1.833321 g / cm^3
# Si number density = 18.375036 Si / 1000 Ang^3
#
#
#
# Elastic Constant Matrix: (Units=GPa)
#
#
# Indices 1 2 3 4 5 6 
#
# 1 51.4515 7.8988 19.0020 -0.0003 3.2979 0.0001
# 2 7.8988 122.2824 35.4575 -0.0009 -7.9716 0.0003
# 3 19.0020 35.4575 74.5668 -0.0019 -9.0707 0.0006
# 4 -0.0003 -0.0009 -0.0019 25.4356 0.0008 0.3536
# 5 3.2979 -7.9716 -9.0707 0.0008 20.2471 -0.0002
# 6 0.0001 0.0003 0.0006 0.3536 -0.0002 36.9457
#
#
#
# Elastic Compliance Matrix: (Units=1/GPa)
#
#
# Indices 1 2 3 4 5 6 
#
# 1 0.022239 0.000014 -0.006466 0.000000 -0.006514 0.000000
# 2 0.000014 0.009549 -0.004323 0.000000 0.001821 0.000000
# 3 -0.006466 -0.004323 0.018017 0.000001 0.007423 0.000000
# 4 0.000000 0.000000 0.000001 0.039320 -0.000001 -0.000376
# 5 -0.006514 0.001821 0.007423 -0.000001 0.054493 0.000000
# 6 0.000000 0.000000 0.000000 -0.000376 0.000000 0.027070
#
#
# Mechanical properties :
#
#
# Convention : Reuss Voigt Hill
#
# Bulk Modulus (GPa) = 35.39185 41.44638 38.41911
# Shear Modulus (GPa) = 24.79450 28.92184 26.85817
#
# Velocity S-wave (km/s) = 3.67735 3.97164 3.82732
# Velocity P-wave (km/s) = 6.11009 6.60581 6.36277
#
# Compressibility (1/GPa) = 0.02825510
#
# Stress axis : x y z
#
# Youngs Moduli (GPa) = 44.96555 104.72264 55.50291
#
# Poissons Ratio (x) = -0.00144 0.35889
# Poissons Ratio (y) = -0.00062 0.23992
# Poissons Ratio (z) = 0.29076 0.45269
#
# Static dielectric constant tensor:
#      x y z
#    x 1.661170 0.000000 -0.031880 
#    y 0.000000 1.651930 0.000000 
#    z -0.031880 0.000000 1.678350 
# 
# From -- ./inp_files/311352.got.cif
#   From: 2010.05.17/outbox.cif.g08.bks.cpg/sg12_156_cif.got.tgz:311352.got - 2010.06.03 13:09:07.
