data_PCOD9176556
_publ_section_title
;
Structure prediction by ZEFSAII (Michael W. Deem and Ramdas Pophale) SiO2 
 PCOD9176556
Probable space group: C 2/M
;
_chemical_formula_sum "Si O2"
_cell_formula_units_Z 36
_cell_length_a 23.516268
_cell_length_b 8.342985
_cell_length_c 23.494289
_cell_angle_alpha 90.000000
_cell_angle_beta 17.131733
_cell_angle_gamma 90.000000
_cell_volume 1357.813607
_symmetry_space_group_name_H-M "C 2/M"
_symmetry_group_IT_number 12
_symmetry_cell_setting 'monoclinic'
loop_
_space_group_symop_operation_xyz
x,y,z
-x,y,-z
-x,-y,-z
x,-y,z
1/2+x,1/2+y,z
1/2-x,1/2+y,-z
1/2-x,1/2-y,-z
1/2+x,1/2-y,z
loop_
_atom_site_type_symbol
_atom_site_label
_atom_site_fract_x
_atom_site_fract_y
_atom_site_fract_z
Si Si1 0.938608 0.264432 0.701631
Si Si2 0.287387 0.500000 0.002791
Si Si3 0.114488 0.000000 0.613101
Si Si4 0.144208 0.815287 0.749323
Si Si5 0.985283 0.500000 0.197913
Si Si6 0.210594 0.690968 0.270459
O O1 0.795807 0.357543 0.880082
O O2 0.806747 0.218932 0.773282
O O3 0.133597 0.333989 0.485782
O O4 0.039083 0.145380 0.648544
O O5 0.189822 0.500000 0.033356
O O6 0.512555 0.500000 0.770883
O O7 0.343233 0.000000 0.389380
O O8 0.059889 0.663021 0.794236
O O9 0.150619 0.765043 0.809977
O O10 0.065578 0.000000 0.826960
O O11 0.234136 0.500000 0.235422
O O12 0.000000 0.711952 0.500000
#
# Coordination Sequence:
#
# PCOD9176556 Si02
#       6
#     8   4   4   8   4   8
#     4  10  18  35  56  85 120 153 198 248 300 351
#     4  12  22  40  59  83 126 162 195 248 298 352
#     4  10  24  37  56  89 119 159 210 238 292 362
#     4   9  17  34  58  89 120 153 201 249 301 356
#     4  10  24  39  60  91 123 159 201 244 300 362
#     4   8  13  26  55  84 114 148 192 248 296 350
#
# _framework density 26.513210999999998
#
# number of rings (size 3 to 8) (size 9 to 14) (size 15 to 20)
#    0.000    2.444    2.222    2.000    0.000    4.444 
#    2.000    4.444    0.000    2.667    0.000    9.333 
#    0.000    0.222    0.000    0.000    0.000    0.000 
#
# Total GULP energy -100501.859331 kJ/mol
# GULP energy per Si atom -5583.436629 kJ/mol
# Density = 2.645287 g / cm^3
# Si number density = 26.513211 Si / 1000 Ang^3
#
#
#
# Elastic Constant Matrix: (Units=GPa)
#
#
# Indices 1 2 3 4 5 6 
#
# 1 164.0929 19.2702 26.9973 0.0011 15.2673 -0.0011
# 2 19.2702 74.1350 22.0171 -0.0087 -1.0621 -0.0007
# 3 26.9973 22.0171 133.7199 0.0051 12.7218 -0.0044
# 4 0.0011 -0.0087 0.0051 38.1957 -0.0062 -8.3941
# 5 15.2673 -1.0621 12.7218 -0.0062 42.6961 0.0045
# 6 -0.0011 -0.0007 -0.0044 -8.3941 0.0045 52.9298
#
#
#
# Elastic Compliance Matrix: (Units=1/GPa)
#
#
# Indices 1 2 3 4 5 6 
#
# 1 0.006613 -0.001486 -0.000887 -0.000001 -0.002137 0.000000
# 2 -0.001486 0.014565 -0.002247 0.000004 0.001563 0.000000
# 3 -0.000887 -0.002247 0.008236 -0.000002 -0.002193 0.000001
# 4 -0.000001 0.000004 -0.000002 0.027126 0.000004 0.004302
# 5 -0.002137 0.001563 -0.002193 0.000004 0.024878 -0.000002
# 6 0.000000 0.000000 0.000001 0.004302 -0.000002 0.019575
#
#
# Mechanical properties :
#
#
# Convention : Reuss Voigt Hill
#
# Bulk Modulus (GPa) = 49.56873 56.50189 53.03531
# Shear Modulus (GPa) = 42.75013 47.00855 44.87934
#
# Velocity S-wave (km/s) = 4.01984 4.21530 4.11873
# Velocity P-wave (km/s) = 6.34680 6.71184 6.53187
#
# Compressibility (1/GPa) = 0.02017401
#
# Stress axis : x y z
#
# Youngs Moduli (GPa) = 151.20649 68.65834 121.41861
#
# Poissons Ratio (x) = 0.10204 0.10772
# Poissons Ratio (y) = 0.22472 0.27280
# Poissons Ratio (z) = 0.13415 0.15426
#
# Static dielectric constant tensor:
#      x y z
#    x 2.060490 0.000000 -0.056780 
#    y 0.000000 2.008350 0.000010 
#    z -0.056780 0.000010 2.081170 
# 
# From -- ./inp_files/351219.got.cif
#   From: 2010.05.17/outbox.cif.g08.bks.cpg/sg12_176_cif.got.tgz:351219.got - 2010.06.03 13:09:07.
