data_PCOD9176965
_publ_section_title
;
Structure prediction by ZEFSAII (Michael W. Deem and Ramdas Pophale) SiO2 
 PCOD9176965
Probable space group: C 2/M
;
_chemical_formula_sum "Si O2"
_cell_formula_units_Z 40
_cell_length_a 18.099461
_cell_length_b 12.335789
_cell_length_c 7.897912
_cell_angle_alpha 90.000000
_cell_angle_beta 102.666840
_cell_angle_gamma 90.000000
_cell_volume 1720.458037
_symmetry_space_group_name_H-M "C 2/M"
_symmetry_group_IT_number 12
_symmetry_cell_setting 'monoclinic'
loop_
_space_group_symop_operation_xyz
x,y,z
-x,y,-z
-x,-y,-z
x,-y,z
1/2+x,1/2+y,z
1/2-x,1/2+y,-z
1/2-x,1/2-y,-z
1/2+x,1/2-y,z
loop_
_atom_site_type_symbol
_atom_site_label
_atom_site_fract_x
_atom_site_fract_y
_atom_site_fract_z
Si Si1 0.998827 0.662027 0.192481
Si Si2 0.845019 0.321063 0.589403
Si Si3 0.051564 0.125656 0.356390
Si Si4 0.833553 0.659744 0.212139
Si Si5 0.233580 0.881504 0.838863
O O1 0.920151 0.627583 0.232554
O O2 0.073479 0.625799 0.329838
O O3 0.008382 0.793538 0.206122
O O4 0.000000 0.627257 0.000000
O O5 0.869861 0.193815 0.581980
O O6 0.811700 0.360533 0.395228
O O7 0.791895 0.344467 0.721569
O O8 0.000000 0.130265 0.500000
O O9 0.061747 0.000000 0.314826
O O10 0.779379 0.615529 0.038942
O O11 0.828526 0.789081 0.179520
O O12 0.202888 0.000000 0.784134
#
# Coordination Sequence:
#
# PCOD9176965 Si02
#       5
#     8   8   8   8   8
#     4  10  18  36  64  92 126 159 200 260 315 364
#     4  10  20  40  65  92 127 162 202 259 313 369
#     4   9  17  30  56  93 122 153 194 245 313 369
#     4  11  21  43  64  90 130 166 201 261 319 360
#     4  11  26  42  63  91 125 172 215 250 303 378
#
# _framework density 23.249621999999999
#
# number of rings (size 3 to 8) (size 9 to 14) (size 15 to 20)
#    1.200    0.600    4.000    1.200    0.000    2.800 
#    0.000   10.000    0.000    3.000    0.000    0.000 
#    0.000    0.000    0.000    0.000    0.000    0.000 
#
# Total GULP energy -111636.607588 kJ/mol
# GULP energy per Si atom -5581.830379 kJ/mol
# Density = 2.319670 g / cm^3
# Si number density = 23.249622 Si / 1000 Ang^3
#
#
#
# Elastic Constant Matrix: (Units=GPa)
#
#
# Indices 1 2 3 4 5 6 
#
# 1 76.0965 -0.4996 18.9847 0.0000 4.1605 0.0000
# 2 -0.4996 161.5958 13.4596 0.0000 -12.7912 0.0000
# 3 18.9847 13.4596 150.1434 0.0000 18.3027 0.0000
# 4 0.0000 0.0000 0.0000 10.0321 0.0000 -36.0852
# 5 4.1605 -12.7912 18.3027 0.0000 20.2943 0.0000
# 6 0.0000 0.0000 0.0000 -36.0852 0.0000 38.0545
#
#
#
# Elastic Compliance Matrix: (Units=1/GPa)
#
#
# Indices 1 2 3 4 5 6 
#
# 1 0.013605 0.000066 -0.001563 0.000000 -0.001338 0.000000
# 2 0.000066 0.006718 -0.001264 0.000000 0.005361 0.000000
# 3 -0.001563 -0.001264 0.007898 0.000000 -0.007599 0.000000
# 4 0.000000 0.000000 0.000000 -0.041347 0.000000 -0.039207
# 5 -0.001338 0.005361 -0.007599 0.000000 0.059781 0.000000
# 6 0.000000 0.000000 0.000000 -0.039207 0.000000 -0.010900
#
#
# Mechanical properties :
#
#
# Convention : Reuss Voigt Hill
#
# Bulk Modulus (GPa) = 44.05542 50.19167 47.12354
# Shear Modulus (GPa) = 102.36932 37.40225 69.88579
#
# Velocity S-wave (km/s) = 6.64275 4.01524 5.48855
# Velocity P-wave (km/s) = 8.82184 6.56744 7.77676
#
# Compressibility (1/GPa) = 0.02269868
#
# Stress axis : x y z
#
# Youngs Moduli (GPa) = 73.50377 148.85129 126.62111
#
# Poissons Ratio (x) = -0.00988 0.19793
# Poissons Ratio (y) = -0.00488 0.16007
# Poissons Ratio (z) = 0.11490 0.18817
#
# Static dielectric constant tensor:
#      x y z
#    x 1.831660 0.000000 0.022390 
#    y 0.000000 1.920480 0.000000 
#    z 0.022390 0.000000 1.849200 
# 
# From -- ./inp_files/84597.got.cif
#   From: 2010.05.17/outbox.cif.g08.bks.cpg/sg12_43_cif.got.tgz:84597.got - 2010.06.03 13:09:07.
