data_PCOD9176577
_publ_section_title
;
Structure prediction by ZEFSAII (Michael W. Deem and Ramdas Pophale) SiO2 
 PCOD9176577
Probable space group: C 2/M
;
_chemical_formula_sum "Si O2"
_cell_formula_units_Z 40
_cell_length_a 13.549830
_cell_length_b 22.366409
_cell_length_c 14.320859
_cell_angle_alpha 90.000000
_cell_angle_beta 158.810129
_cell_angle_gamma 90.000000
_cell_volume 1568.769418
_symmetry_space_group_name_H-M "C 2/M"
_symmetry_group_IT_number 12
_symmetry_cell_setting 'monoclinic'
loop_
_space_group_symop_operation_xyz
x,y,z
-x,y,-z
-x,-y,-z
x,-y,z
1/2+x,1/2+y,z
1/2-x,1/2+y,-z
1/2-x,1/2-y,-z
1/2+x,1/2-y,z
loop_
_atom_site_type_symbol
_atom_site_label
_atom_site_fract_x
_atom_site_fract_y
_atom_site_fract_z
Si Si1 0.548904 0.000000 0.825926
Si Si2 0.269997 0.394312 0.445487
Si Si3 0.003794 0.085852 0.161641
Si Si4 0.684029 0.303511 0.748496
Si Si5 0.500000 0.114670 0.500000
Si Si6 0.133152 0.686490 0.807358
O O1 0.400410 0.945612 0.754539
O O2 0.722289 0.949068 0.917796
O O3 0.355172 0.429027 0.615586
O O4 0.546214 0.366876 0.649530
O O5 0.084047 0.337094 0.308730
O O6 0.229752 0.076541 0.282852
O O7 0.921709 0.155703 0.086272
O O8 0.500000 0.280481 0.500000
O O9 0.653506 0.256227 0.805612
O O10 0.000000 0.307609 0.000000
O O11 0.555161 0.154757 0.639906
#
# Coordination Sequence:
#
# PCOD9176577 Si02
#       6
#     4   8   8   8   4   8
#     4  10  22  43  65  88 130 175 228 281 321 401
#     4  10  24  43  67  95 130 176 224 272 338 396
#     4  10  21  37  66  92 131 178 217 272 331 402
#     4  12  27  44  70 104 138 174 223 280 335 400
#     4  10  18  35  58 100 130 171 212 262 332 404
#     4  10  21  40  66  95 140 172 211 265 336 414
#
# _framework density 25.497693000000002
#
# number of rings (size 3 to 8) (size 9 to 14) (size 15 to 20)
#    0.000    1.600    1.000    3.000    8.400    1.200 
#    0.000   14.000    0.000    0.000    0.000    0.000 
#    0.000    0.000    0.000    0.000    0.000    0.000 
#
# Total GULP energy -111371.403360 kJ/mol
# GULP energy per Si atom -5568.570168 kJ/mol
# Density = 2.543966 g / cm^3
# Si number density = 25.497693 Si / 1000 Ang^3
#
#
#
# Elastic Constant Matrix: (Units=GPa)
#
#
# Indices 1 2 3 4 5 6 
#
# 1 29.5749 31.8814 23.5527 0.0003 4.8513 0.0002
# 2 31.8814 155.4926 51.4468 -0.0018 41.1986 0.0002
# 3 23.5527 51.4468 139.5207 0.0030 38.8635 0.0007
# 4 0.0003 -0.0018 0.0030 45.9294 0.0029 -4.3000
# 5 4.8513 41.1986 38.8635 0.0029 41.6483 -0.0015
# 6 0.0002 0.0002 0.0007 -4.3000 -0.0015 5.7764
#
#
#
# Elastic Compliance Matrix: (Units=1/GPa)
#
#
# Indices 1 2 3 4 5 6 
#
# 1 0.049712 -0.010851 -0.007793 -0.000001 0.012215 0.000003
# 2 -0.010851 0.011210 0.000588 0.000001 -0.010373 -0.000002
# 3 -0.007793 0.000588 0.011047 0.000000 -0.009982 -0.000004
# 4 -0.000001 0.000001 0.000000 0.023404 -0.000002 0.017422
# 5 0.012215 -0.010373 -0.009982 -0.000002 0.042163 0.000011
# 6 0.000003 -0.000002 -0.000004 0.017422 0.000011 0.186086
#
#
# Mechanical properties :
#
#
# Convention : Reuss Voigt Hill
#
# Bulk Modulus (GPa) = 27.88944 59.81666 43.85305
# Shear Modulus (GPa) = 13.45222 33.18467 23.31844
#
# Velocity S-wave (km/s) = 2.29942 3.61151 3.02740
# Velocity P-wave (km/s) = 4.24400 6.39541 5.42737
#
# Compressibility (1/GPa) = 0.03585586
#
# Stress axis : x y z
#
# Youngs Moduli (GPa) = 20.11585 89.20621 90.52482
#
# Poissons Ratio (x) = 0.96794 0.70550
# Poissons Ratio (y) = 0.21827 -0.05320
# Poissons Ratio (z) = 0.15677 -0.05242
#
# Static dielectric constant tensor:
#      x y z
#    x 2.063220 -0.000020 -0.065680 
#    y -0.000020 2.502490 -0.000040 
#    z -0.065680 -0.000040 2.151400 
# 
# From -- ./inp_files/272474.got.cif
#   From: 2010.05.17/outbox.cif.g08.bks.cpg/sg12_137_cif.got.tgz:272474.got - 2010.06.03 13:09:07.
