data_PCOD9176346
_publ_section_title
;
Structure prediction by ZEFSAII (Michael W. Deem and Ramdas Pophale) SiO2 
 PCOD9176346
Probable space group: C 2/M
;
_chemical_formula_sum "Si O2"
_cell_formula_units_Z 56
_cell_length_a 28.013169
_cell_length_b 12.773528
_cell_length_c 7.307124
_cell_angle_alpha 90.000000
_cell_angle_beta 111.668329
_cell_angle_gamma 90.000000
_cell_volume 2429.924183
_symmetry_space_group_name_H-M "C 2/M"
_symmetry_group_IT_number 12
_symmetry_cell_setting 'monoclinic'
loop_
_space_group_symop_operation_xyz
x,y,z
-x,y,-z
-x,-y,-z
x,-y,z
1/2+x,1/2+y,z
1/2-x,1/2+y,-z
1/2-x,1/2-y,-z
1/2+x,1/2-y,z
loop_
_atom_site_type_symbol
_atom_site_label
_atom_site_fract_x
_atom_site_fract_y
_atom_site_fract_z
Si Si1 0.879260 0.884294 0.674065
Si Si2 0.602248 0.386404 0.861193
Si Si3 0.980285 0.386906 0.264363
Si Si4 0.692966 0.204821 0.585129
Si Si5 0.361250 0.163446 0.147387
Si Si6 0.228822 0.381253 0.259104
Si Si7 0.490994 0.660102 0.781549
O O1 0.889744 0.877949 0.907184
O O2 0.844939 0.787294 0.567468
O O3 0.934229 0.874825 0.650899
O O4 0.857334 0.000000 0.607969
O O5 0.620124 0.500000 0.825395
O O6 0.632144 0.288839 0.824674
O O7 0.541038 0.374881 0.741319
O O8 0.994246 0.500000 0.205641
O O9 0.918579 0.375584 0.185256
O O10 0.005687 0.285941 0.210046
O O11 0.000000 0.384062 0.500000
O O12 0.663501 0.135273 0.692876
O O13 0.734711 0.282580 0.736856
O O14 0.717927 0.136111 0.459687
O O15 0.323020 0.132492 0.931835
O O16 0.247790 0.500000 0.253154
O O17 0.500000 0.620169 0.000000
#
# Coordination Sequence:
#
# PCOD9176346 Si02
#       7
#     8   8   8   8   8   8   8
#     4  10  18  34  59  88 123 161 201 251 307 360
#     4   9  18  33  57  89 124 161 199 244 300 364
#     4  10  21  37  56  83 121 161 203 252 300 354
#     4  11  24  42  66  93 122 157 204 259 307 366
#     4  11  22  42  65  90 126 161 205 253 306 366
#     4  11  25  45  65  91 123 159 205 255 312 370
#     4   9  18  32  53  83 120 157 200 244 295 356
#
# _framework density 23.045985000000002
#
# number of rings (size 3 to 8) (size 9 to 14) (size 15 to 20)
#    0.000    1.857    1.429    2.571    0.000    4.286 
#    0.000    0.714    0.000    4.714    0.000    0.000 
#    0.000    0.000    0.000    0.000    0.000    0.000 
#
# Total GULP energy -156517.085585 kJ/mol
# GULP energy per Si atom -5589.895914 kJ/mol
# Density = 2.299353 g / cm^3
# Si number density = 23.045985 Si / 1000 Ang^3
#
#
#
# Elastic Constant Matrix: (Units=GPa)
#
#
# Indices 1 2 3 4 5 6 
#
# 1 37.5210 -13.8169 4.1447 0.0000 2.2034 0.0000
# 2 -13.8169 115.2668 -5.1524 0.0000 0.8340 0.0000
# 3 4.1447 -5.1524 54.8227 0.0000 16.9121 0.0000
# 4 0.0000 0.0000 0.0000 42.5803 0.0000 -10.1577
# 5 2.2034 0.8340 16.9121 0.0000 45.9296 0.0000
# 6 0.0000 0.0000 0.0000 -10.1577 0.0000 -2.6625
#
#
#
# Elastic Compliance Matrix: (Units=1/GPa)
#
#
# Indices 1 2 3 4 5 6 
#
# 1 0.028089 0.003304 -0.001556 0.000000 -0.000835 0.000000
# 2 0.003304 0.009112 0.000797 0.000000 -0.000617 0.000000
# 3 -0.001556 0.000797 0.020774 0.000000 -0.007589 0.000000
# 4 0.000000 0.000000 0.000000 0.012295 0.000000 -0.046908
# 5 -0.000835 -0.000617 -0.007589 0.000000 0.024618 0.000000
# 6 0.000000 0.000000 0.000000 -0.046908 0.000000 -0.196632
#
#
# Mechanical properties :
#
#
# Convention : Reuss Voigt Hill
#
# Bulk Modulus (GPa) = 15.85667 19.77350 17.81509
# Shear Modulus (GPa) = -58.26696 31.99849 -13.13424
#
# Velocity S-wave (km/s) = -5.03367 3.73025 -2.38988
# Velocity P-wave (km/s) = 5.18540 5.21073 0.36285
#
# Compressibility (1/GPa) = 0.06306492
#
# Stress axis : x y z
#
# Youngs Moduli (GPa) = 35.60096 109.75017 48.13634
#
# Poissons Ratio (x) = -0.36256 0.07488
# Poissons Ratio (y) = -0.11761 -0.03837
# Poissons Ratio (z) = 0.05538 -0.08748
#
# Static dielectric constant tensor:
#      x y z
#    x 1.865960 0.000000 -0.010150 
#    y 0.000000 1.851890 0.000000 
#    z -0.010150 0.000000 1.860970 
# 
# From -- ./inp_files/110547.got.cif
#   From: 2010.05.17/outbox.cif.g08.bks.cpg/sg12_56_cif.got.tgz:110547.got - 2010.06.03 13:09:07.
