data_PCOD9176281
_publ_section_title
;
Structure prediction by ZEFSAII (Michael W. Deem and Ramdas Pophale) SiO2 
 PCOD9176281
Probable space group: C 2/M
;
_chemical_formula_sum "Si O2"
_cell_formula_units_Z 56
_cell_length_a 8.846651
_cell_length_b 15.216186
_cell_length_c 22.066394
_cell_angle_alpha 90.000000
_cell_angle_beta 66.268352
_cell_angle_gamma 90.000000
_cell_volume 2719.231370
_symmetry_space_group_name_H-M "C 2/M"
_symmetry_group_IT_number 12
_symmetry_cell_setting 'monoclinic'
loop_
_space_group_symop_operation_xyz
x,y,z
-x,y,-z
-x,-y,-z
x,-y,z
1/2+x,1/2+y,z
1/2-x,1/2+y,-z
1/2-x,1/2-y,-z
1/2+x,1/2-y,z
loop_
_atom_site_type_symbol
_atom_site_label
_atom_site_fract_x
_atom_site_fract_y
_atom_site_fract_z
Si Si1 0.222521 0.353214 0.236619
Si Si2 0.571683 0.713151 0.547569
Si Si3 0.707846 0.163005 0.826138
Si Si4 0.242734 0.786455 0.636066
Si Si5 0.345777 0.903119 0.297224
Si Si6 0.466294 0.404468 0.884247
Si Si7 0.435493 0.229557 0.950256
O O1 0.218927 0.258266 0.203883
O O2 0.270901 0.334288 0.298146
O O3 0.367807 0.405830 0.181829
O O4 0.044036 0.396017 0.263483
O O5 0.500000 0.662910 0.500000
O O6 0.750000 0.750000 0.500000
O O7 0.431744 0.786962 0.582350
O O8 0.614733 0.676225 0.607192
O O9 0.711586 0.109378 0.763203
O O10 0.819391 0.125190 0.862361
O O11 0.519017 0.177689 0.880751
O O12 0.210041 0.682153 0.654831
O O13 0.295758 0.000000 0.327733
O O14 0.429559 0.500000 0.916012
O O15 0.498410 0.328472 0.927747
O O16 0.500000 0.183593 0.000000
O O17 0.250000 0.250000 0.000000
#
# Coordination Sequence:
#
# PCOD9176281 Si02
#       7
#     8   8   8   8   8   8   8
#     4  10  20  35  58  82 112 148 188 229 278 336
#     4   9  18  32  56  88 111 141 193 241 262 306
#     4  10  21  38  59  80 111 147 187 229 277 337
#     4  10  18  34  58  86 108 148 192 230 270 335
#     4  11  22  35  55  86 118 145 178 233 289 332
#     4  11  23  38  56  85 116 142 181 238 289 329
#     4  11  22  40  63  81 105 150 195 228 272 339
#
# _framework density 20.594055000000001
#
# number of rings (size 3 to 8) (size 9 to 14) (size 15 to 20)
#    0.000    1.714    2.857    3.429    4.000    0.286 
#    0.000    2.143    0.000    4.286    0.000    0.000 
#    0.000    0.000    0.000    0.000    0.000    0.000 
#
# Total GULP energy -155904.908817 kJ/mol
# GULP energy per Si atom -5568.032458 kJ/mol
# Density = 2.054718 g / cm^3
# Si number density = 20.594055 Si / 1000 Ang^3
#
#
#
# Elastic Constant Matrix: (Units=GPa)
#
#
# Indices 1 2 3 4 5 6 
#
# 1 70.6017 -11.2349 9.6887 0.0000 -1.5289 0.0000
# 2 -11.2349 68.0317 6.9126 0.0000 2.6735 0.0000
# 3 9.6887 6.9126 79.2956 0.0000 -2.6017 0.0000
# 4 0.0000 0.0000 0.0000 3.1170 0.0000 -2.0805
# 5 -1.5289 2.6735 -2.6017 0.0000 44.9894 0.0000
# 6 0.0000 0.0000 0.0000 -2.0805 0.0000 -15.2156
#
#
#
# Elastic Compliance Matrix: (Units=1/GPa)
#
#
# Indices 1 2 3 4 5 6 
#
# 1 0.014871 0.002654 -0.002041 0.000000 0.000230 0.000000
# 2 0.002654 0.015345 -0.001692 0.000000 -0.000920 0.000000
# 3 -0.002041 -0.001692 0.013034 0.000000 0.000785 0.000000
# 4 0.000000 0.000000 0.000000 0.293990 0.000000 -0.040200
# 5 0.000230 -0.000920 0.000785 0.000000 0.022335 0.000000
# 6 0.000000 0.000000 0.000000 -0.040200 0.000000 -0.060225
#
#
# Mechanical properties :
#
#
# Convention : Reuss Voigt Hill
#
# Bulk Modulus (GPa) = 24.33519 25.40686 24.87103
# Shear Modulus (GPa) = 15.86264 20.74900 18.30582
#
# Velocity S-wave (km/s) = 2.77835 3.17759 2.98466
# Velocity P-wave (km/s) = 4.70474 5.08199 4.89700
#
# Compressibility (1/GPa) = 0.04109275
#
# Stress axis : x y z
#
# Youngs Moduli (GPa) = 67.24319 65.16594 76.72427
#
# Poissons Ratio (x) = -0.17297 0.15659
# Poissons Ratio (y) = -0.17848 0.12983
# Poissons Ratio (z) = 0.13724 0.11028
#
# Static dielectric constant tensor:
#      x y z
#    x 1.792240 0.000000 0.010520 
#    y 0.000000 1.817590 0.000000 
#    z 0.010520 0.000000 1.805280 
# 
# From -- ./inp_files/300155.got.cif
#   From: 2010.05.17/outbox.cif.g08.bks.cpg/sg12_151_cif.got.tgz:300155.got - 2010.06.03 13:09:07.
