data_PCOD9176270
_publ_section_title
;
Structure prediction by ZEFSAII (Michael W. Deem and Ramdas Pophale) SiO2 
 PCOD9176270
Probable space group: C 2/M
;
_chemical_formula_sum "Si O2"
_cell_formula_units_Z 56
_cell_length_a 24.388916
_cell_length_b 8.470046
_cell_length_c 16.060340
_cell_angle_alpha 90.000000
_cell_angle_beta 56.298739
_cell_angle_gamma 90.000000
_cell_volume 2760.107551
_symmetry_space_group_name_H-M "C 2/M"
_symmetry_group_IT_number 12
_symmetry_cell_setting 'monoclinic'
loop_
_space_group_symop_operation_xyz
x,y,z
-x,y,-z
-x,-y,-z
x,-y,z
1/2+x,1/2+y,z
1/2-x,1/2+y,-z
1/2-x,1/2-y,-z
1/2+x,1/2-y,z
loop_
_atom_site_type_symbol
_atom_site_label
_atom_site_fract_x
_atom_site_fract_y
_atom_site_fract_z
Si Si1 0.931745 0.690366 0.017547
Si Si2 0.569924 0.185812 0.651422
Si Si3 0.569228 0.688733 0.168692
Si Si4 0.424422 0.687280 0.534945
Si Si5 0.205853 0.309063 0.792168
Si Si6 0.335853 0.692134 0.766647
Si Si7 0.203137 0.812290 0.612747
O O1 0.932298 0.500000 0.022297
O O2 0.866843 0.746680 0.120978
O O3 0.927160 0.737922 0.925459
O O4 0.000000 0.749126 0.000000
O O5 0.500933 0.268054 0.731353
O O6 0.586750 0.221563 0.541153
O O7 0.629402 0.251274 0.656742
O O8 0.563206 0.000000 0.671324
O O9 0.573664 0.500000 0.158294
O O10 0.627139 0.746804 0.181576
O O11 0.500000 0.706052 0.500000
O O12 0.413180 0.500000 0.528904
O O13 0.378359 0.738554 0.649821
O O14 0.205554 0.500000 0.790228
O O15 0.261019 0.258739 0.812529
O O16 0.224484 0.249945 0.684972
O O17 0.337362 0.500000 0.767641
O O18 0.250000 0.750000 0.500000
O O19 0.204129 0.000000 0.611034
#
# Coordination Sequence:
#
# PCOD9176270 Si02
#       7
#     8   8   8   8   8   8   8
#     4  10  22  40  61  87 120 157 202 258 317 368
#     4  12  24  38  59  90 125 161 206 257 310 365
#     4  11  22  39  62  89 119 157 206 255 308 367
#     4  10  18  34  58  84 120 163 204 246 302 363
#     4  10  21  40  64  88 122 166 205 248 308 371
#     4   9  19  36  59  87 120 160 203 246 302 367
#     4  12  25  42  64  92 125 162 206 253 306 364
#
# _framework density 20.289064
#
# number of rings (size 3 to 8) (size 9 to 14) (size 15 to 20)
#    0.000    1.429    1.429    4.714    0.000    4.000 
#    0.000    1.429    0.000    0.000    0.000    0.000 
#    0.000    0.000    0.000    0.000    0.000    0.000 
#
# Total GULP energy -156579.479339 kJ/mol
# GULP energy per Si atom -5592.124262 kJ/mol
# Density = 2.024289 g / cm^3
# Si number density = 20.289064 Si / 1000 Ang^3
#
#
#
# Elastic Constant Matrix: (Units=GPa)
#
#
# Indices 1 2 3 4 5 6 
#
# 1 138.6377 0.6664 47.6729 0.0000 2.9793 0.0000
# 2 0.6664 5.8442 -10.6747 0.0000 -4.1664 0.0000
# 3 47.6729 -10.6747 99.1606 0.0000 5.9960 0.0000
# 4 0.0000 0.0000 0.0000 29.2311 0.0000 8.6800
# 5 2.9793 -4.1664 5.9960 0.0000 34.8448 0.0000
# 6 0.0000 0.0000 0.0000 8.6800 0.0000 16.0095
#
#
#
# Elastic Compliance Matrix: (Units=1/GPa)
#
#
# Indices 1 2 3 4 5 6 
#
# 1 0.009265 -0.012412 -0.005712 0.000000 -0.001293 0.000000
# 2 -0.012412 0.247280 0.031058 0.000001 0.025284 -0.000001
# 3 -0.005712 0.031058 0.016088 0.000000 0.001434 0.000000
# 4 0.000000 0.000001 0.000000 0.040775 0.000000 -0.022107
# 5 -0.001293 0.025284 0.001434 0.000000 0.031586 0.000000
# 6 0.000000 -0.000001 0.000000 -0.022107 0.000000 0.074449
#
#
# Mechanical properties :
#
#
# Convention : Reuss Voigt Hill
#
# Bulk Modulus (GPa) = 3.35007 35.44130 19.39569
# Shear Modulus (GPa) = 10.14046 29.74894 19.94470
#
# Velocity S-wave (km/s) = 2.23804 3.83332 3.13873
# Velocity P-wave (km/s) = 2.88673 6.09086 4.76612
#
# Compressibility (1/GPa) = 0.29850096
#
# Stress axis : x y z
#
# Youngs Moduli (GPa) = 107.93674 4.04399 62.15995
#
# Poissons Ratio (x) = 0.05019 0.35506
# Poissons Ratio (y) = 1.33969 -1.93057
# Poissons Ratio (z) = 0.61654 -0.12560
#
# Static dielectric constant tensor:
#      x y z
#    x 1.725480 0.000000 -0.015150 
#    y 0.000000 1.686600 0.000000 
#    z -0.015150 0.000000 1.689550 
# 
# From -- ./inp_files/238290.got.cif
#   From: 2010.05.17/outbox.cif.g08.bks.cpg/sg12_120_cif.got.tgz:238290.got - 2010.06.03 13:09:07.
