data_PCOD9176394
_publ_section_title
;
Structure prediction by ZEFSAII (Michael W. Deem and Ramdas Pophale) SiO2 
 PCOD9176394
Probable space group: C 2/M
;
_chemical_formula_sum "Si O2"
_cell_formula_units_Z 48
_cell_length_a 23.527316
_cell_length_b 8.067218
_cell_length_c 12.353145
_cell_angle_alpha 90.000000
_cell_angle_beta 111.413439
_cell_angle_gamma 90.000000
_cell_volume 2182.777661
_symmetry_space_group_name_H-M "C 2/M"
_symmetry_group_IT_number 12
_symmetry_cell_setting 'monoclinic'
loop_
_space_group_symop_operation_xyz
x,y,z
-x,y,-z
-x,-y,-z
x,-y,z
1/2+x,1/2+y,z
1/2-x,1/2+y,-z
1/2-x,1/2-y,-z
1/2+x,1/2-y,z
loop_
_atom_site_type_symbol
_atom_site_label
_atom_site_fract_x
_atom_site_fract_y
_atom_site_fract_z
Si Si1 0.602450 0.202672 0.826239
Si Si2 0.652323 0.313855 0.487456
Si Si3 0.429727 0.797345 0.956932
Si Si4 0.207195 0.691206 0.740258
Si Si5 0.517600 0.194646 0.386146
Si Si6 0.327476 0.192871 0.726041
O O1 0.661296 0.258463 0.799559
O O2 0.539756 0.254739 0.723718
O O3 0.602855 0.000000 0.821406
O O4 0.599408 0.252489 0.948843
O O5 0.665329 0.500000 0.532737
O O6 0.671667 0.199765 0.600725
O O7 0.580813 0.287978 0.414118
O O8 0.684854 0.280584 0.396231
O O9 0.387707 0.742012 0.828464
O O10 0.429694 0.000000 0.954306
O O11 0.500000 0.743996 0.000000
O O12 0.221345 0.500000 0.774678
O O13 0.270209 0.785587 0.765445
O O14 0.500000 0.205420 0.500000
O O15 0.527834 0.000000 0.366661
O O16 0.336639 0.000000 0.707367
#
# Coordination Sequence:
#
# PCOD9176394 Si02
#       6
#     8   8   8   8   8   8
#     4   9  18  34  59  89 119 154 195 238 287 348
#     4  12  24  38  58  86 121 157 197 244 297 347
#     4   9  18  35  61  89 115 148 194 243 286 345
#     4  11  22  39  60  85 119 156 196 241 296 354
#     4  10  18  34  60  89 117 152 194 236 287 345
#     4  11  23  39  60  86 116 153 200 245 292 347
#
# _framework density 21.990331000000001
#
# number of rings (size 3 to 8) (size 9 to 14) (size 15 to 20)
#    0.000    1.667    1.667    4.000    0.000    3.667 
#    0.000    0.000    0.000   12.000    0.000    0.000 
#    0.000    0.000    0.000    0.000    0.000    0.000 
#
# Total GULP energy -134206.642916 kJ/mol
# GULP energy per Si atom -5591.943455 kJ/mol
# Density = 2.194028 g / cm^3
# Si number density = 21.990331 Si / 1000 Ang^3
#
#
#
# Elastic Constant Matrix: (Units=GPa)
#
#
# Indices 1 2 3 4 5 6 
#
# 1 115.5167 -4.1523 28.2368 0.0000 -8.7053 0.0000
# 2 -4.1523 27.6709 -0.4986 0.0000 -1.6399 0.0000
# 3 28.2368 -0.4986 70.5470 0.0000 -11.1755 0.0000
# 4 0.0000 0.0000 0.0000 3.6550 0.0000 -1.4514
# 5 -8.7053 -1.6399 -11.1755 0.0000 32.7407 0.0000
# 6 0.0000 0.0000 0.0000 -1.4514 0.0000 27.4701
#
#
#
# Elastic Compliance Matrix: (Units=1/GPa)
#
#
# Indices 1 2 3 4 5 6 
#
# 1 0.009709 0.001475 -0.003652 0.000000 0.001409 0.000000
# 2 0.001475 0.036493 0.000020 0.000000 0.002227 0.000000
# 3 -0.003652 0.000020 0.016368 0.000000 0.004617 0.000000
# 4 0.000000 0.000000 0.000000 0.279460 0.000000 0.014765
# 5 0.001409 0.002227 0.004617 0.000000 0.032605 0.000000
# 6 0.000000 0.000000 0.000000 0.014765 0.000000 0.037183
#
#
# Mechanical properties :
#
#
# Convention : Reuss Voigt Hill
#
# Bulk Modulus (GPa) = 17.16591 28.98958 23.07775
# Shear Modulus (GPa) = 11.47972 25.44974 18.46473
#
# Velocity S-wave (km/s) = 2.28729 3.40562 2.90086
# Velocity P-wave (km/s) = 3.84690 5.35498 4.66232
#
# Compressibility (1/GPa) = 0.05825500
#
# Stress axis : x y z
#
# Youngs Moduli (GPa) = 103.00039 27.40279 61.09347
#
# Poissons Ratio (x) = -0.04041 0.22314
# Poissons Ratio (y) = -0.15188 -0.00125
# Poissons Ratio (z) = 0.37620 -0.00056
#
# Static dielectric constant tensor:
#      x y z
#    x 1.803940 0.000000 0.001020 
#    y 0.000000 1.789260 0.000000 
#    z 0.001020 0.000000 1.774350 
# 
# From -- ./inp_files/173062.got.cif
#   From: 2010.05.17/outbox.cif.g08.bks.cpg/sg12_87_cif.got.tgz:173062.got - 2010.06.03 13:09:07.
