data_PCOD9176772
_publ_section_title
;
Structure prediction by ZEFSAII (Michael W. Deem and Ramdas Pophale) SiO2 
 PCOD9176772
Probable space group: C 2/M
;
_chemical_formula_sum "Si O2"
_cell_formula_units_Z 52
_cell_length_a 7.660297
_cell_length_b 30.206313
_cell_length_c 16.656160
_cell_angle_alpha 90.000000
_cell_angle_beta 46.931321
_cell_angle_gamma 90.000000
_cell_volume 2815.526659
_symmetry_space_group_name_H-M "C 2/M"
_symmetry_group_IT_number 12
_symmetry_cell_setting 'monoclinic'
loop_
_space_group_symop_operation_xyz
x,y,z
-x,y,-z
-x,-y,-z
x,-y,z
1/2+x,1/2+y,z
1/2-x,1/2+y,-z
1/2-x,1/2-y,-z
1/2+x,1/2-y,z
loop_
_atom_site_type_symbol
_atom_site_label
_atom_site_fract_x
_atom_site_fract_y
_atom_site_fract_z
Si Si1 0.389587 0.853915 0.845830
Si Si2 0.366953 0.206780 0.356205
Si Si3 0.000000 0.923668 0.000000
Si Si4 0.618771 0.304980 0.592768
Si Si5 0.217239 0.950504 0.094880
Si Si6 0.898408 0.862578 0.780425
Si Si7 0.752999 0.200690 0.963111
O O1 0.441531 0.822334 0.752942
O O2 0.646283 0.861997 0.809352
O O3 0.242026 0.827975 0.959223
O O4 0.221015 0.896344 0.889475
O O5 0.393915 0.259994 0.350455
O O6 0.332603 0.195311 0.461169
O O7 0.121157 0.197570 0.385897
O O8 0.117407 0.949483 0.036292
O O9 0.598516 0.347774 0.654427
O O10 0.094793 0.910663 0.182021
O O11 0.189370 0.000000 0.137942
O O12 0.500000 0.940101 0.000000
O O13 0.908415 0.824371 0.846604
O O14 0.500000 0.196889 0.000000
O O15 0.750000 0.250000 0.000000
#
# Coordination Sequence:
#
# PCOD9176772 Si02
#       7
#     8   8   4   8   8   8   8
#     4  10  20  32  49  74 111 138 182 221 267 327
#     4   9  18  33  48  79 104 148 189 228 257 314
#     4  12  21  36  58  82 108 144 178 222 279 340
#     4   9  18  31  54  71 109 146 189 224 268 309
#     4  11  22  38  58  82 112 142 179 228 278 333
#     4  10  18  36  50  74 110 144 175 225 273 326
#     4  10  19  28  43  67 102 140 170 208 261 316
#
# _framework density 18.469011999999999
#
# number of rings (size 3 to 8) (size 9 to 14) (size 15 to 20)
#    0.000    2.000    3.077    1.615    1.077    1.231 
#    0.000    0.000    0.000    0.000    0.000   11.846 
#    0.000    0.000    0.000    0.000    0.000    0.000 
#
# Total GULP energy -144772.428126 kJ/mol
# GULP energy per Si atom -5568.170313 kJ/mol
# Density = 1.842698 g / cm^3
# Si number density = 18.469012 Si / 1000 Ang^3
#
#
#
# Elastic Constant Matrix: (Units=GPa)
#
#
# Indices 1 2 3 4 5 6 
#
# 1 59.4376 25.4317 22.2961 0.0000 -0.9734 0.0000
# 2 25.4317 89.3271 48.4487 0.0000 25.2768 0.0000
# 3 22.2961 48.4487 92.8835 0.0000 18.7808 0.0000
# 4 0.0000 0.0000 0.0000 21.4199 0.0000 3.5548
# 5 -0.9734 25.2768 18.7808 0.0000 14.6435 0.0000
# 6 0.0000 0.0000 0.0000 3.5548 0.0000 -19.2216
#
#
#
# Elastic Compliance Matrix: (Units=1/GPa)
#
#
# Indices 1 2 3 4 5 6 
#
# 1 0.024894 -0.012830 -0.005530 0.000000 0.030894 0.000000
# 2 -0.012830 0.030444 -0.002703 0.000000 -0.049937 0.000000
# 3 -0.005530 -0.002703 0.017058 0.000000 -0.017580 0.000000
# 4 0.000000 0.000000 0.000000 0.045295 0.000000 0.008377
# 5 0.030894 -0.049937 -0.017580 0.000000 0.179089 0.000000
# 6 0.000000 0.000000 0.000000 0.008377 0.000000 -0.050476
#
#
# Mechanical properties :
#
#
# Convention : Reuss Voigt Hill
#
# Bulk Modulus (GPa) = 33.03566 48.22236 40.62901
# Shear Modulus (GPa) = 16.74918 13.06646 14.90782
#
# Velocity S-wave (km/s) = 3.01471 2.66274 2.84417
# Velocity P-wave (km/s) = 5.48123 5.96826 5.72992
#
# Compressibility (1/GPa) = 0.03027032
#
# Stress axis : x y z
#
# Youngs Moduli (GPa) = 40.16966 32.84686 58.62328
#
# Poissons Ratio (x) = 0.42143 0.32420
# Poissons Ratio (y) = 0.51538 0.15846
# Poissons Ratio (z) = 0.22214 0.08878
#
# Static dielectric constant tensor:
#      x y z
#    x 1.681220 0.000000 0.009920 
#    y 0.000000 1.876860 0.000000 
#    z 0.009920 0.000000 1.645660 
# 
# From -- ./inp_files/259934.got.cif
#   From: 2010.05.17/outbox.cif.g08.bks.cpg/sg12_130_cif.got.tgz:259934.got - 2010.06.03 13:09:07.
