data_PCOD9176963
_publ_section_title
;
Structure prediction by ZEFSAII (Michael W. Deem and Ramdas Pophale) SiO2 
 PCOD9176963
Probable space group: C 2/M
;
_chemical_formula_sum "Si O2"
_cell_formula_units_Z 36
_cell_length_a 9.418014
_cell_length_b 25.116998
_cell_length_c 14.970017
_cell_angle_alpha 90.000000
_cell_angle_beta 146.937571
_cell_angle_gamma 90.000000
_cell_volume 1931.905693
_symmetry_space_group_name_H-M "C 2/M"
_symmetry_group_IT_number 12
_symmetry_cell_setting 'monoclinic'
loop_
_space_group_symop_operation_xyz
x,y,z
-x,y,-z
-x,-y,-z
x,-y,z
1/2+x,1/2+y,z
1/2-x,1/2+y,-z
1/2-x,1/2-y,-z
1/2+x,1/2-y,z
loop_
_atom_site_type_symbol
_atom_site_label
_atom_site_fract_x
_atom_site_fract_y
_atom_site_fract_z
Si Si1 0.072852 0.688861 0.209543
Si Si2 0.000000 0.369300 0.500000
Si Si3 0.524913 0.437862 0.319341
Si Si4 0.000000 0.625403 0.000000
Si Si5 0.037630 0.723523 0.662013
Si Si6 0.500000 0.395132 0.500000
O O1 0.257982 0.735297 0.270382
O O2 0.259890 0.643642 0.350448
O O3 0.910453 0.711514 0.206647
O O4 0.938471 0.662053 0.053556
O O5 0.248774 0.405770 0.611505
O O6 0.040832 0.330063 0.605583
O O7 0.527556 0.500000 0.298496
O O8 0.249643 0.410718 0.151445
O O9 0.561440 0.429211 0.444855
O O10 0.750000 0.750000 0.500000
#
# Coordination Sequence:
#
# PCOD9176963 Si02
#       6
#     8   4   8   4   8   4
#     4  11  21  36  60  91 126 164 202 238 310 379
#     4  12  22  38  66  98 122 156 210 270 302 354
#     4  11  23  42  66  91 120 164 214 265 312 354
#     4  10  25  42  62  90 132 168 201 250 312 382
#     4  12  19  35  62  92 127 162 199 252 304 370
#     4  10  18  36  64  92 116 156 216 256 292 374
#
# _framework density 18.634450000000001
#
# number of rings (size 3 to 8) (size 9 to 14) (size 15 to 20)
#    0.000    0.889    6.667    2.333    0.000    0.889 
#    0.000    0.000    0.000    1.333    0.000    0.000 
#    0.000    0.000    0.000    0.000    0.000    0.000 
#
# Total GULP energy -100629.347239 kJ/mol
# GULP energy per Si atom -5590.519291 kJ/mol
# Density = 1.859204 g / cm^3
# Si number density = 18.634450 Si / 1000 Ang^3
#
#
#
# Elastic Constant Matrix: (Units=GPa)
#
#
# Indices 1 2 3 4 5 6 
#
# 1 148.9183 78.1985 48.0639 -0.0001 -10.4927 0.0006
# 2 78.1985 138.2248 46.8909 0.0000 -1.8937 -0.0001
# 3 48.0639 46.8909 64.2501 -0.0001 -10.2874 0.0006
# 4 -0.0001 0.0000 -0.0001 19.9363 -0.0001 14.6268
# 5 -10.4927 -1.8937 -10.2874 -0.0001 34.7416 0.0006
# 6 0.0006 -0.0001 0.0006 14.6268 0.0006 -23.6578
#
#
#
# Elastic Compliance Matrix: (Units=1/GPa)
#
#
# Indices 1 2 3 4 5 6 
#
# 1 0.010606 -0.004487 -0.004394 0.000000 0.001658 0.000000
# 2 -0.004487 0.011602 -0.005487 0.000000 -0.002347 0.000000
# 3 -0.004394 -0.005487 0.023720 0.000000 0.005398 0.000000
# 4 0.000000 0.000000 0.000000 0.034507 0.000000 0.021335
# 5 0.001658 -0.002347 0.005398 0.000000 0.030755 0.000001
# 6 0.000000 0.000000 0.000000 0.021335 0.000001 -0.029079
#
#
# Mechanical properties :
#
#
# Convention : Reuss Voigt Hill
#
# Bulk Modulus (GPa) = 58.16482 77.52217 67.84349
# Shear Modulus (GPa) = 42.88973 18.08670 30.48821
#
# Velocity S-wave (km/s) = 4.80274 3.11883 4.04929
# Velocity P-wave (km/s) = 7.87632 7.39333 7.63865
#
# Compressibility (1/GPa) = 0.01719252
#
# Stress axis : x y z
#
# Youngs Moduli (GPa) = 94.28381 86.19089 42.15858
#
# Poissons Ratio (x) = 0.38673 0.18526
# Poissons Ratio (y) = 0.42305 0.23131
# Poissons Ratio (z) = 0.41431 0.47291
#
# Static dielectric constant tensor:
#      x y z
#    x 1.648870 0.000000 -0.022760 
#    y 0.000000 1.617040 0.000000 
#    z -0.022760 0.000000 1.646260 
# 
# From -- ./inp_files/38838.got.cif
#   From: 2010.05.17/outbox.cif.g08.bks.cpg/sg12_20_cif.got.tgz:38838.got - 2010.06.03 13:09:07.
