data_PCOD9176389
_publ_section_title
;
Structure prediction by ZEFSAII (Michael W. Deem and Ramdas Pophale) SiO2 
 PCOD9176389
Probable space group: C 2/M
;
_chemical_formula_sum "Si O2"
_cell_formula_units_Z 64
_cell_length_a 32.883212
_cell_length_b 7.723865
_cell_length_c 15.364638
_cell_angle_alpha 90.000000
_cell_angle_beta 132.465821
_cell_angle_gamma 90.000000
_cell_volume 2878.719685
_symmetry_space_group_name_H-M "C 2/M"
_symmetry_group_IT_number 12
_symmetry_cell_setting 'monoclinic'
loop_
_space_group_symop_operation_xyz
x,y,z
-x,y,-z
-x,-y,-z
x,-y,z
1/2+x,1/2+y,z
1/2-x,1/2+y,-z
1/2-x,1/2-y,-z
1/2+x,1/2-y,z
loop_
_atom_site_type_symbol
_atom_site_label
_atom_site_fract_x
_atom_site_fract_y
_atom_site_fract_z
Si Si1 0.543777 0.801584 0.943839
Si Si2 0.383402 0.798285 0.492710
Si Si3 0.219767 0.293458 0.045783
Si Si4 0.739790 0.290282 0.708847
Si Si5 0.354898 0.788628 0.794053
Si Si6 0.060935 0.794558 0.605090
Si Si7 0.594651 0.298449 0.842425
Si Si8 0.424567 0.787664 0.734773
O O1 0.560354 0.798258 0.866510
O O2 0.482397 0.726184 0.859433
O O3 0.539354 0.000000 0.968228
O O4 0.595733 0.726297 0.071136
O O5 0.318118 0.775400 0.410260
O O6 0.401861 0.726816 0.426267
O O7 0.414811 0.724980 0.622470
O O8 0.396680 0.000000 0.508382
O O9 0.213379 0.500000 0.042787
O O10 0.252702 0.237037 0.179294
O O11 0.250000 0.250000 0.000000
O O12 0.158986 0.215538 0.957166
O O13 0.737863 0.500000 0.703304
O O14 0.794630 0.230894 0.737350
O O15 0.374250 0.741398 0.725380
O O16 0.353515 0.000000 0.798088
O O17 0.085200 0.728709 0.731274
O O18 0.000000 0.721700 0.500000
O O19 0.055430 0.000000 0.609918
O O20 0.578372 0.500000 0.823811
O O21 0.426943 0.000000 0.736053
#
# Coordination Sequence:
#
# PCOD9176389 Si02
#       8
#     8   8   8   8   8   8   8   8
#     4  10  18  34  60  88 114 146 187 234 285 341
#     4  11  23  37  55  85 118 150 188 236 287 330
#     4  11  22  37  56  82 110 143 188 232 280 335
#     4  10  21  38  58  80 111 151 194 232 272 336
#     4   9  17  34  59  86 112 146 190 235 282 337
#     4  10  22  40  59  80 111 154 196 229 272 337
#     4  11  22  35  55  83 113 147 184 229 282 334
#     4   9  19  34  57  87 116 144 187 240 287 336
#
# _framework density 22.232105000000001
#
# number of rings (size 3 to 8) (size 9 to 14) (size 15 to 20)
#    0.000    1.875    1.250    3.000    0.000    7.250 
#    0.000    0.625    0.000    4.500    0.000    0.000 
#    0.000    0.000    0.000    0.000    0.000    0.000 
#
# Total GULP energy -178814.214795 kJ/mol
# GULP energy per Si atom -5587.944212 kJ/mol
# Density = 2.218150 g / cm^3
# Si number density = 22.232105 Si / 1000 Ang^3
#
#
#
# Elastic Constant Matrix: (Units=GPa)
#
#
# Indices 1 2 3 4 5 6 
#
# 1 95.1109 -11.9742 -4.3457 0.0000 2.2380 0.0000
# 2 -11.9742 38.6555 -5.6964 -0.0001 -3.8449 0.0000
# 3 -4.3457 -5.6964 68.0782 0.0000 3.2440 0.0000
# 4 0.0000 -0.0001 0.0000 -204.5155 0.0000 25.9755
# 5 2.2380 -3.8449 3.2440 0.0000 38.3615 0.0000
# 6 0.0000 0.0000 0.0000 25.9755 0.0000 5.9643
#
#
#
# Elastic Compliance Matrix: (Units=1/GPa)
#
#
# Indices 1 2 3 4 5 6 
#
# 1 0.011013 0.003524 0.001016 0.000000 -0.000375 0.000000
# 2 0.003524 0.027551 0.002418 0.000000 0.002351 0.000000
# 3 0.001016 0.002418 0.015008 0.000000 -0.001086 0.000000
# 4 0.000000 0.000000 0.000000 -0.003148 0.000000 0.013711
# 5 -0.000375 0.002351 -0.001086 0.000000 0.026417 0.000000
# 6 0.000000 0.000000 0.000000 0.013711 0.000000 0.107951
#
#
# Mechanical properties :
#
#
# Convention : Reuss Voigt Hill
#
# Bulk Modulus (GPa) = 14.81751 17.53466 16.17608
# Shear Modulus (GPa) = 25.85675 -17.11390 4.37142
#
# Velocity S-wave (km/s) = 3.41403 -2.77751 1.40376
# Velocity P-wave (km/s) = 4.71383 1.54332 3.14947
#
# Compressibility (1/GPa) = 0.06748773
#
# Stress axis : x y z
#
# Youngs Moduli (GPa) = 90.80247 36.29587 66.63142
#
# Poissons Ratio (x) = -0.12790 -0.06768
# Poissons Ratio (y) = -0.31997 -0.16113
# Poissons Ratio (z) = -0.09223 -0.08777
#
# Static dielectric constant tensor:
#      x y z
#    x 1.790820 0.000000 -0.012920 
#    y 0.000000 1.849790 0.000000 
#    z -0.012920 0.000000 1.821620 
# 
# From -- ./inp_files/250066.got.cif
#   From: 2010.05.17/outbox.cif.g08.bks.cpg/sg12_126_cif.got.tgz:250066.got - 2010.06.03 13:09:07.
