data_PCOD9176308
_publ_section_title
;
Structure prediction by ZEFSAII (Michael W. Deem and Ramdas Pophale) SiO2 
 PCOD9176308
Probable space group: C 2/M
;
_chemical_formula_sum "Si O2"
_cell_formula_units_Z 56
_cell_length_a 9.765949
_cell_length_b 20.329668
_cell_length_c 13.966132
_cell_angle_alpha 90.000000
_cell_angle_beta 94.118825
_cell_angle_gamma 90.000000
_cell_volume 2765.653389
_symmetry_space_group_name_H-M "C 2/M"
_symmetry_group_IT_number 12
_symmetry_cell_setting 'monoclinic'
loop_
_space_group_symop_operation_xyz
x,y,z
-x,y,-z
-x,-y,-z
x,-y,z
1/2+x,1/2+y,z
1/2-x,1/2+y,-z
1/2-x,1/2-y,-z
1/2+x,1/2-y,z
loop_
_atom_site_type_symbol
_atom_site_label
_atom_site_fract_x
_atom_site_fract_y
_atom_site_fract_z
Si Si1 0.085754 0.780459 0.416042
Si Si2 0.929391 0.074549 0.616841
Si Si3 0.004770 0.576004 0.390956
Si Si4 0.226734 0.615936 0.767358
Si Si5 0.277871 0.402993 0.283040
Si Si6 0.315783 0.743624 0.291474
Si Si7 0.634453 0.500000 0.874999
Si Si8 0.694838 0.500000 0.099799
O O1 0.111069 0.858281 0.439428
O O2 0.229472 0.753345 0.386097
O O3 0.000000 0.752735 0.500000
O O4 0.976719 0.766727 0.324259
O O5 0.855747 0.088892 0.713649
O O6 0.090338 0.080082 0.644861
O O7 0.895087 0.000000 0.581866
O O8 0.961627 0.500000 0.395732
O O9 0.148909 0.579778 0.343265
O O10 0.000000 0.601542 0.500000
O O11 0.897741 0.608505 0.313779
O O12 0.225494 0.694919 0.777807
O O13 0.228222 0.565273 0.855393
O O14 0.268274 0.327085 0.254463
O O15 0.307053 0.440707 0.186207
O O16 0.467369 0.500000 0.875808
O O17 0.690526 0.500000 0.985177
#
# Coordination Sequence:
#
# PCOD9176308 Si02
#       8
#     8   8   8   8   8   8   4   4
#     4  10  21  35  51  78 115 159 210 247 282 344
#     4  10  18  34  59  81 113 156 201 255 311 327
#     4  11  23  37  58  86 124 171 204 236 287 344
#     4  11  20  40  59  89 123 156 198 249 293 353
#     4  11  20  40  59  89 123 156 198 249 293 353
#     4  10  23  34  57  78 116 164 190 236 304 340
#     4  11  22  41  73  96 112 146 195 253 313 363
#     4  11  22  41  73  96 112 146 195 253 313 363
#
# _framework density 20.248380999999998
#
# number of rings (size 3 to 8) (size 9 to 14) (size 15 to 20)
#    0.000    1.429    4.286    1.286    0.000    7.143 
#    0.000    2.143    0.000    0.857    0.000    0.000 
#    0.000    0.000    0.000    0.000    0.000    0.000 
#
# Total GULP energy -156061.276232 kJ/mol
# GULP energy per Si atom -5573.617008 kJ/mol
# Density = 2.020229 g / cm^3
# Si number density = 20.248381 Si / 1000 Ang^3
#
#
#
# Elastic Constant Matrix: (Units=GPa)
#
#
# Indices 1 2 3 4 5 6 
#
# 1 96.9873 17.0967 31.9496 0.0000 -6.3976 0.0000
# 2 17.0967 174.1302 24.9101 0.0000 -8.0770 0.0000
# 3 31.9496 24.9101 78.9939 0.0000 -14.4152 0.0000
# 4 0.0000 0.0000 0.0000 -71.8459 0.0000 51.4579
# 5 -6.3976 -8.0770 -14.4152 0.0000 17.8716 0.0000
# 6 0.0000 0.0000 0.0000 51.4579 0.0000 -16.6954
#
#
#
# Elastic Compliance Matrix: (Units=1/GPa)
#
#
# Indices 1 2 3 4 5 6 
#
# 1 0.011939 -0.000497 -0.004612 0.000000 0.000329 0.000000
# 2 -0.000497 0.006065 -0.001458 0.000000 0.001387 0.000000
# 3 -0.004612 -0.001458 0.017076 0.000000 0.011464 0.000000
# 4 0.000000 0.000000 0.000000 0.011527 0.000000 0.035527
# 5 0.000329 0.001387 0.011464 0.000000 0.065946 0.000000
# 6 0.000000 0.000000 0.000000 0.035527 0.000000 0.049603
#
#
# Mechanical properties :
#
#
# Convention : Reuss Voigt Hill
#
# Bulk Modulus (GPa) = 45.56804 55.33601 50.45203
# Shear Modulus (GPa) = 27.38131 4.27638 15.82884
#
# Velocity S-wave (km/s) = 3.68131 1.45483 2.79898
# Velocity P-wave (km/s) = 6.37360 5.49636 5.95117
#
# Compressibility (1/GPa) = 0.02194520
#
# Stress axis : x y z
#
# Youngs Moduli (GPa) = 83.75702 164.89190 58.56026
#
# Poissons Ratio (x) = 0.08198 0.27008
# Poissons Ratio (y) = 0.04164 0.08540
# Poissons Ratio (z) = 0.38629 0.24046
#
# Static dielectric constant tensor:
#      x y z
#    x 1.748940 0.000000 -0.006350 
#    y 0.000000 1.789290 0.000000 
#    z -0.006350 0.000000 1.738500 
# 
# From -- ./inp_files/197576.got.cif
#   From: 2010.05.17/outbox.cif.g08.bks.cpg/sg12_99_cif.got.tgz:197576.got - 2010.06.03 13:09:07.
