data_PCOD9176953
_publ_section_title
;
Structure prediction by ZEFSAII (Michael W. Deem and Ramdas Pophale) SiO2 
 PCOD9176953
Probable space group: C 2/M
;
_chemical_formula_sum "Si O2"
_cell_formula_units_Z 48
_cell_length_a 17.395818
_cell_length_b 17.898780
_cell_length_c 16.538820
_cell_angle_alpha 90.000000
_cell_angle_beta 147.213533
_cell_angle_gamma 90.000000
_cell_volume 2788.553699
_symmetry_space_group_name_H-M "C 2/M"
_symmetry_group_IT_number 12
_symmetry_cell_setting 'monoclinic'
loop_
_space_group_symop_operation_xyz
x,y,z
-x,y,-z
-x,-y,-z
x,-y,z
1/2+x,1/2+y,z
1/2-x,1/2+y,-z
1/2-x,1/2-y,-z
1/2+x,1/2-y,z
loop_
_atom_site_type_symbol
_atom_site_label
_atom_site_fract_x
_atom_site_fract_y
_atom_site_fract_z
Si Si1 0.615343 0.000000 0.746467
Si Si2 0.680148 0.834808 0.030405
Si Si3 0.449179 0.146094 0.542428
Si Si4 0.969956 0.756862 0.244704
Si Si5 0.311738 0.000000 0.009710
Si Si6 0.000000 0.752622 0.000000
Si Si7 0.576089 0.500000 0.927901
Si Si8 0.620390 0.644639 0.245892
O O1 0.546007 0.074297 0.649208
O O2 0.593572 0.000000 0.824599
O O3 0.787513 0.000000 0.891253
O O4 0.842227 0.808467 0.164382
O O5 0.666749 0.923676 0.018431
O O6 0.607174 0.796967 0.042480
O O7 0.600904 0.801531 0.881158
O O8 0.500000 0.174415 0.500000
O O9 0.466398 0.209254 0.625931
O O10 0.284634 0.123218 0.393436
O O11 0.076359 0.807885 0.286567
O O12 0.154009 0.000000 0.909556
O O13 0.912896 0.803555 0.860563
O O14 0.481745 0.573330 0.851916
#
# Coordination Sequence:
#
# PCOD9176953 Si02
#       8
#     4   8   8   8   4   4   4   8
#     4  10  22  38  57  84 115 155 195 233 297 345
#     4  10  19  36  62  85 117 151 198 239 286 347
#     4  12  24  37  55  86 122 155 188 244 301 343
#     4  10  19  37  59  82 116 156 196 240 283 347
#     4  10  18  36  64  86 105 158 195 235 281 340
#     4  10  24  36  58  94 116 152 192 246 294 342
#     4  10  21  38  63  88 110 159 199 235 281 359
#     4  11  23  38  60  88 118 152 201 236 292 348
#
# _framework density 17.213224
#
# number of rings (size 3 to 8) (size 9 to 14) (size 15 to 20)
#    0.500    1.000    3.333    2.250    7.000    0.667 
#    0.000    0.000    0.000    0.000    0.000    2.333 
#    0.000    0.000    0.000    0.000    0.000    0.000 
#
# Total GULP energy -133961.956377 kJ/mol
# GULP energy per Si atom -5581.748182 kJ/mol
# Density = 1.717405 g / cm^3
# Si number density = 17.213224 Si / 1000 Ang^3
#
#
#
# Elastic Constant Matrix: (Units=GPa)
#
#
# Indices 1 2 3 4 5 6 
#
# 1 94.8719 46.1861 57.6708 0.0001 -6.1035 0.0001
# 2 46.1861 128.4841 47.7752 0.0001 -6.1071 0.0000
# 3 57.6708 47.7752 97.0956 0.0001 10.4971 0.0000
# 4 0.0001 0.0001 0.0001 17.3973 0.0000 4.8632
# 5 -6.1035 -6.1071 10.4971 0.0000 31.8648 0.0000
# 6 0.0001 0.0000 0.0000 4.8632 0.0000 16.2753
#
#
#
# Elastic Compliance Matrix: (Units=1/GPa)
#
#
# Indices 1 2 3 4 5 6 
#
# 1 0.018548 -0.002443 -0.010523 0.000000 0.006551 0.000000
# 2 -0.002443 0.010238 -0.003886 0.000000 0.002775 0.000000
# 3 -0.010523 -0.003886 0.019453 0.000000 -0.009169 0.000000
# 4 0.000000 0.000000 0.000000 0.062719 0.000000 -0.018741
# 5 0.006551 0.002775 -0.009169 0.000000 0.036190 0.000000
# 6 0.000000 0.000000 0.000000 -0.018741 0.000000 0.067043
#
#
# Mechanical properties :
#
#
# Convention : Reuss Voigt Hill
#
# Bulk Modulus (GPa) = 68.80380 69.30174 69.05277
# Shear Modulus (GPa) = 19.78310 24.36209 22.07259
#
# Velocity S-wave (km/s) = 3.39381 3.76614 3.58481
# Velocity P-wave (km/s) = 7.44416 7.69805 7.57217
#
# Compressibility (1/GPa) = 0.01453408
#
# Stress axis : x y z
#
# Youngs Moduli (GPa) = 53.91391 97.67181 51.40642
#
# Poissons Ratio (x) = 0.23864 0.54094
# Poissons Ratio (y) = 0.13173 0.19979
# Poissons Ratio (z) = 0.56733 0.37960
#
# Static dielectric constant tensor:
#      x y z
#    x 1.573560 0.000000 0.000830 
#    y 0.000000 1.562370 0.000000 
#    z 0.000830 0.000000 1.574700 
# 
# From -- ./inp_files/226994.got.cif
#   From: 2010.05.17/outbox.cif.g08.bks.cpg/sg12_114_cif.got.tgz:226994.got - 2010.06.03 13:09:07.
