data_PCOD9176512
_publ_section_title
;
Structure prediction by ZEFSAII (Michael W. Deem and Ramdas Pophale) SiO2 
 PCOD9176512
Probable space group: C 2/M
;
_chemical_formula_sum "Si O2"
_cell_formula_units_Z 40
_cell_length_a 23.637322
_cell_length_b 16.510820
_cell_length_c 5.230253
_cell_angle_alpha 90.000000
_cell_angle_beta 108.925687
_cell_angle_gamma 90.000000
_cell_volume 1930.870832
_symmetry_space_group_name_H-M "C 2/M"
_symmetry_group_IT_number 12
_symmetry_cell_setting 'monoclinic'
loop_
_space_group_symop_operation_xyz
x,y,z
-x,y,-z
-x,-y,-z
x,-y,z
1/2+x,1/2+y,z
1/2-x,1/2+y,-z
1/2-x,1/2-y,-z
1/2+x,1/2-y,z
loop_
_atom_site_type_symbol
_atom_site_label
_atom_site_fract_x
_atom_site_fract_y
_atom_site_fract_z
Si Si1 0.936284 0.379778 0.808276
Si Si2 0.262441 0.597484 0.938360
Si Si3 0.872624 0.359628 0.218047
Si Si4 0.337499 0.403340 0.555451
Si Si5 0.563020 0.715376 0.464358
O O1 0.945165 0.283891 0.764596
O O2 0.089817 0.405782 0.504503
O O3 0.888787 0.392319 0.963089
O O4 0.000000 0.410671 0.000000
O O5 0.254601 0.500000 0.906510
O O6 0.197068 0.635897 0.826507
O O7 0.305598 0.623068 0.770462
O O8 0.293185 0.614394 0.254440
O O9 0.897069 0.267719 0.276841
O O10 0.346690 0.500000 0.579765
O O11 0.399166 0.358169 0.588997
O O12 0.500000 0.694334 0.500000
#
# Coordination Sequence:
#
# PCOD9176512 Si02
#       5
#     8   8   8   8   8
#     4  10  18  35  53  84 114 145 180 230 280 326
#     4  10  22  41  58  81 117 152 186 232 281 332
#     4  10  20  34  60  85 109 149 187 229 282 337
#     4  10  23  39  57  82 116 152 190 230 276 334
#     4  10  22  36  60  84 115 149 186 236 280 328
#
# _framework density 20.716041000000001
#
# number of rings (size 3 to 8) (size 9 to 14) (size 15 to 20)
#    1.200    0.800    2.000    1.800    2.800    2.000 
#    0.000    0.000    0.000   10.800    0.000    0.000 
#    0.000    0.000    0.000    0.000    0.000    0.000 
#
# Total GULP energy -111561.598092 kJ/mol
# GULP energy per Si atom -5578.079905 kJ/mol
# Density = 2.066889 g / cm^3
# Si number density = 20.716041 Si / 1000 Ang^3
#
#
#
# Elastic Constant Matrix: (Units=GPa)
#
#
# Indices 1 2 3 4 5 6 
#
# 1 130.8914 32.2109 17.9206 0.0000 -13.9279 0.0000
# 2 32.2109 25.8645 5.4422 0.0000 6.8854 0.0000
# 3 17.9206 5.4422 92.1642 0.0000 -19.5872 0.0000
# 4 0.0000 0.0000 0.0000 -7.8322 0.0000 6.4698
# 5 -13.9279 6.8854 -19.5872 0.0000 33.8168 0.0000
# 6 0.0000 0.0000 0.0000 6.4698 0.0000 50.3026
#
#
#
# Elastic Compliance Matrix: (Units=1/GPa)
#
#
# Indices 1 2 3 4 5 6 
#
# 1 0.013374 -0.019405 0.000634 0.000000 0.009826 0.000000
# 2 -0.019405 0.070959 -0.005914 0.000000 -0.025866 0.000000
# 3 0.000634 -0.005914 0.012986 0.000000 0.008987 0.000000
# 4 0.000000 0.000000 0.000000 -0.115416 0.000000 0.014845
# 5 0.009826 -0.025866 0.008987 0.000000 0.044090 0.000000
# 6 0.000000 0.000000 0.000000 0.014845 0.000000 0.017970
#
#
# Mechanical properties :
#
#
# Convention : Reuss Voigt Hill
#
# Bulk Modulus (GPa) = 20.85548 40.00750 30.43149
# Shear Modulus (GPa) = 45.73854 28.14720 36.94287
#
# Velocity S-wave (km/s) = 4.70391 3.69007 4.22749
# Velocity P-wave (km/s) = 6.29218 6.12452 6.20892
#
# Compressibility (1/GPa) = 0.04794904
#
# Stress axis : x y z
#
# Youngs Moduli (GPa) = 74.77162 14.09261 77.00509
#
# Poissons Ratio (x) = 0.27346 -0.04880
# Poissons Ratio (y) = 1.45093 0.45541
# Poissons Ratio (z) = -0.04738 0.08334
#
# Static dielectric constant tensor:
#      x y z
#    x 1.690700 0.000000 0.014390 
#    y 0.000000 1.760660 0.000000 
#    z 0.014390 0.000000 1.748400 
# 
# From -- ./inp_files/15214.got.cif
#   From: 2010.05.17/outbox.cif.g08.bks.cpg/sg12_8_cif.got.tgz:15214.got - 2010.06.03 13:09:07.
