data_PCOD9176538
_publ_section_title
;
Structure prediction by ZEFSAII (Michael W. Deem and Ramdas Pophale) SiO2 
 PCOD9176538
Probable space group: C 2/M
;
_chemical_formula_sum "Si O2"
_cell_formula_units_Z 40
_cell_length_a 7.996541
_cell_length_b 21.457014
_cell_length_c 9.452158
_cell_angle_alpha 90.000000
_cell_angle_beta 77.088493
_cell_angle_gamma 90.000000
_cell_volume 1580.813628
_symmetry_space_group_name_H-M "C 2/M"
_symmetry_group_IT_number 12
_symmetry_cell_setting 'monoclinic'
loop_
_space_group_symop_operation_xyz
x,y,z
-x,y,-z
-x,-y,-z
x,-y,z
1/2+x,1/2+y,z
1/2-x,1/2+y,-z
1/2-x,1/2-y,-z
1/2+x,1/2-y,z
loop_
_atom_site_type_symbol
_atom_site_label
_atom_site_fract_x
_atom_site_fract_y
_atom_site_fract_z
Si Si1 0.768941 0.000000 0.454360
Si Si2 0.620904 0.374336 0.681342
Si Si3 0.066129 0.366957 0.156295
Si Si4 0.479118 0.761851 0.344164
Si Si5 0.144082 0.820238 0.095200
Si Si6 0.486005 0.000000 0.251162
O O1 0.863370 0.934367 0.417023
O O2 0.632125 0.000000 0.348525
O O3 0.683056 0.000000 0.622680
O O4 0.780553 0.372606 0.756960
O O5 0.619309 0.304190 0.617518
O O6 0.446560 0.376844 0.805685
O O7 0.930117 0.322142 0.261590
O O8 0.000644 0.437115 0.158928
O O9 0.173425 0.339006 0.003416
O O10 0.500000 0.783915 0.500000
O O11 0.632556 0.736160 0.211100
O O12 0.000000 0.804386 0.000000
#
# Coordination Sequence:
#
# PCOD9176538 Si02
#       6
#     4   8   8   8   8   4
#     4   9  16  35  48  76 116 135 176 236 260 325
#     4   8  19  32  54  77 106 142 178 219 276 302
#     4  10  18  35  55  80 115 136 183 230 264 333
#     4  10  21  33  54  84 110 145 185 215 275 320
#     4   8  17  36  53  79 110 140 180 220 276 308
#     4   9  20  29  55  82 105 145 178 223 292 295
#
# _framework density 25.303424
#
# number of rings (size 3 to 8) (size 9 to 14) (size 15 to 20)
#    1.200    1.800    0.000    0.600    5.600    1.600 
#    0.000    4.500    0.000    0.000    0.000    2.100 
#    0.000    0.000    0.000    0.000    0.000    0.000 
#
# Total GULP energy -111534.334640 kJ/mol
# GULP energy per Si atom -5576.716732 kJ/mol
# Density = 2.524583 g / cm^3
# Si number density = 25.303424 Si / 1000 Ang^3
#
#
#
# Elastic Constant Matrix: (Units=GPa)
#
#
# Indices 1 2 3 4 5 6 
#
# 1 62.8168 28.1586 37.6637 0.0000 -12.4249 0.0000
# 2 28.1586 203.0103 89.7422 0.0000 -15.2887 0.0000
# 3 37.6637 89.7422 178.3570 0.0000 4.5050 0.0000
# 4 0.0000 0.0000 0.0000 92.6812 0.0000 -4.6019
# 5 -12.4249 -15.2887 4.5050 0.0000 34.0530 0.0000
# 6 0.0000 0.0000 0.0000 -4.6019 0.0000 26.7534
#
#
#
# Elastic Compliance Matrix: (Units=1/GPa)
#
#
# Indices 1 2 3 4 5 6 
#
# 1 0.020179 -0.000310 -0.004302 0.000000 0.007792 0.000000
# 2 -0.000310 0.006726 -0.003404 0.000000 0.003357 0.000000
# 3 -0.004302 -0.003404 0.008334 0.000000 -0.004200 0.000000
# 4 0.000000 0.000000 0.000000 0.010883 0.000000 0.001872
# 5 0.007792 0.003357 -0.004200 0.000000 0.034272 0.000000
# 6 0.000000 0.000000 0.000000 0.001872 0.000000 0.037700
#
#
# Mechanical properties :
#
#
# Convention : Reuss Voigt Hill
#
# Bulk Modulus (GPa) = 52.06340 83.92366 67.99353
# Shear Modulus (GPa) = 35.57994 49.93883 42.75938
#
# Velocity S-wave (km/s) = 3.75391 4.44734 4.11526
# Velocity P-wave (km/s) = 6.27769 7.72080 7.03634
#
# Compressibility (1/GPa) = 0.01920735
#
# Stress axis : x y z
#
# Youngs Moduli (GPa) = 49.55635 148.66922 119.99275
#
# Poissons Ratio (x) = 0.04615 0.51619
# Poissons Ratio (y) = 0.01538 0.40842
# Poissons Ratio (z) = 0.21318 0.50602
#
# Static dielectric constant tensor:
#      x y z
#    x 2.115280 0.000000 0.028450 
#    y 0.000000 1.957450 0.000000 
#    z 0.028450 0.000000 1.996120 
# 
# From -- ./inp_files/144227.got.cif
#   From: 2010.05.17/outbox.cif.g08.bks.cpg/sg12_73_cif.got.tgz:144227.got - 2010.06.03 13:09:07.
