data_PCOD9176075
_publ_section_title
;
Structure prediction by ZEFSAII (Michael W. Deem and Ramdas Pophale) SiO2 
 PCOD9176075
Probable space group: C 2/M
;
_chemical_formula_sum "Si O2"
_cell_formula_units_Z 64
_cell_length_a 23.549534
_cell_length_b 22.965425
_cell_length_c 17.295914
_cell_angle_alpha 90.000000
_cell_angle_beta 159.032120
_cell_angle_gamma 90.000000
_cell_volume 3347.300503
_symmetry_space_group_name_H-M "C 2/M"
_symmetry_group_IT_number 12
_symmetry_cell_setting 'monoclinic'
loop_
_space_group_symop_operation_xyz
x,y,z
-x,y,-z
-x,-y,-z
x,-y,z
1/2+x,1/2+y,z
1/2-x,1/2+y,-z
1/2-x,1/2-y,-z
1/2+x,1/2-y,z
loop_
_atom_site_type_symbol
_atom_site_label
_atom_site_fract_x
_atom_site_fract_y
_atom_site_fract_z
Si Si1 0.168179 0.101246 0.178977
Si Si2 0.392565 0.626165 0.070529
Si Si3 0.901578 0.745540 0.048577
Si Si4 0.365928 0.819217 0.764054
Si Si5 0.406691 0.063440 0.602152
Si Si6 0.290175 0.433843 0.491679
Si Si7 0.306342 0.226205 0.361328
Si Si8 0.389001 0.172353 0.181287
O O1 0.170938 0.099043 0.090103
O O2 0.307932 0.066600 0.397414
O O3 0.198707 0.169045 0.240191
O O4 0.000000 0.082775 0.000000
O O5 0.254567 0.644915 0.953283
O O6 0.466301 0.688964 0.141367
O O7 0.526226 0.584318 0.273741
O O8 0.846635 0.717301 0.059127
O O9 0.043793 0.706811 0.195144
O O10 0.757286 0.750925 0.802665
O O11 0.301343 0.883679 0.670331
O O12 0.231230 0.775320 0.623261
O O13 0.500000 0.818675 0.000000
O O14 0.280300 0.069333 0.510919
O O15 0.523376 0.117823 0.747984
O O16 0.484666 0.000000 0.709519
O O17 0.267784 0.500000 0.435657
O O18 0.485130 0.203454 0.600525
#
# Coordination Sequence:
#
# PCOD9176075 Si02
#       8
#     8   8   8   8   8   8   8   8
#     4  10  18  34  54  81 116 151 186 242 293 345
#     4  11  23  36  58  88 120 153 196 235 292 361
#     4  10  20  35  59  88 124 154 189 240 306 353
#     4  10  20  37  62  92 116 151 196 249 296 349
#     4  10  22  37  57  81 112 158 206 243 288 346
#     4  11  23  39  59  85 114 155 207 250 284 340
#     4   9  20  33  57  90 121 149 195 237 291 364
#     4  11  22  38  58  89 123 160 193 240 299 354
#
# _framework density 19.119886000000001
#
# number of rings (size 3 to 8) (size 9 to 14) (size 15 to 20)
#    0.000    1.750    2.500    3.000    1.750    7.000 
#    0.000    1.875    0.000    0.000    0.000    3.500 
#    0.000    0.000    0.000    0.000    0.000    0.000 
#
# Total GULP energy -178640.037804 kJ/mol
# GULP energy per Si atom -5582.501181 kJ/mol
# Density = 1.907637 g / cm^3
# Si number density = 19.119886 Si / 1000 Ang^3
#
#
#
# Elastic Constant Matrix: (Units=GPa)
#
#
# Indices 1 2 3 4 5 6 
#
# 1 50.5748 12.7246 9.1208 0.0000 10.4740 0.0000
# 2 12.7246 87.2046 22.3541 0.0000 10.3995 0.0000
# 3 9.1208 22.3541 35.7250 0.0000 12.0125 0.0000
# 4 0.0000 0.0000 0.0000 14.9770 0.0000 -1.1884
# 5 10.4740 10.3995 12.0125 0.0000 20.3079 0.0000
# 6 0.0000 0.0000 0.0000 -1.1884 0.0000 19.1601
#
#
#
# Elastic Compliance Matrix: (Units=1/GPa)
#
#
# Indices 1 2 3 4 5 6 
#
# 1 0.022509 -0.001766 -0.001301 0.000000 -0.009935 0.000000
# 2 -0.001766 0.013893 -0.007685 0.000000 -0.001658 0.000000
# 3 -0.001301 -0.007685 0.039425 0.000000 -0.018714 0.000000
# 4 0.000000 0.000000 0.000000 0.067099 0.000000 0.004162
# 5 -0.009935 -0.001658 -0.018714 0.000000 0.066285 0.000000
# 6 0.000000 0.000000 0.000000 0.004162 0.000000 0.052450
#
#
# Mechanical properties :
#
#
# Convention : Reuss Voigt Hill
#
# Bulk Modulus (GPa) = 18.40826 29.10036 23.75431
# Shear Modulus (GPa) = 16.59631 19.50934 18.05282
#
# Velocity S-wave (km/s) = 2.94940 3.19779 3.07610
# Velocity P-wave (km/s) = 4.60948 5.37470 5.00673
#
# Compressibility (1/GPa) = 0.05432344
#
# Stress axis : x y z
#
# Youngs Moduli (GPa) = 44.42615 71.98087 25.36468
#
# Poissons Ratio (x) = 0.12713 0.03300
# Poissons Ratio (y) = 0.07846 0.19492
# Poissons Ratio (z) = 0.05779 0.55315
#
# Static dielectric constant tensor:
#      x y z
#    x 1.673800 0.000000 -0.004120 
#    y 0.000000 1.674360 0.000000 
#    z -0.004120 0.000000 1.669180 
# 
# From -- ./inp_files/290953.got.cif
#   From: 2010.05.17/outbox.cif.g08.bks.cpg/sg12_146_cif.got.tgz:290953.got - 2010.06.03 13:09:07.
