data_PCOD9176892
_publ_section_title
;
Structure prediction by ZEFSAII (Michael W. Deem and Ramdas Pophale) SiO2 
 PCOD9176892
Probable space group: C 2/M
;
_chemical_formula_sum "Si O2"
_cell_formula_units_Z 64
_cell_length_a 9.203014
_cell_length_b 14.259281
_cell_length_c 24.534372
_cell_angle_alpha 90.000000
_cell_angle_beta 89.970979
_cell_angle_gamma 90.000000
_cell_volume 3219.605054
_symmetry_space_group_name_H-M "C 2/M"
_symmetry_group_IT_number 12
_symmetry_cell_setting 'monoclinic'
loop_
_space_group_symop_operation_xyz
x,y,z
-x,y,-z
-x,-y,-z
x,-y,z
1/2+x,1/2+y,z
1/2-x,1/2+y,-z
1/2-x,1/2-y,-z
1/2+x,1/2-y,z
loop_
_atom_site_type_symbol
_atom_site_label
_atom_site_fract_x
_atom_site_fract_y
_atom_site_fract_z
Si Si1 0.761796 0.240200 0.853529
Si Si2 0.638237 0.894058 0.071007
Si Si3 0.119834 0.298328 0.609707
Si Si4 0.204374 0.392980 0.953450
Si Si5 0.019457 0.395775 0.289828
Si Si6 0.495802 0.289559 0.220734
Si Si7 0.141440 0.107228 0.677619
Si Si8 0.881513 0.214931 0.538520
O O1 0.843302 0.330624 0.876804
O O2 0.759801 0.171529 0.905108
O O3 0.612547 0.280983 0.830108
O O4 0.845775 0.192213 0.803597
O O5 0.468849 0.895841 0.056221
O O6 0.686040 0.000000 0.081858
O O7 0.723137 0.861021 0.016303
O O8 0.123053 0.191056 0.633498
O O9 0.278990 0.325449 0.586514
O O10 0.075039 0.367397 0.657764
O O11 0.987330 0.292994 0.565971
O O12 0.259120 0.500000 0.949418
O O13 0.984882 0.500000 0.269975
O O14 0.997781 0.313528 0.247046
O O15 0.188176 0.393107 0.307388
O O16 0.444160 0.360041 0.267906
O O17 0.102256 0.000000 0.661335
O O18 0.750000 0.250000 0.500000
O O19 0.000000 0.161528 0.500000
#
# Coordination Sequence:
#
# PCOD9176892 Si02
#       8
#     8   8   8   8   8   8   8   8
#     4  12  21  37  57  82 112 144 182 228 289 334
#     4   9  19  36  58  81 107 146 187 221 271 344
#     4  10  18  36  60  88 112 153 199 229 270 336
#     4   9  19  36  57  82 109 142 187 227 268 336
#     4  10  21  38  61  83 110 152 196 233 274 337
#     4  11  24  37  56  85 115 145 184 237 283 342
#     4  10  21  38  60  83 113 151 190 237 283 329
#     4   9  18  32  58  88 123 158 185 226 288 328
#
# _framework density 19.878214
#
# number of rings (size 3 to 8) (size 9 to 14) (size 15 to 20)
#    0.000    2.000    3.750    1.125    0.000    2.000 
#    0.000    1.875    0.000   16.500    0.000    0.000 
#    0.000    0.000    0.000    0.000    0.000    0.000 
#
# Total GULP energy -178202.511081 kJ/mol
# GULP energy per Si atom -5568.828471 kJ/mol
# Density = 1.983297 g / cm^3
# Si number density = 19.878214 Si / 1000 Ang^3
#
#
#
# Elastic Constant Matrix: (Units=GPa)
#
#
# Indices 1 2 3 4 5 6 
#
# 1 62.9820 8.2451 10.4696 0.0000 -15.6546 0.0000
# 2 8.2451 74.0411 16.1679 0.0000 -11.0502 0.0000
# 3 10.4696 16.1679 60.9073 0.0000 -19.9414 0.0000
# 4 0.0000 0.0000 0.0000 5.0211 0.0000 2.9603
# 5 -15.6546 -11.0502 -19.9414 0.0000 44.5378 0.0000
# 6 0.0000 0.0000 0.0000 2.9603 0.0000 8.7343
#
#
#
# Elastic Compliance Matrix: (Units=1/GPa)
#
#
# Indices 1 2 3 4 5 6 
#
# 1 0.017526 -0.000920 -0.000968 0.000000 0.005498 0.000000
# 2 -0.000920 0.014567 -0.003083 0.000000 0.001910 0.000000
# 3 -0.000968 -0.003083 0.019969 0.000000 0.007835 0.000000
# 4 0.000000 0.000000 0.000000 0.248894 0.000000 -0.084358
# 5 0.005498 0.001910 0.007835 0.000000 0.028368 0.000000
# 6 0.000000 0.000000 0.000000 -0.084358 0.000000 0.143083
#
#
# Mechanical properties :
#
#
# Convention : Reuss Voigt Hill
#
# Bulk Modulus (GPa) = 23.74230 29.74396 26.74313
# Shear Modulus (GPa) = 10.07278 22.52851 16.30064
#
# Velocity S-wave (km/s) = 2.25350 3.37014 2.86672
# Velocity P-wave (km/s) = 4.32906 5.48994 4.94369
#
# Compressibility (1/GPa) = 0.04211892
#
# Stress axis : x y z
#
# Youngs Moduli (GPa) = 57.05957 68.64925 50.07851
#
# Poissons Ratio (x) = 0.06313 0.04849
# Poissons Ratio (y) = 0.05247 0.15440
# Poissons Ratio (z) = 0.05525 0.21166
#
# Static dielectric constant tensor:
#      x y z
#    x 1.714070 0.000000 -0.026520 
#    y 0.000000 1.688110 0.000000 
#    z -0.026520 0.000000 1.768010 
# 
# From -- ./inp_files/332944.got.cif
#   From: 2010.05.17/outbox.cif.g08.bks.cpg/sg12_167_cif.got.tgz:332944.got - 2010.06.03 13:09:07.
