data_PCOD9176530
_publ_section_title
;
Structure prediction by ZEFSAII (Michael W. Deem and Ramdas Pophale) SiO2 
 PCOD9176530
Probable space group: C 2/M
;
_chemical_formula_sum "Si O2"
_cell_formula_units_Z 64
_cell_length_a 29.698997
_cell_length_b 13.734834
_cell_length_c 21.634249
_cell_angle_alpha 90.000000
_cell_angle_beta 162.493789
_cell_angle_gamma 90.000000
_cell_volume 2654.594018
_symmetry_space_group_name_H-M "C 2/M"
_symmetry_group_IT_number 12
_symmetry_cell_setting 'monoclinic'
loop_
_space_group_symop_operation_xyz
x,y,z
-x,y,-z
-x,-y,-z
x,-y,z
1/2+x,1/2+y,z
1/2-x,1/2+y,-z
1/2-x,1/2-y,-z
1/2+x,1/2-y,z
loop_
_atom_site_type_symbol
_atom_site_label
_atom_site_fract_x
_atom_site_fract_y
_atom_site_fract_z
Si Si1 0.502165 0.692259 0.929335
Si Si2 0.581380 0.610306 0.530103
Si Si3 0.258970 0.773385 0.179168
Si Si4 0.405969 0.325225 0.587315
Si Si5 0.249731 0.153204 0.041919
Si Si6 0.218495 0.397743 0.044759
Si Si7 0.179938 0.609739 0.497341
Si Si8 0.883594 0.391944 0.727516
O O1 0.355604 0.633203 0.717459
O O2 0.477767 0.806601 0.882397
O O3 0.500000 0.679266 0.000000
O O4 0.651438 0.669225 0.085455
O O5 0.620755 0.500000 0.602194
O O6 0.638785 0.699920 0.646824
O O7 0.641068 0.630739 0.540054
O O8 0.400847 0.611036 0.286673
O O9 0.168657 0.696251 0.017446
O O10 0.323363 0.838283 0.206155
O O11 0.572495 0.364567 0.819601
O O12 0.387718 0.207231 0.558940
O O13 0.287585 0.363328 0.481187
O O14 0.321085 0.093227 0.079442
O O15 0.250000 0.250000 0.000000
O O16 0.177643 0.500000 0.021340
O O17 0.164251 0.500000 0.503640
O O18 0.109549 0.608459 0.337251
O O19 0.918625 0.500000 0.796596
#
# Coordination Sequence:
#
# PCOD9176530 Si02
#       8
#     8   8   8   8   8   8   8   8
#     4  11  23  37  54  82 118 148 183 236 289 337
#     4  10  20  33  54  84 114 146 182 220 273 344
#     4  11  19  32  53  79 114 150 181 220 281 335
#     4  10  18  35  55  74 107 146 186 227 274 334
#     4   9  19  33  52  79 111 145 180 225 277 329
#     4   9  19  35  55  81 112 147 188 228 271 337
#     4  10  21  38  58  76 100 145 201 244 276 325
#     4  10  20  34  54  78 104 140 184 226 274 335
#
# _framework density 24.109147
#
# number of rings (size 3 to 8) (size 9 to 14) (size 15 to 20)
#    0.000    2.000    0.000    5.625    0.000    3.000 
#    0.000    5.000    0.000    0.750    0.000    0.875 
#    0.000   16.000    0.000    0.000    0.000    0.000 
#
# Total GULP energy -178423.424298 kJ/mol
# GULP energy per Si atom -5575.732009 kJ/mol
# Density = 2.405427 g / cm^3
# Si number density = 24.109147 Si / 1000 Ang^3
#
#
#
# Elastic Constant Matrix: (Units=GPa)
#
#
# Indices 1 2 3 4 5 6 
#
# 1 100.8490 5.9691 30.2082 0.0000 -20.5402 0.0000
# 2 5.9691 77.5003 1.0062 0.0000 -4.1027 -0.0001
# 3 30.2082 1.0062 74.0855 -0.0001 -3.6676 0.0000
# 4 0.0000 0.0000 -0.0001 13.6252 -0.0001 -0.0625
# 5 -20.5402 -4.1027 -3.6676 -0.0001 40.7081 0.0000
# 6 0.0000 -0.0001 0.0000 -0.0625 0.0000 14.4718
#
#
#
# Elastic Compliance Matrix: (Units=1/GPa)
#
#
# Indices 1 2 3 4 5 6 
#
# 1 0.012593 -0.000597 -0.004837 0.000000 0.005858 0.000000
# 2 -0.000597 0.013002 0.000117 0.000000 0.001020 0.000000
# 3 -0.004837 0.000117 0.015417 0.000000 -0.001040 0.000000
# 4 0.000000 0.000000 0.000000 0.073395 0.000000 0.000317
# 5 0.005858 0.001020 -0.001040 0.000000 0.027530 0.000000
# 6 0.000000 0.000000 0.000000 0.000317 0.000000 0.069101
#
#
# Mechanical properties :
#
#
# Convention : Reuss Voigt Hill
#
# Bulk Modulus (GPa) = 32.91751 36.31132 34.61442
# Shear Modulus (GPa) = 21.57060 28.11111 24.84086
#
# Velocity S-wave (km/s) = 2.99441 3.41837 3.21339
# Velocity P-wave (km/s) = 5.06345 5.53843 5.30626
#
# Compressibility (1/GPa) = 0.03037897
#
# Stress axis : x y z
#
# Youngs Moduli (GPa) = 79.40864 76.91355 64.86342
#
# Poissons Ratio (x) = 0.04592 0.31372
# Poissons Ratio (y) = 0.04741 -0.00761
# Poissons Ratio (z) = 0.38408 -0.00902
#
# Static dielectric constant tensor:
#      x y z
#    x 1.998620 0.000000 0.006860 
#    y 0.000000 2.117340 0.000000 
#    z 0.006860 0.000000 1.984340 
# 
# From -- ./inp_files/330395.got.cif
#   From: 2010.05.17/outbox.cif.g08.bks.cpg/sg12_166_cif.got.tgz:330395.got - 2010.06.03 13:09:07.
