data_PCOD9176855
_publ_section_title
;
Structure prediction by ZEFSAII (Michael W. Deem and Ramdas Pophale) SiO2 
 PCOD9176855
Probable space group: C 2/M
;
_chemical_formula_sum "Si O2"
_cell_formula_units_Z 64
_cell_length_a 17.493821
_cell_length_b 21.503373
_cell_length_c 23.968932
_cell_angle_alpha 90.000000
_cell_angle_beta 158.579124
_cell_angle_gamma 90.000000
_cell_volume 3292.984902
_symmetry_space_group_name_H-M "C 2/M"
_symmetry_group_IT_number 12
_symmetry_cell_setting 'monoclinic'
loop_
_space_group_symop_operation_xyz
x,y,z
-x,y,-z
-x,-y,-z
x,-y,z
1/2+x,1/2+y,z
1/2-x,1/2+y,-z
1/2-x,1/2-y,-z
1/2+x,1/2-y,z
loop_
_atom_site_type_symbol
_atom_site_label
_atom_site_fract_x
_atom_site_fract_y
_atom_site_fract_z
Si Si1 0.390981 0.354805 0.646857
Si Si2 0.736674 0.929059 0.159228
Si Si3 0.987716 0.886857 0.425381
Si Si4 0.487201 0.749980 0.181261
Si Si5 0.736679 0.429081 0.159187
Si Si6 0.487771 0.112984 0.425422
Si Si7 0.390993 0.854730 0.646813
Si Si8 0.354305 0.249943 0.347048
O O1 0.595197 0.388820 0.761363
O O2 0.455263 0.307699 0.739422
O O3 0.249930 0.326993 0.500007
O O4 0.217720 0.399525 0.557013
O O5 0.823141 0.928394 0.281091
O O6 0.730791 0.000000 0.134061
O O7 0.500000 0.903985 0.000000
O O8 0.913912 0.815563 0.360093
O O9 0.000000 0.892480 0.500000
O O10 0.217575 0.899377 0.556882
O O11 0.544661 0.807599 0.260600
O O12 0.625424 0.749987 0.218779
O O13 0.250000 0.750000 0.000000
O O14 0.730716 0.500000 0.133911
O O15 0.823205 0.428494 0.281083
O O16 0.904809 0.388809 0.238632
O O17 0.500000 0.404000 0.000000
O O18 0.500000 0.107315 0.500000
O O19 0.413928 0.184294 0.360163
O O20 0.500000 0.249969 0.500000
#
# Coordination Sequence:
#
# PCOD9176855 Si02
#       8
#     8   8   8   8   8   8   8   8
#     4  10  21  38  61  86 118 155 194 230 287 346
#     4  10  24  42  58  81 118 154 195 246 292 336
#     4  10  19  37  65  86 115 153 192 238 280 345
#     4  12  23  34  59  95 125 149 183 239 291 346
#     4  10  24  42  58  81 118 154 195 246 292 336
#     4  10  19  37  65  86 115 153 192 238 280 345
#     4  10  21  38  61  86 118 155 194 230 287 346
#     4  10  18  36  58  86 125 146 180 231 291 342
#
# _framework density 19.435255000000002
#
# number of rings (size 3 to 8) (size 9 to 14) (size 15 to 20)
#    0.000    1.750    5.000    0.375    3.500    8.000 
#    0.000    1.250    0.000    3.750    0.000    0.000 
#    0.000    0.000    0.000    0.000    0.000    0.000 
#
# Total GULP energy -178228.961323 kJ/mol
# GULP energy per Si atom -5569.655041 kJ/mol
# Density = 1.939102 g / cm^3
# Si number density = 19.435255 Si / 1000 Ang^3
#
#
#
# Elastic Constant Matrix: (Units=GPa)
#
#
# Indices 1 2 3 4 5 6 
#
# 1 110.6738 11.2416 51.2149 -0.1090 24.9245 -0.2444
# 2 11.2416 48.0097 13.9500 -0.1795 14.7301 -0.3803
# 3 51.2149 13.9500 155.0841 0.2081 30.5880 0.9414
# 4 -0.1090 -0.1795 0.2081 -7.7487 -0.0759 -65.3233
# 5 24.9245 14.7301 30.5880 -0.0759 42.5964 -0.2187
# 6 -0.2444 -0.3803 0.9414 -65.3233 -0.2187 -164.7744
#
#
#
# Elastic Compliance Matrix: (Units=1/GPa)
#
#
# Indices 1 2 3 4 5 6 
#
# 1 0.011405 -0.000474 -0.002842 -0.000016 -0.004469 -0.000020
# 2 -0.000474 0.023367 -0.000473 0.000037 -0.007464 -0.000061
# 3 -0.002842 -0.000473 0.008235 0.000075 -0.004087 0.000028
# 4 -0.000016 0.000037 0.000075 0.055103 -0.000071 -0.021845
# 5 -0.004469 -0.007464 -0.004087 -0.000071 0.031606 -0.000013
# 6 -0.000020 -0.000061 0.000028 -0.021845 -0.000013 0.002592
#
#
# Mechanical properties :
#
#
# Convention : Reuss Voigt Hill
#
# Bulk Modulus (GPa) = 28.22519 51.84229 40.03374
# Shear Modulus (GPa) = 32.96057 -10.16126 11.39965
#
# Velocity S-wave (km/s) = 4.12262 -2.28902 2.42450
# Velocity P-wave (km/s) = 6.10045 4.44366 5.33674
#
# Compressibility (1/GPa) = 0.03542934
#
# Stress axis : x y z
#
# Youngs Moduli (GPa) = 87.67815 42.79503 121.43233
#
# Poissons Ratio (x) = 0.02028 0.34515
# Poissons Ratio (y) = 0.04154 0.05744
# Poissons Ratio (z) = 0.24921 0.02024
#
# Static dielectric constant tensor:
#      x y z
#    x 1.650360 0.000000 -0.019480 
#    y 0.000000 1.739170 -0.000040 
#    z -0.019480 -0.000040 1.638980 
# 
# From -- ./inp_files/345041.got.cif
#   From: 2010.05.17/outbox.cif.g08.bks.cpg/sg12_173_cif.got.tgz:345041.got - 2010.06.03 13:09:07.
