data_PCOD9176832
_publ_section_title
;
Structure prediction by ZEFSAII (Michael W. Deem and Ramdas Pophale) SiO2 
 PCOD9176832
Probable space group: C 2/M
;
_chemical_formula_sum "Si O2"
_cell_formula_units_Z 48
_cell_length_a 19.632412
_cell_length_b 24.923571
_cell_length_c 5.353565
_cell_angle_alpha 90.000000
_cell_angle_beta 112.351532
_cell_angle_gamma 90.000000
_cell_volume 2422.739881
_symmetry_space_group_name_H-M "C 2/M"
_symmetry_group_IT_number 12
_symmetry_cell_setting 'monoclinic'
loop_
_space_group_symop_operation_xyz
x,y,z
-x,y,-z
-x,-y,-z
x,-y,z
1/2+x,1/2+y,z
1/2-x,1/2+y,-z
1/2-x,1/2-y,-z
1/2+x,1/2-y,z
loop_
_atom_site_type_symbol
_atom_site_label
_atom_site_fract_x
_atom_site_fract_y
_atom_site_fract_z
Si Si1 0.229691 0.183669 0.815006
Si Si2 0.209229 0.500000 0.522252
Si Si3 0.000000 0.849268 0.000000
Si Si4 0.797365 0.386592 0.539663
Si Si5 0.853151 0.107525 0.988649
Si Si6 0.192924 0.000000 0.843949
Si Si7 0.500000 0.723516 0.500000
Si Si8 0.152019 0.720964 0.629716
O O1 0.266621 0.129740 0.764376
O O2 0.192823 0.225992 0.573198
O O3 0.160528 0.162064 0.875058
O O4 0.296591 0.209992 0.058770
O O5 0.165924 0.444385 0.425049
O O6 0.244412 0.500000 0.849382
O O7 0.271039 0.500000 0.383063
O O8 0.073460 0.884981 0.069247
O O9 0.004428 0.812831 0.255832
O O10 0.721686 0.393072 0.277833
O O11 0.841360 0.333976 0.514274
O O12 0.853028 0.054121 0.158714
O O13 0.428900 0.761899 0.409885
#
# Coordination Sequence:
#
# PCOD9176832 Si02
#       8
#     8   4   4   8   8   4   4   8
#     4  10  18  36  57  87 114 151 198 246 293 348
#     4  10  20  36  60  90 115 149 195 248 298 341
#     4  12  26  39  58  82 120 169 198 242 292 348
#     4  10  20  35  61  84 119 150 197 247 296 351
#     4  10  21  36  56  84 120 159 202 243 291 342
#     4  10  20  35  58  84 118 156 200 246 284 340
#     4  12  26  42  58  86 124 158 198 242 300 366
#     4  10  22  34  58  88 115 155 194 245 297 353
#
# _framework density 19.812279
#
# number of rings (size 3 to 8) (size 9 to 14) (size 15 to 20)
#    0.000    1.667    3.333    1.500    2.333    0.333 
#    0.000    0.000    0.000    3.500    0.000    1.167 
#    0.000    0.000    0.000    0.000    0.000    0.000 
#
# Total GULP energy -133657.283214 kJ/mol
# GULP energy per Si atom -5569.053467 kJ/mol
# Density = 1.976719 g / cm^3
# Si number density = 19.812279 Si / 1000 Ang^3
#
#
#
# Elastic Constant Matrix: (Units=GPa)
#
#
# Indices 1 2 3 4 5 6 
#
# 1 80.3685 18.5815 13.5569 0.0000 0.6608 0.0000
# 2 18.5815 93.2841 11.4240 0.0000 11.1945 0.0000
# 3 13.5569 11.4240 41.6809 0.0000 -16.2791 0.0000
# 4 0.0000 0.0000 0.0000 24.0236 0.0000 -7.2362
# 5 0.6608 11.1945 -16.2791 0.0000 14.6384 0.0000
# 6 0.0000 0.0000 0.0000 -7.2362 0.0000 18.3560
#
#
#
# Elastic Compliance Matrix: (Units=1/GPa)
#
#
# Indices 1 2 3 4 5 6 
#
# 1 0.013994 -0.000833 -0.007639 0.000000 -0.008490 0.000000
# 2 -0.000833 0.016565 -0.016268 0.000000 -0.030721 0.000000
# 3 -0.007639 -0.016268 0.063517 0.000000 0.083421 0.000000
# 4 0.000000 0.000000 0.000000 0.047234 0.000000 0.018620
# 5 -0.008490 -0.030721 0.083421 0.000000 0.184961 0.000000
# 6 0.000000 0.000000 0.000000 0.018620 0.000000 0.061818
#
#
# Mechanical properties :
#
#
# Convention : Reuss Voigt Hill
#
# Bulk Modulus (GPa) = 22.42390 33.60646 28.01518
# Shear Modulus (GPa) = 11.05134 22.85503 16.95318
#
# Velocity S-wave (km/s) = 2.36435 3.40012 2.92839
# Velocity P-wave (km/s) = 4.33547 5.69330 5.06014
#
# Compressibility (1/GPa) = 0.04459527
#
# Stress axis : x y z
#
# Youngs Moduli (GPa) = 71.46081 60.36894 15.74392
#
# Poissons Ratio (x) = 0.05030 0.12027
# Poissons Ratio (y) = 0.05954 0.25612
# Poissons Ratio (z) = 0.54589 0.98207
#
# Static dielectric constant tensor:
#      x y z
#    x 1.691100 0.000000 -0.029190 
#    y 0.000000 1.837200 0.000000 
#    z -0.029190 0.000000 1.773880 
# 
# From -- ./inp_files/16926.got.cif
#   From: 2010.05.17/outbox.cif.g08.bks.cpg/sg12_9_cif.got.tgz:16926.got - 2010.06.03 13:09:07.
