data_PCOD9176499
_publ_section_title
;
Structure prediction by ZEFSAII (Michael W. Deem and Ramdas Pophale) SiO2 
 PCOD9176499
Probable space group: C 2/M
;
_chemical_formula_sum "Si O2"
_cell_formula_units_Z 56
_cell_length_a 20.300963
_cell_length_b 18.300938
_cell_length_c 19.938674
_cell_angle_alpha 90.000000
_cell_angle_beta 159.260038
_cell_angle_gamma 90.000000
_cell_volume 2623.285436
_symmetry_space_group_name_H-M "C 2/M"
_symmetry_group_IT_number 12
_symmetry_cell_setting 'monoclinic'
loop_
_space_group_symop_operation_xyz
x,y,z
-x,y,-z
-x,-y,-z
x,-y,z
1/2+x,1/2+y,z
1/2-x,1/2+y,-z
1/2-x,1/2-y,-z
1/2+x,1/2-y,z
loop_
_atom_site_type_symbol
_atom_site_label
_atom_site_fract_x
_atom_site_fract_y
_atom_site_fract_z
Si Si1 0.844650 0.186500 0.904306
Si Si2 0.671416 0.916731 0.381613
Si Si3 0.532118 0.230703 0.438575
Si Si4 0.314524 0.921264 0.453678
Si Si5 0.363282 0.583888 0.041979
Si Si6 0.088681 0.289442 0.226595
Si Si7 0.504144 0.308597 0.733364
O O1 0.653944 0.221108 0.695550
O O2 0.794261 0.120928 0.907586
O O3 0.000000 0.160284 0.000000
O O4 0.945979 0.250479 0.042180
O O5 0.598901 0.917442 0.388978
O O6 0.551453 0.871534 0.214539
O O7 0.858560 0.868687 0.567501
O O8 0.706463 0.000000 0.395890
O O9 0.623324 0.150734 0.523762
O O10 0.708184 0.283650 0.613714
O O11 0.454981 0.256491 0.290748
O O12 0.089991 0.919187 0.248326
O O13 0.363115 0.000000 0.469788
O O14 0.304076 0.500000 0.997544
O O15 0.339937 0.642408 0.080398
O O16 0.084291 0.241025 0.291342
#
# Coordination Sequence:
#
# PCOD9176499 Si02
#       7
#     8   8   8   8   8   8   8
#     4  11  25  37  52  74  99 142 196 222 244 293
#     4   9  14  25  52  81 110 136 158 196 258 330
#     4  11  18  33  57  75 104 140 167 217 264 306
#     4   9  15  28  51  80 108 137 163 197 263 324
#     4   9  18  34  53  75 113 140 161 215 265 305
#     4  10  18  35  52  78 110 131 169 216 267 309
#     4   9  15  29  53  83 109 132 162 205 266 326
#
# _framework density 21.347276000000001
#
# number of rings (size 3 to 8) (size 9 to 14) (size 15 to 20)
#    0.000    2.286    5.714    2.143    0.000    3.714 
#    0.000    0.000    0.000    5.571    0.000    4.000 
#    0.000    0.000    0.000    0.000    0.000    0.000 
#
# Total GULP energy -156133.417352 kJ/mol
# GULP energy per Si atom -5576.193477 kJ/mol
# Density = 2.129869 g / cm^3
# Si number density = 21.347276 Si / 1000 Ang^3
#
#
#
# Elastic Constant Matrix: (Units=GPa)
#
#
# Indices 1 2 3 4 5 6 
#
# 1 51.2492 17.9127 4.4665 -0.0150 12.0228 -0.0037
# 2 17.9127 130.8468 2.3725 -0.0303 -3.5988 -0.0199
# 3 4.4665 2.3725 65.0377 -0.0400 13.1314 -0.0110
# 4 -0.0150 -0.0303 -0.0400 15.7020 -0.0132 -5.1444
# 5 12.0228 -3.5988 13.1314 -0.0132 24.6420 -0.0016
# 6 -0.0037 -0.0199 -0.0110 -5.1444 -0.0016 15.2818
#
#
#
# Elastic Compliance Matrix: (Units=1/GPa)
#
#
# Indices 1 2 3 4 5 6 
#
# 1 0.023641 -0.003603 0.001057 0.000009 -0.012624 0.000003
# 2 -0.003603 0.008241 -0.000730 0.000019 0.003350 0.000016
# 3 0.001057 -0.000730 0.017319 0.000044 -0.009851 0.000026
# 4 0.000009 0.000019 0.000044 0.071581 0.000015 0.024097
# 5 -0.012624 0.003350 -0.009851 0.000015 0.052479 0.000005
# 6 0.000003 0.000016 0.000026 0.024097 0.000005 0.073549
#
#
# Mechanical properties :
#
#
# Convention : Reuss Voigt Hill
#
# Bulk Modulus (GPa) = 23.44694 32.95968 28.20331
# Shear Modulus (GPa) = 18.68615 25.95063 22.31839
#
# Velocity S-wave (km/s) = 2.96183 3.49039 3.23691
# Velocity P-wave (km/s) = 4.76487 5.63179 5.21637
#
# Compressibility (1/GPa) = 0.04264949
#
# Stress axis : x y z
#
# Youngs Moduli (GPa) = 42.29912 121.34274 57.74098
#
# Poissons Ratio (x) = 0.43717 -0.06101
# Poissons Ratio (y) = 0.15239 0.04213
# Poissons Ratio (z) = -0.04469 0.08853
#
# Static dielectric constant tensor:
#      x y z
#    x 1.842210 -0.000010 -0.013420 
#    y -0.000010 1.760300 -0.000010 
#    z -0.013420 -0.000010 1.894650 
# 
# From -- ./inp_files/322741.got.cif
#   From: 2010.05.17/outbox.cif.g08.bks.cpg/sg12_162_cif.got.tgz:322741.got - 2010.06.03 13:09:07.
