data_PCOD9176717
_publ_section_title
;
Structure prediction by ZEFSAII (Michael W. Deem and Ramdas Pophale) SiO2 
 PCOD9176717
Probable space group: C 2/M
;
_chemical_formula_sum "Si O2"
_cell_formula_units_Z 44
_cell_length_a 28.522274
_cell_length_b 8.067355
_cell_length_c 9.565515
_cell_angle_alpha 90.000000
_cell_angle_beta 119.022446
_cell_angle_gamma 90.000000
_cell_volume 1924.635886
_symmetry_space_group_name_H-M "C 2/M"
_symmetry_group_IT_number 12
_symmetry_cell_setting 'monoclinic'
loop_
_space_group_symop_operation_xyz
x,y,z
-x,y,-z
-x,-y,-z
x,-y,z
1/2+x,1/2+y,z
1/2-x,1/2+y,-z
1/2-x,1/2-y,-z
1/2+x,1/2-y,z
loop_
_atom_site_type_symbol
_atom_site_label
_atom_site_fract_x
_atom_site_fract_y
_atom_site_fract_z
Si Si1 0.426795 0.805371 0.118163
Si Si2 0.500000 0.749036 0.000000
Si Si3 0.400438 0.186895 0.664096
Si Si4 0.726129 0.299697 0.815953
Si Si5 0.823973 0.299905 0.785130
Si Si6 0.103645 0.193304 0.635628
O O1 0.466761 0.689273 0.087800
O O2 0.427318 0.780626 0.283980
O O3 0.440003 0.000000 0.107732
O O4 0.367073 0.771462 0.972044
O O5 0.550888 0.823372 0.156013
O O6 0.350878 0.263211 0.680660
O O7 0.417462 0.282976 0.551008
O O8 0.386996 0.000000 0.601183
O O9 0.725893 0.500000 0.807121
O O10 0.766505 0.237792 0.753437
O O11 0.665041 0.242408 0.717472
O O12 0.750000 0.250000 0.000000
O O13 0.821362 0.500000 0.765308
O O14 0.105024 0.000000 0.673649
#
# Coordination Sequence:
#
# PCOD9176717 Si02
#       6
#     8   4   8   8   8   8
#     4  10  18  35  62  86 109 141 189 240 282 328
#     4  10  21  40  67  90 103 136 197 252 285 320
#     4  10  20  38  61  84 110 143 189 240 285 329
#     4  10  19  34  56  83 115 150 187 228 273 329
#     4   8  16  32  57  83 108 143 187 231 275 322
#     4  11  24  37  52  84 125 152 181 226 278 340
#
# _framework density 22.861464999999999
#
# number of rings (size 3 to 8) (size 9 to 14) (size 15 to 20)
#    0.000    2.182    1.818    3.273    0.000    2.182 
#    0.000    9.091    0.000    0.000    0.000    0.000 
#    0.000    0.000    0.000    0.000    0.000    0.000 
#
# Total GULP energy -122610.811199 kJ/mol
# GULP energy per Si atom -5573.218691 kJ/mol
# Density = 2.280943 g / cm^3
# Si number density = 22.861465 Si / 1000 Ang^3
#
#
#
# Elastic Constant Matrix: (Units=GPa)
#
#
# Indices 1 2 3 4 5 6 
#
# 1 148.1201 22.5441 39.1121 0.0000 -34.7270 0.0000
# 2 22.5441 35.1298 10.6644 0.0000 -4.4309 0.0000
# 3 39.1121 10.6644 94.2776 0.0000 -27.6887 0.0000
# 4 0.0000 0.0000 0.0000 111.1541 0.0000 -262.0373
# 5 -34.7270 -4.4309 -27.6887 0.0000 40.6565 0.0000
# 6 0.0000 0.0000 0.0000 -262.0373 0.0000 629.2101
#
#
#
# Elastic Compliance Matrix: (Units=1/GPa)
#
#
# Indices 1 2 3 4 5 6 
#
# 1 0.009384 -0.004763 -0.001441 0.000000 0.006515 0.000000
# 2 -0.004763 0.031941 -0.002262 0.000000 -0.002128 0.000000
# 3 -0.001441 -0.002262 0.013784 0.000000 0.007910 0.000000
# 4 0.000000 0.000000 0.000000 0.493195 0.000000 0.205393
# 5 0.006515 -0.002128 0.007910 0.000000 0.035316 0.000000
# 6 0.000000 0.000000 0.000000 0.205393 0.000000 0.087126
#
#
# Mechanical properties :
#
#
# Convention : Reuss Voigt Hill
#
# Bulk Modulus (GPa) = 26.19389 46.90766 36.55077
# Shear Modulus (GPa) = 7.13874 169.88462 88.51168
#
# Velocity S-wave (km/s) = 1.76901 8.62970 6.22901
# Velocity P-wave (km/s) = 3.95665 10.94799 8.23145
#
# Compressibility (1/GPa) = 0.03817685
#
# Stress axis : x y z
#
# Youngs Moduli (GPa) = 106.56229 31.30797 72.54937
#
# Poissons Ratio (x) = 0.14912 0.10454
# Poissons Ratio (y) = 0.50756 0.16411
# Poissons Ratio (z) = 0.15354 0.07082
#
# Static dielectric constant tensor:
#      x y z
#    x 1.888580 0.000000 -0.010920 
#    y 0.000000 1.839390 0.000000 
#    z -0.010920 0.000000 1.822810 
# 
# From -- ./inp_files/108896.got.cif
#   From: 2010.05.17/outbox.cif.g08.bks.cpg/sg12_55_cif.got.tgz:108896.got - 2010.06.03 13:09:07.
