data_PCOD9176729
_publ_section_title
;
Structure prediction by ZEFSAII (Michael W. Deem and Ramdas Pophale) SiO2 
 PCOD9176729
Probable space group: C 2/M
;
_chemical_formula_sum "Si O2"
_cell_formula_units_Z 40
_cell_length_a 18.214767
_cell_length_b 13.857556
_cell_length_c 10.759384
_cell_angle_alpha 90.000000
_cell_angle_beta 139.473123
_cell_angle_gamma 90.000000
_cell_volume 1764.739080
_symmetry_space_group_name_H-M "C 2/M"
_symmetry_group_IT_number 12
_symmetry_cell_setting 'monoclinic'
loop_
_space_group_symop_operation_xyz
x,y,z
-x,y,-z
-x,-y,-z
x,-y,z
1/2+x,1/2+y,z
1/2-x,1/2+y,-z
1/2-x,1/2-y,-z
1/2+x,1/2-y,z
loop_
_atom_site_type_symbol
_atom_site_label
_atom_site_fract_x
_atom_site_fract_y
_atom_site_fract_z
Si Si1 0.378713 0.780931 0.665119
Si Si2 0.047729 0.891312 0.922339
Si Si3 0.280233 0.217617 0.178587
Si Si4 0.029447 0.389311 0.706106
Si Si5 0.171376 0.387385 0.149380
O O1 0.250000 0.750000 0.500000
O O2 0.464663 0.690829 0.761360
O O3 0.408108 0.847959 0.586625
O O4 0.387611 0.840983 0.805601
O O5 0.044125 0.000000 0.862710
O O6 0.175600 0.850432 0.085994
O O7 0.000000 0.898538 0.000000
O O8 0.396611 0.164003 0.301769
O O9 0.275552 0.315459 0.253186
O O10 0.250000 0.250000 0.000000
O O11 0.023382 0.500000 0.667177
O O12 0.095409 0.382417 0.926046
O O13 0.198238 0.500000 0.205924
#
# Coordination Sequence:
#
# PCOD9176729 Si02
#       5
#     8   8   8   8   8
#     4  12  23  38  57  83 123 157 192 236 289 352
#     4  11  21  37  60  83 112 152 196 243 292 342
#     4  10  18  35  62  90 115 139 189 251 297 334
#     4  10  20  37  65  91 113 148 196 247 291 340
#     4  10  20  37  64  89 111 146 197 247 288 336
#
# _framework density 22.666240999999999
#
# number of rings (size 3 to 8) (size 9 to 14) (size 15 to 20)
#    0.000    1.400    6.000    1.800    0.000    4.000 
#    0.000    1.000    0.000    2.400    0.000    0.000 
#    0.000    0.000    0.000    0.000    0.000    0.000 
#
# Total GULP energy -111702.220046 kJ/mol
# GULP energy per Si atom -5585.111002 kJ/mol
# Density = 2.261465 g / cm^3
# Si number density = 22.666241 Si / 1000 Ang^3
#
#
#
# Elastic Constant Matrix: (Units=GPa)
#
#
# Indices 1 2 3 4 5 6 
#
# 1 193.6687 83.0123 50.7601 0.0000 23.9172 0.0000
# 2 83.0123 199.4963 41.5685 0.0000 27.0759 0.0000
# 3 50.7601 41.5685 76.1990 0.0000 21.2549 0.0000
# 4 0.0000 0.0000 0.0000 11.4943 0.0000 4.2618
# 5 23.9172 27.0759 21.2549 0.0000 54.8127 0.0000
# 6 0.0000 0.0000 0.0000 4.2618 0.0000 30.6951
#
#
#
# Elastic Compliance Matrix: (Units=1/GPa)
#
#
# Indices 1 2 3 4 5 6 
#
# 1 0.007040 -0.002139 -0.003320 0.000000 -0.000728 0.000000
# 2 -0.002139 0.006467 -0.001651 0.000000 -0.001621 0.000000
# 3 -0.003320 -0.001651 0.017497 0.000000 -0.004521 0.000000
# 4 0.000000 0.000000 0.000000 0.091722 0.000000 -0.012735
# 5 -0.000728 -0.001621 -0.004521 0.000000 0.021115 0.000000
# 6 0.000000 0.000000 0.000000 -0.012735 0.000000 0.034347
#
#
# Mechanical properties :
#
#
# Convention : Reuss Voigt Hill
#
# Bulk Modulus (GPa) = 59.57957 91.11621 75.34789
# Shear Modulus (GPa) = 25.25238 39.00196 32.12717
#
# Velocity S-wave (km/s) = 3.34143 4.15264 3.76892
# Velocity P-wave (km/s) = 6.42102 7.95480 7.22871
#
# Compressibility (1/GPa) = 0.01678428
#
# Stress axis : x y z
#
# Youngs Moduli (GPa) = 142.03822 154.64058 57.15382
#
# Poissons Ratio (x) = 0.33077 0.18975
# Poissons Ratio (y) = 0.30382 0.09434
# Poissons Ratio (z) = 0.47157 0.25526
#
# Static dielectric constant tensor:
#      x y z
#    x 1.813900 0.000000 -0.007290 
#    y 0.000000 1.868860 0.000000 
#    z -0.007290 0.000000 1.826980 
# 
# From -- ./inp_files/155594.got.cif
#   From: 2010.05.17/outbox.cif.g08.bks.cpg/sg12_78_cif.got.tgz:155594.got - 2010.06.03 13:09:07.
