data_PCOD9176548
_publ_section_title
;
Structure prediction by ZEFSAII (Michael W. Deem and Ramdas Pophale) SiO2 
 PCOD9176548
Probable space group: C 2/M
;
_chemical_formula_sum "Si O2"
_cell_formula_units_Z 56
_cell_length_a 16.495418
_cell_length_b 19.024529
_cell_length_c 7.793423
_cell_angle_alpha 90.000000
_cell_angle_beta 104.453849
_cell_angle_gamma 90.000000
_cell_volume 2368.303724
_symmetry_space_group_name_H-M "C 2/M"
_symmetry_group_IT_number 12
_symmetry_cell_setting 'monoclinic'
loop_
_space_group_symop_operation_xyz
x,y,z
-x,y,-z
-x,-y,-z
x,-y,z
1/2+x,1/2+y,z
1/2-x,1/2+y,-z
1/2-x,1/2-y,-z
1/2+x,1/2-y,z
loop_
_atom_site_type_symbol
_atom_site_label
_atom_site_fract_x
_atom_site_fract_y
_atom_site_fract_z
Si Si1 0.581257 0.920645 0.162558
Si Si2 0.844043 0.692697 0.599571
Si Si3 0.391447 0.420765 0.925412
Si Si4 0.265415 0.871467 0.988231
Si Si5 0.295866 0.246420 0.250163
Si Si6 0.939663 0.083732 0.319336
Si Si7 0.307109 0.583148 0.536687
O O1 0.581392 0.855010 0.292759
O O2 0.585987 0.000000 0.238191
O O3 0.500000 0.917817 0.000000
O O4 0.666217 0.905952 0.098284
O O5 0.797148 0.740220 0.717505
O O6 0.856877 0.742621 0.444216
O O7 0.773048 0.634243 0.508913
O O8 0.418490 0.500000 0.911247
O O9 0.442694 0.391728 0.120402
O O10 0.297709 0.423362 0.955353
O O11 0.370983 0.393385 0.722584
O O12 0.310957 0.824747 0.155970
O O13 0.204128 0.811189 0.877476
O O14 0.850725 0.086992 0.372990
O O15 0.000000 0.113565 0.500000
O O16 0.957590 0.000000 0.316266
O O17 0.287016 0.500000 0.553728
#
# Coordination Sequence:
#
# PCOD9176548 Si02
#       7
#     8   8   8   8   8   8   8
#     4  10  21  36  57  85 119 158 190 230 300 368
#     4  10  18  35  56  81 109 136 190 239 277 341
#     4  10  19  31  53  81 105 136 179 232 286 336
#     4  10  18  35  56  81 109 136 190 239 277 341
#     4   9  19  31  57  81  98 139 178 233 284 319
#     4   9  18  31  46  70 105 139 167 201 260 333
#     4  10  19  31  53  81 105 136 179 232 286 336
#
# _framework density 23.645617999999999
#
# number of rings (size 3 to 8) (size 9 to 14) (size 15 to 20)
#    0.000    2.286    1.429    2.571    0.000    1.714 
#    0.000    3.571    0.000   29.143    0.000    0.000 
#    0.000    0.000    0.000    0.000    0.000    0.000 
#
# Total GULP energy -155961.117949 kJ/mol
# GULP energy per Si atom -5570.039927 kJ/mol
# Density = 2.359180 g / cm^3
# Si number density = 23.645618 Si / 1000 Ang^3
#
#
#
# Elastic Constant Matrix: (Units=GPa)
#
#
# Indices 1 2 3 4 5 6 
#
# 1 35.7274 7.1191 8.7738 0.0000 4.1100 0.0000
# 2 7.1191 74.5281 12.7582 0.0000 6.7965 0.0000
# 3 8.7738 12.7582 133.3375 0.0000 -14.4826 0.0000
# 4 0.0000 0.0000 0.0000 37.2207 0.0000 1.9537
# 5 4.1100 6.7965 -14.4826 0.0000 39.2907 0.0000
# 6 0.0000 0.0000 0.0000 1.9537 0.0000 13.8026
#
#
#
# Elastic Compliance Matrix: (Units=1/GPa)
#
#
# Indices 1 2 3 4 5 6 
#
# 1 0.029330 -0.002124 -0.002104 0.000000 -0.003476 0.000000
# 2 -0.002124 0.014134 -0.001515 0.000000 -0.002781 0.000000
# 3 -0.002104 -0.001515 0.008162 0.000000 0.003491 0.000000
# 4 0.000000 0.000000 0.000000 0.027068 0.000000 -0.003831
# 5 -0.003476 -0.002781 0.003491 0.000000 0.027583 0.000000
# 6 0.000000 0.000000 0.000000 -0.003831 0.000000 0.072992
#
#
# Mechanical properties :
#
#
# Convention : Reuss Voigt Hill
#
# Bulk Modulus (GPa) = 24.91340 33.43278 29.17309
# Shear Modulus (GPa) = 24.49364 32.39228 28.44296
#
# Velocity S-wave (km/s) = 3.22198 3.70524 3.47203
# Velocity P-wave (km/s) = 4.93969 5.69867 5.33270
#
# Compressibility (1/GPa) = 0.04013904
#
# Stress axis : x y z
#
# Youngs Moduli (GPa) = 34.09520 70.75353 122.51452
#
# Poissons Ratio (x) = 0.15031 0.25780
# Poissons Ratio (y) = 0.07243 0.18556
# Poissons Ratio (z) = 0.07174 0.10716
#
# Static dielectric constant tensor:
#      x y z
#    x 1.920770 0.000000 0.050400 
#    y 0.000000 1.933660 0.000000 
#    z 0.050400 0.000000 2.039860 
# 
# From -- ./inp_files/77646.got.cif
#   From: 2010.05.17/outbox.cif.g08.bks.cpg/sg12_39_cif.got.tgz:77646.got - 2010.06.03 13:09:07.
