data_PCOD9176944
_publ_section_title
;
Structure prediction by ZEFSAII (Michael W. Deem and Ramdas Pophale) SiO2 
 PCOD9176944
Probable space group: C 2/M
;
_chemical_formula_sum "Si O2"
_cell_formula_units_Z 52
_cell_length_a 27.033582
_cell_length_b 21.750229
_cell_length_c 5.295605
_cell_angle_alpha 90.000000
_cell_angle_beta 49.580788
_cell_angle_gamma 90.000000
_cell_volume 2370.559105
_symmetry_space_group_name_H-M "C 2/M"
_symmetry_group_IT_number 12
_symmetry_cell_setting 'monoclinic'
loop_
_space_group_symop_operation_xyz
x,y,z
-x,y,-z
-x,-y,-z
x,-y,z
1/2+x,1/2+y,z
1/2-x,1/2+y,-z
1/2-x,1/2-y,-z
1/2+x,1/2-y,z
loop_
_atom_site_type_symbol
_atom_site_label
_atom_site_fract_x
_atom_site_fract_y
_atom_site_fract_z
Si Si1 0.086174 0.568754 0.635141
Si Si2 0.146850 0.068599 0.524728
Si Si3 0.226167 0.390679 0.191346
Si Si4 0.308823 0.783876 0.034834
Si Si5 0.044420 0.000000 0.601704
Si Si6 0.688814 0.334253 0.713110
Si Si7 0.566691 0.144440 0.198551
O O1 0.063462 0.500000 0.744920
O O2 0.163844 0.567978 0.403221
O O3 0.071617 0.593344 0.403105
O O4 0.062806 0.613720 0.936758
O O5 0.134690 0.126316 0.749130
O O6 0.147806 0.000000 0.644395
O O7 0.093534 0.057946 0.480272
O O8 0.217327 0.083983 0.176393
O O9 0.261237 0.383738 0.340465
O O10 0.197015 0.324085 0.199986
O O11 0.327070 0.712174 0.004541
O O12 0.234922 0.793866 0.378926
O O13 0.366896 0.816846 0.997490
O O14 0.000000 0.000000 0.500000
O O15 0.000000 0.000000 0.000000
O O16 0.500000 0.178959 0.500000
#
# Coordination Sequence:
#
# PCOD9176944 Si02
#       7
#     8   8   8   8   4   8   8
#     4  11  23  38  60  92 126 165 212 261 313 374
#     4   9  22  35  60  95 122 168 207 266 330 388
#     4  10  19  35  58  94 126 162 204 275 325 379
#     4   9  20  36  57  90 118 161 211 262 327 378
#     4  10  24  44  66  88 130 180 213 255 323 405
#     4  10  18  36  63  88 122 154 211 267 328 382
#     4  11  23  41  60  84 124 172 214 257 311 376
#
# _framework density 21.935752999999998
#
# number of rings (size 3 to 8) (size 9 to 14) (size 15 to 20)
#    0.462    1.538    1.538    1.846    2.154    3.077 
#    0.000    0.000    3.385    0.000    0.000    0.000 
#    0.000    0.000    0.000    0.000    0.000    0.000 
#
# Total GULP energy -144767.523034 kJ/mol
# GULP energy per Si atom -5567.981655 kJ/mol
# Density = 2.188583 g / cm^3
# Si number density = 21.935753 Si / 1000 Ang^3
#
#
#
# Elastic Constant Matrix: (Units=GPa)
#
#
# Indices 1 2 3 4 5 6 
#
# 1 140.5205 57.4285 24.3494 0.0000 7.9604 0.0000
# 2 57.4285 98.0001 15.5045 0.0000 -1.3717 0.0000
# 3 24.3494 15.5045 72.2663 0.0000 -4.3940 0.0000
# 4 0.0000 0.0000 0.0000 -11.1321 0.0000 6.1250
# 5 7.9604 -1.3717 -4.3940 0.0000 32.6384 0.0000
# 6 0.0000 0.0000 0.0000 6.1250 0.0000 19.4860
#
#
#
# Elastic Compliance Matrix: (Units=1/GPa)
#
#
# Indices 1 2 3 4 5 6 
#
# 1 0.009937 -0.005493 -0.002350 0.000000 -0.002971 0.000000
# 2 -0.005493 0.013599 -0.000959 0.000000 0.001782 0.000000
# 3 -0.002350 -0.000959 0.014990 0.000000 0.002551 0.000000
# 4 0.000000 0.000000 0.000000 -0.076585 0.000000 0.024073
# 5 -0.002971 0.001782 0.002551 0.000000 0.031782 0.000000
# 6 0.000000 0.000000 0.000000 0.024073 0.000000 0.043752
#
#
# Mechanical properties :
#
#
# Convention : Reuss Voigt Hill
#
# Bulk Modulus (GPa) = 47.79359 56.15018 51.97188
# Shear Modulus (GPa) = 80.57648 22.43210 51.50429
#
# Velocity S-wave (km/s) = 6.06735 3.20132 4.85083
# Velocity P-wave (km/s) = 8.42133 6.27039 7.42417
#
# Compressibility (1/GPa) = 0.02092331
#
# Stress axis : x y z
#
# Youngs Moduli (GPa) = 100.63671 73.53249 66.70942
#
# Poissons Ratio (x) = 0.40389 0.15679
# Poissons Ratio (y) = 0.55277 0.06395
# Poissons Ratio (z) = 0.23652 0.07049
#
# Static dielectric constant tensor:
#      x y z
#    x 1.830010 0.000000 -0.000040 
#    y 0.000000 1.835850 0.000000 
#    z -0.000040 0.000000 1.872450 
# 
# From -- ./inp_files/29279.got.cif
#   From: 2010.05.17/outbox.cif.g08.bks.cpg/sg12_15_cif.got.tgz:29279.got - 2010.06.03 13:09:07.
