data_PCOD9176426
_publ_section_title
;
Structure prediction by ZEFSAII (Michael W. Deem and Ramdas Pophale) SiO2 
 PCOD9176426
Probable space group: C 2/M
;
_chemical_formula_sum "Si O2"
_cell_formula_units_Z 44
_cell_length_a 16.395807
_cell_length_b 12.848265
_cell_length_c 7.951572
_cell_angle_alpha 90.000000
_cell_angle_beta 89.923136
_cell_angle_gamma 90.000000
_cell_volume 1675.058149
_symmetry_space_group_name_H-M "C 2/M"
_symmetry_group_IT_number 12
_symmetry_cell_setting 'monoclinic'
loop_
_space_group_symop_operation_xyz
x,y,z
-x,y,-z
-x,-y,-z
x,-y,z
1/2+x,1/2+y,z
1/2-x,1/2+y,-z
1/2-x,1/2-y,-z
1/2+x,1/2-y,z
loop_
_atom_site_type_symbol
_atom_site_label
_atom_site_fract_x
_atom_site_fract_y
_atom_site_fract_z
Si Si1 0.699129 0.500000 0.425137
Si Si2 0.140189 0.608366 0.530932
Si Si3 0.597137 0.333614 0.636495
Si Si4 0.374149 0.882574 0.863279
Si Si5 0.797772 0.877790 0.032705
Si Si6 0.948569 0.166915 0.842910
O O1 0.771826 0.588942 0.387872
O O2 0.640397 0.409420 0.507298
O O3 0.092993 0.500000 0.567989
O O4 0.098542 0.714061 0.580351
O O5 0.155331 0.611194 0.330138
O O6 0.651025 0.336921 0.808506
O O7 0.504868 0.361713 0.687659
O O8 0.296251 0.841957 0.970446
O O9 0.440473 0.791787 0.860432
O O10 0.398605 0.000000 0.914689
O O11 0.786642 0.000000 0.069149
O O12 0.856716 0.873331 0.869431
O O13 0.000000 0.125279 0.000000
#
# Coordination Sequence:
#
# PCOD9176426 Si02
#       6
#     4   8   8   8   8   8
#     4  10  18  34  61  90 108 152 187 237 277 337
#     4   9  20  34  62  88 108 151 192 231 279 334
#     4  11  19  35  58  92 115 142 189 234 288 333
#     4  10  19  38  60  80 113 152 196 232 273 339
#     4  10  19  37  62  83 108 153 196 229 278 340
#     4  10  24  34  55  86 115 150 182 240 288 334
#
# _framework density 26.267747
#
# number of rings (size 3 to 8) (size 9 to 14) (size 15 to 20)
#    0.545    1.455    2.727    1.091    1.273    2.909 
#    0.000    4.545    2.000    2.182    0.000    0.000 
#    0.000    0.000    0.000    0.000    0.000    0.000 
#
# Total GULP energy -122549.856810 kJ/mol
# GULP energy per Si atom -5570.448037 kJ/mol
# Density = 2.620796 g / cm^3
# Si number density = 26.267747 Si / 1000 Ang^3
#
#
#
# Elastic Constant Matrix: (Units=GPa)
#
#
# Indices 1 2 3 4 5 6 
#
# 1 87.2171 -7.6254 26.2382 0.0000 -4.4909 0.0000
# 2 -7.6254 88.6996 -8.8968 0.0000 -3.2006 0.0000
# 3 26.2382 -8.8968 78.1716 0.0000 -12.6694 0.0000
# 4 0.0000 0.0000 0.0000 9.0838 0.0000 -31.2329
# 5 -4.4909 -3.2006 -12.6694 0.0000 42.6888 0.0000
# 6 0.0000 0.0000 0.0000 -31.2329 0.0000 99.5805
#
#
#
# Elastic Compliance Matrix: (Units=1/GPa)
#
#
# Indices 1 2 3 4 5 6 
#
# 1 0.012794 0.000685 -0.004192 0.000000 0.000153 0.000000
# 2 0.000685 0.011510 0.001294 0.000000 0.001319 0.000000
# 3 -0.004192 0.001294 0.015013 0.000000 0.004112 0.000000
# 4 0.000000 0.000000 0.000000 -1.403923 0.000000 -0.440334
# 5 0.000153 0.001319 0.004112 0.000000 0.024761 0.000000
# 6 0.000000 0.000000 0.000000 -0.440334 0.000000 -0.128066
#
#
# Mechanical properties :
#
#
# Convention : Reuss Voigt Hill
#
# Bulk Modulus (GPa) = 28.65975 30.39114 29.52545
# Shear Modulus (GPa) = -3.44387 46.56211 21.55912
#
# Velocity S-wave (km/s) = -1.14626 4.21479 2.86797
# Velocity P-wave (km/s) = 3.03025 5.93976 4.71504
#
# Compressibility (1/GPa) = 0.03489213
#
# Stress axis : x y z
#
# Youngs Moduli (GPa) = 78.15903 86.87889 66.60931
#
# Poissons Ratio (x) = -0.05951 0.27920
# Poissons Ratio (y) = -0.05354 -0.08618
# Poissons Ratio (z) = 0.32761 -0.11241
#
# Static dielectric constant tensor:
#      x y z
#    x 2.029870 0.000000 0.045030 
#    y 0.000000 2.008330 0.000000 
#    z 0.045030 0.000000 2.110480 
# 
# From -- ./inp_files/73036.got.cif
#   From: 2010.05.17/outbox.cif.g08.bks.cpg/sg12_37_cif.got.tgz:73036.got - 2010.06.03 13:09:07.
