data_PCOD9176877
_publ_section_title
;
Structure prediction by ZEFSAII (Michael W. Deem and Ramdas Pophale) SiO2 
 PCOD9176877
Probable space group: C 2/M
;
_chemical_formula_sum "Si O2"
_cell_formula_units_Z 54
_cell_length_a 14.675067
_cell_length_b 18.105257
_cell_length_c 10.682811
_cell_angle_alpha 90.000000
_cell_angle_beta 120.291524
_cell_angle_gamma 90.000000
_cell_volume 2450.855319
_symmetry_space_group_name_H-M "C 2/M"
_symmetry_group_IT_number 12
_symmetry_cell_setting 'monoclinic'
loop_
_space_group_symop_operation_xyz
x,y,z
-x,y,-z
-x,-y,-z
x,-y,z
1/2+x,1/2+y,z
1/2-x,1/2+y,-z
1/2-x,1/2-y,-z
1/2+x,1/2-y,z
loop_
_atom_site_type_symbol
_atom_site_label
_atom_site_fract_x
_atom_site_fract_y
_atom_site_fract_z
Si Si1 0.500000 0.500000 0.000000
Si Si2 0.000000 0.298307 0.500000
Si Si3 0.878171 0.240979 0.187108
Si Si4 0.884038 0.420396 0.553578
Si Si5 0.833998 0.858665 0.545278
Si Si6 0.547367 0.419842 0.780317
Si Si7 0.988865 0.356048 0.858329
Si Si8 0.217279 0.254465 0.276525
O O1 0.491146 0.437165 0.105489
O O2 0.968571 0.253948 0.356027
O O3 0.906424 0.354257 0.473383
O O4 0.769472 0.263184 0.179559
O O5 0.880827 0.153365 0.164381
O O6 0.917099 0.298647 0.109571
O O7 0.896843 0.500000 0.503313
O O8 0.766100 0.412881 0.523936
O O9 0.966073 0.407809 0.723876
O O10 0.945010 0.899944 0.625449
O O11 0.821960 0.813178 0.666374
O O12 0.807203 0.800160 0.416929
O O13 0.594231 0.500000 0.770987
O O14 0.883566 0.306922 0.799080
O O15 0.000000 0.394279 0.000000
#
# Coordination Sequence:
#
# PCOD9176877 Si02
#       8
#     2   4   8   8   8   8   8   8
#     4   8  24  40  56  86 124 170 202 232 296 372
#     4  10  19  34  55  90 120 146 194 254 305 348
#     4  11  20  35  63  87 122 157 200 254 299 362
#     4  10  20  35  59  83 115 152 194 252 303 357
#     4  10  18  36  59  90 119 151 195 253 313 354
#     4  10  21  37  60  87 119 166 197 241 301 361
#     4  10  23  38  57  84 117 163 204 245 304 358
#     4  10  20  36  59  92 120 149 200 258 303 360
#
# _framework density 22.033124999999998
#
# number of rings (size 3 to 8) (size 9 to 14) (size 15 to 20)
#    0.444    1.481    2.963    1.556    1.037    0.889 
#    0.000    6.296    0.000    0.000    0.000    0.000 
#    0.000    0.000    0.000    0.000    0.000    0.000 
#
# Total GULP energy -150361.072633 kJ/mol
# GULP energy per Si atom -5568.928616 kJ/mol
# Density = 2.198298 g / cm^3
# Si number density = 22.033125 Si / 1000 Ang^3
#
#
#
# Elastic Constant Matrix: (Units=GPa)
#
#
# Indices 1 2 3 4 5 6 
#
# 1 60.6524 -3.1948 -5.0913 0.0000 -9.6535 0.0000
# 2 -3.1948 100.4218 4.9994 0.0000 -11.3356 0.0000
# 3 -5.0913 4.9994 52.3049 0.0000 -10.7076 0.0000
# 4 0.0000 0.0000 0.0000 10.8120 0.0000 -2.2470
# 5 -9.6535 -11.3356 -10.7076 0.0000 23.3564 0.0000
# 6 0.0000 0.0000 0.0000 -2.2470 0.0000 12.0849
#
#
#
# Elastic Compliance Matrix: (Units=1/GPa)
#
#
# Indices 1 2 3 4 5 6 
#
# 1 0.018487 0.001542 0.003719 0.000000 0.010095 0.000000
# 2 0.001542 0.010664 0.000354 0.000000 0.005975 0.000000
# 3 0.003719 0.000354 0.021847 0.000000 0.011725 0.000000
# 4 0.000000 0.000000 0.000000 0.096208 0.000000 0.017888
# 5 0.010095 0.005975 0.011725 0.000000 0.055262 0.000000
# 6 0.000000 0.000000 0.000000 0.017888 0.000000 0.086074
#
#
# Mechanical properties :
#
#
# Convention : Reuss Voigt Hill
#
# Bulk Modulus (GPa) = 16.06969 22.97840 19.52405
# Shear Modulus (GPa) = 16.77546 23.69505 20.23525
#
# Velocity S-wave (km/s) = 2.76230 3.28293 3.03380
# Velocity P-wave (km/s) = 4.18126 4.98215 4.59917
#
# Compressibility (1/GPa) = 0.06222895
#
# Stress axis : x y z
#
# Youngs Moduli (GPa) = 54.09070 93.77399 45.77292
#
# Poissons Ratio (x) = -0.14465 -0.17021
# Poissons Ratio (y) = -0.08343 -0.01621
# Poissons Ratio (z) = -0.20114 -0.03321
#
# Static dielectric constant tensor:
#      x y z
#    x 1.847000 0.000000 0.018330 
#    y 0.000000 1.802230 0.000000 
#    z 0.018330 0.000000 1.850040 
# 
# From -- ./inp_files/145703.got.cif
#   From: 2010.05.17/outbox.cif.g08.bks.cpg/sg12_73_cif.got.tgz:145703.got - 2010.06.03 13:09:07.
