data_PCOD9176391
_publ_section_title
;
Structure prediction by ZEFSAII (Michael W. Deem and Ramdas Pophale) SiO2 
 PCOD9176391
Probable space group: C 2/M
;
_chemical_formula_sum "Si O2"
_cell_formula_units_Z 64
_cell_length_a 29.253284
_cell_length_b 7.744711
_cell_length_c 16.022326
_cell_angle_alpha 90.000000
_cell_angle_beta 54.937391
_cell_angle_gamma 90.000000
_cell_volume 2971.236657
_symmetry_space_group_name_H-M "C 2/M"
_symmetry_group_IT_number 12
_symmetry_cell_setting 'monoclinic'
loop_
_space_group_symop_operation_xyz
x,y,z
-x,y,-z
-x,-y,-z
x,-y,z
1/2+x,1/2+y,z
1/2-x,1/2+y,-z
1/2-x,1/2-y,-z
1/2+x,1/2-y,z
loop_
_atom_site_type_symbol
_atom_site_label
_atom_site_fract_x
_atom_site_fract_y
_atom_site_fract_z
Si Si1 0.887257 0.297213 0.948207
Si Si2 0.886967 0.211796 0.457747
Si Si3 0.319197 0.301003 0.179660
Si Si4 0.870004 0.699628 0.787262
Si Si5 0.007221 0.208604 0.394534
Si Si6 0.496203 0.209796 0.101727
Si Si7 0.625897 0.701929 0.711279
Si Si8 0.806533 0.199822 0.690435
O O1 0.895936 0.500000 0.921963
O O2 0.862465 0.225315 0.888161
O O3 0.948119 0.227624 0.909830
O O4 0.847060 0.282345 0.069501
O O5 0.865301 0.273531 0.390736
O O6 0.848163 0.267337 0.575151
O O7 0.951017 0.264402 0.406361
O O8 0.887611 0.000000 0.457429
O O9 0.337842 0.500000 0.157774
O O10 0.341578 0.222848 0.243290
O O11 0.252777 0.291604 0.245726
O O12 0.851877 0.500000 0.803670
O O13 0.936092 0.712117 0.699570
O O14 0.837492 0.789946 0.746533
O O15 0.000000 0.249749 0.500000
O O16 0.012307 0.000000 0.382795
O O17 0.439680 0.281546 0.199911
O O18 0.493948 0.000000 0.107957
O O19 0.500000 0.256716 0.000000
O O20 0.641565 0.500000 0.690275
O O21 0.794879 0.000000 0.683432
#
# Coordination Sequence:
#
# PCOD9176391 Si02
#       8
#     8   8   8   8   8   8   8   8
#     4  10  22  40  60  85 118 157 192 230 286 349
#     4   9  19  37  60  86 116 153 193 232 277 342
#     4  11  24  40  59  86 116 147 193 247 291 334
#     4  11  23  38  59  89 121 149 189 242 291 336
#     4  10  18  34  60  88 119 156 195 228 276 347
#     4  10  19  34  59  87 119 153 190 231 277 342
#     4  10  21  37  59  87 119 151 188 236 288 338
#     4  11  23  42  64  82 110 155 199 235 286 347
#
# _framework density 21.539853000000001
#
# number of rings (size 3 to 8) (size 9 to 14) (size 15 to 20)
#    0.000    1.750    2.500    1.875    0.000    3.500 
#    0.000    1.250    0.000    0.000    0.000    0.000 
#    0.000    0.000    0.000    0.000    0.000    0.000 
#
# Total GULP energy -178833.454992 kJ/mol
# GULP energy per Si atom -5588.545469 kJ/mol
# Density = 2.149083 g / cm^3
# Si number density = 21.539853 Si / 1000 Ang^3
#
#
#
# Elastic Constant Matrix: (Units=GPa)
#
#
# Indices 1 2 3 4 5 6 
#
# 1 123.0740 -9.6542 92.7166 0.0005 14.7951 0.0007
# 2 -9.6542 31.7407 -4.7716 0.0008 6.7220 0.0003
# 3 92.7166 -4.7716 70.0510 -0.0001 34.4940 -0.0004
# 4 0.0005 0.0008 -0.0001 0.8800 0.0000 -26.8304
# 5 14.7951 6.7220 34.4940 0.0000 43.6617 0.0001
# 6 0.0007 0.0003 -0.0004 -26.8304 0.0001 0.0068
#
#
#
# Elastic Compliance Matrix: (Units=1/GPa)
#
#
# Indices 1 2 3 4 5 6 
#
# 1 -0.026919 0.006799 0.052565 -0.000001 -0.033453 -0.000001
# 2 0.006799 0.033580 -0.004961 0.000001 -0.003554 0.000001
# 3 0.052565 -0.004961 -0.077319 0.000002 0.044036 0.000001
# 4 -0.000001 0.000001 0.000002 -0.000010 -0.000001 -0.037271
# 5 -0.033453 -0.003554 0.044036 -0.000001 -0.000004 -0.000001
# 6 -0.000001 0.000001 0.000001 -0.037271 -0.000001 -0.001223
#
#
# Mechanical properties :
#
#
# Convention : Reuss Voigt Hill
#
# Bulk Modulus (GPa) = 26.21478 42.38304 34.29891
# Shear Modulus (GPa) = -29.76485 18.68137 -5.54174
#
# Velocity S-wave (km/s) = -3.72136 2.94818 -1.60573
# Velocity P-wave (km/s) = 2.50357 5.59538 3.53839
#
# Compressibility (1/GPa) = 0.03814642
#
# Stress axis : x y z
#
# Youngs Moduli (GPa) = -37.14816 29.77958 -12.93340
#
# Poissons Ratio (x) = -0.20247 0.67984
# Poissons Ratio (y) = 0.25257 -0.06417
# Poissons Ratio (z) = 1.95269 0.14774
#
# Static dielectric constant tensor:
#      x y z
#    x 1.769540 0.000000 0.045150 
#    y 0.000000 1.816810 0.000000 
#    z 0.045150 0.000000 1.753600 
# 
# From -- ./inp_files/249685.got.cif
#   From: 2010.05.17/outbox.cif.g08.bks.cpg/sg12_125_cif.got.tgz:249685.got - 2010.06.03 13:09:07.
