data_PCOD9176101
_publ_section_title
;
Structure prediction by ZEFSAII (Michael W. Deem and Ramdas Pophale) SiO2 
 PCOD9176101
Probable space group: C 2/M
;
_chemical_formula_sum "Si O2"
_cell_formula_units_Z 40
_cell_length_a 14.451025
_cell_length_b 17.709672
_cell_length_c 12.366081
_cell_angle_alpha 90.000000
_cell_angle_beta 145.300507
_cell_angle_gamma 90.000000
_cell_volume 1801.612016
_symmetry_space_group_name_H-M "C 2/M"
_symmetry_group_IT_number 12
_symmetry_cell_setting 'monoclinic'
loop_
_space_group_symop_operation_xyz
x,y,z
-x,y,-z
-x,-y,-z
x,-y,z
1/2+x,1/2+y,z
1/2-x,1/2+y,-z
1/2-x,1/2-y,-z
1/2+x,1/2-y,z
loop_
_atom_site_type_symbol
_atom_site_label
_atom_site_fract_x
_atom_site_fract_y
_atom_site_fract_z
Si Si1 0.651026 0.145763 0.194350
Si Si2 0.806051 0.418397 0.330374
Si Si3 0.846597 0.267619 0.271968
Si Si4 0.649091 0.584203 0.410960
Si Si5 0.440658 0.258578 0.718288
O O1 0.748765 0.342326 0.215354
O O2 0.760862 0.187847 0.211242
O O3 0.758303 0.103296 0.387824
O O4 0.500000 0.100372 0.000000
O O5 0.738914 0.500000 0.228372
O O6 0.770235 0.413340 0.423881
O O7 0.564796 0.215501 0.175159
O O8 0.000000 0.420453 0.500000
O O9 0.970949 0.152449 0.734063
O O10 0.000000 0.263667 0.500000
O O11 0.927104 0.278459 0.232908
O O12 0.579981 0.500000 0.350580
O O13 0.250000 0.250000 0.500000
#
# Coordination Sequence:
#
# PCOD9176101 Si02
#       5
#     8   8   8   8   8
#     4  11  22  35  52  82 117 143 177 226 279 329
#     4   9  16  27  51  84 105 129 178 235 272 300
#     4  11  17  32  58  78 106 144 187 230 262 320
#     4  10  19  34  56  80 108 143 185 228 267 321
#     4  10  18  34  55  80 106 142 192 226 260 323
#
# _framework density 22.202338000000001
#
# number of rings (size 3 to 8) (size 9 to 14) (size 15 to 20)
#    0.000    1.800    6.000    3.600    0.000    1.200 
#    0.000    2.000    0.000    2.400    0.000    0.000 
#    0.000    0.000    0.000    0.000    0.000    0.000 
#
# Total GULP energy -111440.282918 kJ/mol
# GULP energy per Si atom -5572.014146 kJ/mol
# Density = 2.215180 g / cm^3
# Si number density = 22.202338 Si / 1000 Ang^3
#
#
#
# Elastic Constant Matrix: (Units=GPa)
#
#
# Indices 1 2 3 4 5 6 
#
# 1 93.6757 -6.8234 -5.1703 0.0000 13.5177 0.0000
# 2 -6.8234 105.7523 -8.2412 0.0000 6.1125 0.0000
# 3 -5.1703 -8.2412 35.4516 0.0000 -9.0056 0.0000
# 4 0.0000 0.0000 0.0000 1.2581 0.0000 3.5823
# 5 13.5177 6.1125 -9.0056 0.0000 12.1434 0.0000
# 6 0.0000 0.0000 0.0000 3.5823 0.0000 26.7624
#
#
#
# Elastic Compliance Matrix: (Units=1/GPa)
#
#
# Indices 1 2 3 4 5 6 
#
# 1 0.013131 0.001671 -0.002000 0.000000 -0.016942 0.000000
# 2 0.001671 0.009998 0.001007 0.000000 -0.006146 0.000000
# 3 -0.002000 0.001007 0.035222 0.000000 0.027841 0.000000
# 4 0.000000 0.000000 0.000000 1.284400 0.000000 -0.171924
# 5 -0.016942 -0.006146 0.027841 0.000000 0.124948 0.000000
# 6 0.000000 0.000000 0.000000 -0.171924 0.000000 0.060379
#
#
# Mechanical properties :
#
#
# Convention : Reuss Voigt Hill
#
# Bulk Modulus (GPa) = 16.74912 21.60110 19.17511
# Shear Modulus (GPa) = 3.23284 25.04040 14.13662
#
# Velocity S-wave (km/s) = 1.20799 3.36196 2.52606
# Velocity P-wave (km/s) = 3.08316 4.98203 4.14286
#
# Compressibility (1/GPa) = 0.05970464
#
# Stress axis : x y z
#
# Youngs Moduli (GPa) = 76.15481 100.02489 28.39139
#
# Poissons Ratio (x) = -0.16710 0.05679
# Poissons Ratio (y) = -0.12723 -0.02858
# Poissons Ratio (z) = 0.15232 -0.10068
#
# Static dielectric constant tensor:
#      x y z
#    x 1.423980 0.000000 -0.111070 
#    y 0.000000 1.913210 0.000000 
#    z -0.111070 0.000000 1.858630 
# 
# From -- ./inp_files/207397.got.cif
#   From: 2010.05.17/outbox.cif.g08.bks.cpg/sg12_104_cif.got.tgz:207397.got - 2010.06.03 13:09:07.
