data_PCOD9176225
_publ_section_title
;
Structure prediction by ZEFSAII (Michael W. Deem and Ramdas Pophale) SiO2 
 PCOD9176225
Probable space group: C 2/M
;
_chemical_formula_sum "Si O2"
_cell_formula_units_Z 40
_cell_length_a 18.780696
_cell_length_b 11.251055
_cell_length_c 9.398469
_cell_angle_alpha 90.000000
_cell_angle_beta 57.353810
_cell_angle_gamma 90.000000
_cell_volume 1672.181090
_symmetry_space_group_name_H-M "C 2/M"
_symmetry_group_IT_number 12
_symmetry_cell_setting 'monoclinic'
loop_
_space_group_symop_operation_xyz
x,y,z
-x,y,-z
-x,-y,-z
x,-y,z
1/2+x,1/2+y,z
1/2-x,1/2+y,-z
1/2-x,1/2-y,-z
1/2+x,1/2-y,z
loop_
_atom_site_type_symbol
_atom_site_label
_atom_site_fract_x
_atom_site_fract_y
_atom_site_fract_z
Si Si1 0.407530 0.000000 0.524425
Si Si2 0.184094 0.872458 0.941824
Si Si3 0.754486 0.628072 0.177801
Si Si4 0.092127 0.235109 0.474892
Si Si5 0.486044 0.000000 0.848103
Si Si6 0.982838 0.760983 0.851366
O O1 0.500000 0.000000 0.500000
O O2 0.372658 0.869287 0.595304
O O3 0.427206 0.000000 0.334980
O O4 0.198318 0.751132 0.839698
O O5 0.193110 0.000000 0.858156
O O6 0.242030 0.873767 0.020234
O O7 0.088688 0.856732 0.102588
O O8 0.791786 0.500000 0.179871
O O9 0.662043 0.644549 0.346489
O O10 0.000000 0.224118 0.500000
O O11 0.066457 0.222888 0.667503
O O12 0.447376 0.128063 0.851547
O O13 0.500000 0.000000 0.000000
O O14 0.000000 0.764856 0.000000
#
# Coordination Sequence:
#
# PCOD9176225 Si02
#       6
#     4   8   8   8   4   8
#     4   8  16  26  46  82 112 138 180 226 291 318
#     4  10  22  39  57  85 121 155 191 239 295 348
#     4  10  22  38  58  86 118 157 192 237 295 347
#     4  10  18  34  57  87 115 149 194 247 281 339
#     4   8  16  30  50  80 114 148 182 221 277 340
#     4  10  20  36  60  88 118 154 194 240 291 343
#
# _framework density 23.920855
#
# number of rings (size 3 to 8) (size 9 to 14) (size 15 to 20)
#    0.000    2.400    2.000    0.000    2.800    1.600 
#    0.000    1.000    0.000    0.000    0.000    0.000 
#    0.000    0.000    0.000    0.000    0.000    0.000 
#
# Total GULP energy -111581.202914 kJ/mol
# GULP energy per Si atom -5579.060146 kJ/mol
# Density = 2.386641 g / cm^3
# Si number density = 23.920855 Si / 1000 Ang^3
#
#
#
# Elastic Constant Matrix: (Units=GPa)
#
#
# Indices 1 2 3 4 5 6 
#
# 1 35.8191 8.6714 17.4387 0.0000 6.8955 0.0000
# 2 8.6714 193.0447 32.9429 0.0000 -17.2649 0.0000
# 3 17.4387 32.9429 96.7293 0.0000 10.6286 0.0000
# 4 0.0000 0.0000 0.0000 26.1229 0.0000 -6.7921
# 5 6.8955 -17.2649 10.6286 0.0000 34.8893 0.0000
# 6 0.0000 0.0000 0.0000 -6.7921 0.0000 13.0421
#
#
#
# Elastic Compliance Matrix: (Units=1/GPa)
#
#
# Indices 1 2 3 4 5 6 
#
# 1 0.031506 -0.001085 -0.004726 0.000000 -0.005324 0.000000
# 2 -0.001085 0.005958 -0.002257 0.000000 0.003850 0.000000
# 3 -0.004726 -0.002257 0.012394 0.000000 -0.003958 0.000000
# 4 0.000000 0.000000 0.000000 0.044276 0.000000 0.023058
# 5 -0.005324 0.003850 -0.003958 0.000000 0.032826 0.000000
# 6 0.000000 0.000000 0.000000 0.023058 0.000000 0.088683
#
#
# Mechanical properties :
#
#
# Convention : Reuss Voigt Hill
#
# Bulk Modulus (GPa) = 29.65266 49.29991 39.47629
# Shear Modulus (GPa) = 20.57453 32.58018 26.57736
#
# Velocity S-wave (km/s) = 2.93594 3.69453 3.33686
# Velocity P-wave (km/s) = 4.89041 6.23328 5.60222
#
# Compressibility (1/GPa) = 0.03372378
#
# Stress axis : x y z
#
# Youngs Moduli (GPa) = 31.73967 167.83186 80.68716
#
# Poissons Ratio (x) = 0.18210 0.38129
# Poissons Ratio (y) = 0.03444 0.18209
# Poissons Ratio (z) = 0.14999 0.37874
#
# Static dielectric constant tensor:
#      x y z
#    x 1.880990 0.000000 -0.009400 
#    y 0.000000 1.985180 0.000000 
#    z -0.009400 0.000000 1.961050 
# 
# From -- ./inp_files/174339.got.cif
#   From: 2010.05.17/outbox.cif.g08.bks.cpg/sg12_88_cif.got.tgz:174339.got - 2010.06.03 13:09:07.
