data_PCOD9176319
_publ_section_title
;
Structure prediction by ZEFSAII (Michael W. Deem and Ramdas Pophale) SiO2 
 PCOD9176319
Probable space group: C 2/M
;
_chemical_formula_sum "Si O2"
_cell_formula_units_Z 48
_cell_length_a 8.094424
_cell_length_b 30.612128
_cell_length_c 16.638491
_cell_angle_alpha 90.000000
_cell_angle_beta 146.305973
_cell_angle_gamma 90.000000
_cell_volume 2287.161022
_symmetry_space_group_name_H-M "C 2/M"
_symmetry_group_IT_number 12
_symmetry_cell_setting 'monoclinic'
loop_
_space_group_symop_operation_xyz
x,y,z
-x,y,-z
-x,-y,-z
x,-y,z
1/2+x,1/2+y,z
1/2-x,1/2+y,-z
1/2-x,1/2-y,-z
1/2+x,1/2-y,z
loop_
_atom_site_type_symbol
_atom_site_label
_atom_site_fract_x
_atom_site_fract_y
_atom_site_fract_z
Si Si1 0.704929 0.184321 0.434776
Si Si2 0.639960 0.308713 0.743832
Si Si3 0.800067 0.904341 0.172636
Si Si4 0.658618 0.769917 0.843897
Si Si5 0.445211 0.094296 0.381233
Si Si6 0.202072 0.000000 0.827173
Si Si7 0.944040 0.500000 0.380954
O O1 0.453404 0.211457 0.287288
O O2 0.594588 0.135003 0.399931
O O3 0.000000 0.185886 0.500000
O O4 0.829785 0.199794 0.571325
O O5 0.676361 0.360753 0.765194
O O6 0.630410 0.282534 0.823440
O O7 0.927033 0.289535 0.813763
O O8 0.088054 0.902965 0.231392
O O9 0.810945 0.952253 0.219936
O O10 0.500000 0.902100 0.000000
O O11 0.000000 0.781121 0.000000
O O12 0.500000 0.096809 0.500000
O O13 0.552478 0.046788 0.394734
O O14 0.500000 0.000000 0.000000
O O15 0.914456 0.000000 0.768666
O O16 0.000000 0.500000 0.500000
#
# Coordination Sequence:
#
# PCOD9176319 Si02
#       7
#     8   8   8   8   8   4   4
#     4  10  23  40  56  81 114 152 188 230 282 339
#     4  11  23  40  57  86 116 149 190 231 281 340
#     4  10  20  33  59  89 118 146 190 233 284 335
#     4  11  25  40  60  81 114 148 193 235 281 331
#     4  10  18  34  59  83 114 149 188 233 285 331
#     4   8  16  32  50  84 119 146 176 235 283 327
#     4   8  16  28  51  86 110 139 187 236 274 329
#
# _framework density 20.986716000000001
#
# number of rings (size 3 to 8) (size 9 to 14) (size 15 to 20)
#    0.000    2.000    1.667    1.500    4.667    0.000 
#    0.000    0.417    0.000    3.000    0.000    1.167 
#    0.000    0.000    0.000    0.000    0.000    0.000 
#
# Total GULP energy -133852.484781 kJ/mol
# GULP energy per Si atom -5577.186866 kJ/mol
# Density = 2.093895 g / cm^3
# Si number density = 20.986716 Si / 1000 Ang^3
#
#
#
# Elastic Constant Matrix: (Units=GPa)
#
#
# Indices 1 2 3 4 5 6 
#
# 1 28.8227 27.8516 15.6962 0.0000 10.3095 0.0000
# 2 27.8516 172.9977 33.2910 0.0000 0.4814 0.0000
# 3 15.6962 33.2910 137.8621 0.0000 21.5819 0.0000
# 4 0.0000 0.0000 0.0000 22.0088 0.0000 5.8544
# 5 10.3095 0.4814 21.5819 0.0000 19.8835 0.0000
# 6 0.0000 0.0000 0.0000 5.8544 0.0000 27.5427
#
#
#
# Elastic Compliance Matrix: (Units=1/GPa)
#
#
# Indices 1 2 3 4 5 6 
#
# 1 0.052443 -0.008434 0.000350 0.000000 -0.027368 0.000000
# 2 -0.008434 0.007469 -0.001807 0.000000 0.006153 0.000000
# 3 0.000350 -0.001807 0.009242 0.000000 -0.010169 0.000000
# 4 0.000000 0.000000 0.000000 0.048159 0.000000 -0.010237
# 5 -0.027368 0.006153 -0.010169 0.000000 0.075372 0.000000
# 6 0.000000 0.000000 0.000000 -0.010237 0.000000 0.038483
#
#
# Mechanical properties :
#
#
# Convention : Reuss Voigt Hill
#
# Bulk Modulus (GPa) = 20.25412 54.81780 37.53596
# Shear Modulus (GPa) = 18.69805 31.40991 25.05398
#
# Velocity S-wave (km/s) = 2.98811 3.87286 3.45889
# Velocity P-wave (km/s) = 4.64510 6.79527 5.82034
#
# Compressibility (1/GPa) = 0.04937268
#
# Stress axis : x y z
#
# Youngs Moduli (GPa) = 19.06820 133.89001 108.20202
#
# Poissons Ratio (x) = 1.12927 -0.03788
# Poissons Ratio (y) = 0.16083 0.19547
# Poissons Ratio (z) = -0.00668 0.24188
#
# Static dielectric constant tensor:
#      x y z
#    x 1.754350 0.000000 -0.018750 
#    y 0.000000 1.823590 0.000000 
#    z -0.018750 0.000000 1.792080 
# 
# From -- ./inp_files/260447.got.cif
#   From: 2010.05.17/outbox.cif.g08.bks.cpg/sg12_131_cif.got.tgz:260447.got - 2010.06.03 13:09:07.
