data_PCOD9176327
_publ_section_title
;
Structure prediction by ZEFSAII (Michael W. Deem and Ramdas Pophale) SiO2 
 PCOD9176327
Probable space group: C 2/M
;
_chemical_formula_sum "Si O2"
_cell_formula_units_Z 64
_cell_length_a 30.500330
_cell_length_b 9.215551
_cell_length_c 11.259741
_cell_angle_alpha 90.000000
_cell_angle_beta 95.423324
_cell_angle_gamma 90.000000
_cell_volume 3150.690866
_symmetry_space_group_name_H-M "C 2/M"
_symmetry_group_IT_number 12
_symmetry_cell_setting 'monoclinic'
loop_
_space_group_symop_operation_xyz
x,y,z
-x,y,-z
-x,-y,-z
x,-y,z
1/2+x,1/2+y,z
1/2-x,1/2+y,-z
1/2-x,1/2-y,-z
1/2+x,1/2-y,z
loop_
_atom_site_type_symbol
_atom_site_label
_atom_site_fract_x
_atom_site_fract_y
_atom_site_fract_z
Si Si1 0.052155 0.337211 0.490901
Si Si2 0.861042 0.332757 0.858432
Si Si3 0.898914 0.322657 0.118260
Si Si4 0.860692 0.668676 0.343843
Si Si5 0.996759 0.665224 0.140823
Si Si6 0.757179 0.332051 0.875521
Si Si7 0.922864 0.831767 0.721988
Si Si8 0.722301 0.675624 0.600981
O O1 0.058218 0.500000 0.439823
O O2 0.087896 0.331479 0.604875
O O3 0.067278 0.210433 0.409312
O O4 0.000000 0.323229 0.500000
O O5 0.874805 0.500000 0.843563
O O6 0.809487 0.329081 0.866614
O O7 0.877840 0.240587 0.753305
O O8 0.884645 0.277261 0.983801
O O9 0.899953 0.500000 0.118444
O O10 0.863453 0.280182 0.207927
O O11 0.948524 0.273745 0.157522
O O12 0.845939 0.500000 0.346228
O O13 0.827964 0.765518 0.412854
O O14 0.999494 0.500000 0.188368
O O15 0.036912 0.757227 0.198236
O O16 0.000000 0.657593 0.000000
O O17 0.743102 0.500000 0.888561
O O18 0.737733 0.283467 0.741100
O O19 0.750000 0.250000 0.000000
O O20 0.922034 0.000000 0.743873
O O21 0.725190 0.500000 0.591395
O O22 0.750000 0.750000 0.500000
#
# Coordination Sequence:
#
# PCOD9176327 Si02
#       8
#     8   8   8   8   8   8   8   8
#     4  10  22  42  67  90 117 159 213 261 302 366
#     4  10  20  38  62  88 118 158 205 251 300 366
#     4   9  17  33  61  92 117 150 203 256 304 359
#     4  10  21  39  66  95 122 158 207 260 314 368
#     4  10  18  34  59  84 115 160 209 252 295 357
#     4  10  23  42  68  96 126 163 210 265 321 382
#     4  12  25  37  54  86 126 161 199 250 313 370
#     4  11  25  44  65  96 133 171 216 263 322 387
#
# _framework density 20.313006000000001
#
# number of rings (size 3 to 8) (size 9 to 14) (size 15 to 20)
#    0.000    1.750    1.250    3.000    1.750    5.500 
#    0.000    2.500    0.000    0.000    0.000    0.000 
#    0.000    0.000    0.000    0.000    0.000    0.000 
#
# Total GULP energy -178495.848024 kJ/mol
# GULP energy per Si atom -5577.995251 kJ/mol
# Density = 2.026677 g / cm^3
# Si number density = 20.313006 Si / 1000 Ang^3
#
#
#
# Elastic Constant Matrix: (Units=GPa)
#
#
# Indices 1 2 3 4 5 6 
#
# 1 79.8925 27.1893 25.0889 0.0000 -19.3301 0.0000
# 2 27.1893 71.8042 28.5054 0.0000 -9.9938 0.0000
# 3 25.0889 28.5054 76.4537 0.0000 -7.6447 0.0000
# 4 0.0000 0.0000 0.0000 32.7889 0.0000 8.8270
# 5 -19.3301 -9.9938 -7.6447 0.0000 31.8178 0.0000
# 6 0.0000 0.0000 0.0000 8.8270 0.0000 31.8853
#
#
#
# Elastic Compliance Matrix: (Units=1/GPa)
#
#
# Indices 1 2 3 4 5 6 
#
# 1 0.016872 -0.003958 -0.003238 0.000000 0.008229 0.000000
# 2 -0.003958 0.017726 -0.005117 0.000000 0.001934 0.000000
# 3 -0.003238 -0.005117 0.016079 0.000000 0.000289 0.000000
# 4 0.000000 0.000000 0.000000 0.032954 0.000000 -0.009123
# 5 0.008229 0.001934 0.000289 0.000000 0.037105 0.000000
# 6 0.000000 0.000000 0.000000 -0.009123 0.000000 0.033888
#
#
# Mechanical properties :
#
#
# Convention : Reuss Voigt Hill
#
# Bulk Modulus (GPa) = 38.38615 43.30195 40.84405
# Shear Modulus (GPa) = 26.60526 29.12285 27.86405
#
# Velocity S-wave (km/s) = 3.62299 3.79054 3.70771
# Velocity P-wave (km/s) = 6.03654 6.36563 6.20326
#
# Compressibility (1/GPa) = 0.02605106
#
# Stress axis : x y z
#
# Youngs Moduli (GPa) = 59.27121 56.41465 62.19253
#
# Poissons Ratio (x) = 0.22328 0.20139
# Poissons Ratio (y) = 0.23458 0.31823
# Poissons Ratio (z) = 0.19193 0.28867
#
# Static dielectric constant tensor:
#      x y z
#    x 1.736580 0.000000 0.029490 
#    y 0.000000 1.693740 0.000000 
#    z 0.029490 0.000000 1.840770 
# 
# From -- ./inp_files/187558.got.cif
#   From: 2010.05.17/outbox.cif.g08.bks.cpg/sg12_94_cif.got.tgz:187558.got - 2010.06.03 13:09:07.
