data_PCOD9176284
_publ_section_title
;
Structure prediction by ZEFSAII (Michael W. Deem and Ramdas Pophale) SiO2 
 PCOD9176284
Probable space group: C 2/M
;
_chemical_formula_sum "Si O2"
_cell_formula_units_Z 56
_cell_length_a 9.052379
_cell_length_b 14.993255
_cell_length_c 20.070719
_cell_angle_alpha 90.000000
_cell_angle_beta 88.881333
_cell_angle_gamma 90.000000
_cell_volume 2723.571645
_symmetry_space_group_name_H-M "C 2/M"
_symmetry_group_IT_number 12
_symmetry_cell_setting 'monoclinic'
loop_
_space_group_symop_operation_xyz
x,y,z
-x,y,-z
-x,-y,-z
x,-y,z
1/2+x,1/2+y,z
1/2-x,1/2+y,-z
1/2-x,1/2-y,-z
1/2+x,1/2-y,z
loop_
_atom_site_type_symbol
_atom_site_label
_atom_site_fract_x
_atom_site_fract_y
_atom_site_fract_z
Si Si1 0.262552 0.349276 0.818973
Si Si2 0.381146 0.777323 0.047633
Si Si3 0.121422 0.277495 0.450277
Si Si4 0.886229 0.789527 0.360870
Si Si5 0.943345 0.904825 0.118249
Si Si6 0.254940 0.847682 0.764180
Si Si7 0.063609 0.402743 0.699873
O O1 0.169685 0.331177 0.887179
O O2 0.409434 0.398914 0.839034
O O3 0.299027 0.251662 0.788084
O O4 0.168800 0.397033 0.763223
O O5 0.445520 0.683584 0.073906
O O6 0.500000 0.825356 0.000000
O O7 0.250000 0.750000 0.000000
O O8 0.250000 0.250000 0.500000
O O9 0.229480 0.319252 0.394059
O O10 0.000000 0.323076 0.500000
O O11 0.024407 0.202814 0.410603
O O12 0.877721 0.835720 0.288870
O O13 0.893359 0.682501 0.345982
O O14 0.806891 0.896053 0.170442
O O15 0.936286 0.000000 0.082780
O O16 0.398292 0.890354 0.729772
O O17 0.077926 0.500000 0.667154
#
# Coordination Sequence:
#
# PCOD9176284 Si02
#       7
#     8   8   8   8   8   8   8
#     4  10  21  38  59  81 111 146 187 230 278 336
#     4  11  22  40  62  82 105 150 194 228 271 340
#     4   9  18  32  56  88 111 141 194 242 261 306
#     4  10  18  34  58  86 109 148 192 229 273 333
#     4  11  23  38  57  85 115 143 180 237 290 329
#     4  10  20  35  58  82 113 147 187 229 278 337
#     4  11  22  35  55  86 118 145 178 233 289 332
#
# _framework density 20.561235
#
# number of rings (size 3 to 8) (size 9 to 14) (size 15 to 20)
#    0.000    1.714    2.857    3.429    4.000    0.286 
#    0.000    0.000    0.000    6.429    0.000    0.000 
#    0.000    0.000    0.000    0.000    0.000    0.000 
#
# Total GULP energy -155969.315390 kJ/mol
# GULP energy per Si atom -5570.332692 kJ/mol
# Density = 2.051444 g / cm^3
# Si number density = 20.561235 Si / 1000 Ang^3
#
#
#
# Elastic Constant Matrix: (Units=GPa)
#
#
# Indices 1 2 3 4 5 6 
#
# 1 89.7357 2.2409 15.1536 0.0000 7.5365 0.0000
# 2 2.2409 69.2234 -0.4356 0.0000 -3.8167 0.0000
# 3 15.1536 -0.4356 73.3611 0.0000 -0.3582 0.0000
# 4 0.0000 0.0000 0.0000 -0.7816 0.0000 -8.8086
# 5 7.5365 -3.8167 -0.3582 0.0000 46.1475 0.0000
# 6 0.0000 0.0000 0.0000 -8.8086 0.0000 -32.3216
#
#
#
# Elastic Compliance Matrix: (Units=1/GPa)
#
#
# Indices 1 2 3 4 5 6 
#
# 1 0.011734 -0.000504 -0.002436 0.000000 -0.001977 0.000000
# 2 -0.000504 0.014534 0.000197 0.000000 0.001286 0.000000
# 3 -0.002436 0.000197 0.014138 0.000000 0.000524 0.000000
# 4 0.000000 0.000000 0.000000 0.617671 0.000000 -0.168334
# 5 -0.001977 0.001286 0.000524 0.000000 0.022103 0.000000
# 6 0.000000 0.000000 0.000000 -0.168334 0.000000 0.014937
#
#
# Mechanical properties :
#
#
# Convention : Reuss Voigt Hill
#
# Bulk Modulus (GPa) = 28.63787 29.58200 29.10994
# Shear Modulus (GPa) = 7.02006 16.96627 11.99317
#
# Velocity S-wave (km/s) = 1.84977 2.87567 2.41776
# Velocity P-wave (km/s) = 4.30355 5.04425 4.68855
#
# Compressibility (1/GPa) = 0.03491879
#
# Stress axis : x y z
#
# Youngs Moduli (GPa) = 85.22320 68.80204 70.73033
#
# Poissons Ratio (x) = 0.03469 0.17233
# Poissons Ratio (y) = 0.04297 -0.01391
# Poissons Ratio (z) = 0.20764 -0.01354
#
# Static dielectric constant tensor:
#      x y z
#    x 1.759950 0.000000 -0.002070 
#    y 0.000000 1.713760 0.000000 
#    z -0.002070 0.000000 1.788350 
# 
# From -- ./inp_files/300140.got.cif
#   From: 2010.05.17/outbox.cif.g08.bks.cpg/sg12_151_cif.got.tgz:300140.got - 2010.06.03 13:09:07.
