data_PCOD9176247
_publ_section_title
;
Structure prediction by ZEFSAII (Michael W. Deem and Ramdas Pophale) SiO2 
 PCOD9176247
Probable space group: C 2/M
;
_chemical_formula_sum "Si O2"
_cell_formula_units_Z 48
_cell_length_a 25.284512
_cell_length_b 17.415196
_cell_length_c 8.167394
_cell_angle_alpha 90.000000
_cell_angle_beta 45.492295
_cell_angle_gamma 90.000000
_cell_volume 2564.785815
_symmetry_space_group_name_H-M "C 2/M"
_symmetry_group_IT_number 12
_symmetry_cell_setting 'monoclinic'
loop_
_space_group_symop_operation_xyz
x,y,z
-x,y,-z
-x,-y,-z
x,-y,z
1/2+x,1/2+y,z
1/2-x,1/2+y,-z
1/2-x,1/2-y,-z
1/2+x,1/2-y,z
loop_
_atom_site_type_symbol
_atom_site_label
_atom_site_fract_x
_atom_site_fract_y
_atom_site_fract_z
Si Si1 0.244784 0.591118 0.881358
Si Si2 0.104958 0.818584 0.415900
Si Si3 0.802373 0.327170 0.694966
Si Si4 0.806127 0.321064 0.333223
Si Si5 0.868975 0.204858 0.994569
Si Si6 0.524031 0.586395 0.135430
O O1 0.239153 0.500000 0.890372
O O2 0.329310 0.618002 0.729986
O O3 0.222691 0.626872 0.753129
O O4 0.196500 0.624666 0.139011
O O5 0.141638 0.744494 0.420949
O O6 0.035659 0.858475 0.650096
O O7 0.088337 0.791180 0.268213
O O8 0.815411 0.363676 0.486760
O O9 0.716987 0.297490 0.875390
O O10 0.750000 0.250000 0.500000
O O11 0.875842 0.275114 0.105132
O O12 0.896155 0.126847 0.020219
O O13 0.524500 0.500000 0.203618
O O14 0.500000 0.582151 0.000000
#
# Coordination Sequence:
#
# PCOD9176247 Si02
#       6
#     8   8   8   8   8   8
#     4  11  21  34  55  88 117 145 193 252 302 339
#     4  11  19  38  57  79 115 162 198 242 289 359
#     4  10  20  36  61  80 112 155 204 246 287 349
#     4  10  18  34  58  79 108 153 199 242 286 348
#     4  10  19  35  57  78 106 155 206 237 286 349
#     4  11  25  37  50  83 128 162 195 242 299 359
#
# _framework density 18.715012000000002
#
# number of rings (size 3 to 8) (size 9 to 14) (size 15 to 20)
#    0.000    1.500    5.000    3.000    2.333    4.667 
#    0.000    0.000    0.000    0.000    0.000    2.333 
#    0.000    4.000    0.000    0.000    0.000    0.000 
#
# Total GULP energy -133642.042466 kJ/mol
# GULP energy per Si atom -5568.418436 kJ/mol
# Density = 1.867242 g / cm^3
# Si number density = 18.715012 Si / 1000 Ang^3
#
#
#
# Elastic Constant Matrix: (Units=GPa)
#
#
# Indices 1 2 3 4 5 6 
#
# 1 62.6725 26.1658 24.5882 0.0000 22.1700 0.0000
# 2 26.1658 91.4876 34.8412 0.0000 5.1328 0.0000
# 3 24.5882 34.8412 80.6400 0.0000 27.6178 0.0000
# 4 0.0000 0.0000 0.0000 17.2583 0.0000 5.2273
# 5 22.1700 5.1328 27.6178 0.0000 41.4623 0.0000
# 6 0.0000 0.0000 0.0000 5.2273 0.0000 21.9933
#
#
#
# Elastic Compliance Matrix: (Units=1/GPa)
#
#
# Indices 1 2 3 4 5 6 
#
# 1 0.022360 -0.005505 -0.000749 0.000000 -0.010776 0.000000
# 2 -0.005505 0.014691 -0.006548 0.000000 0.005486 0.000000
# 3 -0.000749 -0.006548 0.019489 0.000000 -0.011771 0.000000
# 4 0.000000 0.000000 0.000000 0.062438 0.000000 -0.014840
# 5 -0.010776 0.005486 -0.011771 0.000000 0.037041 0.000000
# 6 0.000000 0.000000 0.000000 -0.014840 0.000000 0.048996
#
#
# Mechanical properties :
#
#
# Convention : Reuss Voigt Hill
#
# Bulk Modulus (GPa) = 32.32409 45.11006 38.71708
# Shear Modulus (GPa) = 20.75285 26.08976 23.42131
#
# Velocity S-wave (km/s) = 3.33361 3.73776 3.54145
# Velocity P-wave (km/s) = 5.66803 6.54093 6.12006
#
# Compressibility (1/GPa) = 0.03093668
#
# Stress axis : x y z
#
# Youngs Moduli (GPa) = 44.72266 68.07034 51.31012
#
# Poissons Ratio (x) = 0.37475 0.03842
# Poissons Ratio (y) = 0.24621 0.33596
# Poissons Ratio (z) = 0.03349 0.44570
#
# Static dielectric constant tensor:
#      x y z
#    x 1.719410 0.000000 0.032750 
#    y 0.000000 1.656620 0.000000 
#    z 0.032750 0.000000 1.743460 
# 
# From -- ./inp_files/104939.got.cif
#   From: 2010.05.17/outbox.cif.g08.bks.cpg/sg12_53_cif.got.tgz:104939.got - 2010.06.03 13:09:07.
