data_PCOD9176152
_publ_section_title
;
Structure prediction by ZEFSAII (Michael W. Deem and Ramdas Pophale) SiO2 
 PCOD9176152
Probable space group: C 2/M
;
_chemical_formula_sum "Si O2"
_cell_formula_units_Z 56
_cell_length_a 11.892491
_cell_length_b 19.422701
_cell_length_c 17.410583
_cell_angle_alpha 90.000000
_cell_angle_beta 52.426389
_cell_angle_gamma 90.000000
_cell_volume 3187.379063
_symmetry_space_group_name_H-M "C 2/M"
_symmetry_group_IT_number 12
_symmetry_cell_setting 'monoclinic'
loop_
_space_group_symop_operation_xyz
x,y,z
-x,y,-z
-x,-y,-z
x,-y,z
1/2+x,1/2+y,z
1/2-x,1/2+y,-z
1/2-x,1/2-y,-z
1/2+x,1/2-y,z
loop_
_atom_site_type_symbol
_atom_site_label
_atom_site_fract_x
_atom_site_fract_y
_atom_site_fract_z
Si Si1 0.682832 0.920921 0.197782
Si Si2 0.153313 0.418970 0.635818
Si Si3 0.803946 0.678608 0.244568
Si Si4 0.336416 0.917508 0.545693
Si Si5 0.871873 0.340680 0.919695
Si Si6 0.652363 0.337789 0.745970
Si Si7 0.331671 0.309051 0.860849
O O1 0.517676 0.909144 0.288682
O O2 0.687962 0.902870 0.106082
O O3 0.781778 0.870942 0.205076
O O4 0.717285 0.000000 0.200006
O O5 0.180795 0.500000 0.638156
O O6 0.222748 0.372322 0.672914
O O7 0.192153 0.402217 0.531931
O O8 0.814076 0.756614 0.270758
O O9 0.699527 0.680088 0.215692
O O10 0.958429 0.657246 0.146775
O O11 0.500000 0.900427 0.500000
O O12 0.228807 0.877084 0.644696
O O13 0.322198 0.000000 0.562983
O O14 0.840916 0.271256 0.882701
O O15 0.794048 0.337042 0.033080
O O16 0.482711 0.342859 0.816858
#
# Coordination Sequence:
#
# PCOD9176152 Si02
#       7
#     8   8   8   8   8   8   8
#     4  10  18  34  56  82 112 140 183 237 278 324
#     4   9  19  36  59  80 103 148 196 225 262 329
#     4  10  20  36  57  80 113 146 187 229 272 333
#     4  10  19  35  59  83 109 147 189 227 277 341
#     4   9  19  35  57  79 105 150 194 221 269 337
#     4  11  21  32  54  85 115 138 182 236 290 325
#     4  10  20  35  54  80 113 147 183 229 279 333
#
# _framework density 17.569293999999999
#
# number of rings (size 3 to 8) (size 9 to 14) (size 15 to 20)
#    0.000    2.143    2.857    0.857    0.000    1.143 
#    0.000    5.000    0.000    5.143    0.000    0.000 
#    0.000    0.000    0.000    0.000    0.000    0.000 
#
# Total GULP energy -156135.561162 kJ/mol
# GULP energy per Si atom -5576.270042 kJ/mol
# Density = 1.752931 g / cm^3
# Si number density = 17.569294 Si / 1000 Ang^3
#
#
#
# Elastic Constant Matrix: (Units=GPa)
#
#
# Indices 1 2 3 4 5 6 
#
# 1 46.7573 20.2794 8.8536 0.0000 16.9735 0.0000
# 2 20.2794 42.5650 14.1102 0.0000 4.5676 0.0000
# 3 8.8536 14.1102 55.9116 0.0000 5.3465 0.0000
# 4 0.0000 0.0000 0.0000 26.9257 0.0000 2.9673
# 5 16.9735 4.5676 5.3465 0.0000 23.9147 0.0000
# 6 0.0000 0.0000 0.0000 2.9673 0.0000 27.2853
#
#
#
# Elastic Compliance Matrix: (Units=1/GPa)
#
#
# Indices 1 2 3 4 5 6 
#
# 1 0.036041 -0.014793 0.000206 0.000000 -0.022801 0.000000
# 2 -0.014793 0.032004 -0.006288 0.000000 0.005792 0.000000
# 3 0.000206 -0.006288 0.019761 0.000000 -0.003363 0.000000
# 4 0.000000 0.000000 0.000000 0.037590 0.000000 -0.004088
# 5 -0.022801 0.005792 -0.003363 0.000000 0.057644 0.000000
# 6 0.000000 0.000000 0.000000 -0.004088 0.000000 0.037094
#
#
# Mechanical properties :
#
#
# Convention : Reuss Voigt Hill
#
# Bulk Modulus (GPa) = 21.71217 25.74670 23.72943
# Shear Modulus (GPa) = 18.03520 22.42451 20.22986
#
# Velocity S-wave (km/s) = 3.20741 3.57648 3.39696
# Velocity P-wave (km/s) = 5.10896 5.63392 5.37785
#
# Compressibility (1/GPa) = 0.04605713
#
# Stress axis : x y z
#
# Youngs Moduli (GPa) = 27.74634 31.24586 50.60402
#
# Poissons Ratio (x) = 0.46221 -0.01045
# Poissons Ratio (y) = 0.41045 0.31821
# Poissons Ratio (z) = -0.00573 0.19648
#
# Static dielectric constant tensor:
#      x y z
#    x 1.594770 0.000000 0.009130 
#    y 0.000000 1.595350 0.000000 
#    z 0.009130 0.000000 1.597700 
# 
# From -- ./inp_files/206556.got.cif
#   From: 2010.05.17/outbox.cif.g08.bks.cpg/sg12_104_cif.got.tgz:206556.got - 2010.06.03 13:09:07.
