data_PCOD9176930
_publ_section_title
;
Structure prediction by ZEFSAII (Michael W. Deem and Ramdas Pophale) SiO2 
 PCOD9176930
Probable space group: C 2/M
;
_chemical_formula_sum "Si O2"
_cell_formula_units_Z 64
_cell_length_a 16.907354
_cell_length_b 22.573842
_cell_length_c 14.268970
_cell_angle_alpha 90.000000
_cell_angle_beta 145.944333
_cell_angle_gamma 90.000000
_cell_volume 3049.722421
_symmetry_space_group_name_H-M "C 2/M"
_symmetry_group_IT_number 12
_symmetry_cell_setting 'monoclinic'
loop_
_space_group_symop_operation_xyz
x,y,z
-x,y,-z
-x,-y,-z
x,-y,z
1/2+x,1/2+y,z
1/2-x,1/2+y,-z
1/2-x,1/2-y,-z
1/2+x,1/2-y,z
loop_
_atom_site_type_symbol
_atom_site_label
_atom_site_fract_x
_atom_site_fract_y
_atom_site_fract_z
Si Si1 0.881584 0.764135 0.806085
Si Si2 0.296769 0.128661 0.951847
Si Si3 0.871672 0.234362 0.311480
Si Si4 0.641149 0.861901 0.770389
Si Si5 0.642314 0.605734 0.181638
Si Si6 0.875010 0.359745 0.733122
Si Si7 0.871230 0.433210 0.543016
Si Si8 0.668806 0.432810 0.665699
O O1 0.735248 0.757792 0.715479
O O2 0.900853 0.833412 0.805133
O O3 0.876365 0.711781 0.725808
O O4 0.000000 0.748668 0.000000
O O5 0.210936 0.186632 0.832214
O O6 0.220204 0.075647 0.822866
O O7 0.300811 0.127879 0.067899
O O8 0.461070 0.127191 0.081525
O O9 0.907983 0.293444 0.288548
O O10 0.000000 0.210387 0.500000
O O11 0.759512 0.876356 0.810065
O O12 0.505934 0.903828 0.624874
O O13 0.737389 0.568194 0.343997
O O14 0.500000 0.578919 0.000000
O O15 0.843450 0.392197 0.605303
O O16 0.762319 0.385850 0.697207
O O17 0.904468 0.500000 0.605051
O O18 0.500000 0.423746 0.500000
O O19 0.697394 0.500000 0.660466
#
# Coordination Sequence:
#
# PCOD9176930 Si02
#       8
#     8   8   8   8   8   8   8   8
#     4  10  18  36  62  90 132 166 205 255 324 398
#     4  11  22  37  62  95 127 173 217 263 321 392
#     4  11  20  36  61  93 130 168 207 260 328 390
#     4  10  23  41  63  92 128 168 218 272 323 386
#     4  10  23  42  64  95 129 168 213 277 336 388
#     4  11  22  40  66  96 130 174 217 266 325 394
#     4  11  25  45  67  93 126 174 232 275 318 385
#     4  11  24  41  61  93 136 176 217 270 324 384
#
# _framework density 20.985516000000001
#
# number of rings (size 3 to 8) (size 9 to 14) (size 15 to 20)
#    0.000    1.375    2.500    3.375    0.000    5.750 
#    0.000    0.000    0.000    0.000    0.000    0.000 
#    0.000    0.000    0.000    0.000    0.000    0.000 
#
# Total GULP energy -178597.260574 kJ/mol
# GULP energy per Si atom -5581.164393 kJ/mol
# Density = 2.093775 g / cm^3
# Si number density = 20.985516 Si / 1000 Ang^3
#
#
#
# Elastic Constant Matrix: (Units=GPa)
#
#
# Indices 1 2 3 4 5 6 
#
# 1 61.5227 31.4738 37.2574 0.0000 -3.6830 0.0000
# 2 31.4738 72.3214 27.4279 0.0000 0.0302 0.0000
# 3 37.2574 27.4279 144.8682 0.0000 3.0682 0.0000
# 4 0.0000 0.0000 0.0000 -0.9997 0.0000 -13.8489
# 5 -3.6830 0.0302 3.0682 0.0000 19.4448 0.0000
# 6 0.0000 0.0000 0.0000 -13.8489 0.0000 11.1533
#
#
#
# Elastic Compliance Matrix: (Units=1/GPa)
#
#
# Indices 1 2 3 4 5 6 
#
# 1 0.023744 -0.008595 -0.004590 0.000000 0.005235 0.000000
# 2 -0.008595 0.018011 -0.001169 0.000000 -0.001472 0.000000
# 3 -0.004590 -0.001169 0.008351 0.000000 -0.002185 0.000000
# 4 0.000000 0.000000 0.000000 -0.054958 0.000000 -0.068241
# 5 0.005235 -0.001472 -0.002185 0.000000 0.052766 0.000000
# 6 0.000000 0.000000 0.000000 -0.068241 0.000000 0.004926
#
#
# Mechanical properties :
#
#
# Convention : Reuss Voigt Hill
#
# Bulk Modulus (GPa) = 46.72998 52.33672 49.53335
# Shear Modulus (GPa) = 56.38207 18.08990 37.23598
#
# Velocity S-wave (km/s) = 5.18897 2.93920 4.21689
# Velocity P-wave (km/s) = 7.62999 6.04253 6.88218
#
# Compressibility (1/GPa) = 0.02139954
#
# Stress axis : x y z
#
# Youngs Moduli (GPa) = 42.11555 55.52066 119.74817
#
# Poissons Ratio (x) = 0.47718 0.54967
# Poissons Ratio (y) = 0.36197 0.13993
# Poissons Ratio (z) = 0.19332 0.06488
#
# Static dielectric constant tensor:
#      x y z
#    x 1.756870 0.000000 -0.007840 
#    y 0.000000 1.799440 0.000000 
#    z -0.007840 0.000000 1.674720 
# 
# From -- ./inp_files/228200.got.cif
#   From: 2010.05.17/outbox.cif.g08.bks.cpg/sg12_115_cif.got.tgz:228200.got - 2010.06.03 13:09:07.
