data_PCOD9176570
_publ_section_title
;
Structure prediction by ZEFSAII (Michael W. Deem and Ramdas Pophale) SiO2 
 PCOD9176570
Probable space group: C 2/M
;
_chemical_formula_sum "Si O2"
_cell_formula_units_Z 48
_cell_length_a 15.983790
_cell_length_b 25.364946
_cell_length_c 5.251226
_cell_angle_alpha 90.000000
_cell_angle_beta 60.321634
_cell_angle_gamma 90.000000
_cell_volume 1849.709349
_symmetry_space_group_name_H-M "C 2/M"
_symmetry_group_IT_number 12
_symmetry_cell_setting 'monoclinic'
loop_
_space_group_symop_operation_xyz
x,y,z
-x,y,-z
-x,-y,-z
x,-y,z
1/2+x,1/2+y,z
1/2-x,1/2+y,-z
1/2-x,1/2-y,-z
1/2+x,1/2-y,z
loop_
_atom_site_type_symbol
_atom_site_label
_atom_site_fract_x
_atom_site_fract_y
_atom_site_fract_z
Si Si1 0.638133 0.768183 0.607672
Si Si2 0.120165 0.663159 0.130218
Si Si3 0.413426 0.346548 0.324052
Si Si4 0.636563 0.060213 0.820120
Si Si5 0.754234 0.108644 0.236842
Si Si6 0.145062 0.944094 0.293252
O O1 0.750000 0.750000 0.500000
O O2 0.605810 0.808818 0.428495
O O3 0.585191 0.714422 0.606933
O O4 0.609179 0.795848 0.918117
O O5 0.229857 0.645177 0.031258
O O6 0.084883 0.605632 0.070400
O O7 0.310985 0.354551 0.339689
O O8 0.410518 0.393313 0.529403
O O9 0.500000 0.355617 0.000000
O O10 0.658623 0.083632 0.505223
O O11 0.747132 0.055125 0.750017
O O12 0.599674 0.000000 0.881117
O O13 0.828207 0.063579 0.042641
O O14 0.100247 0.000000 0.420899
#
# Coordination Sequence:
#
# PCOD9176570 Si02
#       6
#     8   8   8   8   8   8
#     4  12  22  38  61  82 116 149 200 244 294 347
#     4  11  21  36  58  89 112 156 191 239 291 349
#     4  11  25  39  55  81 114 156 202 249 294 343
#     4   9  17  32  56  88 121 150 187 238 291 344
#     4  10  18  35  57  86 116 151 199 239 291 343
#     4   9  19  35  54  77 109 155 201 243 288 336
#
# _framework density 25.950023999999999
#
# number of rings (size 3 to 8) (size 9 to 14) (size 15 to 20)
#    0.000    1.667    3.333    3.000    2.333    2.333 
#    0.000    0.833    0.000    0.000    0.000    0.000 
#    0.000    4.000    0.000    0.000    0.000    0.167 
#
# Total GULP energy -133648.852874 kJ/mol
# GULP energy per Si atom -5568.702203 kJ/mol
# Density = 2.589096 g / cm^3
# Si number density = 25.950024 Si / 1000 Ang^3
#
#
#
# Elastic Constant Matrix: (Units=GPa)
#
#
# Indices 1 2 3 4 5 6 
#
# 1 102.8600 27.1802 23.7048 0.0000 4.8668 0.0000
# 2 27.1802 233.8126 75.8554 0.0000 21.7040 0.0000
# 3 23.7048 75.8554 116.3506 0.0000 28.7105 0.0000
# 4 0.0000 0.0000 0.0000 8.1169 0.0000 18.6048
# 5 4.8668 21.7040 28.7105 0.0000 31.2118 0.0000
# 6 0.0000 0.0000 0.0000 18.6048 0.0000 -49.7331
#
#
#
# Elastic Compliance Matrix: (Units=1/GPa)
#
#
# Indices 1 2 3 4 5 6 
#
# 1 0.010285 -0.000662 -0.001787 0.000000 0.000501 0.000000
# 2 -0.000662 0.005478 -0.003262 0.000000 -0.000705 0.000000
# 3 -0.001787 -0.003262 0.013528 0.000000 -0.009896 0.000000
# 4 0.000000 0.000000 0.000000 0.066327 0.000000 0.024813
# 5 0.000501 -0.000705 -0.009896 0.000000 0.041555 0.000000
# 6 0.000000 0.000000 0.000000 0.024813 0.000000 -0.010825
#
#
# Mechanical properties :
#
#
# Convention : Reuss Voigt Hill
#
# Bulk Modulus (GPa) = 55.96954 78.50045 67.23499
# Shear Modulus (GPa) = 34.78828 19.67130 27.22979
#
# Velocity S-wave (km/s) = 3.66538 2.75625 3.24283
# Velocity P-wave (km/s) = 6.28716 6.35968 6.32352
#
# Compressibility (1/GPa) = 0.01786686
#
# Stress axis : x y z
#
# Youngs Moduli (GPa) = 97.22764 182.55629 73.92192
#
# Poissons Ratio (x) = 0.12090 0.13212
# Poissons Ratio (y) = 0.06439 0.24116
# Poissons Ratio (z) = 0.17377 0.59557
#
# Static dielectric constant tensor:
#      x y z
#    x 2.092760 0.000000 -0.000170 
#    y 0.000000 2.120500 0.000000 
#    z -0.000170 0.000000 2.329370 
# 
# From -- ./inp_files/21562.got.cif
#   From: 2010.05.17/outbox.cif.g08.bks.cpg/sg12_11_cif.got.tgz:21562.got - 2010.06.03 13:09:07.
