data_PCOD9176579
_publ_section_title
;
Structure prediction by ZEFSAII (Michael W. Deem and Ramdas Pophale) SiO2 
 PCOD9176579
Probable space group: C 2/M
;
_chemical_formula_sum "Si O2"
_cell_formula_units_Z 40
_cell_length_a 16.567237
_cell_length_b 18.284141
_cell_length_c 8.196252
_cell_angle_alpha 90.000000
_cell_angle_beta 134.785193
_cell_angle_gamma 90.000000
_cell_volume 1762.167030
_symmetry_space_group_name_H-M "C 2/M"
_symmetry_group_IT_number 12
_symmetry_cell_setting 'monoclinic'
loop_
_space_group_symop_operation_xyz
x,y,z
-x,y,-z
-x,-y,-z
x,-y,z
1/2+x,1/2+y,z
1/2-x,1/2+y,-z
1/2-x,1/2-y,-z
1/2+x,1/2-y,z
loop_
_atom_site_type_symbol
_atom_site_label
_atom_site_fract_x
_atom_site_fract_y
_atom_site_fract_z
Si Si1 0.450830 0.147785 0.255240
Si Si2 0.471045 0.314312 0.703580
Si Si3 0.851929 0.583309 0.642985
Si Si4 0.242988 0.173477 0.778681
Si Si5 0.181483 0.835205 0.188367
O O1 0.500000 0.127750 0.500000
O O2 0.489211 0.231522 0.274779
O O3 0.519035 0.098181 0.224706
O O4 0.315336 0.146190 0.036170
O O5 0.389320 0.341951 0.442233
O O6 0.390075 0.314546 0.748839
O O7 0.585139 0.356138 0.919763
O O8 0.832877 0.500000 0.662343
O O9 0.811978 0.637214 0.728079
O O10 0.772187 0.605543 0.375628
O O11 0.256721 0.260875 0.780526
#
# Coordination Sequence:
#
# PCOD9176579 Si02
#       5
#     8   8   8   8   8
#     4  11  22  33  51  83 113 142 176 218 269 317
#     4   9  16  32  54  80 105 133 175 223 270 305
#     4  11  21  36  56  80 108 143 182 216 264 323
#     4  10  18  35  58  77 106 139 182 226 263 312
#     4   9  16  32  58  79 105 135 178 226 271 300
#
# _framework density 22.699325000000002
#
# number of rings (size 3 to 8) (size 9 to 14) (size 15 to 20)
#    0.000    2.000    4.000    1.800    0.000    2.800 
#    0.000    8.000    0.000    0.000    0.000    1.400 
#    0.000    0.000    0.000    0.000    0.000    0.000 
#
# Total GULP energy -111787.406652 kJ/mol
# GULP energy per Si atom -5589.370333 kJ/mol
# Density = 2.264766 g / cm^3
# Si number density = 22.699325 Si / 1000 Ang^3
#
#
#
# Elastic Constant Matrix: (Units=GPa)
#
#
# Indices 1 2 3 4 5 6 
#
# 1 71.6691 3.2857 32.5830 0.0000 11.8462 0.0000
# 2 3.2857 38.2090 4.8336 0.0000 1.1055 0.0000
# 3 32.5830 4.8336 207.0775 0.0000 29.9285 0.0000
# 4 0.0000 0.0000 0.0000 8.8441 0.0000 7.0991
# 5 11.8462 1.1055 29.9285 0.0000 40.0183 0.0000
# 6 0.0000 0.0000 0.0000 7.0991 0.0000 1.7483
#
#
#
# Elastic Compliance Matrix: (Units=1/GPa)
#
#
# Indices 1 2 3 4 5 6 
#
# 1 0.015394 -0.000988 -0.001956 0.000000 -0.003067 0.000000
# 2 -0.000988 0.026316 -0.000444 0.000000 -0.000102 0.000000
# 3 -0.001956 -0.000444 0.005675 0.000000 -0.003653 0.000000
# 4 0.000000 0.000000 0.000000 -0.050044 0.000000 0.203207
# 5 -0.003067 -0.000102 -0.003653 0.000000 0.028631 0.000000
# 6 0.000000 0.000000 0.000000 0.203207 0.000000 -0.253157
#
#
# Mechanical properties :
#
#
# Convention : Reuss Voigt Hill
#
# Bulk Modulus (GPa) = 24.62432 44.26226 34.44329
# Shear Modulus (GPa) = -24.16959 28.53904 2.18473
#
# Velocity S-wave (km/s) = -3.26662 3.54964 0.98212
# Velocity P-wave (km/s) = 1.83199 6.02840 4.06112
#
# Compressibility (1/GPa) = 0.04061025
#
# Stress axis : x y z
#
# Youngs Moduli (GPa) = 64.95842 37.99981 176.20503
#
# Poissons Ratio (x) = 0.03753 0.34465
# Poissons Ratio (y) = 0.06416 0.07824
# Poissons Ratio (z) = 0.12706 0.01687
#
# Static dielectric constant tensor:
#      x y z
#    x 1.886860 0.000000 -0.036600 
#    y 0.000000 1.724440 0.000000 
#    z -0.036600 0.000000 1.973870 
# 
# From -- ./inp_files/88233.got.cif
#   From: 2010.05.17/outbox.cif.g08.bks.cpg/sg12_45_cif.got.tgz:88233.got - 2010.06.03 13:09:07.
