data_PCOD9176251
_publ_section_title
;
Structure prediction by ZEFSAII (Michael W. Deem and Ramdas Pophale) SiO2 
 PCOD9176251
Probable space group: C 2/M
;
_chemical_formula_sum "Si O2"
_cell_formula_units_Z 48
_cell_length_a 12.898637
_cell_length_b 30.352203
_cell_length_c 10.298313
_cell_angle_alpha 90.000000
_cell_angle_beta 140.108523
_cell_angle_gamma 90.000000
_cell_volume 2585.743312
_symmetry_space_group_name_H-M "C 2/M"
_symmetry_group_IT_number 12
_symmetry_cell_setting 'monoclinic'
loop_
_space_group_symop_operation_xyz
x,y,z
-x,y,-z
-x,-y,-z
x,-y,z
1/2+x,1/2+y,z
1/2-x,1/2+y,-z
1/2-x,1/2-y,-z
1/2+x,1/2-y,z
loop_
_atom_site_type_symbol
_atom_site_label
_atom_site_fract_x
_atom_site_fract_y
_atom_site_fract_z
Si Si1 0.809135 0.817560 0.110524
Si Si2 0.609177 0.667975 0.225701
Si Si3 0.387641 0.000000 0.518321
Si Si4 0.117742 0.596520 0.989404
Si Si5 0.822941 0.271743 0.272181
Si Si6 0.618237 0.000000 0.990274
Si Si7 0.885503 0.596404 0.516360
O O1 0.801042 0.778446 0.206657
O O2 0.990726 0.823287 0.231328
O O3 0.740322 0.863116 0.097805
O O4 0.707608 0.801251 0.886251
O O5 0.692111 0.712397 0.251530
O O6 0.750676 0.633699 0.389636
O O7 0.500000 0.651072 0.000000
O O8 0.500000 0.000000 0.500000
O O9 0.505108 0.000000 0.755051
O O10 0.303785 0.952399 0.436802
O O11 0.201278 0.547953 0.071830
O O12 0.002751 0.598757 0.752728
O O13 0.000000 0.600292 0.000000
O O14 0.000000 0.278827 0.500000
O O15 0.500000 0.000000 0.000000
O O16 0.000000 0.601078 0.500000
#
# Coordination Sequence:
#
# PCOD9176251 Si02
#       7
#     8   8   4   8   8   4   8
#     4  10  22  35  52  81 106 132 179 225 264 317
#     4  10  20  35  53  76 107 139 177 226 272 314
#     4   8  16  28  50  83 107 133 182 223 243 306
#     4  10  20  35  57  82 109 141 180 220 261 316
#     4  10  21  37  54  72 103 144 179 217 268 319
#     4   8  16  32  53  77 105 141 178 213 256 310
#     4  10  18  34  58  80 108 146 181 214 264 318
#
# _framework density 18.563327999999998
#
# number of rings (size 3 to 8) (size 9 to 14) (size 15 to 20)
#    0.000    2.333    0.000    3.500    0.000    5.333 
#    0.000    1.250    0.000    0.000    0.000    7.583 
#    0.000    0.000    0.000    0.000    0.000    0.000 
#
# Total GULP energy -133834.513039 kJ/mol
# GULP energy per Si atom -5576.438043 kJ/mol
# Density = 1.852108 g / cm^3
# Si number density = 18.563328 Si / 1000 Ang^3
#
#
#
# Elastic Constant Matrix: (Units=GPa)
#
#
# Indices 1 2 3 4 5 6 
#
# 1 112.2599 76.8042 35.1582 0.0000 -2.6762 0.0000
# 2 76.8042 185.5220 19.9402 0.0000 23.5854 0.0000
# 3 35.1582 19.9402 43.5198 0.0000 6.7901 0.0000
# 4 0.0000 0.0000 0.0000 7.7936 0.0000 -6.9507
# 5 -2.6762 23.5854 6.7901 0.0000 25.2744 0.0000
# 6 0.0000 0.0000 0.0000 -6.9507 0.0000 17.5918
#
#
#
# Elastic Compliance Matrix: (Units=1/GPa)
#
#
# Indices 1 2 3 4 5 6 
#
# 1 0.019091 -0.008112 -0.013780 0.000000 0.013293 0.000000
# 2 -0.008112 0.009734 0.003804 0.000000 -0.010964 0.000000
# 3 -0.013780 0.003804 0.034599 0.000000 -0.014304 0.000000
# 4 0.000000 0.000000 0.000000 0.198126 0.000000 0.078281
# 5 0.013293 -0.010964 -0.014304 0.000000 0.055048 0.000000
# 6 0.000000 0.000000 0.000000 0.078281 0.000000 0.087774
#
#
# Mechanical properties :
#
#
# Convention : Reuss Voigt Hill
#
# Bulk Modulus (GPa) = 36.70001 67.23410 51.96706
# Shear Modulus (GPa) = 11.12030 24.09191 17.60610
#
# Velocity S-wave (km/s) = 2.45020 3.60644 3.08301
# Velocity P-wave (km/s) = 5.27425 7.32388 6.38189
#
# Compressibility (1/GPa) = 0.02724795
#
# Stress axis : x y z
#
# Youngs Moduli (GPa) = 52.38205 102.73772 28.90261
#
# Poissons Ratio (x) = 0.83343 0.39827
# Poissons Ratio (y) = 0.42493 -0.10996
# Poissons Ratio (z) = 0.72181 -0.39086
#
# Static dielectric constant tensor:
#      x y z
#    x 1.626420 0.000000 -0.024460 
#    y 0.000000 1.693410 0.000000 
#    z -0.024460 0.000000 1.623730 
# 
# From -- ./inp_files/149895.got.cif
#   From: 2010.05.17/outbox.cif.g08.bks.cpg/sg12_75_cif.got.tgz:149895.got - 2010.06.03 13:09:07.
