data_PCOD9176466
_publ_section_title
;
Structure prediction by ZEFSAII (Michael W. Deem and Ramdas Pophale) SiO2 
 PCOD9176466
Probable space group: C 2/M
;
_chemical_formula_sum "Si O2"
_cell_formula_units_Z 52
_cell_length_a 13.647882
_cell_length_b 19.284921
_cell_length_c 7.921048
_cell_angle_alpha 90.000000
_cell_angle_beta 71.010373
_cell_angle_gamma 90.000000
_cell_volume 1971.346193
_symmetry_space_group_name_H-M "C 2/M"
_symmetry_group_IT_number 12
_symmetry_cell_setting 'monoclinic'
loop_
_space_group_symop_operation_xyz
x,y,z
-x,y,-z
-x,-y,-z
x,-y,z
1/2+x,1/2+y,z
1/2-x,1/2+y,-z
1/2-x,1/2-y,-z
1/2+x,1/2-y,z
loop_
_atom_site_type_symbol
_atom_site_label
_atom_site_fract_x
_atom_site_fract_y
_atom_site_fract_z
Si Si1 0.237795 0.000000 0.400722
Si Si2 0.089556 0.146695 0.101662
Si Si3 0.376972 0.720254 0.610338
Si Si4 0.368032 0.706013 0.248087
Si Si5 0.635374 0.134707 0.788521
Si Si6 0.404277 0.865602 0.785171
Si Si7 0.895161 0.000000 0.847523
Si Si8 0.779896 0.500000 0.759307
O O1 0.302161 0.068678 0.313538
O O2 0.220486 0.000000 0.612322
O O3 0.140463 0.000000 0.326936
O O4 0.156639 0.157860 0.897421
O O5 0.378166 0.128581 0.000529
O O6 0.045765 0.070372 0.145972
O O7 0.152212 0.165020 0.231056
O O8 0.500000 0.716132 0.500000
O O9 0.333264 0.692345 0.456260
O O10 0.506646 0.699332 0.833928
O O11 0.366844 0.796908 0.700635
O O12 0.334575 0.784191 0.239948
O O13 0.529437 0.134359 0.732947
O O14 0.354005 0.932883 0.728644
O O15 0.797312 0.000000 0.033765
#
# Coordination Sequence:
#
# PCOD9176466 Si02
#       8
#     4   8   8   8   8   8   4   4
#     4  12  27  43  62  93 134 176 216 250 307 393
#     4  10  21  41  66  89 128 165 209 270 316 371
#     4  10  18  34  63 102 129 148 193 265 335 376
#     4  10  19  37  68 106 120 153 208 274 332 367
#     4  11  19  38  69 101 132 159 202 266 329 380
#     4  11  19  36  64 100 131 162 202 265 327 369
#     4  12  28  49  60  83 132 186 219 250 304 384
#     4  12  27  41  60  88 132 181 225 246 301 379
#
# _framework density 26.377914000000001
#
# number of rings (size 3 to 8) (size 9 to 14) (size 15 to 20)
#    0.000    1.231    6.154    2.308    0.000    4.308 
#    0.000    6.538    0.000    3.692    0.000    0.000 
#    0.000    0.000    0.000    0.000    0.000    0.000 
#
# Total GULP energy -145349.916155 kJ/mol
# GULP energy per Si atom -5590.381391 kJ/mol
# Density = 2.631788 g / cm^3
# Si number density = 26.377914 Si / 1000 Ang^3
#
#
#
# Elastic Constant Matrix: (Units=GPa)
#
#
# Indices 1 2 3 4 5 6 
#
# 1 40.2923 4.0483 14.3345 0.0000 1.9516 0.0000
# 2 4.0483 148.1698 52.7505 0.0000 11.0969 0.0000
# 3 14.3345 52.7505 231.3089 0.0000 23.4069 0.0000
# 4 0.0000 0.0000 0.0000 -22.2931 0.0000 -16.4883
# 5 1.9516 11.0969 23.4069 0.0000 19.3417 0.0000
# 6 0.0000 0.0000 0.0000 -16.4883 0.0000 -22.1165
#
#
#
# Elastic Compliance Matrix: (Units=1/GPa)
#
#
# Indices 1 2 3 4 5 6 
#
# 1 0.025389 -0.000115 -0.001475 0.000000 -0.000710 0.000000
# 2 -0.000115 0.007453 -0.001437 0.000000 -0.002525 0.000000
# 3 -0.001475 -0.001437 0.005292 0.000000 -0.005431 0.000000
# 4 0.000000 0.000000 0.000000 -0.099993 0.000000 0.074547
# 5 -0.000710 -0.002525 -0.005431 0.000000 0.059795 0.000000
# 6 0.000000 0.000000 0.000000 0.074547 0.000000 -0.100791
#
#
# Mechanical properties :
#
#
# Convention : Reuss Voigt Hill
#
# Bulk Modulus (GPa) = 31.17276 62.44863 46.81069
# Shear Modulus (GPa) = -58.06750 18.22891 -19.91930
#
# Velocity S-wave (km/s) = -4.69696 2.63167 -2.75098
# Velocity P-wave (km/s) = 4.19188 5.74110 2.77384
#
# Compressibility (1/GPa) = 0.03207929
#
# Stress axis : x y z
#
# Youngs Moduli (GPa) = 39.38642 134.17646 188.96755
#
# Poissons Ratio (x) = 0.01547 0.27877
# Poissons Ratio (y) = 0.00454 0.27154
# Poissons Ratio (z) = 0.05810 0.19281
#
# Static dielectric constant tensor:
#      x y z
#    x 2.269410 0.000000 0.097330 
#    y 0.000000 1.978940 0.000000 
#    z 0.097330 0.000000 2.129060 
# 
# From -- ./inp_files/77002.got.cif
#   From: 2010.05.17/outbox.cif.g08.bks.cpg/sg12_39_cif.got.tgz:77002.got - 2010.06.03 13:09:07.
