data_PCOD9176664
_publ_section_title
;
Structure prediction by ZEFSAII (Michael W. Deem and Ramdas Pophale) SiO2 
 PCOD9176664
Probable space group: C 2/M
;
_chemical_formula_sum "Si O2"
_cell_formula_units_Z 64
_cell_length_a 8.821125
_cell_length_b 14.581462
_cell_length_c 28.591780
_cell_angle_alpha 90.000000
_cell_angle_beta 56.528390
_cell_angle_gamma 90.000000
_cell_volume 3067.716246
_symmetry_space_group_name_H-M "C 2/M"
_symmetry_group_IT_number 12
_symmetry_cell_setting 'monoclinic'
loop_
_space_group_symop_operation_xyz
x,y,z
-x,y,-z
-x,-y,-z
x,-y,z
1/2+x,1/2+y,z
1/2-x,1/2+y,-z
1/2-x,1/2-y,-z
1/2+x,1/2-y,z
loop_
_atom_site_type_symbol
_atom_site_label
_atom_site_fract_x
_atom_site_fract_y
_atom_site_fract_z
Si Si1 0.397914 0.787542 0.737746
Si Si2 0.107565 0.893988 0.125599
Si Si3 0.287639 0.604735 0.522694
Si Si4 0.995358 0.400963 0.907449
Si Si5 0.827594 0.200293 0.417764
Si Si6 0.023777 0.712249 0.811724
Si Si7 0.650304 0.652790 0.014472
Si Si8 0.694551 0.214391 0.343860
O O1 0.241262 0.709625 0.767867
O O2 0.411829 0.829465 0.787406
O O3 0.355320 0.837872 0.695877
O O4 0.600825 0.749540 0.697732
O O5 0.324154 0.877104 0.094488
O O6 0.065839 0.874411 0.078461
O O7 0.015075 0.820966 0.175614
O O8 0.068194 0.000000 0.143160
O O9 0.500000 0.601987 0.500000
O O10 0.216702 0.500000 0.541000
O O11 0.209035 0.690939 0.565520
O O12 0.276175 0.639643 0.471057
O O13 0.030482 0.500000 0.879333
O O14 0.967084 0.331038 0.870245
O O15 0.821530 0.406868 0.969722
O O16 0.710300 0.170667 0.392649
O O17 0.045105 0.203833 0.372415
O O18 0.500000 0.651245 0.000000
O O19 0.750000 0.750000 0.000000
#
# Coordination Sequence:
#
# PCOD9176664 Si02
#       8
#     8   8   8   8   8   8   8   8
#     4   9  20  35  62  86 111 150 202 250 296 349
#     4  11  24  41  63  89 121 156 189 238 298 362
#     4  10  20  33  56  91 127 162 198 238 286 351
#     4  11  24  41  63  89 120 156 191 236 297 365
#     4  10  18  35  60  86 121 165 197 240 291 348
#     4  11  20  39  62  88 113 152 192 243 304 349
#     4  12  25  40  61  90 122 156 194 233 289 359
#     4   9  18  35  60  86 113 158 205 240 299 345
#
# _framework density 20.862425000000002
#
# number of rings (size 3 to 8) (size 9 to 14) (size 15 to 20)
#    0.000    1.625    3.750    1.500    1.750    2.000 
#    0.000    1.250    0.000   30.000    0.000    0.000 
#    0.000    0.000    0.000    0.000    0.000    0.000 
#
# Total GULP energy -178262.279597 kJ/mol
# GULP energy per Si atom -5570.696237 kJ/mol
# Density = 2.081494 g / cm^3
# Si number density = 20.862425 Si / 1000 Ang^3
#
#
#
# Elastic Constant Matrix: (Units=GPa)
#
#
# Indices 1 2 3 4 5 6 
#
# 1 123.1555 12.7904 28.0318 -0.0001 25.7162 0.0000
# 2 12.7904 87.7212 15.4387 0.0000 6.6669 0.0000
# 3 28.0318 15.4387 76.3978 -0.0001 20.1835 0.0000
# 4 -0.0001 0.0000 -0.0001 -0.0257 0.0001 -6.5180
# 5 25.7162 6.6669 20.1835 0.0001 54.9829 0.0000
# 6 0.0000 0.0000 0.0000 -6.5180 0.0000 3.1017
#
#
#
# Elastic Compliance Matrix: (Units=1/GPa)
#
#
# Indices 1 2 3 4 5 6 
#
# 1 0.009464 -0.000691 -0.002420 0.000000 -0.003454 0.000000
# 2 -0.000691 0.011890 -0.002053 0.000000 -0.000365 0.000000
# 3 -0.002420 -0.002053 0.015534 0.000000 -0.004321 0.000000
# 4 0.000000 0.000000 0.000000 -0.072871 0.000000 -0.153135
# 5 -0.003454 -0.000365 -0.004321 0.000000 0.021434 0.000000
# 6 0.000000 0.000000 0.000000 -0.153135 0.000000 0.000603
#
#
# Mechanical properties :
#
#
# Convention : Reuss Voigt Hill
#
# Bulk Modulus (GPa) = 37.65240 44.42181 41.03710
# Shear Modulus (GPa) = 955.42251 27.01270 491.21760
#
# Velocity S-wave (km/s) = 21.42329 3.60224 15.36121
# Velocity P-wave (km/s) = 25.10041 6.21614 18.28484
#
# Compressibility (1/GPa) = 0.02655873
#
# Stress axis : x y z
#
# Youngs Moduli (GPa) = 105.66662 84.10747 64.37542
#
# Poissons Ratio (x) = 0.05815 0.15580
# Poissons Ratio (y) = 0.07306 0.13214
# Poissons Ratio (z) = 0.25573 0.17264
#
# Static dielectric constant tensor:
#      x y z
#    x 1.789380 0.000000 0.016100 
#    y 0.000000 1.778420 0.000000 
#    z 0.016100 0.000000 1.823730 
# 
# From -- ./inp_files/372370.got.cif
#   From: 2010.05.17/outbox.cif.g08.bks.cpg/sg12_187_cif.got.tgz:372370.got - 2010.06.03 13:09:07.
