data_PCOD9176331
_publ_section_title
;
Structure prediction by ZEFSAII (Michael W. Deem and Ramdas Pophale) SiO2 
 PCOD9176331
Probable space group: C 2/M
;
_chemical_formula_sum "Si O2"
_cell_formula_units_Z 56
_cell_length_a 13.294917
_cell_length_b 13.959494
_cell_length_c 26.630408
_cell_angle_alpha 90.000000
_cell_angle_beta 143.275932
_cell_angle_gamma 90.000000
_cell_volume 2955.334441
_symmetry_space_group_name_H-M "C 2/M"
_symmetry_group_IT_number 12
_symmetry_cell_setting 'monoclinic'
loop_
_space_group_symop_operation_xyz
x,y,z
-x,y,-z
-x,-y,-z
x,-y,z
1/2+x,1/2+y,z
1/2-x,1/2+y,-z
1/2-x,1/2-y,-z
1/2+x,1/2-y,z
loop_
_atom_site_type_symbol
_atom_site_label
_atom_site_fract_x
_atom_site_fract_y
_atom_site_fract_z
Si Si1 0.737244 0.885598 0.208383
Si Si2 0.408416 0.699508 0.628339
Si Si3 0.127400 0.387841 0.446907
Si Si4 0.723458 0.110796 0.086269
Si Si5 0.727749 0.886368 0.652283
Si Si6 0.057837 0.277540 0.934186
Si Si7 0.078578 0.108848 0.170065
O O1 0.750330 0.859111 0.154335
O O2 0.550290 0.846130 0.146287
O O3 0.898981 0.835922 0.297238
O O4 0.746472 0.000000 0.217843
O O5 0.297481 0.639642 0.543996
O O6 0.394025 0.810713 0.606347
O O7 0.326193 0.673969 0.649676
O O8 0.123741 0.500000 0.430604
O O9 0.972895 0.373406 0.424448
O O10 0.903315 0.114437 0.130355
O O11 0.677147 0.000000 0.069215
O O12 0.593276 0.165328 0.998880
O O13 0.788550 0.865263 0.733559
O O14 0.764397 0.000000 0.657604
O O15 0.946825 0.181189 0.886133
O O16 0.250000 0.250000 0.000000
O O17 0.109014 0.000000 0.166039
#
# Coordination Sequence:
#
# PCOD9176331 Si02
#       7
#     8   8   8   8   8   8   8
#     4  11  20  33  55  82 107 136 181 239 290 332
#     4  11  21  35  60  88 116 150 196 243 283 342
#     4  10  22  37  57  87 121 156 192 236 293 349
#     4   9  17  31  51  75 101 130 169 221 278 327
#     4  10  18  34  59  85 113 148 194 241 286 338
#     4  10  20  31  47  74 107 140 171 217 282 349
#     4   9  17  31  51  74 101 136 179 224 267 322
#
# _framework density 18.948786999999999
#
# number of rings (size 3 to 8) (size 9 to 14) (size 15 to 20)
#    0.000    2.000    1.429    3.429    0.000    2.857 
#    0.000    0.000    0.000   14.571    0.000    0.000 
#    0.000    0.000    0.000    0.000    0.000    0.000 
#
# Total GULP energy -155915.018461 kJ/mol
# GULP energy per Si atom -5568.393516 kJ/mol
# Density = 1.890566 g / cm^3
# Si number density = 18.948787 Si / 1000 Ang^3
#
#
#
# Elastic Constant Matrix: (Units=GPa)
#
#
# Indices 1 2 3 4 5 6 
#
# 1 35.4887 32.7426 22.7406 0.0000 8.0124 0.0000
# 2 32.7426 132.0384 62.0667 0.0000 -7.1881 0.0000
# 3 22.7406 62.0667 147.6664 0.0000 14.9332 0.0001
# 4 0.0000 0.0000 0.0000 39.0828 0.0000 31.9633
# 5 8.0124 -7.1881 14.9332 0.0000 26.2839 0.0000
# 6 0.0000 0.0000 0.0001 31.9633 0.0000 195.0120
#
#
#
# Elastic Compliance Matrix: (Units=1/GPa)
#
#
# Indices 1 2 3 4 5 6 
#
# 1 0.042261 -0.011264 -0.000169 0.000000 -0.015868 0.000000
# 2 -0.011264 0.013141 -0.004774 0.000000 0.009740 0.000000
# 3 -0.000169 -0.004774 0.009476 0.000000 -0.006638 0.000000
# 4 0.000000 0.000000 0.000000 0.029547 0.000000 -0.004843
# 5 -0.015868 0.009740 -0.006638 0.000000 0.049318 0.000000
# 6 0.000000 0.000000 0.000000 -0.004843 0.000000 0.005922
#
#
# Mechanical properties :
#
#
# Convention : Reuss Voigt Hill
#
# Bulk Modulus (GPa) = 30.80307 61.14368 45.97338
# Shear Modulus (GPa) = 25.92009 65.25198 45.58604
#
# Velocity S-wave (km/s) = 3.70253 5.87458 4.91017
# Velocity P-wave (km/s) = 5.87959 8.85168 7.51405
#
# Compressibility (1/GPa) = 0.03246429
#
# Stress axis : x y z
#
# Youngs Moduli (GPa) = 23.66223 76.09781 105.53262
#
# Poissons Ratio (x) = 0.85718 0.01784
# Poissons Ratio (y) = 0.26654 0.50378
# Poissons Ratio (z) = 0.00400 0.36326
#
# Static dielectric constant tensor:
#      x y z
#    x 1.903550 0.000000 0.227300 
#    y 0.000000 1.694140 0.000000 
#    z 0.227300 0.000000 1.896350 
# 
# From -- ./inp_files/376404.got.cif
#   From: 2010.05.17/outbox.cif.g08.bks.cpg/sg12_189_cif.got.tgz:376404.got - 2010.06.03 13:09:07.
