data_PCOD9176405
_publ_section_title
;
Structure prediction by ZEFSAII (Michael W. Deem and Ramdas Pophale) SiO2 
 PCOD9176405
Probable space group: C 2/M
;
_chemical_formula_sum "Si O2"
_cell_formula_units_Z 56
_cell_length_a 14.794560
_cell_length_b 18.554136
_cell_length_c 11.605657
_cell_angle_alpha 90.000000
_cell_angle_beta 47.741398
_cell_angle_gamma 90.000000
_cell_volume 2357.832786
_symmetry_space_group_name_H-M "C 2/M"
_symmetry_group_IT_number 12
_symmetry_cell_setting 'monoclinic'
loop_
_space_group_symop_operation_xyz
x,y,z
-x,y,-z
-x,-y,-z
x,-y,z
1/2+x,1/2+y,z
1/2-x,1/2+y,-z
1/2-x,1/2-y,-z
1/2+x,1/2-y,z
loop_
_atom_site_type_symbol
_atom_site_label
_atom_site_fract_x
_atom_site_fract_y
_atom_site_fract_z
Si Si1 0.765516 0.082558 0.703548
Si Si2 0.443836 0.082024 0.317913
Si Si3 0.637694 0.583427 0.932506
Si Si4 0.621023 0.291872 0.111334
Si Si5 0.599496 0.686267 0.550803
Si Si6 0.724314 0.828824 0.380705
Si Si7 0.405256 0.843246 0.986694
O O1 0.661613 0.084639 0.691250
O O2 0.882237 0.114735 0.538750
O O3 0.721011 0.133235 0.846763
O O4 0.777600 0.000000 0.730832
O O5 0.387406 0.125796 0.470892
O O6 0.466379 0.000000 0.329097
O O7 0.563178 0.117475 0.159622
O O8 0.677460 0.500000 0.907264
O O9 0.631823 0.627583 0.055930
O O10 0.722188 0.631237 0.775558
O O11 0.500000 0.582889 0.000000
O O12 0.560635 0.239725 0.065996
O O13 0.750000 0.250000 0.000000
O O14 0.535146 0.290145 0.296414
O O15 0.672692 0.748072 0.418954
O O16 0.669968 0.675025 0.612161
O O17 0.500000 0.871911 0.000000
#
# Coordination Sequence:
#
# PCOD9176405 Si02
#       7
#     8   8   8   8   8   8   8
#     4   9  18  31  54  89 120 147 188 252 311 353
#     4   9  16  28  53  89 125 149 182 246 314 362
#     4  11  23  40  66  97 128 162 211 268 317 371
#     4  12  25  42  61  85 124 167 207 246 310 385
#     4  10  20  34  58  90 121 160 202 253 311 364
#     4  10  18  34  60  93 123 150 205 263 307 364
#     4  10  19  35  60  88 116 153 206 254 297 363
#
# _framework density 23.750624999999999
#
# number of rings (size 3 to 8) (size 9 to 14) (size 15 to 20)
#    0.000    1.857    2.857    2.143    2.000    2.857 
#    0.000    4.286    0.000    1.714    0.000    0.000 
#    0.000    0.000    0.000    0.000    0.000    0.000 
#
# Total GULP energy -156494.167796 kJ/mol
# GULP energy per Si atom -5589.077421 kJ/mol
# Density = 2.369657 g / cm^3
# Si number density = 23.750625 Si / 1000 Ang^3
#
#
#
# Elastic Constant Matrix: (Units=GPa)
#
#
# Indices 1 2 3 4 5 6 
#
# 1 36.2632 -4.3975 9.0968 0.0000 -6.0461 0.0000
# 2 -4.3975 112.0646 42.4541 0.0000 5.8105 0.0000
# 3 9.0968 42.4541 142.4623 0.0000 -6.0467 0.0000
# 4 0.0000 0.0000 0.0000 28.5000 0.0000 9.4533
# 5 -6.0461 5.8105 -6.0467 0.0000 22.4125 0.0000
# 6 0.0000 0.0000 0.0000 9.4533 0.0000 2.1454
#
#
#
# Elastic Compliance Matrix: (Units=1/GPa)
#
#
# Indices 1 2 3 4 5 6 
#
# 1 0.029446 0.001571 -0.002052 0.000000 0.006983 0.000000
# 2 0.001571 0.010415 -0.003339 0.000000 -0.003177 0.000000
# 3 -0.002052 -0.003339 0.008253 0.000000 0.002539 0.000000
# 4 0.000000 0.000000 0.000000 -0.076016 0.000000 0.334955
# 5 0.006983 -0.003177 0.002539 0.000000 0.048010 0.000001
# 6 0.000000 0.000000 0.000000 0.334955 0.000001 -1.009825
#
#
# Mechanical properties :
#
#
# Convention : Reuss Voigt Hill
#
# Bulk Modulus (GPa) = 24.70752 42.78856 33.74804
# Shear Modulus (GPa) = -5.16216 26.85400 10.84592
#
# Velocity S-wave (km/s) = -1.47587 3.36618 2.13927
# Velocity P-wave (km/s) = 2.74248 5.75874 4.51023
#
# Compressibility (1/GPa) = 0.04047351
#
# Stress axis : x y z
#
# Youngs Moduli (GPa) = 33.96096 96.01881 121.16614
#
# Poissons Ratio (x) = -0.15082 0.24863
# Poissons Ratio (y) = -0.05334 0.40454
# Poissons Ratio (z) = 0.06969 0.32058
#
# Static dielectric constant tensor:
#      x y z
#    x 2.070450 0.000000 -0.053050 
#    y 0.000000 1.920060 0.000000 
#    z -0.053050 0.000000 1.874960 
# 
# From -- ./inp_files/234650.got.cif
#   From: 2010.05.17/outbox.cif.g08.bks.cpg/sg12_118_cif.got.tgz:234650.got - 2010.06.03 13:09:07.
