data_PCOD9176905
_publ_section_title
;
Structure prediction by ZEFSAII (Michael W. Deem and Ramdas Pophale) SiO2 
 PCOD9176905
Probable space group: C 2/M
;
_chemical_formula_sum "Si O2"
_cell_formula_units_Z 34
_cell_length_a 14.309925
_cell_length_b 7.707306
_cell_length_c 18.071623
_cell_angle_alpha 90.000000
_cell_angle_beta 132.592449
_cell_angle_gamma 90.000000
_cell_volume 1467.320011
_symmetry_space_group_name_H-M "C 2/M"
_symmetry_group_IT_number 12
_symmetry_cell_setting 'monoclinic'
loop_
_space_group_symop_operation_xyz
x,y,z
-x,y,-z
-x,-y,-z
x,-y,z
1/2+x,1/2+y,z
1/2-x,1/2+y,-z
1/2-x,1/2-y,-z
1/2+x,1/2-y,z
loop_
_atom_site_type_symbol
_atom_site_label
_atom_site_fract_x
_atom_site_fract_y
_atom_site_fract_z
Si Si1 0.757168 0.299215 0.735977
Si Si2 0.817809 0.291867 0.612745
Si Si3 0.607412 0.296939 0.794142
Si Si4 0.000000 0.000000 0.000000
Si Si5 0.559562 0.191689 0.929575
O O1 0.714116 0.500000 0.710393
O O2 0.742503 0.226342 0.645376
O O3 0.686494 0.219257 0.768167
O O4 0.907838 0.296938 0.831085
O O5 0.828752 0.500000 0.626161
O O6 0.750000 0.250000 0.500000
O O7 0.959573 0.218423 0.692736
O O8 0.638129 0.500000 0.819272
O O9 0.623067 0.214457 0.883345
O O10 0.077509 0.847147 0.995527
O O11 0.587658 0.000000 0.974541
#
# Coordination Sequence:
#
# PCOD9176905 Si02
#       5
#     8   8   8   2   8
#     4   8  18  36  60  80 113 156 193 233 292 349
#     4  10  20  35  52  83 117 154 196 244 288 335
#     4  10  18  36  61  84 110 154 195 235 291 350
#     4  12  22  40  64  90 112 154 194 236 312 338
#     4  10  21  40  61  86 118 152 191 242 288 354
#
# _framework density 23.171493999999999
#
# number of rings (size 3 to 8) (size 9 to 14) (size 15 to 20)
#    0.000    2.353    1.176    3.176    0.000    0.941 
#    4.235    5.882    0.000    0.000    0.000    0.000 
#    0.000    0.000    0.000    0.000    0.000    0.000 
#
# Total GULP energy -94773.590475 kJ/mol
# GULP energy per Si atom -5574.917087 kJ/mol
# Density = 2.311876 g / cm^3
# Si number density = 23.171494 Si / 1000 Ang^3
#
#
#
# Elastic Constant Matrix: (Units=GPa)
#
#
# Indices 1 2 3 4 5 6 
#
# 1 190.0629 31.8120 66.5782 0.0000 -56.7190 0.0000
# 2 31.8120 131.6844 29.8857 0.0000 -23.0138 0.0000
# 3 66.5782 29.8857 124.4484 0.0000 -27.0338 0.0000
# 4 0.0000 0.0000 0.0000 13.2814 0.0000 -15.6755
# 5 -56.7190 -23.0138 -27.0338 0.0000 40.0588 0.0000
# 6 0.0000 0.0000 0.0000 -15.6755 0.0000 12.3506
#
#
#
# Elastic Compliance Matrix: (Units=1/GPa)
#
#
# Indices 1 2 3 4 5 6 
#
# 1 0.009801 0.000387 -0.002664 0.000000 0.012301 0.000000
# 2 0.000387 0.008597 -0.001265 0.000000 0.004633 0.000000
# 3 -0.002664 -0.001265 0.010297 0.000000 0.002450 0.000000
# 4 0.000000 0.000000 0.000000 -0.151189 0.000000 -0.191892
# 5 0.012301 0.004633 0.002450 0.000000 0.046696 0.000000
# 6 0.000000 0.000000 0.000000 -0.191892 0.000000 -0.162584
#
#
# Mechanical properties :
#
#
# Convention : Reuss Voigt Hill
#
# Bulk Modulus (GPa) = 46.27443 78.08304 62.17873
# Shear Modulus (GPa) = -22.31205 34.33279 6.01037
#
# Velocity S-wave (km/s) = -3.10644 3.85344 1.61230
# Velocity P-wave (km/s) = 2.67341 7.31913 5.50985
#
# Compressibility (1/GPa) = 0.02161021
#
# Stress axis : x y z
#
# Youngs Moduli (GPa) = 102.03182 116.31588 97.11863
#
# Poissons Ratio (x) = -0.04499 0.25872
# Poissons Ratio (y) = -0.03946 0.12286
# Poissons Ratio (z) = 0.27181 0.14715
#
# Static dielectric constant tensor:
#      x y z
#    x 1.906810 0.000000 -0.026700 
#    y 0.000000 1.847580 0.000000 
#    z -0.026700 0.000000 1.868090 
# 
# From -- ./inp_files/266644.got.cif
#   From: 2010.05.17/outbox.cif.g08.bks.cpg/sg12_134_cif.got.tgz:266644.got - 2010.06.03 13:09:07.
