data_PCOD9176893
_publ_section_title
;
Structure prediction by ZEFSAII (Michael W. Deem and Ramdas Pophale) SiO2 
 PCOD9176893
Probable space group: C 2/M
;
_chemical_formula_sum "Si O2"
_cell_formula_units_Z 56
_cell_length_a 9.437101
_cell_length_b 18.476564
_cell_length_c 14.951897
_cell_angle_alpha 90.000000
_cell_angle_beta 91.836688
_cell_angle_gamma 90.000000
_cell_volume 2605.751107
_symmetry_space_group_name_H-M "C 2/M"
_symmetry_group_IT_number 12
_symmetry_cell_setting 'monoclinic'
loop_
_space_group_symop_operation_xyz
x,y,z
-x,y,-z
-x,-y,-z
x,-y,z
1/2+x,1/2+y,z
1/2-x,1/2+y,-z
1/2-x,1/2-y,-z
1/2+x,1/2-y,z
loop_
_atom_site_type_symbol
_atom_site_label
_atom_site_fract_x
_atom_site_fract_y
_atom_site_fract_z
Si Si1 0.283002 0.082162 0.435840
Si Si2 0.958225 0.812941 0.101170
Si Si3 0.626157 0.281476 0.434994
Si Si4 0.228418 0.322761 0.857808
Si Si5 0.017333 0.583686 0.193535
Si Si6 0.595720 0.124508 0.376751
Si Si7 0.230384 0.414296 0.041255
O O1 0.182567 0.144517 0.394583
O O2 0.441904 0.094590 0.402979
O O3 0.298631 0.097496 0.543346
O O4 0.238826 0.000000 0.418711
O O5 0.104923 0.815623 0.158392
O O6 0.845019 0.754930 0.133208
O O7 0.876441 0.889021 0.091053
O O8 0.000000 0.791148 0.000000
O O9 0.500000 0.298039 0.500000
O O10 0.750000 0.250000 0.500000
O O11 0.588171 0.211928 0.374804
O O12 0.122446 0.368713 0.794393
O O13 0.221688 0.367075 0.951506
O O14 0.977260 0.500000 0.187179
O O15 0.122316 0.595496 0.278764
O O16 0.100187 0.603288 0.104642
O O17 0.228431 0.500000 0.023103
#
# Coordination Sequence:
#
# PCOD9176893 Si02
#       7
#     8   8   8   8   8   8   8
#     4  10  19  35  63  89 116 152 195 242 289 344
#     4  10  20  36  59  81 110 148 195 240 284 346
#     4  10  18  36  60  88 113 149 191 237 284 345
#     4  11  21  37  58  82 112 152 193 238 287 342
#     4  11  22  36  58  86 117 149 193 241 285 344
#     4  10  19  37  61  84 117 159 196 231 289 356
#     4  10  21  37  58  84 114 150 191 239 291 338
#
# _framework density 21.490925000000001
#
# number of rings (size 3 to 8) (size 9 to 14) (size 15 to 20)
#    0.000    1.714    2.857    6.000    0.000    4.571 
#    5.143    0.000    0.000    0.000    0.000    0.000 
#    0.000    0.000    0.000    0.000    0.000    0.000 
#
# Total GULP energy -156380.381557 kJ/mol
# GULP energy per Si atom -5585.013627 kJ/mol
# Density = 2.144201 g / cm^3
# Si number density = 21.490925 Si / 1000 Ang^3
#
#
#
# Elastic Constant Matrix: (Units=GPa)
#
#
# Indices 1 2 3 4 5 6 
#
# 1 86.8603 25.3648 -1.2368 0.0000 2.9490 0.0000
# 2 25.3648 130.4316 4.4858 0.0000 -2.9992 0.0000
# 3 -1.2368 4.4858 45.4478 0.0000 7.9846 0.0000
# 4 0.0000 0.0000 0.0000 -141.0830 0.0000 52.1532
# 5 2.9490 -2.9992 7.9846 0.0000 13.2689 0.0000
# 6 0.0000 0.0000 0.0000 52.1532 0.0000 16.7691
#
#
#
# Elastic Compliance Matrix: (Units=1/GPa)
#
#
# Indices 1 2 3 4 5 6 
#
# 1 0.012418 -0.002555 0.001316 0.000000 -0.004129 0.000000
# 2 -0.002555 0.008291 -0.001473 0.000000 0.003328 0.000000
# 3 0.001316 -0.001473 0.024930 0.000000 -0.015627 0.000000
# 4 0.000000 0.000000 0.000000 -0.003297 0.000000 0.010255
# 5 -0.004129 0.003328 -0.015627 0.000000 0.086437 0.000000
# 6 0.000000 0.000000 0.000000 0.010255 0.000000 0.027741
#
#
# Mechanical properties :
#
#
# Convention : Reuss Voigt Hill
#
# Bulk Modulus (GPa) = 24.86672 35.55193 30.20933
# Shear Modulus (GPa) = 28.51469 -6.60061 10.95704
#
# Velocity S-wave (km/s) = 3.64651 -1.75443 2.26042
# Velocity P-wave (km/s) = 5.41529 3.53195 4.57165
#
# Compressibility (1/GPa) = 0.04021439
#
# Stress axis : x y z
#
# Youngs Moduli (GPa) = 80.52969 120.61425 40.11257
#
# Poissons Ratio (x) = 0.30818 -0.05277
# Poissons Ratio (y) = 0.20576 0.05907
# Poissons Ratio (z) = -0.10594 0.17761
#
# Static dielectric constant tensor:
#      x y z
#    x 1.787970 0.000000 0.046930 
#    y 0.000000 1.790460 0.000000 
#    z 0.046930 0.000000 1.846300 
# 
# From -- ./inp_files/257659.got.cif
#   From: 2010.05.17/outbox.cif.g08.bks.cpg/sg12_129_cif.got.tgz:257659.got - 2010.06.03 13:09:07.
