data_PCOD9176220
_publ_section_title
;
Structure prediction by ZEFSAII (Michael W. Deem and Ramdas Pophale) SiO2 
 PCOD9176220
Probable space group: C 2/M
;
_chemical_formula_sum "Si O2"
_cell_formula_units_Z 56
_cell_length_a 14.554823
_cell_length_b 22.713704
_cell_length_c 14.020858
_cell_angle_alpha 90.000000
_cell_angle_beta 41.217786
_cell_angle_gamma 90.000000
_cell_volume 3054.246928
_symmetry_space_group_name_H-M "C 2/M"
_symmetry_group_IT_number 12
_symmetry_cell_setting 'monoclinic'
loop_
_space_group_symop_operation_xyz
x,y,z
-x,y,-z
-x,-y,-z
x,-y,z
1/2+x,1/2+y,z
1/2-x,1/2+y,-z
1/2-x,1/2-y,-z
1/2+x,1/2-y,z
loop_
_atom_site_type_symbol
_atom_site_label
_atom_site_fract_x
_atom_site_fract_y
_atom_site_fract_z
Si Si1 0.963467 0.647220 0.419137
Si Si2 0.699538 0.566960 0.653082
Si Si3 0.249286 0.823178 0.098364
Si Si4 0.485776 0.764644 0.787619
Si Si5 0.380044 0.430486 0.877094
Si Si6 0.255547 0.392191 0.175577
Si Si7 0.349114 0.736170 0.167067
O O1 0.817742 0.612955 0.530632
O O2 0.968781 0.701442 0.342574
O O3 0.000000 0.664409 0.500000
O O4 0.089462 0.602943 0.292559
O O5 0.736477 0.500000 0.597854
O O6 0.545044 0.580423 0.736347
O O7 0.694144 0.571385 0.772661
O O8 0.210163 0.891141 0.124510
O O9 0.272805 0.792352 0.181619
O O10 0.118597 0.788964 0.153096
O O11 0.386730 0.808386 0.927929
O O12 0.615722 0.743014 0.749539
O O13 0.355515 0.500000 0.888809
O O14 0.335519 0.408702 0.017522
O O15 0.278297 0.323749 0.187063
O O16 0.500000 0.733547 0.000000
#
# Coordination Sequence:
#
# PCOD9176220 Si02
#       7
#     8   8   8   8   8   8   8
#     4  10  21  35  54  79 121 150 184 223 274 343
#     4  10  22  35  50  78 118 155 182 223 284 340
#     4  10  18  34  57  85 111 141 186 235 282 327
#     4  10  18  35  58  84 114 146 182 229 286 331
#     4  11  21  34  56  82 110 147 193 237 276 326
#     4  11  18  34  56  84 111 144 192 233 276 335
#     4  10  19  30  59  88 114 144 181 235 291 330
#
# _framework density 18.335125000000001
#
# number of rings (size 3 to 8) (size 9 to 14) (size 15 to 20)
#    0.000    1.714    2.857    4.286    0.000    4.286 
#    0.000    6.429    0.000    4.714    0.000    2.000 
#    0.000    0.000    0.000    0.000    0.000    0.000 
#
# Total GULP energy -156273.119776 kJ/mol
# GULP energy per Si atom -5581.182849 kJ/mol
# Density = 1.829339 g / cm^3
# Si number density = 18.335125 Si / 1000 Ang^3
#
#
#
# Elastic Constant Matrix: (Units=GPa)
#
#
# Indices 1 2 3 4 5 6 
#
# 1 56.6166 30.9024 28.2052 0.0000 -6.7487 -0.0001
# 2 30.9024 94.3921 45.5262 0.0004 -11.1759 -0.0003
# 3 28.2052 45.5262 64.2811 -0.0004 -4.8537 0.0001
# 4 0.0000 0.0004 -0.0004 12.5191 0.0004 -2.7873
# 5 -6.7487 -11.1759 -4.8537 0.0004 19.1418 -0.0002
# 6 -0.0001 -0.0003 0.0001 -2.7873 -0.0002 26.7301
#
#
#
# Elastic Compliance Matrix: (Units=1/GPa)
#
#
# Indices 1 2 3 4 5 6 
#
# 1 0.023967 -0.003668 -0.007588 0.000000 0.004385 0.000000
# 2 -0.003668 0.017522 -0.010323 -0.000001 0.006320 0.000000
# 3 -0.007588 -0.010323 0.026039 0.000001 -0.002100 0.000000
# 4 0.000000 -0.000001 0.000001 0.081776 -0.000002 0.008527
# 5 0.004385 0.006320 -0.002100 -0.000002 0.056945 0.000000
# 6 0.000000 0.000000 0.000000 0.008527 0.000000 0.038300
#
#
# Mechanical properties :
#
#
# Convention : Reuss Voigt Hill
#
# Bulk Modulus (GPa) = 41.03280 47.17306 44.10293
# Shear Modulus (GPa) = 16.90159 19.05527 17.97843
#
# Velocity S-wave (km/s) = 3.03943 3.22728 3.13476
# Velocity P-wave (km/s) = 5.89453 6.29851 6.09986
#
# Compressibility (1/GPa) = 0.02437075
#
# Stress axis : x y z
#
# Youngs Moduli (GPa) = 41.72366 57.07075 38.40439
#
# Poissons Ratio (x) = 0.20932 0.29140
# Poissons Ratio (y) = 0.15303 0.39646
# Poissons Ratio (z) = 0.31658 0.58916
#
# Static dielectric constant tensor:
#      x y z
#    x 1.658120 0.000000 -0.006100 
#    y 0.000000 1.640380 0.000000 
#    z -0.006100 0.000000 1.648450 
# 
# From -- ./inp_files/217667.got.cif
#   From: 2010.05.17/outbox.cif.g08.bks.cpg/sg12_109_cif.got.tgz:217667.got - 2010.06.03 13:09:07.
