data_PCOD9176203
_publ_section_title
;
Structure prediction by ZEFSAII (Michael W. Deem and Ramdas Pophale) SiO2 
 PCOD9176203
Probable space group: C 2/M
;
_chemical_formula_sum "Si O2"
_cell_formula_units_Z 64
_cell_length_a 8.740296
_cell_length_b 14.777356
_cell_length_c 23.886039
_cell_angle_alpha 90.000000
_cell_angle_beta 78.126019
_cell_angle_gamma 90.000000
_cell_volume 3019.071134
_symmetry_space_group_name_H-M "C 2/M"
_symmetry_group_IT_number 12
_symmetry_cell_setting 'monoclinic'
loop_
_space_group_symop_operation_xyz
x,y,z
-x,y,-z
-x,-y,-z
x,-y,z
1/2+x,1/2+y,z
1/2-x,1/2+y,-z
1/2-x,1/2-y,-z
1/2+x,1/2-y,z
loop_
_atom_site_type_symbol
_atom_site_label
_atom_site_fract_x
_atom_site_fract_y
_atom_site_fract_z
Si Si1 0.397857 0.849118 0.269991
Si Si2 0.673524 0.096959 0.331910
Si Si3 0.767738 0.596391 0.164860
Si Si4 0.815541 0.796316 0.116920
Si Si5 0.573021 0.352937 0.773054
Si Si6 0.595811 0.786454 0.041931
Si Si7 0.314801 0.704735 0.620565
Si Si8 0.905009 0.719594 0.456622
O O1 0.527962 0.890414 0.300502
O O2 0.369988 0.897461 0.213560
O O3 0.452967 0.748010 0.249402
O O4 0.233075 0.838688 0.316564
O O5 0.825077 0.098354 0.280985
O O6 0.688963 0.186096 0.369076
O O7 0.660446 0.000000 0.362312
O O8 0.795241 0.500000 0.134029
O O9 0.792536 0.688092 0.128309
O O10 0.589508 0.602575 0.199222
O O11 0.831783 0.840932 0.176114
O O12 0.670149 0.832064 0.091490
O O13 0.981361 0.794222 0.072009
O O14 0.500000 0.836445 0.000000
O O15 0.750000 0.750000 0.000000
O O16 0.173890 0.672733 0.590904
O O17 0.483140 0.700565 0.577408
O O18 0.750000 0.750000 0.500000
O O19 0.000000 0.672815 0.500000
#
# Coordination Sequence:
#
# PCOD9176203 Si02
#       8
#     8   8   8   8   8   8   8   8
#     4  10  20  34  54  78 109 143 183 214 250 314
#     4  11  22  34  51  81 115 144 173 211 263 323
#     4  11  22  34  51  81 116 144 171 212 264 321
#     4  10  18  34  57  82 104 142 176 220 264 312
#     4  10  20  34  54  78 109 144 182 213 252 316
#     4   9  18  32  56  86 101 125 183 237 261 301
#     4  10  18  34  57  82 105 141 176 221 265 310
#     4   9  18  32  56  86 101 125 183 237 262 302
#
# _framework density 21.198573
#
# number of rings (size 3 to 8) (size 9 to 14) (size 15 to 20)
#    0.000    2.000    2.500    3.000    3.500    0.000 
#    0.000    0.000    0.000    7.500    0.000    0.000 
#    0.000    0.000    0.000    0.000    0.000    0.000 
#
# Total GULP energy -178204.456958 kJ/mol
# GULP energy per Si atom -5568.889280 kJ/mol
# Density = 2.115032 g / cm^3
# Si number density = 21.198573 Si / 1000 Ang^3
#
#
#
# Elastic Constant Matrix: (Units=GPa)
#
#
# Indices 1 2 3 4 5 6 
#
# 1 94.7356 0.8798 16.7515 0.0000 4.5655 0.0000
# 2 0.8798 68.9197 2.1177 0.0000 2.5916 0.0000
# 3 16.7515 2.1177 71.6709 0.0000 2.9506 0.0000
# 4 0.0000 0.0000 0.0000 0.0612 0.0000 1.5915
# 5 4.5655 2.5916 2.9506 0.0000 46.5420 0.0000
# 6 0.0000 0.0000 0.0000 1.5915 0.0000 -44.9756
#
#
#
# Elastic Compliance Matrix: (Units=1/GPa)
#
#
# Indices 1 2 3 4 5 6 
#
# 1 0.011050 -0.000028 -0.002544 0.000000 -0.000921 0.000000
# 2 -0.000028 0.014551 -0.000391 0.000000 -0.000783 0.000000
# 3 -0.002544 -0.000391 0.014586 0.000000 -0.000653 0.000000
# 4 0.000000 0.000000 0.000000 8.508583 0.000000 0.301080
# 5 -0.000921 -0.000783 -0.000653 0.000000 0.021661 0.000000
# 6 0.000000 0.000000 0.000000 0.301080 0.000000 -0.011580
#
#
# Mechanical properties :
#
#
# Convention : Reuss Voigt Hill
#
# Bulk Modulus (GPa) = 29.18805 30.53604 29.86204
# Shear Modulus (GPa) = 0.58301 14.69732 7.64017
#
# Velocity S-wave (km/s) = 0.52500 2.63595 1.90050
# Velocity P-wave (km/s) = 3.76381 4.86830 4.35124
#
# Compressibility (1/GPa) = 0.03426059
#
# Stress axis : x y z
#
# Youngs Moduli (GPa) = 90.49619 68.72169 68.56021
#
# Poissons Ratio (x) = 0.00194 0.17442
# Poissons Ratio (y) = 0.00256 0.02682
# Poissons Ratio (z) = 0.23022 0.02688
#
# Static dielectric constant tensor:
#      x y z
#    x 1.831700 0.000000 0.004180 
#    y 0.000000 3.867570 0.000000 
#    z 0.004180 0.000000 1.851550 
# 
# From -- ./inp_files/356157.got.cif
#   From: 2010.05.17/outbox.cif.g08.bks.cpg/sg12_179_cif.got.tgz:356157.got - 2010.06.03 13:09:07.
