data_PCOD9176804
_publ_section_title
;
Structure prediction by ZEFSAII (Michael W. Deem and Ramdas Pophale) SiO2 
 PCOD9176804
Probable space group: C 2/M
;
_chemical_formula_sum "Si O2"
_cell_formula_units_Z 48
_cell_length_a 17.031566
_cell_length_b 12.987236
_cell_length_c 22.026518
_cell_angle_alpha 90.000000
_cell_angle_beta 25.255310
_cell_angle_gamma 90.000000
_cell_volume 2078.698577
_symmetry_space_group_name_H-M "C 2/M"
_symmetry_group_IT_number 12
_symmetry_cell_setting 'monoclinic'
loop_
_space_group_symop_operation_xyz
x,y,z
-x,y,-z
-x,-y,-z
x,-y,z
1/2+x,1/2+y,z
1/2-x,1/2+y,-z
1/2-x,1/2-y,-z
1/2+x,1/2-y,z
loop_
_atom_site_type_symbol
_atom_site_label
_atom_site_fract_x
_atom_site_fract_y
_atom_site_fract_z
Si Si1 0.264992 0.881562 0.144918
Si Si2 0.363360 0.157135 0.890873
Si Si3 0.391136 0.696610 0.356569
Si Si4 0.953129 0.836167 0.967212
Si Si5 0.207328 0.670883 0.364384
Si Si6 0.702771 0.889383 0.731556
O O1 0.051537 0.868990 0.275804
O O2 0.322480 0.000000 0.087915
O O3 0.366975 0.779550 0.044847
O O4 0.715031 0.875383 0.795839
O O5 0.504600 0.207141 0.746004
O O6 0.493135 0.109807 0.851539
O O7 0.250000 0.250000 0.000000
O O8 0.204996 0.108062 0.960916
O O9 0.250000 0.750000 0.500000
O O10 0.291632 0.639050 0.370193
O O11 0.137646 0.842483 0.796694
O O12 0.000000 0.879922 0.000000
O O13 0.198338 0.795360 0.370509
O O14 0.000000 0.630908 0.500000
O O15 0.782689 0.000000 0.660537
#
# Coordination Sequence:
#
# PCOD9176804 Si02
#       6
#     8   8   8   8   8   8
#     4  10  21  36  60  91 121 149 187 236 291 350
#     4  10  18  36  56  78 112 149 189 232 277 337
#     4  10  21  36  57  82 115 156 197 230 278 344
#     4  11  20  36  59  84 110 148 197 237 282 335
#     4  11  22  37  56  82 114 150 193 238 283 338
#     4  10  20  36  57  86 119 147 179 229 293 350
#
# _framework density 23.091370999999999
#
# number of rings (size 3 to 8) (size 9 to 14) (size 15 to 20)
#    0.000    1.667    5.000    1.000    2.333    1.333 
#    0.000    5.000    0.000    1.000    0.000    0.000 
#    0.000    0.000    0.000    0.000    0.000    0.000 
#
# Total GULP energy -133734.927058 kJ/mol
# GULP energy per Si atom -5572.288627 kJ/mol
# Density = 2.303881 g / cm^3
# Si number density = 23.091371 Si / 1000 Ang^3
#
#
#
# Elastic Constant Matrix: (Units=GPa)
#
#
# Indices 1 2 3 4 5 6 
#
# 1 235.2898 28.4914 82.5023 -0.0014 -42.8367 -0.0010
# 2 28.4914 93.6405 19.3086 -0.0036 -1.4996 -0.0018
# 3 82.5023 19.3086 167.7914 -0.0099 -21.2951 0.0000
# 4 -0.0014 -0.0036 -0.0099 2.7094 0.0059 -4.7345
# 5 -42.8367 -1.4996 -21.2951 0.0059 52.0243 -0.0009
# 6 -0.0010 -0.0018 0.0000 -4.7345 -0.0009 -4.7926
#
#
#
# Elastic Compliance Matrix: (Units=1/GPa)
#
#
# Indices 1 2 3 4 5 6 
#
# 1 0.005908 -0.001268 -0.002264 -0.000007 0.003901 0.000005
# 2 -0.001268 0.011213 -0.000800 0.000003 -0.001048 -0.000006
# 3 -0.002264 -0.000800 0.007305 0.000008 0.001103 -0.000008
# 4 -0.000007 0.000003 0.000008 0.135383 -0.000019 -0.133741
# 5 0.003901 -0.001048 0.001103 -0.000019 0.022855 0.000015
# 6 0.000005 -0.000006 -0.000008 -0.133741 0.000015 -0.076535
#
#
# Mechanical properties :
#
#
# Convention : Reuss Voigt Hill
#
# Bulk Modulus (GPa) = 63.44317 84.14737 73.79527
# Shear Modulus (GPa) = 41.65061 34.41617 38.03339
#
# Velocity S-wave (km/s) = 4.25164 3.86480 4.06283
# Velocity P-wave (km/s) = 7.18585 7.51237 7.35092
#
# Compressibility (1/GPa) = 0.01576214
#
# Stress axis : x y z
#
# Youngs Moduli (GPa) = 169.27220 89.18100 136.89482
#
# Poissons Ratio (x) = 0.11310 0.30989
# Poissons Ratio (y) = 0.21468 0.10949
# Poissons Ratio (z) = 0.38318 0.07133
#
# Static dielectric constant tensor:
#      x y z
#    x 1.932260 0.000000 -0.052720 
#    y 0.000000 1.893930 0.000000 
#    z -0.052720 0.000000 1.853450 
# 
# From -- ./inp_files/366644.got.cif
#   From: 2010.05.17/outbox.cif.g08.bks.cpg/sg12_184_cif.got.tgz:366644.got - 2010.06.03 13:09:07.
