data_PCOD9176967
_publ_section_title
;
Structure prediction by ZEFSAII (Michael W. Deem and Ramdas Pophale) SiO2 
 PCOD9176967
Probable space group: C 2/M
;
_chemical_formula_sum "Si O2"
_cell_formula_units_Z 60
_cell_length_a 30.657413
_cell_length_b 12.395324
_cell_length_c 9.166812
_cell_angle_alpha 90.000000
_cell_angle_beta 119.947437
_cell_angle_gamma 90.000000
_cell_volume 3018.367588
_symmetry_space_group_name_H-M "C 2/M"
_symmetry_group_IT_number 12
_symmetry_cell_setting 'monoclinic'
loop_
_space_group_symop_operation_xyz
x,y,z
-x,y,-z
-x,-y,-z
x,-y,z
1/2+x,1/2+y,z
1/2-x,1/2+y,-z
1/2-x,1/2-y,-z
1/2+x,1/2-y,z
loop_
_atom_site_type_symbol
_atom_site_label
_atom_site_fract_x
_atom_site_fract_y
_atom_site_fract_z
Si Si1 0.951181 0.798287 0.019810
Si Si2 0.794276 0.875489 0.234095
Si Si3 0.433955 0.626312 0.287279
Si Si4 0.397488 0.698934 0.526182
Si Si5 0.107436 0.625085 0.242259
Si Si6 0.321218 0.622981 0.967677
Si Si7 0.212802 0.297642 0.316284
Si Si8 0.410631 0.500000 0.776954
O O1 0.920342 0.690239 0.934102
O O2 0.921345 0.904960 0.917798
O O3 0.964962 0.816348 0.211211
O O4 0.000000 0.797077 0.000000
O O5 0.839454 0.803861 0.373663
O O6 0.746100 0.863047 0.255710
O O7 0.812134 0.000000 0.268651
O O8 0.785910 0.853171 0.048843
O O9 0.447173 0.500000 0.322850
O O10 0.431660 0.681458 0.440676
O O11 0.376722 0.633292 0.129103
O O12 0.405755 0.805962 0.635159
O O13 0.403505 0.595860 0.641811
O O14 0.093607 0.500000 0.227236
O O15 0.167117 0.637770 0.312239
O O16 0.313528 0.500000 0.906767
O O17 0.311191 0.700362 0.816873
O O18 0.250000 0.250000 0.500000
#
# Coordination Sequence:
#
# PCOD9176967 Si02
#       8
#     8   8   8   8   8   8   8   4
#     4  11  23  40  65  92 125 159 203 254 310 369
#     4  10  19  35  56  84 120 156 198 234 296 366
#     4  10  18  36  64  94 124 154 196 242 314 378
#     4  10  19  37  61  88 127 163 192 244 309 366
#     4  11  25  44  59  84 123 165 214 257 300 356
#     4   9  20  35  56  84 117 159 195 240 294 364
#     4  12  22  36  57  87 120 157 201 255 294 353
#     4  10  19  34  61  98 126 152 186 246 317 364
#
# _framework density 19.878295000000001
#
# number of rings (size 3 to 8) (size 9 to 14) (size 15 to 20)
#    0.000    1.600    4.667    1.800    0.000    1.333 
#    0.000    4.000    0.000    0.800    0.000    0.000 
#    0.000    0.000    0.000    0.000    0.000    0.000 
#
# Total GULP energy -167066.181647 kJ/mol
# GULP energy per Si atom -5568.872722 kJ/mol
# Density = 1.983305 g / cm^3
# Si number density = 19.878295 Si / 1000 Ang^3
#
#
#
# Elastic Constant Matrix: (Units=GPa)
#
#
# Indices 1 2 3 4 5 6 
#
# 1 83.1574 19.0547 29.6683 0.0000 -26.0106 0.0000
# 2 19.0547 145.1772 48.0119 0.0000 -1.8638 0.0000
# 3 29.6683 48.0119 96.9832 0.0000 -9.8773 0.0000
# 4 0.0000 0.0000 0.0000 20.5201 0.0000 -6.4354
# 5 -26.0106 -1.8638 -9.8773 0.0000 21.0307 0.0000
# 6 0.0000 0.0000 0.0000 -6.4354 0.0000 4.1141
#
#
#
# Elastic Compliance Matrix: (Units=1/GPa)
#
#
# Indices 1 2 3 4 5 6 
#
# 1 0.021195 -0.001374 -0.003304 0.000000 0.024540 0.000000
# 2 -0.001374 0.008357 -0.004006 0.000000 -0.002840 0.000000
# 3 -0.003304 -0.004006 0.013498 0.000000 0.001898 0.000000
# 4 0.000000 0.000000 0.000000 0.095661 0.000000 0.149637
# 5 0.024540 -0.002840 0.001898 0.000000 0.078540 0.000000
# 6 0.000000 0.000000 0.000000 0.149637 0.000000 0.477136
#
#
# Mechanical properties :
#
#
# Convention : Reuss Voigt Hill
#
# Bulk Modulus (GPa) = 38.93852 57.64307 48.29080
# Shear Modulus (GPa) = 6.94139 24.37183 15.65661
#
# Velocity S-wave (km/s) = 1.87070 3.50530 2.80951
# Velocity P-wave (km/s) = 4.92920 6.74120 5.90512
#
# Compressibility (1/GPa) = 0.02568151
#
# Stress axis : x y z
#
# Youngs Moduli (GPa) = 47.18114 119.66216 74.08301
#
# Poissons Ratio (x) = 0.16442 0.24479
# Poissons Ratio (y) = 0.06483 0.29678
# Poissons Ratio (z) = 0.15590 0.47937
#
# Static dielectric constant tensor:
#      x y z
#    x 1.807320 0.000000 -0.014150 
#    y 0.000000 1.654740 0.000000 
#    z -0.014150 0.000000 1.732750 
# 
# From -- ./inp_files/110514.got.cif
#   From: 2010.05.17/outbox.cif.g08.bks.cpg/sg12_56_cif.got.tgz:110514.got - 2010.06.03 13:09:07.
