data_PCOD9176336
_publ_section_title
;
Structure prediction by ZEFSAII (Michael W. Deem and Ramdas Pophale) SiO2 
 PCOD9176336
Probable space group: C 2/M
;
_chemical_formula_sum "Si O2"
_cell_formula_units_Z 48
_cell_length_a 23.752514
_cell_length_b 8.677573
_cell_length_c 12.378571
_cell_angle_alpha 90.000000
_cell_angle_beta 111.476009
_cell_angle_gamma 90.000000
_cell_volume 2374.257731
_symmetry_space_group_name_H-M "C 2/M"
_symmetry_group_IT_number 12
_symmetry_cell_setting 'monoclinic'
loop_
_space_group_symop_operation_xyz
x,y,z
-x,y,-z
-x,-y,-z
x,-y,z
1/2+x,1/2+y,z
1/2-x,1/2+y,-z
1/2-x,1/2-y,-z
1/2+x,1/2-y,z
loop_
_atom_site_type_symbol
_atom_site_label
_atom_site_fract_x
_atom_site_fract_y
_atom_site_fract_z
Si Si1 0.490687 0.317921 0.121868
Si Si2 0.104393 0.683098 0.325442
Si Si3 0.352659 0.687680 0.035357
Si Si4 0.798591 0.815705 0.767747
Si Si5 0.823122 0.815978 0.247410
Si Si6 0.929392 0.314004 0.456664
O O1 0.496001 0.500000 0.151876
O O2 0.542533 0.229179 0.221478
O O3 0.422584 0.265371 0.097717
O O4 0.500000 0.302812 0.000000
O O5 0.111687 0.500000 0.327274
O O6 0.159866 0.758242 0.300459
O O7 0.097095 0.730233 0.444864
O O8 0.352285 0.500000 0.032110
O O9 0.317539 0.736643 0.118398
O O10 0.327094 0.740407 0.902297
O O11 0.730181 0.756550 0.719324
O O12 0.799193 0.000000 0.768482
O O13 0.887886 0.763757 0.337589
O O14 0.818621 0.000000 0.247325
O O15 0.925952 0.500000 0.443209
O O16 0.000000 0.270692 0.500000
#
# Coordination Sequence:
#
# PCOD9176336 Si02
#       6
#     8   8   8   8   8   8
#     4  10  18  34  59  86 119 157 193 232 289 356
#     4  11  23  38  59  90 122 153 198 250 293 342
#     4   9  19  36  59  88 121 157 196 241 291 350
#     4  11  22  40  62  85 120 162 198 237 298 359
#     4  11  23  39  61  90 120 152 200 250 292 345
#     4  10  23  44  65  86 118 157 197 241 294 354
#
# _framework density 20.216843999999998
#
# number of rings (size 3 to 8) (size 9 to 14) (size 15 to 20)
#    0.000    1.667    1.667    3.000    0.000    2.667 
#    0.000    3.333    0.000    0.000    0.000    0.000 
#    0.000    0.000    0.000    0.000    0.000    0.000 
#
# Total GULP energy -134148.015825 kJ/mol
# GULP energy per Si atom -5589.500659 kJ/mol
# Density = 2.017083 g / cm^3
# Si number density = 20.216844 Si / 1000 Ang^3
#
#
#
# Elastic Constant Matrix: (Units=GPa)
#
#
# Indices 1 2 3 4 5 6 
#
# 1 119.6887 22.8527 31.0030 0.0000 -11.9318 0.0000
# 2 22.8527 30.5323 27.4287 0.0000 -9.0984 0.0000
# 3 31.0030 27.4287 73.7722 0.0000 -14.5621 0.0000
# 4 0.0000 0.0000 0.0000 63.5107 0.0000 50.6074
# 5 -11.9318 -9.0984 -14.5621 0.0000 29.3705 0.0000
# 6 0.0000 0.0000 0.0000 50.6074 0.0000 85.8222
#
#
#
# Elastic Compliance Matrix: (Units=1/GPa)
#
#
# Indices 1 2 3 4 5 6 
#
# 1 0.010020 -0.005316 -0.001946 0.000000 0.001459 0.000000
# 2 -0.005316 0.053270 -0.016340 0.000000 0.006241 0.000000
# 3 -0.001946 -0.016340 0.021386 0.000000 0.004751 0.000000
# 4 0.000000 0.000000 0.000000 0.029701 0.000000 -0.017514
# 5 0.001459 0.006241 0.004751 0.000000 0.038929 0.000000
# 6 0.000000 0.000000 0.000000 -0.017514 0.000000 0.021980
#
#
# Mechanical properties :
#
#
# Convention : Reuss Voigt Hill
#
# Bulk Modulus (GPa) = 26.68737 42.95134 34.81936
# Shear Modulus (GPa) = 21.27831 45.25457 33.26644
#
# Velocity S-wave (km/s) = 3.24775 4.73637 4.06085
# Velocity P-wave (km/s) = 5.22428 7.15558 6.26480
#
# Compressibility (1/GPa) = 0.03747091
#
# Stress axis : x y z
#
# Youngs Moduli (GPa) = 99.80406 18.77230 46.75923
#
# Poissons Ratio (x) = 0.09980 0.09100
# Poissons Ratio (y) = 0.53060 0.76404
# Poissons Ratio (z) = 0.19424 0.30674
#
# Static dielectric constant tensor:
#      x y z
#    x 1.705460 0.000000 -0.010400 
#    y 0.000000 1.687280 0.000000 
#    z -0.010400 0.000000 1.716590 
# 
# From -- ./inp_files/173034.got.cif
#   From: 2010.05.17/outbox.cif.g08.bks.cpg/sg12_87_cif.got.tgz:173034.got - 2010.06.03 13:09:07.
