data_PCOD9176298
_publ_section_title
;
Structure prediction by ZEFSAII (Michael W. Deem and Ramdas Pophale) SiO2 
 PCOD9176298
Probable space group: C 2/M
;
_chemical_formula_sum "Si O2"
_cell_formula_units_Z 42
_cell_length_a 15.038841
_cell_length_b 7.364400
_cell_length_c 18.198622
_cell_angle_alpha 90.000000
_cell_angle_beta 58.199074
_cell_angle_gamma 90.000000
_cell_volume 1712.970899
_symmetry_space_group_name_H-M "C 2/M"
_symmetry_group_IT_number 12
_symmetry_cell_setting 'monoclinic'
loop_
_space_group_symop_operation_xyz
x,y,z
-x,y,-z
-x,-y,-z
x,-y,z
1/2+x,1/2+y,z
1/2-x,1/2+y,-z
1/2-x,1/2-y,-z
1/2+x,1/2-y,z
loop_
_atom_site_type_symbol
_atom_site_label
_atom_site_fract_x
_atom_site_fract_y
_atom_site_fract_z
Si Si1 0.415655 0.718790 0.473227
Si Si2 0.844239 0.717160 0.017057
Si Si3 0.258110 0.777489 0.344772
Si Si4 0.500000 0.500000 0.000000
Si Si5 0.708572 0.707545 0.208556
Si Si6 0.480302 0.795701 0.281171
O O1 0.500000 0.758397 0.500000
O O2 0.415157 0.500000 0.463838
O O3 0.305853 0.781355 0.555719
O O4 0.448536 0.797367 0.381171
O O5 0.865019 0.500000 0.008524
O O6 0.792664 0.786204 0.116663
O O7 0.750000 0.750000 0.000000
O O8 0.947141 0.839452 0.968981
O O9 0.203823 0.717884 0.292979
O O10 0.377307 0.714870 0.289658
O O11 0.257112 0.000000 0.349726
O O12 0.741392 0.500000 0.203289
O O13 0.593143 0.709113 0.225118
O O14 0.492928 0.000000 0.248075
#
# Coordination Sequence:
#
# PCOD9176298 Si02
#       6
#     8   8   8   2   8   8
#     4  10  18  34  59  76 112 172 219 264 322 392
#     4  11  25  48  79 112 150 195 241 303 373 452
#     4   9  19  37  57  84 122 167 219 269 328 397
#     4  12  26  48  84 112 152 186 250 294 374 448
#     4  10  22  43  66  92 130 172 221 272 336 415
#     4  11  22  34  57  90 124 164 212 276 340 388
#
# _framework density 24.518803999999999
#
# number of rings (size 3 to 8) (size 9 to 14) (size 15 to 20)
#    0.000    1.714    2.857    1.429    1.333    1.905 
#    0.000    4.762    0.000    0.000    0.000    0.000 
#    0.000    0.000    0.000    0.000    0.000    0.000 
#
# Total GULP energy -117097.198887 kJ/mol
# GULP energy per Si atom -5576.057090 kJ/mol
# Density = 2.446300 g / cm^3
# Si number density = 24.518804 Si / 1000 Ang^3
#
#
#
# Elastic Constant Matrix: (Units=GPa)
#
#
# Indices 1 2 3 4 5 6 
#
# 1 106.8263 15.8933 -15.5429 0.0000 1.0152 0.0001
# 2 15.8933 135.5237 -12.0176 0.0000 6.5229 0.0002
# 3 -15.5429 -12.0176 46.9972 0.0000 -10.3744 0.0000
# 4 0.0000 0.0000 0.0000 -10.9260 0.0000 3.3903
# 5 1.0152 6.5229 -10.3744 0.0000 19.8610 0.0000
# 6 0.0001 0.0002 0.0000 3.3903 0.0000 20.6328
#
#
#
# Elastic Compliance Matrix: (Units=1/GPa)
#
#
# Indices 1 2 3 4 5 6 
#
# 1 0.009982 -0.000944 0.003409 0.000000 0.001580 0.000000
# 2 -0.000944 0.007688 0.001251 0.000000 -0.001823 0.000000
# 3 0.003409 0.001251 0.025541 0.000000 0.012756 0.000000
# 4 0.000000 0.000000 0.000000 -0.087084 0.000000 0.014309
# 5 0.001580 -0.001823 0.012756 0.000000 0.057531 0.000000
# 6 0.000000 0.000000 0.000000 0.014309 0.000000 0.046115
#
#
# Mechanical properties :
#
#
# Convention : Reuss Voigt Hill
#
# Bulk Modulus (GPa) = 19.74626 29.55700 24.65163
# Shear Modulus (GPa) = 72.22962 25.98117 49.10540
#
# Velocity S-wave (km/s) = 5.43349 3.25875 4.48008
# Velocity P-wave (km/s) = 6.88729 5.12252 6.06939
#
# Compressibility (1/GPa) = 0.05064250
#
# Stress axis : x y z
#
# Youngs Moduli (GPa) = 100.17579 130.06878 39.15276
#
# Poissons Ratio (x) = 0.12285 -0.13346
# Poissons Ratio (y) = 0.09461 -0.04898
# Poissons Ratio (z) = -0.34148 -0.16273
#
# Static dielectric constant tensor:
#      x y z
#    x 1.959680 0.000000 -0.019180 
#    y 0.000000 1.945460 0.000000 
#    z -0.019180 0.000000 2.006110 
# 
# From -- ./inp_files/267522.got.cif
#   From: 2010.05.17/outbox.cif.g08.bks.cpg/sg12_134_cif.got.tgz:267522.got - 2010.06.03 13:09:07.
