data_PCOD9176023
_publ_section_title
;
Structure prediction by ZEFSAII (Michael W. Deem and Ramdas Pophale) SiO2 
 PCOD9176023
Probable space group: C 2/M
;
_chemical_formula_sum "Si O2"
_cell_formula_units_Z 64
_cell_length_a 18.507022
_cell_length_b 21.790218
_cell_length_c 20.904751
_cell_angle_alpha 90.000000
_cell_angle_beta 27.516750
_cell_angle_gamma 90.000000
_cell_volume 3894.866007
_symmetry_space_group_name_H-M "C 2/M"
_symmetry_group_IT_number 12
_symmetry_cell_setting 'monoclinic'
loop_
_space_group_symop_operation_xyz
x,y,z
-x,y,-z
-x,-y,-z
x,-y,z
1/2+x,1/2+y,z
1/2-x,1/2+y,-z
1/2-x,1/2-y,-z
1/2+x,1/2-y,z
loop_
_atom_site_type_symbol
_atom_site_label
_atom_site_fract_x
_atom_site_fract_y
_atom_site_fract_z
Si Si1 0.431655 0.329704 0.348503
Si Si2 0.009139 0.428994 0.420392
Si Si3 0.855492 0.070016 0.305492
Si Si4 0.617507 0.807269 0.669007
Si Si5 0.489802 0.637762 0.084572
Si Si6 0.742694 0.292757 0.168976
Si Si7 0.665218 0.846792 0.192232
Si Si8 0.077495 0.718267 0.846410
O O1 0.430414 0.382236 0.296015
O O2 0.409804 0.263490 0.331386
O O3 0.279649 0.332598 0.513367
O O4 0.593221 0.329259 0.260931
O O5 0.062126 0.500000 0.381584
O O6 0.830586 0.427576 0.536718
O O7 0.000000 0.404636 0.500000
O O8 0.114502 0.389796 0.290457
O O9 0.889263 0.091977 0.206419
O O10 0.908037 0.000000 0.272579
O O11 0.472799 0.843260 0.750977
O O12 0.616885 0.805495 0.745632
O O13 0.429627 0.707183 0.143814
O O14 0.500000 0.627430 0.000000
O O15 0.669370 0.633441 0.966722
O O16 0.695268 0.221375 0.196483
O O17 0.797716 0.302496 0.198410
O O18 0.901850 0.302203 0.003598
#
# Coordination Sequence:
#
# PCOD9176023 Si02
#       8
#     8   8   8   8   8   8   8   8
#     4  10  20  35  50  79 104 137 180 220 260 314
#     4  10  21  35  51  70 101 147 187 216 255 305
#     4  11  23  37  53  74 107 148 185 222 258 305
#     4  10  20  31  52  77 106 134 173 219 265 319
#     4  11  20  33  52  77 110 141 178 214 255 314
#     4   9  20  32  53  79 107 136 170 208 272 324
#     4  10  19  33  50  75 104 141 172 217 263 308
#     4  10  18  34  51  81 108 140 166 208 276 325
#
# _framework density 16.431887
#
# number of rings (size 3 to 8) (size 9 to 14) (size 15 to 20)
#    0.000    1.875    5.000    0.750    1.750    2.750 
#    0.000    0.000    0.000    0.000    0.000    4.375 
#    0.000    0.000    0.000    0.000    0.000    0.000 
#
# Total GULP energy -178473.392212 kJ/mol
# GULP energy per Si atom -5577.293507 kJ/mol
# Density = 1.639449 g / cm^3
# Si number density = 16.431887 Si / 1000 Ang^3
#
#
#
# Elastic Constant Matrix: (Units=GPa)
#
#
# Indices 1 2 3 4 5 6 
#
# 1 101.0996 14.2441 38.4547 0.0009 3.8133 -0.0039
# 2 14.2441 40.7457 14.8091 0.0061 4.0843 -0.0050
# 3 38.4547 14.8091 48.9676 0.0188 1.8464 -0.0097
# 4 0.0009 0.0061 0.0188 14.1304 -0.0128 4.6208
# 5 3.8133 4.0843 1.8464 -0.0128 35.8980 0.0010
# 6 -0.0039 -0.0050 -0.0097 4.6208 0.0010 18.2546
#
#
#
# Elastic Compliance Matrix: (Units=1/GPa)
#
#
# Indices 1 2 3 4 5 6 
#
# 1 0.014167 -0.000939 -0.010810 0.000015 -0.000842 -0.000007
# 2 -0.000939 0.027902 -0.007599 -0.000006 -0.002684 0.000005
# 3 -0.010810 -0.007599 0.031193 -0.000045 0.000408 0.000024
# 4 0.000015 -0.000006 -0.000045 0.077156 0.000029 -0.019531
# 5 -0.000842 -0.002684 0.000408 0.000029 0.028231 -0.000010
# 6 -0.000007 0.000005 0.000024 -0.019531 -0.000010 0.059725
#
#
# Mechanical properties :
#
#
# Convention : Reuss Voigt Hill
#
# Bulk Modulus (GPa) = 28.93052 36.20319 32.56685
# Shear Modulus (GPa) = 17.32549 21.87693 19.60121
#
# Velocity S-wave (km/s) = 3.25065 3.65275 3.45755
# Velocity P-wave (km/s) = 5.63325 6.31429 5.98347
#
# Compressibility (1/GPa) = 0.03456558
#
# Stress axis : x y z
#
# Youngs Moduli (GPa) = 70.58696 35.83984 32.05806
#
# Poissons Ratio (x) = 0.03367 0.34653
# Poissons Ratio (y) = 0.06631 0.24362
# Poissons Ratio (z) = 0.76302 0.27236
#
# Static dielectric constant tensor:
#      x y z
#    x 1.561140 0.000000 -0.016470 
#    y 0.000000 1.534540 0.000010 
#    z -0.016470 0.000010 1.562290 
# 
# From -- ./inp_files/77517.got.cif
#   From: 2010.05.17/outbox.cif.g08.bks.cpg/sg12_39_cif.got.tgz:77517.got - 2010.06.03 13:09:07.
