data_PCOD9176142
_publ_section_title
;
Structure prediction by ZEFSAII (Michael W. Deem and Ramdas Pophale) SiO2 
 PCOD9176142
Probable space group: C 2/M
;
_chemical_formula_sum "Si O2"
_cell_formula_units_Z 58
_cell_length_a 13.834887
_cell_length_b 33.949281
_cell_length_c 5.371313
_cell_angle_alpha 90.000000
_cell_angle_beta 90.768033
_cell_angle_gamma 90.000000
_cell_volume 2522.595625
_symmetry_space_group_name_H-M "C 2/M"
_symmetry_group_IT_number 12
_symmetry_cell_setting 'monoclinic'
loop_
_space_group_symop_operation_xyz
x,y,z
-x,y,-z
-x,-y,-z
x,-y,z
1/2+x,1/2+y,z
1/2-x,1/2+y,-z
1/2-x,1/2-y,-z
1/2+x,1/2-y,z
loop_
_atom_site_type_symbol
_atom_site_label
_atom_site_fract_x
_atom_site_fract_y
_atom_site_fract_z
Si Si1 0.166709 0.953429 0.298851
Si Si2 0.105015 0.568377 0.691170
Si Si3 0.119362 0.262732 0.753264
Si Si4 0.376398 0.886957 0.814454
Si Si5 0.897449 0.295797 0.745554
Si Si6 0.439926 0.320833 0.245325
Si Si7 0.000000 0.500000 0.000000
Si Si8 0.351262 0.406733 0.201828
O O1 0.283523 0.947364 0.301758
O O2 0.130555 0.933166 0.552436
O O3 0.145835 0.000000 0.291184
O O4 0.129253 0.931011 0.050784
O O5 0.089673 0.584729 0.411094
O O6 0.097274 0.602546 0.899899
O O7 0.042636 0.533726 0.809975
O O8 0.156000 0.283245 0.506453
O O9 0.131673 0.216090 0.742625
O O10 0.003506 0.274817 0.748549
O O11 0.155527 0.281218 0.009175
O O12 0.406461 0.842665 0.755643
O O13 0.261270 0.894129 0.802816
O O14 0.500000 0.318456 0.500000
O O15 0.404220 0.365216 0.217928
O O16 0.500000 0.312091 0.000000
#
# Coordination Sequence:
#
# PCOD9176142 Si02
#       8
#     8   8   8   8   8   8   2   8
#     4  10  19  41  64  86 116 162 201 238 291 362
#     4  10  23  37  57  84 122 161 201 250 291 330
#     4  10  19  33  55  82 108 156 203 229 290 355
#     4  10  22  40  55  83 123 157 200 251 288 347
#     4  10  18  34  56  80 112 156 199 233 280 353
#     4  12  21  40  63  88 122 147 195 251 300 369
#     4  12  24  38  56  94 120 162 212 246 288 342
#     4  10  23  37  63  92 114 155 203 239 305 355
#
# _framework density 22.992191999999999
#
# number of rings (size 3 to 8) (size 9 to 14) (size 15 to 20)
#    0.000    1.655    3.448    2.069    0.000    4.966 
#    0.000    1.379    0.000    8.276    0.000    0.000 
#    0.000    0.000    0.000    0.000    0.000    0.000 
#
# Total GULP energy -161868.148408 kJ/mol
# GULP energy per Si atom -5581.660290 kJ/mol
# Density = 2.293986 g / cm^3
# Si number density = 22.992192 Si / 1000 Ang^3
#
#
#
# Elastic Constant Matrix: (Units=GPa)
#
#
# Indices 1 2 3 4 5 6 
#
# 1 26.6111 12.4102 21.6862 0.0000 5.4890 0.0000
# 2 12.4102 216.4827 91.1190 0.0000 6.9773 0.0000
# 3 21.6862 91.1190 235.6557 0.0000 7.0396 0.0000
# 4 0.0000 0.0000 0.0000 43.9504 0.0000 -20.3483
# 5 5.4890 6.9773 7.0396 0.0000 8.2544 0.0000
# 6 0.0000 0.0000 0.0000 -20.3483 0.0000 19.5178
#
#
#
# Elastic Compliance Matrix: (Units=1/GPa)
#
#
# Indices 1 2 3 4 5 6 
#
# 1 0.046104 -0.000377 -0.003274 0.000000 -0.027548 0.000000
# 2 -0.000377 0.005590 -0.002045 0.000000 -0.002730 0.000000
# 3 -0.003274 -0.002045 0.005355 0.000000 -0.000661 0.000000
# 4 0.000000 0.000000 0.000000 0.043982 0.000000 0.045854
# 5 -0.027548 -0.002730 -0.000661 0.000000 0.142337 0.000000
# 6 0.000000 0.000000 0.000000 0.045854 0.000000 0.099040
#
#
# Mechanical properties :
#
#
# Convention : Reuss Voigt Hill
#
# Bulk Modulus (GPa) = 21.90247 81.02003 51.46125
# Shear Modulus (GPa) = 13.54938 37.91348 25.73143
#
# Velocity S-wave (km/s) = 2.43019 4.06516 3.34898
# Velocity P-wave (km/s) = 4.17387 7.57288 6.11432
#
# Compressibility (1/GPa) = 0.04565696
#
# Stress axis : x y z
#
# Youngs Moduli (GPa) = 21.68992 178.90067 186.73179
#
# Poissons Ratio (x) = 0.06746 0.61137
# Poissons Ratio (y) = 0.00818 0.38188
# Poissons Ratio (z) = 0.07101 0.36586
#
# Static dielectric constant tensor:
#      x y z
#    x 1.977280 0.000000 0.016500 
#    y 0.000000 1.780410 0.000000 
#    z 0.016500 0.000000 1.783030 
# 
# From -- ./inp_files/17693.got.cif
#   From: 2010.05.17/outbox.cif.g08.bks.cpg/sg12_9_cif.got.tgz:17693.got - 2010.06.03 13:09:07.
