data_PCOD9176095
_publ_section_title
;
Structure prediction by ZEFSAII (Michael W. Deem and Ramdas Pophale) SiO2 
 PCOD9176095
Probable space group: C 2/M
;
_chemical_formula_sum "Si O2"
_cell_formula_units_Z 64
_cell_length_a 25.986713
_cell_length_b 15.424710
_cell_length_c 8.656968
_cell_angle_alpha 90.000000
_cell_angle_beta 74.387591
_cell_angle_gamma 90.000000
_cell_volume 3342.008058
_symmetry_space_group_name_H-M "C 2/M"
_symmetry_group_IT_number 12
_symmetry_cell_setting 'monoclinic'
loop_
_space_group_symop_operation_xyz
x,y,z
-x,y,-z
-x,-y,-z
x,-y,z
1/2+x,1/2+y,z
1/2-x,1/2+y,-z
1/2-x,1/2-y,-z
1/2+x,1/2-y,z
loop_
_atom_site_type_symbol
_atom_site_label
_atom_site_fract_x
_atom_site_fract_y
_atom_site_fract_z
Si Si1 0.119882 0.903782 0.272762
Si Si2 0.782174 0.899428 0.035069
Si Si3 0.344006 0.275462 0.203693
Si Si4 0.550260 0.345744 0.052127
Si Si5 0.998136 0.281255 0.333738
Si Si6 0.595193 0.097777 0.304814
Si Si7 0.670327 0.097686 0.955823
Si Si8 0.618967 0.755342 0.506087
O O1 0.175840 0.887575 0.139321
O O2 0.076812 0.900402 0.168612
O O3 0.110921 0.827598 0.401978
O O4 0.119987 0.000000 0.342326
O O5 0.786989 0.000000 0.082232
O O6 0.799582 0.834188 0.155288
O O7 0.723551 0.886276 0.013952
O O8 0.341747 0.272984 0.390184
O O9 0.400792 0.315127 0.096375
O O10 0.337802 0.176806 0.152408
O O11 0.524600 0.266126 0.168421
O O12 0.500000 0.384898 0.000000
O O13 0.035516 0.364028 0.335935
O O14 0.000000 0.232978 0.500000
O O15 0.935063 0.287377 0.362176
O O16 0.621748 0.098535 0.115672
O O17 0.628778 0.163714 0.384898
O O18 0.595272 0.000000 0.364898
O O19 0.674526 0.000000 0.885525
#
# Coordination Sequence:
#
# PCOD9176095 Si02
#       8
#     8   8   8   8   8   8   8   8
#     4  10  21  39  58  81 112 151 189 229 279 337
#     4   9  20  39  62  82 108 143 189 238 284 328
#     4  11  21  34  59  83 113 148 185 229 279 338
#     4  11  19  34  58  80 112 147 187 234 274 316
#     4  10  18  34  55  77 113 148 182 214 280 317
#     4  10  20  36  60  81 110 152 193 224 272 339
#     4  10  20  38  61  85 108 142 188 239 282 326
#     4  11  22  35  55  82 119 153 180 228 277 332
#
# _framework density 19.150162999999999
#
# number of rings (size 3 to 8) (size 9 to 14) (size 15 to 20)
#    0.000    1.750    5.000    1.125    0.000    3.500 
#    0.000    3.750    0.000    6.750    0.000    0.000 
#    0.000    0.000    0.000    0.000    0.000    0.000 
#
# Total GULP energy -178276.316706 kJ/mol
# GULP energy per Si atom -5571.134897 kJ/mol
# Density = 1.910658 g / cm^3
# Si number density = 19.150163 Si / 1000 Ang^3
#
#
#
# Elastic Constant Matrix: (Units=GPa)
#
#
# Indices 1 2 3 4 5 6 
#
# 1 67.6366 25.7548 11.0354 0.0000 4.0897 0.0000
# 2 25.7548 115.4081 47.5305 0.0000 15.8224 0.0000
# 3 11.0354 47.5305 56.0042 0.0000 21.1153 0.0000
# 4 0.0000 0.0000 0.0000 5.3504 0.0000 -7.2836
# 5 4.0897 15.8224 21.1153 0.0000 18.5722 0.0000
# 6 0.0000 0.0000 0.0000 -7.2836 0.0000 14.4108
#
#
#
# Elastic Compliance Matrix: (Units=1/GPa)
#
#
# Indices 1 2 3 4 5 6 
#
# 1 0.016163 -0.003545 0.000048 0.000000 -0.000593 0.000000
# 2 -0.003545 0.014173 -0.012377 0.000000 0.002778 0.000000
# 3 0.000048 -0.012377 0.042670 0.000000 -0.037979 0.000000
# 4 0.000000 0.000000 0.000000 0.599141 0.000000 0.302822
# 5 -0.000593 0.002778 -0.037979 0.000000 0.094786 0.000000
# 6 0.000000 0.000000 0.000000 0.302822 0.000000 0.222448
#
#
# Mechanical properties :
#
#
# Convention : Reuss Voigt Hill
#
# Bulk Modulus (GPa) = 24.23910 45.29892 34.76901
# Shear Modulus (GPa) = 4.83147 17.98188 11.40668
#
# Velocity S-wave (km/s) = 1.59010 3.06762 2.44323
# Velocity P-wave (km/s) = 4.00700 6.02105 5.11415
#
# Compressibility (1/GPa) = 0.04125566
#
# Stress axis : x y z
#
# Youngs Moduli (GPa) = 61.86986 70.55824 23.43566
#
# Poissons Ratio (x) = 0.25015 -0.00111
# Poissons Ratio (y) = 0.21935 0.29007
# Poissons Ratio (z) = -0.00294 0.87332
#
# Static dielectric constant tensor:
#      x y z
#    x 1.721470 0.000000 0.000060 
#    y 0.000000 1.675050 0.000000 
#    z 0.000060 0.000000 1.662830 
# 
# From -- ./inp_files/104562.got.cif
#   From: 2010.05.17/outbox.cif.g08.bks.cpg/sg12_53_cif.got.tgz:104562.got - 2010.06.03 13:09:07.
