data_PCOD9176471
_publ_section_title
;
Structure prediction by ZEFSAII (Michael W. Deem and Ramdas Pophale) SiO2 
 PCOD9176471
Probable space group: C 2/M
;
_chemical_formula_sum "Si O2"
_cell_formula_units_Z 56
_cell_length_a 9.337856
_cell_length_b 17.069419
_cell_length_c 22.949981
_cell_angle_alpha 90.000000
_cell_angle_beta 130.210734
_cell_angle_gamma 90.000000
_cell_volume 2793.552696
_symmetry_space_group_name_H-M "C 2/M"
_symmetry_group_IT_number 12
_symmetry_cell_setting 'monoclinic'
loop_
_space_group_symop_operation_xyz
x,y,z
-x,y,-z
-x,-y,-z
x,-y,z
1/2+x,1/2+y,z
1/2-x,1/2+y,-z
1/2-x,1/2-y,-z
1/2+x,1/2-y,z
loop_
_atom_site_type_symbol
_atom_site_label
_atom_site_fract_x
_atom_site_fract_y
_atom_site_fract_z
Si Si1 0.618851 0.174788 0.474441
Si Si2 0.650578 0.093595 0.879826
Si Si3 0.979492 0.091958 0.560757
Si Si4 0.307890 0.168187 0.985998
Si Si5 0.182497 0.590032 0.280782
Si Si6 0.565380 0.594269 0.146525
Si Si7 0.095768 0.589590 0.681260
O O1 0.500000 0.187159 0.500000
O O2 0.750000 0.250000 0.500000
O O3 0.766775 0.104639 0.522191
O O4 0.484572 0.150077 0.386289
O O5 0.673989 0.111623 0.953293
O O6 0.452102 0.126406 0.803522
O O7 0.821219 0.119983 0.882501
O O8 0.644309 0.000000 0.869342
O O9 0.000000 0.122669 0.500000
O O10 0.124974 0.127386 0.645571
O O11 0.026338 0.000000 0.569829
O O12 0.500000 0.172554 0.000000
O O13 0.250000 0.250000 0.000000
O O14 0.132981 0.136827 0.902476
O O15 0.223737 0.500000 0.272974
O O16 0.050558 0.587432 0.303346
O O17 0.538482 0.500000 0.136210
O O18 0.704639 0.609337 0.237215
O O19 0.103914 0.500000 0.660044
#
# Coordination Sequence:
#
# PCOD9176471 Si02
#       7
#     8   8   8   8   8   8   8
#     4  12  26  41  55  83 120 163 206 246 300 352
#     4   9  18  36  63  92 121 152 193 241 291 355
#     4  10  18  34  63  89 116 153 196 242 292 350
#     4  12  25  41  59  86 122 161 203 243 298 357
#     4   8  15  31  61  94 114 144 189 237 291 348
#     4   9  19  39  67  94 120 155 195 243 300 359
#     4   9  18  38  66  91 118 153 200 248 297 356
#
# _framework density 20.046158999999999
#
# number of rings (size 3 to 8) (size 9 to 14) (size 15 to 20)
#    0.000    2.143    1.429    4.286    0.000    3.429 
#    5.143    0.000    0.000    0.000    0.000    0.000 
#    0.000    0.000    0.000    0.000    0.000    0.000 
#
# Total GULP energy -156153.835821 kJ/mol
# GULP energy per Si atom -5576.922708 kJ/mol
# Density = 2.000053 g / cm^3
# Si number density = 20.046159 Si / 1000 Ang^3
#
#
#
# Elastic Constant Matrix: (Units=GPa)
#
#
# Indices 1 2 3 4 5 6 
#
# 1 94.4721 17.1198 53.4026 0.0000 23.1214 0.0000
# 2 17.1198 34.7421 39.4579 0.0000 6.1104 0.0000
# 3 53.4026 39.4579 135.8714 0.0000 28.9232 0.0000
# 4 0.0000 0.0000 0.0000 4.3593 0.0000 11.4183
# 5 23.1214 6.1104 28.9232 0.0000 29.5612 0.0000
# 6 0.0000 0.0000 0.0000 11.4183 0.0000 14.2110
#
#
#
# Elastic Compliance Matrix: (Units=1/GPa)
#
#
# Indices 1 2 3 4 5 6 
#
# 1 0.014870 -0.001780 -0.003701 0.000000 -0.007642 0.000000
# 2 -0.001780 0.043580 -0.013054 0.000000 0.005156 0.000000
# 3 -0.003701 -0.013054 0.014418 0.000000 -0.008514 0.000000
# 4 0.000000 0.000000 0.000000 -0.207680 0.000000 0.166867
# 5 -0.007642 0.005156 -0.008514 0.000000 0.047069 0.000000
# 6 0.000000 0.000000 0.000000 0.166867 0.000000 -0.063707
#
#
# Mechanical properties :
#
#
# Convention : Reuss Voigt Hill
#
# Bulk Modulus (GPa) = 27.93487 53.89403 40.91445
# Shear Modulus (GPa) = -48.80509 19.96664 -14.41923
#
# Velocity S-wave (km/s) = -4.93956 3.15942 -2.68489
# Velocity P-wave (km/s) = 4.30892 6.34449 3.29286
#
# Compressibility (1/GPa) = 0.03579756
#
# Stress axis : x y z
#
# Youngs Moduli (GPa) = 67.24968 22.94655 69.35954
#
# Poissons Ratio (x) = 0.04085 0.25668
# Poissons Ratio (y) = 0.11973 0.90540
# Poissons Ratio (z) = 0.24887 0.29954
#
# Static dielectric constant tensor:
#      x y z
#    x 1.676730 0.000000 0.010450 
#    y 0.000000 1.821440 0.000000 
#    z 0.010450 0.000000 1.776320 
# 
# From -- ./inp_files/333389.got.cif
#   From: 2010.05.17/outbox.cif.g08.bks.cpg/sg12_167_cif.got.tgz:333389.got - 2010.06.03 13:09:07.
