data_PCOD9176588
_publ_section_title
;
Structure prediction by ZEFSAII (Michael W. Deem and Ramdas Pophale) SiO2 
 PCOD9176588
Probable space group: C 2/M
;
_chemical_formula_sum "Si O2"
_cell_formula_units_Z 58
_cell_length_a 22.998854
_cell_length_b 13.098437
_cell_length_c 9.394981
_cell_angle_alpha 90.000000
_cell_angle_beta 114.543350
_cell_angle_gamma 90.000000
_cell_volume 2574.510045
_symmetry_space_group_name_H-M "C 2/M"
_symmetry_group_IT_number 12
_symmetry_cell_setting 'monoclinic'
loop_
_space_group_symop_operation_xyz
x,y,z
-x,y,-z
-x,-y,-z
x,-y,z
1/2+x,1/2+y,z
1/2-x,1/2+y,-z
1/2-x,1/2-y,-z
1/2+x,1/2-y,z
loop_
_atom_site_type_symbol
_atom_site_label
_atom_site_fract_x
_atom_site_fract_y
_atom_site_fract_z
Si Si1 0.001076 0.707224 0.848295
Si Si2 0.863300 0.883820 0.525812
Si Si3 0.311556 0.737215 0.221422
Si Si4 0.368209 0.883738 0.721683
Si Si5 0.500000 0.000000 0.000000
Si Si6 0.491956 0.611287 0.322102
Si Si7 0.749671 0.383526 0.383697
Si Si8 0.689192 0.880106 0.027995
O O1 0.927633 0.682315 0.730669
O O2 0.033351 0.784577 0.771669
O O3 0.026030 0.594107 0.917248
O O4 0.000000 0.763039 0.000000
O O5 0.859215 0.815550 0.380660
O O6 0.934500 0.891326 0.656229
O O7 0.811465 0.847315 0.588244
O O8 0.842667 0.000000 0.466825
O O9 0.267525 0.811740 0.272595
O O10 0.264104 0.650756 0.113316
O O11 0.337627 0.808028 0.122736
O O12 0.310280 0.886338 0.552459
O O13 0.340730 0.856562 0.847796
O O14 0.396575 0.000000 0.768301
O O15 0.500000 0.617137 0.500000
O O16 0.461529 0.500000 0.258905
O O17 0.737793 0.500000 0.324660
O O18 0.682147 0.000000 0.992658
#
# Coordination Sequence:
#
# PCOD9176588 Si02
#       8
#     8   8   8   8   2   8   8   8
#     4  10  20  38  63  85 119 150 196 242 291 346
#     4  10  20  36  57  83 112 143 190 234 279 328
#     4  11  20  33  52  79 109 149 188 225 274 335
#     4  10  18  35  58  82 114 151 186 226 289 347
#     4   8  20  40  60  92 116 148 194 242 294 340
#     4  10  23  41  62  87 115 153 196 247 295 346
#     4  10  20  32  55  83 113 145 184 231 273 332
#     4  10  22  34  49  74 113 151 185 226 278 334
#
# _framework density 22.528558
#
# number of rings (size 3 to 8) (size 9 to 14) (size 15 to 20)
#    0.414    1.517    2.069    2.069    1.931    1.379 
#    0.000    0.345    0.000    0.828    0.000    0.000 
#    0.000    0.000    0.000    0.000    0.000    0.000 
#
# Total GULP energy -161725.922096 kJ/mol
# GULP energy per Si atom -5576.755934 kJ/mol
# Density = 2.247728 g / cm^3
# Si number density = 22.528558 Si / 1000 Ang^3
#
#
#
# Elastic Constant Matrix: (Units=GPa)
#
#
# Indices 1 2 3 4 5 6 
#
# 1 56.3073 20.9843 8.3518 0.0000 7.9392 0.0000
# 2 20.9843 157.3386 38.4359 0.0000 -21.7872 0.0000
# 3 8.3518 38.4359 57.9792 0.0000 -15.1551 0.0000
# 4 0.0000 0.0000 0.0000 39.4819 0.0000 -2.5070
# 5 7.9392 -21.7872 -15.1551 0.0000 25.5229 0.0000
# 6 0.0000 0.0000 0.0000 -2.5070 0.0000 5.3381
#
#
#
# Elastic Compliance Matrix: (Units=1/GPa)
#
#
# Indices 1 2 3 4 5 6 
#
# 1 0.021344 -0.003566 -0.003838 0.000000 -0.011962 0.000000
# 2 -0.003566 0.008566 -0.003508 0.000000 0.006338 0.000000
# 3 -0.003838 -0.003508 0.023266 0.000000 0.012014 0.000000
# 4 0.000000 0.000000 0.000000 0.026107 0.000000 0.012260
# 5 -0.011962 0.006338 0.012014 0.000000 0.055446 0.000000
# 6 0.000000 0.000000 0.000000 0.012260 0.000000 0.193089
#
#
# Mechanical properties :
#
#
# Convention : Reuss Voigt Hill
#
# Bulk Modulus (GPa) = 31.89398 45.24102 38.56750
# Shear Modulus (GPa) = 13.88534 27.65878 20.77206
#
# Velocity S-wave (km/s) = 2.48532 3.50769 3.03979
# Velocity P-wave (km/s) = 4.73536 6.04404 5.42927
#
# Compressibility (1/GPa) = 0.03135388
#
# Stress axis : x y z
#
# Youngs Moduli (GPa) = 46.85099 116.74126 42.98032
#
# Poissons Ratio (x) = 0.41625 0.16494
# Poissons Ratio (y) = 0.16705 0.15079
# Poissons Ratio (z) = 0.17979 0.40956
#
# Static dielectric constant tensor:
#      x y z
#    x 1.813250 0.000000 -0.048740 
#    y 0.000000 1.898600 0.000000 
#    z -0.048740 0.000000 1.751090 
# 
# From -- ./inp_files/104096.got.cif
#   From: 2010.05.17/outbox.cif.g08.bks.cpg/sg12_53_cif.got.tgz:104096.got - 2010.06.03 13:09:07.
