data_PCOD9176987
_publ_section_title
;
Structure prediction by ZEFSAII (Michael W. Deem and Ramdas Pophale) SiO2 
 PCOD9176987
Probable space group: C 2/M
;
_chemical_formula_sum "Si O2"
_cell_formula_units_Z 56
_cell_length_a 10.509873
_cell_length_b 25.709773
_cell_length_c 12.495948
_cell_angle_alpha 90.000000
_cell_angle_beta 118.644724
_cell_angle_gamma 90.000000
_cell_volume 2963.234441
_symmetry_space_group_name_H-M "C 2/M"
_symmetry_group_IT_number 12
_symmetry_cell_setting 'monoclinic'
loop_
_space_group_symop_operation_xyz
x,y,z
-x,y,-z
-x,-y,-z
x,-y,z
1/2+x,1/2+y,z
1/2-x,1/2+y,-z
1/2-x,1/2-y,-z
1/2+x,1/2-y,z
loop_
_atom_site_type_symbol
_atom_site_label
_atom_site_fract_x
_atom_site_fract_y
_atom_site_fract_z
Si Si1 0.669588 0.338211 0.862689
Si Si2 0.646724 0.177466 0.268795
Si Si3 0.135987 0.135940 0.490644
Si Si4 0.348648 0.704949 0.705740
Si Si5 0.489362 0.559343 0.276103
Si Si6 0.853367 0.941405 0.880803
Si Si7 0.692782 0.841404 0.851869
O O1 0.790380 0.322711 0.825496
O O2 0.520570 0.306084 0.790015
O O3 0.626051 0.398012 0.814097
O O4 0.727511 0.329018 0.004723
O O5 0.734468 0.134691 0.372660
O O6 0.680269 0.234859 0.327260
O O7 0.476114 0.169506 0.206303
O O8 0.188755 0.169604 0.411167
O O9 0.000000 0.161186 0.500000
O O10 0.066964 0.083989 0.411125
O O11 0.265882 0.686912 0.779682
O O12 0.437045 0.500000 0.270258
O O13 0.606647 0.557951 0.227713
O O14 0.724243 0.902507 0.848819
O O15 0.826904 0.000000 0.908433
O O16 0.000000 0.922409 0.000000
#
# Coordination Sequence:
#
# PCOD9176987 Si02
#       7
#     8   8   8   8   8   8   8
#     4  11  22  42  61  94 128 159 203 255 302 378
#     4  12  26  40  59  91 130 167 198 258 319 355
#     4  11  22  43  64  87 124 160 213 261 297 370
#     4  11  23  42  65  86 120 172 217 244 296 371
#     4  10  20  38  69  92 112 159 214 254 297 364
#     4  10  18  36  66  94 120 159 208 252 303 373
#     4  12  23  38  64  96 128 156 205 258 312 366
#
# _framework density 18.898268000000002
#
# number of rings (size 3 to 8) (size 9 to 14) (size 15 to 20)
#    0.000    1.000    7.143    2.143    0.000    4.286 
#    0.000    1.429    0.000    3.429    0.000    0.000 
#    0.000    0.000    0.000    0.000    0.000    0.000 
#
# Total GULP energy -156258.177605 kJ/mol
# GULP energy per Si atom -5580.649200 kJ/mol
# Density = 1.885526 g / cm^3
# Si number density = 18.898268 Si / 1000 Ang^3
#
#
#
# Elastic Constant Matrix: (Units=GPa)
#
#
# Indices 1 2 3 4 5 6 
#
# 1 114.2921 12.3693 25.6866 0.0000 -12.1456 0.0000
# 2 12.3693 59.3205 -3.1939 0.0000 -0.6072 0.0000
# 3 25.6866 -3.1939 85.0871 0.0000 -17.3755 0.0000
# 4 0.0000 0.0000 0.0000 15.6792 0.0000 -0.9025
# 5 -12.1456 -0.6072 -17.3755 0.0000 30.2231 0.0000
# 6 0.0000 0.0000 0.0000 -0.9025 0.0000 5.8300
#
#
#
# Elastic Compliance Matrix: (Units=1/GPa)
#
#
# Indices 1 2 3 4 5 6 
#
# 1 0.009814 -0.002159 -0.002546 0.000000 0.002437 0.000000
# 2 -0.002159 0.017383 0.001358 0.000000 0.000262 0.000000
# 3 -0.002546 0.001358 0.014014 0.000000 0.007061 0.000000
# 4 0.000000 0.000000 0.000000 0.064352 0.000000 0.009962
# 5 0.002437 0.000262 0.007061 0.000000 0.038131 0.000000
# 6 0.000000 0.000000 0.000000 0.009962 0.000000 0.173070
#
#
# Mechanical properties :
#
#
# Convention : Reuss Voigt Hill
#
# Bulk Modulus (GPa) = 28.97052 36.49152 32.73102
# Shear Modulus (GPa) = 14.92693 25.26897 20.09795
#
# Velocity S-wave (km/s) = 2.81349 3.66061 3.26464
# Velocity P-wave (km/s) = 5.09090 6.10067 5.61852
#
# Compressibility (1/GPa) = 0.03451785
#
# Stress axis : x y z
#
# Youngs Moduli (GPa) = 101.89173 57.52588 71.35626
#
# Poissons Ratio (x) = 0.12418 0.18169
# Poissons Ratio (y) = 0.21994 -0.09688
# Poissons Ratio (z) = 0.25944 -0.07811
#
# Static dielectric constant tensor:
#      x y z
#    x 1.637880 0.000000 -0.020450 
#    y 0.000000 1.694980 0.000000 
#    z -0.020450 0.000000 1.673380 
# 
# From -- ./inp_files/125830.got.cif
#   From: 2010.05.17/outbox.cif.g08.bks.cpg/sg12_63_cif.got.tgz:125830.got - 2010.06.03 13:09:07.
