data_PCOD9176630
_publ_section_title
;
Structure prediction by ZEFSAII (Michael W. Deem and Ramdas Pophale) SiO2 
 PCOD9176630
Probable space group: C 2/M
;
_chemical_formula_sum "Si O2"
_cell_formula_units_Z 56
_cell_length_a 20.113829
_cell_length_b 16.623548
_cell_length_c 24.399938
_cell_angle_alpha 90.000000
_cell_angle_beta 21.374830
_cell_angle_gamma 90.000000
_cell_volume 2973.488672
_symmetry_space_group_name_H-M "C 2/M"
_symmetry_group_IT_number 12
_symmetry_cell_setting 'monoclinic'
loop_
_space_group_symop_operation_xyz
x,y,z
-x,y,-z
-x,-y,-z
x,-y,z
1/2+x,1/2+y,z
1/2-x,1/2+y,-z
1/2-x,1/2-y,-z
1/2+x,1/2-y,z
loop_
_atom_site_type_symbol
_atom_site_label
_atom_site_fract_x
_atom_site_fract_y
_atom_site_fract_z
Si Si1 0.495686 0.907237 0.068675
Si Si2 0.010578 0.590692 0.319228
Si Si3 0.310824 0.670009 0.019624
Si Si4 0.307088 0.248941 0.256307
Si Si5 0.528444 0.234823 0.566494
Si Si6 0.839099 0.149255 0.872011
Si Si7 0.832030 0.837512 0.452003
O O1 0.371353 0.842119 0.195254
O O2 0.437459 0.000000 0.118993
O O3 0.500000 0.888282 0.000000
O O4 0.691970 0.895336 0.947039
O O5 0.008609 0.500000 0.340413
O O6 0.975268 0.654959 0.394075
O O7 0.841857 0.605927 0.406770
O O8 0.199851 0.612514 0.144793
O O9 0.513188 0.695547 0.883126
O O10 0.317305 0.634514 0.953313
O O11 0.198681 0.754549 0.104960
O O12 0.206074 0.260377 0.391694
O O13 0.154091 0.267373 0.328919
O O14 0.539883 0.314772 0.595260
O O15 0.039366 0.131949 0.695309
O O16 0.750000 0.750000 0.500000
#
# Coordination Sequence:
#
# PCOD9176630 Si02
#       7
#     8   8   8   8   8   8   8
#     4  10  22  37  59  94 129 157 197 256 310 357
#     4  11  24  39  60  91 127 157 203 266 312 351
#     4  10  20  35  58  90 117 159 211 249 297 357
#     4  10  22  39  66  88 118 166 212 249 297 374
#     4  10  21  41  62  91 118 163 212 247 303 377
#     4  10  19  34  60  85 119 161 204 246 293 366
#     4  10  18  35  59  85 117 157 199 243 295 370
#
# _framework density 18.833096000000001
#
# number of rings (size 3 to 8) (size 9 to 14) (size 15 to 20)
#    0.000    1.857    2.857    2.571    6.000    1.143 
#    0.000    7.143    0.000    0.000    0.000    0.000 
#    0.000    0.000    0.000    0.000    0.000    0.000 
#
# Total GULP energy -156182.503520 kJ/mol
# GULP energy per Si atom -5577.946554 kJ/mol
# Density = 1.879023 g / cm^3
# Si number density = 18.833096 Si / 1000 Ang^3
#
#
#
# Elastic Constant Matrix: (Units=GPa)
#
#
# Indices 1 2 3 4 5 6 
#
# 1 79.4144 30.0562 44.7175 0.0110 8.8384 -0.0043
# 2 30.0562 79.1514 46.0505 -0.0009 11.0261 0.0025
# 3 44.7175 46.0505 130.8152 0.0298 -0.7650 -0.0061
# 4 0.0110 -0.0009 0.0298 11.0076 0.0011 -1.8656
# 5 8.8384 11.0261 -0.7650 0.0011 23.7780 0.0000
# 6 -0.0043 0.0025 -0.0061 -1.8656 0.0000 11.6155
#
#
#
# Elastic Compliance Matrix: (Units=1/GPa)
#
#
# Indices 1 2 3 4 5 6 
#
# 1 0.016975 -0.002946 -0.004795 -0.000003 -0.005098 0.000004
# 2 -0.002946 0.017880 -0.005330 0.000019 -0.007368 -0.000005
# 3 -0.004795 -0.005330 0.011187 -0.000026 0.004614 0.000001
# 4 -0.000003 0.000019 -0.000026 0.093389 -0.000013 0.014999
# 5 -0.005098 -0.007368 0.004614 -0.000013 0.047516 0.000000
# 6 0.000004 -0.000005 0.000001 0.014999 0.000000 0.088501
#
#
# Mechanical properties :
#
#
# Convention : Reuss Voigt Hill
#
# Bulk Modulus (GPa) = 50.25418 59.00327 54.62872
# Shear Modulus (GPa) = 16.22201 20.51733 18.36967
#
# Velocity S-wave (km/s) = 2.93807 3.30423 3.12652
# Velocity P-wave (km/s) = 6.18479 6.77900 6.48870
#
# Compressibility (1/GPa) = 0.01989884
#
# Stress axis : x y z
#
# Youngs Moduli (GPa) = 58.91136 55.92775 89.38878
#
# Poissons Ratio (x) = 0.16474 0.42866
# Poissons Ratio (y) = 0.17353 0.47648
# Poissons Ratio (z) = 0.28251 0.29812
#
# Static dielectric constant tensor:
#      x y z
#    x 1.717070 -0.000010 -0.007980 
#    y -0.000010 1.626690 0.000010 
#    z -0.007980 0.000010 1.656020 
# 
# From -- ./inp_files/347763.got.cif
#   From: 2010.05.17/outbox.cif.g08.bks.cpg/sg12_174_cif.got.tgz:347763.got - 2010.06.03 13:09:07.
