data_PCOD9176769
_publ_section_title
;
Structure prediction by ZEFSAII (Michael W. Deem and Ramdas Pophale) SiO2 
 PCOD9176769
Probable space group: C 2/M
;
_chemical_formula_sum "Si O2"
_cell_formula_units_Z 52
_cell_length_a 8.904256
_cell_length_b 20.697560
_cell_length_c 14.859837
_cell_angle_alpha 90.000000
_cell_angle_beta 47.024855
_cell_angle_gamma 90.000000
_cell_volume 2003.705566
_symmetry_space_group_name_H-M "C 2/M"
_symmetry_group_IT_number 12
_symmetry_cell_setting 'monoclinic'
loop_
_space_group_symop_operation_xyz
x,y,z
-x,y,-z
-x,-y,-z
x,-y,z
1/2+x,1/2+y,z
1/2-x,1/2+y,-z
1/2-x,1/2-y,-z
1/2+x,1/2-y,z
loop_
_atom_site_type_symbol
_atom_site_label
_atom_site_fract_x
_atom_site_fract_y
_atom_site_fract_z
Si Si1 0.515826 0.874124 0.698563
Si Si2 0.713061 0.676670 0.262733
Si Si3 0.703608 0.361047 0.577325
Si Si4 0.454892 0.500000 0.306502
Si Si5 0.855730 0.186729 0.200765
Si Si6 0.290404 0.000000 0.027248
Si Si7 0.784620 0.359049 0.048359
Si Si8 0.274794 0.500000 0.636587
O O1 0.596450 0.832424 0.749349
O O2 0.604396 0.850709 0.565903
O O3 0.271802 0.871921 0.790738
O O4 0.636543 0.939940 0.666343
O O5 0.497304 0.661212 0.396829
O O6 0.740170 0.749015 0.216205
O O7 0.702055 0.626707 0.183647
O O8 0.680134 0.436372 0.615499
O O9 0.686385 0.318927 0.674803
O O10 0.562799 0.500000 0.165108
O O11 0.655316 0.500000 0.289332
O O12 0.099193 0.182761 0.083570
O O13 0.307038 0.074109 0.984237
O O14 0.500000 0.000000 0.000000
O O15 0.000000 0.331661 0.000000
O O16 0.500000 0.500000 0.500000
#
# Coordination Sequence:
#
# PCOD9176769 Si02
#       8
#     8   8   8   4   8   4   8   4
#     4  12  22  36  59  89 124 161 201 255 297 343
#     4  11  22  39  60  84 122 167 206 240 296 367
#     4  11  22  37  60  83 122 170 203 240 292 366
#     4  12  18  39  62  86 118 157 208 241 289 369
#     4  11  25  38  55  91 123 156 207 255 297 350
#     4  10  18  35  68  89 101 142 204 251 289 350
#     4  10  22  43  67  88 114 156 204 252 313 372
#     4  12  20  36  58  89 119 161 205 237 304 375
#
# _framework density 25.951916000000001
#
# number of rings (size 3 to 8) (size 9 to 14) (size 15 to 20)
#    0.000    0.923    6.154    2.769    0.000    5.538 
#    0.000    2.308    0.000    0.000    0.000    6.462 
#    0.000    0.000    0.000    0.000    0.000    0.000 
#
# Total GULP energy -145078.962190 kJ/mol
# GULP energy per Si atom -5579.960084 kJ/mol
# Density = 2.589285 g / cm^3
# Si number density = 25.951916 Si / 1000 Ang^3
#
#
#
# Elastic Constant Matrix: (Units=GPa)
#
#
# Indices 1 2 3 4 5 6 
#
# 1 89.9259 18.1064 13.0239 0.0000 -30.6150 0.0000
# 2 18.1064 108.5712 9.4701 0.0000 -13.1911 0.0000
# 3 13.0239 9.4701 53.2065 0.0000 -22.2525 0.0000
# 4 0.0000 0.0000 0.0000 16.9632 0.0000 3.5710
# 5 -30.6150 -13.1911 -22.2525 0.0000 53.1021 0.0000
# 6 0.0000 0.0000 0.0000 3.5710 0.0000 30.2701
#
#
#
# Elastic Compliance Matrix: (Units=1/GPa)
#
#
# Indices 1 2 3 4 5 6 
#
# 1 0.014040 -0.001403 0.000064 0.000000 0.007773 0.000000
# 2 -0.001403 0.009669 -0.000862 0.000000 0.001232 0.000000
# 3 0.000064 -0.000862 0.022866 0.000000 0.009404 0.000000
# 4 0.000000 0.000000 0.000000 0.060453 0.000000 -0.007132
# 5 0.007773 0.001232 0.009404 0.000000 0.027560 0.000000
# 6 0.000000 0.000000 0.000000 -0.007132 0.000000 0.033877
#
#
# Mechanical properties :
#
#
# Convention : Reuss Voigt Hill
#
# Bulk Modulus (GPa) = 23.71237 36.98937 30.35087
# Shear Modulus (GPa) = 26.74879 34.14062 30.44470
#
# Velocity S-wave (km/s) = 3.21394 3.63096 3.42880
# Velocity P-wave (km/s) = 4.78847 5.64469 5.23412
#
# Compressibility (1/GPa) = 0.04217209
#
# Stress axis : x y z
#
# Youngs Moduli (GPa) = 71.22718 103.41949 43.73343
#
# Poissons Ratio (x) = 0.14506 -0.00279
# Poissons Ratio (y) = 0.09990 0.03772
# Poissons Ratio (z) = -0.00454 0.08920
#
# Static dielectric constant tensor:
#      x y z
#    x 2.044810 0.000000 -0.023130 
#    y 0.000000 2.111170 0.000000 
#    z -0.023130 0.000000 2.258550 
# 
# From -- ./inp_files/258460.got.cif
#   From: 2010.05.17/outbox.cif.g08.bks.cpg/sg12_130_cif.got.tgz:258460.got - 2010.06.03 13:09:07.
