data_PCOD9176151
_publ_section_title
;
Structure prediction by ZEFSAII (Michael W. Deem and Ramdas Pophale) SiO2 
 PCOD9176151
Probable space group: C 2/M
;
_chemical_formula_sum "Si O2"
_cell_formula_units_Z 44
_cell_length_a 18.520159
_cell_length_b 12.425332
_cell_length_c 10.713582
_cell_angle_alpha 90.000000
_cell_angle_beta 113.256336
_cell_angle_gamma 90.000000
_cell_volume 2265.080314
_symmetry_space_group_name_H-M "C 2/M"
_symmetry_group_IT_number 12
_symmetry_cell_setting 'monoclinic'
loop_
_space_group_symop_operation_xyz
x,y,z
-x,y,-z
-x,-y,-z
x,-y,z
1/2+x,1/2+y,z
1/2-x,1/2+y,-z
1/2-x,1/2-y,-z
1/2+x,1/2-y,z
loop_
_atom_site_type_symbol
_atom_site_label
_atom_site_fract_x
_atom_site_fract_y
_atom_site_fract_z
Si Si1 0.943642 0.500000 0.843531
Si Si2 0.847811 0.284946 0.810985
Si Si3 0.978946 0.117600 0.269371
Si Si4 0.314124 0.628087 0.279563
Si Si5 0.436362 0.000000 0.565612
Si Si6 0.500000 0.335676 0.000000
Si Si7 0.620043 0.759748 0.442553
O O1 0.888563 0.398171 0.813127
O O2 0.980417 0.500000 0.730665
O O3 0.000000 0.500000 0.000000
O O4 0.764468 0.309557 0.815941
O O5 0.838573 0.239489 0.663611
O O6 0.915758 0.224610 0.933028
O O7 0.887858 0.136478 0.237135
O O8 0.994526 0.112434 0.132357
O O9 0.032189 0.212010 0.362115
O O10 0.000722 0.000000 0.338720
O O11 0.298660 0.500000 0.288076
O O12 0.340781 0.687732 0.424367
O O13 0.500000 0.000000 0.500000
O O14 0.387181 0.112735 0.529693
#
# Coordination Sequence:
#
# PCOD9176151 Si02
#       7
#     4   8   8   8   4   4   8
#     4  10  18  34  56  82 111 146 200 235 279 347
#     4  10  20  35  56  83 110 152 185 236 283 333
#     4  10  21  37  59  84 111 150 189 235 280 340
#     4  11  21  35  59  86 116 145 190 238 285 334
#     4  10  20  34  58  84 116 150 188 239 289 340
#     4  10  21  37  58  78 112 151 194 229 286 340
#     4  10  21  37  57  85 116 147 188 228 288 347
#
# _framework density 19.425357999999999
#
# number of rings (size 3 to 8) (size 9 to 14) (size 15 to 20)
#    0.000    1.818    1.818    3.000    0.000    2.182 
#    0.000    0.000    4.000    0.000    0.000    0.000 
#    0.000    0.000    0.000    0.000    0.000    0.000 
#
# Total GULP energy -122530.852304 kJ/mol
# GULP energy per Si atom -5569.584196 kJ/mol
# Density = 1.938115 g / cm^3
# Si number density = 19.425358 Si / 1000 Ang^3
#
#
#
# Elastic Constant Matrix: (Units=GPa)
#
#
# Indices 1 2 3 4 5 6 
#
# 1 96.8533 31.4390 23.1026 0.0000 19.4017 0.0000
# 2 31.4390 87.5499 17.8501 0.0000 13.5662 0.0000
# 3 23.1026 17.8501 69.9291 0.0000 6.1778 0.0000
# 4 0.0000 0.0000 0.0000 11.8302 0.0000 -1.0914
# 5 19.4017 13.5662 6.1778 0.0000 24.4204 0.0000
# 6 0.0000 0.0000 0.0000 -1.0914 0.0000 21.1164
#
#
#
# Elastic Compliance Matrix: (Units=1/GPa)
#
#
# Indices 1 2 3 4 5 6 
#
# 1 0.013714 -0.002997 -0.003018 0.000000 -0.008467 0.000000
# 2 -0.002997 0.013647 -0.002080 0.000000 -0.004673 0.000000
# 3 -0.003018 -0.002080 0.015869 0.000000 -0.000461 0.000000
# 4 0.000000 0.000000 0.000000 0.084935 0.000000 0.004390
# 5 -0.008467 -0.004673 -0.000461 0.000000 0.050389 0.000000
# 6 0.000000 0.000000 0.000000 0.004390 0.000000 0.047583
#
#
# Mechanical properties :
#
#
# Convention : Reuss Voigt Hill
#
# Bulk Modulus (GPa) = 36.98376 44.34617 40.66496
# Shear Modulus (GPa) = 19.89338 23.60277 21.74808
#
# Velocity S-wave (km/s) = 3.20362 3.48954 3.34963
# Velocity P-wave (km/s) = 5.72402 6.25415 5.99495
#
# Compressibility (1/GPa) = 0.02703890
#
# Stress axis : x y z
#
# Youngs Moduli (GPa) = 72.91963 73.27764 63.01634
#
# Poissons Ratio (x) = 0.21964 0.19015
# Poissons Ratio (y) = 0.21857 0.13110
# Poissons Ratio (z) = 0.22004 0.15244
#
# Static dielectric constant tensor:
#      x y z
#    x 1.699050 0.000000 -0.018310 
#    y 0.000000 1.690490 0.000000 
#    z -0.018310 0.000000 1.724860 
# 
# From -- ./inp_files/154444.got.cif
#   From: 2010.05.17/outbox.cif.g08.bks.cpg/sg12_78_cif.got.tgz:154444.got - 2010.06.03 13:09:07.
