data_PCOD9176253
_publ_section_title
;
Structure prediction by ZEFSAII (Michael W. Deem and Ramdas Pophale) SiO2 
 PCOD9176253
Probable space group: C 2/M
;
_chemical_formula_sum "Si O2"
_cell_formula_units_Z 46
_cell_length_a 30.458204
_cell_length_b 7.740037
_cell_length_c 17.151990
_cell_angle_alpha 90.000000
_cell_angle_beta 41.103486
_cell_angle_gamma 90.000000
_cell_volume 2658.309093
_symmetry_space_group_name_H-M "C 2/M"
_symmetry_group_IT_number 12
_symmetry_cell_setting 'monoclinic'
loop_
_space_group_symop_operation_xyz
x,y,z
-x,y,-z
-x,-y,-z
x,-y,z
1/2+x,1/2+y,z
1/2-x,1/2+y,-z
1/2-x,1/2-y,-z
1/2+x,1/2-y,z
loop_
_atom_site_type_symbol
_atom_site_label
_atom_site_fract_x
_atom_site_fract_y
_atom_site_fract_z
Si Si1 0.000000 0.500000 0.000000
Si Si2 0.277923 0.000000 0.214227
Si Si3 0.488300 0.700819 0.763304
Si Si4 0.037639 0.208710 0.528175
Si Si5 0.356340 0.699668 0.394697
Si Si6 0.184661 0.695389 0.377396
Si Si7 0.146545 0.500000 0.722641
Si Si8 0.416285 0.000000 0.950760
O O1 0.068926 0.500000 0.852167
O O2 0.953260 0.500000 0.984478
O O3 0.232061 0.168928 0.271637
O O4 0.310087 0.000000 0.257560
O O5 0.337794 0.000000 0.072834
O O6 0.468038 0.500000 0.797611
O O7 0.495716 0.747388 0.662278
O O8 0.563622 0.713881 0.697135
O O9 0.440766 0.831533 0.871496
O O10 0.110327 0.290211 0.441453
O O11 0.000000 0.259851 0.500000
O O12 0.047079 0.000000 0.515007
O O13 0.340950 0.500000 0.396954
O O14 0.323145 0.750795 0.521288
O O15 0.338905 0.832243 0.349906
O O16 0.209170 0.500000 0.339766
#
# Coordination Sequence:
#
# PCOD9176253 Si02
#       8
#     2   4   8   8   8   8   4   4
#     4  10  20  36  54  78 108 144 204 236 288 304
#     4  11  26  39  51  79 113 160 198 225 281 341
#     4   9  18  33  58  88 113 143 182 233 296 337
#     4   9  18  35  64  98 120 137 175 239 297 343
#     4  10  18  34  58  81 110 143 181 240 297 334
#     4  11  21  38  57  81 119 149 183 226 287 348
#     4  11  21  36  56  78 106 151 197 243 280 337
#     4  11  21  38  59  72 116 157 194 243 269 343
#
# _framework density 17.304231999999999
#
# number of rings (size 3 to 8) (size 9 to 14) (size 15 to 20)
#    0.000    1.913    4.348    1.043    3.652    2.435 
#    0.000    3.478    0.000    1.043    0.000    0.000 
#    0.000    0.000    0.000    0.000    0.000    0.000 
#
# Total GULP energy -128163.233471 kJ/mol
# GULP energy per Si atom -5572.314499 kJ/mol
# Density = 1.726485 g / cm^3
# Si number density = 17.304232 Si / 1000 Ang^3
#
#
#
# Elastic Constant Matrix: (Units=GPa)
#
#
# Indices 1 2 3 4 5 6 
#
# 1 53.9273 27.9358 26.9443 0.0009 12.1035 -0.0011
# 2 27.9358 134.4337 71.2261 -0.0042 -1.9342 0.0056
# 3 26.9443 71.2261 112.2140 -0.0300 -10.4836 0.0297
# 4 0.0009 -0.0042 -0.0300 31.9231 0.0072 -25.4882
# 5 12.1035 -1.9342 -10.4836 0.0072 25.3208 -0.0063
# 6 -0.0011 0.0056 0.0297 -25.4882 -0.0063 35.8216
#
#
#
# Elastic Compliance Matrix: (Units=1/GPa)
#
#
# Indices 1 2 3 4 5 6 
#
# 1 0.026350 -0.002387 -0.006248 -0.000001 -0.015364 0.000003
# 2 -0.002387 0.011540 -0.006827 -0.000004 -0.000804 0.000001
# 3 -0.006248 -0.006827 0.015578 0.000008 0.008915 -0.000005
# 4 -0.000001 -0.000004 0.000008 0.072530 -0.000004 0.051607
# 5 -0.015364 -0.000804 0.008915 -0.000004 0.050467 -0.000002
# 6 0.000003 0.000001 -0.000005 0.051607 -0.000002 0.064636
#
#
# Mechanical properties :
#
#
# Convention : Reuss Voigt Hill
#
# Bulk Modulus (GPa) = 44.35481 61.42082 52.88781
# Shear Modulus (GPa) = 17.88665 30.24433 24.06549
#
# Velocity S-wave (km/s) = 3.21854 4.18521 3.73329
# Velocity P-wave (km/s) = 6.28490 7.67635 7.01521
#
# Compressibility (1/GPa) = 0.02254547
#
# Stress axis : x y z
#
# Youngs Moduli (GPa) = 37.95115 86.65465 64.19374
#
# Poissons Ratio (x) = 0.20680 0.40105
# Poissons Ratio (y) = 0.09057 0.43825
# Poissons Ratio (z) = 0.23710 0.59159
#
# Static dielectric constant tensor:
#      x y z
#    x 1.576870 0.000000 -0.008420 
#    y 0.000000 1.597890 0.000000 
#    z -0.008420 0.000000 1.566370 
# 
# From -- ./inp_files/248864.got.cif
#   From: 2010.05.17/outbox.cif.g08.bks.cpg/sg12_125_cif.got.tgz:248864.got - 2010.06.03 13:09:07.
