data_PCOD9176153
_publ_section_title
;
Structure prediction by ZEFSAII (Michael W. Deem and Ramdas Pophale) SiO2 
 PCOD9176153
Probable space group: C 2/M
;
_chemical_formula_sum "Si O2"
_cell_formula_units_Z 56
_cell_length_a 18.717233
_cell_length_b 19.676800
_cell_length_c 11.517840
_cell_angle_alpha 90.000000
_cell_angle_beta 45.793272
_cell_angle_gamma 90.000000
_cell_volume 3040.762965
_symmetry_space_group_name_H-M "C 2/M"
_symmetry_group_IT_number 12
_symmetry_cell_setting 'monoclinic'
loop_
_space_group_symop_operation_xyz
x,y,z
-x,y,-z
-x,-y,-z
x,-y,z
1/2+x,1/2+y,z
1/2-x,1/2+y,-z
1/2-x,1/2-y,-z
1/2+x,1/2-y,z
loop_
_atom_site_type_symbol
_atom_site_label
_atom_site_fract_x
_atom_site_fract_y
_atom_site_fract_z
Si Si1 0.974807 0.787188 0.354572
Si Si2 0.265950 0.920281 0.520295
Si Si3 0.099064 0.351942 0.450114
Si Si4 0.193841 0.245510 0.184793
Si Si5 0.012417 0.000000 0.283281
Si Si6 0.221291 0.140492 0.335254
Si Si7 0.838958 0.000000 0.673807
Si Si8 0.040650 0.119861 0.824980
O O1 0.934674 0.712932 0.433379
O O2 0.893233 0.839267 0.500416
O O3 0.975269 0.807685 0.219538
O O4 0.085644 0.789425 0.281908
O O5 0.344499 0.903062 0.530657
O O6 0.277526 0.873366 0.392359
O O7 0.156388 0.901392 0.691842
O O8 0.268751 0.000000 0.486257
O O9 0.169277 0.317702 0.272351
O O10 0.000000 0.378951 0.500000
O O11 0.251889 0.200471 0.214234
O O12 0.250000 0.250000 0.000000
O O13 0.100578 0.000000 0.275641
O O14 0.914373 0.000000 0.477137
O O15 0.011935 0.934771 0.200414
O O16 0.221267 0.069325 0.268920
O O17 0.000000 0.117533 0.000000
#
# Coordination Sequence:
#
# PCOD9176153 Si02
#       8
#     8   8   8   8   4   8   4   8
#     4   9  19  36  53  80 108 149 186 221 271 334
#     4  11  21  37  57  83 110 144 197 232 272 338
#     4   9  21  40  60  77 106 143 193 244 277 318
#     4  10  21  35  55  83 116 145 187 229 276 332
#     4  11  19  28  48  76 113 159 180 204 258 332
#     4  10  18  34  56  82 113 146 180 227 272 332
#     4  11  18  30  54  76 108 149 192 207 253 333
#     4  11  21  33  50  81 127 147 172 218 288 337
#
# _framework density 18.416430999999999
#
# number of rings (size 3 to 8) (size 9 to 14) (size 15 to 20)
#    0.000    1.857    4.286    2.357    4.000    5.429 
#    0.000    0.000    0.000    0.000    0.000    4.000 
#    0.000    0.000    0.000    0.000    0.000    0.000 
#
# Total GULP energy -156153.149036 kJ/mol
# GULP energy per Si atom -5576.898180 kJ/mol
# Density = 1.837451 g / cm^3
# Si number density = 18.416431 Si / 1000 Ang^3
#
#
#
# Elastic Constant Matrix: (Units=GPa)
#
#
# Indices 1 2 3 4 5 6 
#
# 1 120.5145 29.1613 32.7648 0.0000 20.2613 0.0000
# 2 29.1613 21.6973 10.4770 0.0000 3.0800 0.0000
# 3 32.7648 10.4770 78.2957 0.0000 37.7412 0.0000
# 4 0.0000 0.0000 0.0000 11.7730 0.0000 12.4503
# 5 20.2613 3.0800 37.7412 0.0000 27.1792 0.0000
# 6 0.0000 0.0000 0.0000 12.4503 0.0000 38.1252
#
#
#
# Elastic Compliance Matrix: (Units=1/GPa)
#
#
# Indices 1 2 3 4 5 6 
#
# 1 0.014048 -0.018216 0.001850 0.000000 -0.010978 0.000000
# 2 -0.018216 0.073964 -0.014457 0.000000 0.025272 0.000000
# 3 0.001850 -0.014457 0.041759 0.000000 -0.057728 0.000000
# 4 0.000000 0.000000 0.000000 0.129749 0.000000 -0.042371
# 5 -0.010978 0.025272 -0.057728 0.000000 0.122274 0.000000
# 6 0.000000 0.000000 0.000000 -0.042371 0.000000 0.040066
#
#
# Mechanical properties :
#
#
# Convention : Reuss Voigt Hill
#
# Bulk Modulus (GPa) = 14.67847 40.59043 27.63445
# Shear Modulus (GPa) = 9.87726 25.28912 17.58319
#
# Velocity S-wave (km/s) = 2.31839 3.70967 3.09326
# Velocity P-wave (km/s) = 3.89284 6.35901 5.27215
#
# Compressibility (1/GPa) = 0.06812699
#
# Stress axis : x y z
#
# Youngs Moduli (GPa) = 71.18429 13.52008 23.94687
#
# Poissons Ratio (x) = 0.24628 -0.04431
# Poissons Ratio (y) = 1.29668 0.34619
# Poissons Ratio (z) = -0.13172 0.19545
#
# Static dielectric constant tensor:
#      x y z
#    x 1.650370 0.000000 0.006530 
#    y 0.000000 1.661730 0.000000 
#    z 0.006530 0.000000 1.642360 
# 
# From -- ./inp_files/159217.got.cif
#   From: 2010.05.17/outbox.cif.g08.bks.cpg/sg12_80_cif.got.tgz:159217.got - 2010.06.03 13:09:07.
