data_PCOD9176420
_publ_section_title
;
Structure prediction by ZEFSAII (Michael W. Deem and Ramdas Pophale) SiO2 
 PCOD9176420
Probable space group: C 2/M
;
_chemical_formula_sum "Si O2"
_cell_formula_units_Z 64
_cell_length_a 20.298136
_cell_length_b 20.692855
_cell_length_c 8.549747
_cell_angle_alpha 90.000000
_cell_angle_beta 120.228013
_cell_angle_gamma 90.000000
_cell_volume 3102.830387
_symmetry_space_group_name_H-M "C 2/M"
_symmetry_group_IT_number 12
_symmetry_cell_setting 'monoclinic'
loop_
_space_group_symop_operation_xyz
x,y,z
-x,y,-z
-x,-y,-z
x,-y,z
1/2+x,1/2+y,z
1/2-x,1/2+y,-z
1/2-x,1/2-y,-z
1/2+x,1/2-y,z
loop_
_atom_site_type_symbol
_atom_site_label
_atom_site_fract_x
_atom_site_fract_y
_atom_site_fract_z
Si Si1 0.754028 0.426829 0.842293
Si Si2 0.548734 0.620800 0.926452
Si Si3 0.424094 0.849688 0.477875
Si Si4 0.191405 0.423184 0.428918
Si Si5 0.415155 0.405483 0.356689
Si Si6 0.072918 0.209726 0.404598
Si Si7 0.217304 0.312998 0.877204
Si Si8 0.313445 0.667428 0.702555
O O1 0.775166 0.500000 0.916998
O O2 0.805395 0.407156 0.753334
O O3 0.665649 0.429980 0.678566
O O4 0.758139 0.374583 0.986903
O O5 0.586536 0.583620 0.830110
O O6 0.490786 0.670703 0.771416
O O7 0.500000 0.584351 0.000000
O O8 0.615885 0.654753 0.099126
O O9 0.500000 0.882393 0.500000
O O10 0.374549 0.890822 0.543353
O O11 0.448363 0.782836 0.589856
O O12 0.370531 0.826922 0.269203
O O13 0.186868 0.500000 0.436823
O O14 0.271925 0.396663 0.590848
O O15 0.500000 0.430115 0.500000
O O16 0.416051 0.331689 0.423460
O O17 0.151328 0.206168 0.399576
O O18 0.251487 0.303690 0.743976
O O19 0.250000 0.250000 0.000000
#
# Coordination Sequence:
#
# PCOD9176420 Si02
#       8
#     8   8   8   8   8   8   8   8
#     4  11  23  43  65  90 128 173 225 282 332 395
#     4   9  18  32  54  92 126 168 202 253 322 378
#     4  11  25  43  66  96 129 174 213 275 345 399
#     4  10  24  44  66  91 125 177 234 276 325 392
#     4  10  18  34  61  87 131 175 214 261 315 400
#     4  10  20  35  63  91 134 165 211 259 331 401
#     4  11  25  38  65  98 129 163 218 271 335 396
#     4  10  20  36  61  94 126 169 206 265 323 384
#
# _framework density 20.626328000000001
#
# number of rings (size 3 to 8) (size 9 to 14) (size 15 to 20)
#    0.000    1.750    2.500    1.875    3.500    3.500 
#    0.000    0.625    0.000    5.250    0.000    0.000 
#    0.000    0.000    0.000    0.000    0.000    0.000 
#
# Total GULP energy -178196.947354 kJ/mol
# GULP energy per Si atom -5568.654605 kJ/mol
# Density = 2.057938 g / cm^3
# Si number density = 20.626328 Si / 1000 Ang^3
#
#
#
# Elastic Constant Matrix: (Units=GPa)
#
#
# Indices 1 2 3 4 5 6 
#
# 1 134.7419 24.8016 45.2020 0.0000 -13.3622 0.0000
# 2 24.8016 73.9575 20.1777 0.0000 -13.6874 0.0000
# 3 45.2020 20.1777 62.0358 0.0000 -12.1093 0.0000
# 4 0.0000 0.0000 0.0000 -1.1335 0.0000 -18.7114
# 5 -13.3622 -13.6874 -12.1093 0.0000 37.8772 0.0000
# 6 0.0000 0.0000 0.0000 -18.7114 0.0000 -7.7683
#
#
#
# Elastic Compliance Matrix: (Units=1/GPa)
#
#
# Indices 1 2 3 4 5 6 
#
# 1 0.009999 -0.001368 -0.006664 0.000000 0.000902 0.000000
# 2 -0.001368 0.015639 -0.003286 0.000000 0.004118 0.000000
# 3 -0.006664 -0.003286 0.022775 0.000000 0.003743 0.000000
# 4 0.000000 0.000000 0.000000 0.022760 0.000000 -0.054822
# 5 0.000902 0.004118 0.003743 0.000000 0.029404 0.000000
# 6 0.000000 0.000000 0.000000 -0.054822 0.000000 0.003321
#
#
# Mechanical properties :
#
#
# Convention : Reuss Voigt Hill
#
# Bulk Modulus (GPa) = 38.79616 50.12197 44.45906
# Shear Modulus (GPa) = 37.00253 17.83202 27.41727
#
# Velocity S-wave (km/s) = 4.24010 2.94347 3.64983
# Velocity P-wave (km/s) = 6.54378 5.99206 6.27399
#
# Compressibility (1/GPa) = 0.02577575
#
# Stress axis : x y z
#
# Youngs Moduli (GPa) = 100.01456 63.94408 43.90767
#
# Poissons Ratio (x) = 0.08746 0.29262
# Poissons Ratio (y) = 0.13680 0.14429
# Poissons Ratio (z) = 0.66653 0.21013
#
# Static dielectric constant tensor:
#      x y z
#    x 1.860300 0.000000 0.002150 
#    y 0.000000 1.743020 0.000000 
#    z 0.002150 0.000000 1.774010 
# 
# From -- ./inp_files/89645.got.cif
#   From: 2010.05.17/outbox.cif.g08.bks.cpg/sg12_45_cif.got.tgz:89645.got - 2010.06.03 13:09:07.
