data_PCOD9176642
_publ_section_title
;
Structure prediction by ZEFSAII (Michael W. Deem and Ramdas Pophale) SiO2 
 PCOD9176642
Probable space group: C 2/M
;
_chemical_formula_sum "Si O2"
_cell_formula_units_Z 48
_cell_length_a 27.882216
_cell_length_b 7.469686
_cell_length_c 17.464457
_cell_angle_alpha 90.000000
_cell_angle_beta 36.663696
_cell_angle_gamma 90.000000
_cell_volume 2171.921668
_symmetry_space_group_name_H-M "C 2/M"
_symmetry_group_IT_number 12
_symmetry_cell_setting 'monoclinic'
loop_
_space_group_symop_operation_xyz
x,y,z
-x,y,-z
-x,-y,-z
x,-y,z
1/2+x,1/2+y,z
1/2-x,1/2+y,-z
1/2-x,1/2-y,-z
1/2+x,1/2-y,z
loop_
_atom_site_type_symbol
_atom_site_label
_atom_site_fract_x
_atom_site_fract_y
_atom_site_fract_z
Si Si1 0.342696 0.214509 0.896625
Si Si2 0.303606 0.219033 0.255930
Si Si3 0.972428 0.704374 0.615295
Si Si4 0.374591 0.291385 0.485984
Si Si5 0.408381 0.781322 0.976354
Si Si6 0.093118 0.283502 0.730793
O O1 0.399055 0.286832 0.756564
O O2 0.372037 0.279513 0.941953
O O3 0.354723 0.000000 0.882864
O O4 0.250000 0.250000 0.000000
O O5 0.211209 0.277990 0.375084
O O6 0.348668 0.276098 0.275682
O O7 0.302597 0.000000 0.257729
O O8 0.354201 0.275929 0.117211
O O9 0.947723 0.500000 0.628194
O O10 0.048507 0.701255 0.574395
O O11 0.000000 0.788443 0.500000
O O12 0.380366 0.500000 0.499251
O O13 0.378947 0.275379 0.388766
O O14 0.501277 0.725927 0.863075
O O15 0.408032 0.000000 0.977552
O O16 0.093343 0.500000 0.730259
#
# Coordination Sequence:
#
# PCOD9176642 Si02
#       6
#     8   8   8   8   8   8
#     4  10  21  37  58  83 109 141 180 225 274 325
#     4   9  19  32  53  85 112 142 184 229 270 320
#     4  10  22  41  61  81 108 144 187 226 268 328
#     4  11  22  35  54  83 117 145 178 224 277 326
#     4   9  17  33  56  81 108 139 184 231 267 315
#     4  10  18  35  60  80 107 147 188 225 270 321
#
# _framework density 22.100245000000001
#
# number of rings (size 3 to 8) (size 9 to 14) (size 15 to 20)
#    0.000    2.167    1.667    1.500    2.333    3.000 
#    0.000    0.833    0.000    5.000    0.000    0.000 
#    0.000    0.000    0.000    0.000    0.000    0.000 
#
# Total GULP energy -134160.600091 kJ/mol
# GULP energy per Si atom -5590.025004 kJ/mol
# Density = 2.204994 g / cm^3
# Si number density = 22.100245 Si / 1000 Ang^3
#
#
#
# Elastic Constant Matrix: (Units=GPa)
#
#
# Indices 1 2 3 4 5 6 
#
# 1 80.2231 -3.1315 38.1640 -0.0053 2.5310 -0.0061
# 2 -3.1315 64.9012 1.1030 0.0077 0.6044 0.0773
# 3 38.1640 1.1030 144.4911 -0.0112 -1.7212 0.0435
# 4 -0.0053 0.0077 -0.0112 4.7057 -0.0024 30.0180
# 5 2.5310 0.6044 -1.7212 -0.0024 47.2385 -0.0157
# 6 -0.0061 0.0773 0.0435 30.0180 -0.0157 393.9751
#
#
#
# Elastic Compliance Matrix: (Units=1/GPa)
#
#
# Indices 1 2 3 4 5 6 
#
# 1 0.014333 0.000765 -0.003802 0.000005 -0.000916 0.000000
# 2 0.000765 0.015453 -0.000323 -0.000012 -0.000250 -0.000002
# 3 -0.003802 -0.000323 0.007934 0.000041 0.000497 -0.000004
# 4 0.000005 -0.000012 0.000041 0.413475 0.000011 -0.031504
# 5 -0.000916 -0.000250 0.000497 0.000011 0.021240 0.000000
# 6 0.000000 -0.000002 -0.000004 -0.031504 0.000000 0.004939
#
#
# Mechanical properties :
#
#
# Convention : Reuss Voigt Hill
#
# Bulk Modulus (GPa) = 32.26025 40.20959 36.23492
# Shear Modulus (GPa) = 10.11273 106.08251 58.09762
#
# Velocity S-wave (km/s) = 2.14144 6.93576 5.13277
# Velocity P-wave (km/s) = 4.55448 9.07598 7.18042
#
# Compressibility (1/GPa) = 0.03099790
#
# Stress axis : x y z
#
# Youngs Moduli (GPa) = 69.76943 64.71341 126.04677
#
# Poissons Ratio (x) = -0.04949 0.47929
# Poissons Ratio (y) = -0.05335 0.04070
# Poissons Ratio (z) = 0.26530 0.02090
#
# Static dielectric constant tensor:
#      x y z
#    x 1.748010 0.000000 0.010790 
#    y 0.000000 1.853400 0.000010 
#    z 0.010790 0.000010 1.785010 
# 
# From -- ./inp_files/244884.got.cif
#   From: 2010.05.17/outbox.cif.g08.bks.cpg/sg12_123_cif.got.tgz:244884.got - 2010.06.03 13:09:07.
