data_PCOD9176491
_publ_section_title
;
Structure prediction by ZEFSAII (Michael W. Deem and Ramdas Pophale) SiO2 
 PCOD9176491
Probable space group: C 2/M
;
_chemical_formula_sum "Si O2"
_cell_formula_units_Z 56
_cell_length_a 20.588997
_cell_length_b 17.370622
_cell_length_c 10.065110
_cell_angle_alpha 90.000000
_cell_angle_beta 136.929793
_cell_angle_gamma 90.000000
_cell_volume 2458.229280
_symmetry_space_group_name_H-M "C 2/M"
_symmetry_group_IT_number 12
_symmetry_cell_setting 'monoclinic'
loop_
_space_group_symop_operation_xyz
x,y,z
-x,y,-z
-x,-y,-z
x,-y,z
1/2+x,1/2+y,z
1/2-x,1/2+y,-z
1/2-x,1/2-y,-z
1/2+x,1/2-y,z
loop_
_atom_site_type_symbol
_atom_site_label
_atom_site_fract_x
_atom_site_fract_y
_atom_site_fract_z
Si Si1 0.809413 0.592054 0.495407
Si Si2 0.176441 0.710352 0.709584
Si Si3 0.860694 0.885779 0.381895
Si Si4 0.602075 0.413236 0.137324
Si Si5 0.617442 0.223023 0.913874
Si Si6 0.357642 0.913360 0.865480
Si Si7 0.944558 0.886921 0.219219
O O1 0.808922 0.500000 0.464704
O O2 0.845394 0.644678 0.429253
O O3 0.698260 0.618224 0.343395
O O4 0.860267 0.602338 0.712090
O O5 0.135717 0.793147 0.609055
O O6 0.141156 0.689207 0.804166
O O7 0.287652 0.732944 0.891852
O O8 0.755106 0.911278 0.262839
O O9 0.887903 0.904555 0.269868
O O10 0.947432 0.914940 0.601576
O O11 0.592565 0.500000 0.176334
O O12 0.500000 0.372382 0.000000
O O13 0.610365 0.417507 0.990523
O O14 0.549004 0.294710 0.790507
O O15 0.594128 0.154318 0.978479
O O16 0.393396 0.000000 0.944985
#
# Coordination Sequence:
#
# PCOD9176491 Si02
#       7
#     8   8   8   8   8   8   8
#     4  10  20  33  51  72 102 138 169 206 254 304
#     4   9  17  34  50  75  99 129 174 215 253 299
#     4   9  20  32  54  73 104 136 166 213 258 305
#     4  10  20  32  47  70 106 141 169 202 243 304
#     4   9  18  32  54  74 100 132 172 220 250 296
#     4  10  21  35  50  76 107 137 171 213 258 303
#     4  10  18  35  50  76 103 136 172 207 257 305
#
# _framework density 22.780626000000002
#
# number of rings (size 3 to 8) (size 9 to 14) (size 15 to 20)
#    0.000    2.429    1.429    1.714    0.000    5.143 
#    2.571    1.429    0.000    0.857    0.000    6.000 
#    0.000    0.000    0.000    0.000    0.000    0.000 
#
# Total GULP energy -156331.221295 kJ/mol
# GULP energy per Si atom -5583.257903 kJ/mol
# Density = 2.272878 g / cm^3
# Si number density = 22.780626 Si / 1000 Ang^3
#
#
#
# Elastic Constant Matrix: (Units=GPa)
#
#
# Indices 1 2 3 4 5 6 
#
# 1 39.6360 29.8183 16.1029 0.0000 -17.3559 0.0000
# 2 29.8183 126.0707 50.4116 0.0000 -30.8395 0.0000
# 3 16.1029 50.4116 64.1940 0.0000 -19.5457 0.0000
# 4 0.0000 0.0000 0.0000 38.8657 0.0000 -12.7328
# 5 -17.3559 -30.8395 -19.5457 0.0000 38.4231 0.0000
# 6 0.0000 0.0000 0.0000 -12.7328 0.0000 12.6887
#
#
#
# Elastic Compliance Matrix: (Units=1/GPa)
#
#
# Indices 1 2 3 4 5 6 
#
# 1 0.034216 -0.004859 -0.001478 0.000000 0.010804 0.000000
# 2 -0.004859 0.013333 -0.007883 0.000000 0.004497 0.000000
# 3 -0.001478 -0.007883 0.023676 0.000000 0.005050 0.000000
# 4 0.000000 0.000000 0.000000 0.038331 0.000000 0.038464
# 5 0.010804 0.004497 0.005050 0.000000 0.037084 0.000000
# 6 0.000000 0.000000 0.000000 0.038464 0.000000 0.117407
#
#
# Mechanical properties :
#
#
# Convention : Reuss Voigt Hill
#
# Bulk Modulus (GPa) = 23.37145 46.95181 35.16163
# Shear Modulus (GPa) = 16.29995 26.90002 21.59999
#
# Velocity S-wave (km/s) = 2.67782 3.44005 3.08258
# Velocity P-wave (km/s) = 4.45450 6.03604 5.30454
#
# Compressibility (1/GPa) = 0.04278724
#
# Stress axis : x y z
#
# Youngs Moduli (GPa) = 29.22580 74.99960 42.23648
#
# Poissons Ratio (x) = 0.36443 0.06241
# Poissons Ratio (y) = 0.14201 0.33293
# Poissons Ratio (z) = 0.04318 0.59119
#
# Static dielectric constant tensor:
#      x y z
#    x 1.908010 0.000000 0.018980 
#    y 0.000000 1.847580 0.000000 
#    z 0.018980 0.000000 1.844510 
# 
# From -- ./inp_files/98216.got.cif
#   From: 2010.05.17/outbox.cif.g08.bks.cpg/sg12_50_cif.got.tgz:98216.got - 2010.06.03 13:09:07.
