data_PCOD9176823
_publ_section_title
;
Structure prediction by ZEFSAII (Michael W. Deem and Ramdas Pophale) SiO2 
 PCOD9176823
Probable space group: C 2/M
;
_chemical_formula_sum "Si O2"
_cell_formula_units_Z 64
_cell_length_a 32.566689
_cell_length_b 14.957976
_cell_length_c 9.169480
_cell_angle_alpha 90.000000
_cell_angle_beta 135.141007
_cell_angle_gamma 90.000000
_cell_volume 3150.682926
_symmetry_space_group_name_H-M "C 2/M"
_symmetry_group_IT_number 12
_symmetry_cell_setting 'monoclinic'
loop_
_space_group_symop_operation_xyz
x,y,z
-x,y,-z
-x,-y,-z
x,-y,z
1/2+x,1/2+y,z
1/2-x,1/2+y,-z
1/2-x,1/2-y,-z
1/2+x,1/2-y,z
loop_
_atom_site_type_symbol
_atom_site_label
_atom_site_fract_x
_atom_site_fract_y
_atom_site_fract_z
Si Si1 0.063238 0.596483 0.982942
Si Si2 0.473052 0.596786 0.595456
Si Si3 0.660082 0.394967 0.345695
Si Si4 0.757684 0.098526 0.718631
Si Si5 0.928820 0.597690 0.646695
Si Si6 0.144715 0.845631 0.819984
Si Si7 0.332006 0.756578 0.389146
Si Si8 0.924139 0.790969 0.073657
O O1 0.086470 0.500000 0.988512
O O2 0.090069 0.690385 0.007720
O O3 0.995705 0.603162 0.764624
O O4 0.066827 0.594588 0.166766
O O5 0.500000 0.592710 0.500000
O O6 0.486049 0.500000 0.697866
O O7 0.403947 0.606956 0.403228
O O8 0.508280 0.678575 0.755397
O O9 0.654968 0.500000 0.371265
O O10 0.714961 0.385780 0.372668
O O11 0.663113 0.327061 0.488200
O O12 0.606817 0.360857 0.111837
O O13 0.714344 0.175623 0.658342
O O14 0.729935 0.000000 0.649158
O O15 0.810610 0.099100 0.968780
O O16 0.905680 0.500000 0.538953
O O17 0.889886 0.682946 0.513808
O O18 0.180345 0.782043 0.802040
O O19 0.103902 0.798838 0.837370
#
# Coordination Sequence:
#
# PCOD9176823 Si02
#       8
#     8   8   8   8   8   8   8   8
#     4   9  17  32  54  80 112 149 184 224 273 321
#     4   9  17  31  54  80 108 148 191 221 259 327
#     4  10  22  38  58  85 113 141 179 232 285 332
#     4  10  22  41  61  78 105 148 190 229 279 334
#     4   9  18  32  54  82 110 144 187 229 273 324
#     4  10  22  35  56  82 116 149 185 227 281 326
#     4  12  21  37  58  85 110 144 185 233 279 329
#     4  10  18  36  57  83 116 154 185 221 272 338
#
# _framework density 20.313056
#
# number of rings (size 3 to 8) (size 9 to 14) (size 15 to 20)
#    0.000    2.125    1.250    3.375    0.000    4.000 
#    0.000    1.250    0.000    7.125    0.000    0.000 
#    0.000    0.000    0.000    0.000    0.000    0.000 
#
# Total GULP energy -178308.639454 kJ/mol
# GULP energy per Si atom -5572.144983 kJ/mol
# Density = 2.026682 g / cm^3
# Si number density = 20.313056 Si / 1000 Ang^3
#
#
#
# Elastic Constant Matrix: (Units=GPa)
#
#
# Indices 1 2 3 4 5 6 
#
# 1 37.4539 19.9298 7.5949 0.0000 -5.3680 0.0000
# 2 19.9298 125.9741 6.6411 0.0000 -12.1224 0.0000
# 3 7.5949 6.6411 23.4342 0.0000 -5.8215 0.0000
# 4 0.0000 0.0000 0.0000 22.5071 0.0000 7.5894
# 5 -5.3680 -12.1224 -5.8215 0.0000 19.7184 0.0000
# 6 0.0000 0.0000 0.0000 7.5894 0.0000 18.1942
#
#
#
# Elastic Compliance Matrix: (Units=1/GPa)
#
#
# Indices 1 2 3 4 5 6 
#
# 1 0.031037 -0.004148 -0.008005 0.000000 0.003536 0.000000
# 2 -0.004148 0.009022 -0.000124 0.000000 0.004381 0.000000
# 3 -0.008005 -0.000124 0.048283 0.000000 0.011999 0.000000
# 4 0.000000 0.000000 0.000000 0.051703 0.000000 -0.021567
# 5 0.003536 0.004381 0.011999 0.000000 0.057912 0.000000
# 6 0.000000 0.000000 0.000000 -0.021567 0.000000 0.063959
#
#
# Mechanical properties :
#
#
# Convention : Reuss Voigt Hill
#
# Bulk Modulus (GPa) = 15.67694 28.35488 22.01591
# Shear Modulus (GPa) = 16.24784 22.26370 19.25577
#
# Velocity S-wave (km/s) = 2.83127 3.31422 3.08222
# Velocity P-wave (km/s) = 4.29215 5.35114 4.85063
#
# Compressibility (1/GPa) = 0.06378794
#
# Stress axis : x y z
#
# Youngs Moduli (GPa) = 32.21996 110.83413 20.71115
#
# Poissons Ratio (x) = 0.45973 0.16579
# Poissons Ratio (y) = 0.13365 0.00257
# Poissons Ratio (z) = 0.25792 0.01377
#
# Static dielectric constant tensor:
#      x y z
#    x 1.728950 0.000000 0.034030 
#    y 0.000000 1.781390 0.000000 
#    z 0.034030 0.000000 1.724530 
# 
# From -- ./inp_files/112036.got.cif
#   From: 2010.05.17/outbox.cif.g08.bks.cpg/sg12_57_cif.got.tgz:112036.got - 2010.06.03 13:09:07.
