data_PCOD9176265
_publ_section_title
;
Structure prediction by ZEFSAII (Michael W. Deem and Ramdas Pophale) SiO2 
 PCOD9176265
Probable space group: C 2/M
;
_chemical_formula_sum "Si O2"
_cell_formula_units_Z 56
_cell_length_a 30.451339
_cell_length_b 7.588622
_cell_length_c 11.473378
_cell_angle_alpha 90.000000
_cell_angle_beta 110.597279
_cell_angle_gamma 90.000000
_cell_volume 2481.828916
_symmetry_space_group_name_H-M "C 2/M"
_symmetry_group_IT_number 12
_symmetry_cell_setting 'monoclinic'
loop_
_space_group_symop_operation_xyz
x,y,z
-x,y,-z
-x,-y,-z
x,-y,z
1/2+x,1/2+y,z
1/2-x,1/2+y,-z
1/2-x,1/2-y,-z
1/2+x,1/2-y,z
loop_
_atom_site_type_symbol
_atom_site_label
_atom_site_fract_x
_atom_site_fract_y
_atom_site_fract_z
Si Si1 0.127125 0.214212 0.577179
Si Si2 0.224434 0.712259 0.100209
Si Si3 0.428104 0.704799 0.271122
Si Si4 0.045119 0.787422 0.113492
Si Si5 0.381665 0.794848 0.998253
Si Si6 0.228902 0.787884 0.609043
Si Si7 0.968806 0.784497 0.634308
O O1 0.117714 0.268980 0.702262
O O2 0.175197 0.278945 0.567159
O O3 0.078046 0.271056 0.474927
O O4 0.130131 0.000000 0.570671
O O5 0.223345 0.500000 0.107717
O O6 0.246655 0.773459 0.245698
O O7 0.250000 0.750000 0.000000
O O8 0.170723 0.778668 0.044442
O O9 0.431865 0.500000 0.306892
O O10 0.417221 0.713743 0.125103
O O11 0.479108 0.780428 0.350168
O O12 0.038804 0.733672 0.239640
O O13 0.045057 0.000000 0.109131
O O14 0.093654 0.726736 0.102729
O O15 0.000000 0.722979 0.000000
O O16 0.379247 0.000000 0.025389
O O17 0.250000 0.750000 0.500000
O O18 0.229081 0.000000 0.616965
O O19 0.970057 0.000000 0.627813
#
# Coordination Sequence:
#
# PCOD9176265 Si02
#       7
#     8   8   8   8   8   8   8
#     4   9  18  32  56  84 108 138 179 229 282 330
#     4  10  23  42  62  87 118 151 196 247 294 346
#     4  10  18  34  58  83 111 143 180 227 277 328
#     4  10  19  34  54  80 111 144 187 232 269 322
#     4  11  23  36  54  81 115 150 184 225 280 338
#     4  10  22  40  59  84 116 150 192 240 290 347
#     4   9  17  30  52  84 113 136 176 228 275 324
#
# _framework density 22.564007
#
# number of rings (size 3 to 8) (size 9 to 14) (size 15 to 20)
#    0.000    2.143    1.429    1.714    2.000    4.857 
#    0.000    0.714    0.000    3.429    0.000    0.000 
#    0.000    0.000    0.000    0.000    0.000    0.000 
#
# Total GULP energy -156186.846799 kJ/mol
# GULP energy per Si atom -5578.101671 kJ/mol
# Density = 2.251265 g / cm^3
# Si number density = 22.564007 Si / 1000 Ang^3
#
#
#
# Elastic Constant Matrix: (Units=GPa)
#
#
# Indices 1 2 3 4 5 6 
#
# 1 208.0988 2.2228 64.3703 0.0000 -8.4127 0.0000
# 2 2.2228 43.7423 2.5609 0.0000 1.6227 0.0000
# 3 64.3703 2.5609 111.4251 0.0000 -5.2226 0.0000
# 4 0.0000 0.0000 0.0000 7.1725 0.0000 -9.1889
# 5 -8.4127 1.6227 -5.2226 0.0000 36.3218 0.0000
# 6 0.0000 0.0000 0.0000 -9.1889 0.0000 15.7036
#
#
#
# Elastic Compliance Matrix: (Units=1/GPa)
#
#
# Indices 1 2 3 4 5 6 
#
# 1 0.005880 -0.000135 -0.003352 0.000000 0.000886 0.000000
# 2 -0.000135 0.022939 -0.000502 0.000000 -0.001128 0.000000
# 3 -0.003352 -0.000502 0.010961 0.000000 0.000822 0.000000
# 4 0.000000 0.000000 0.000000 0.556886 0.000000 0.325859
# 5 0.000886 -0.001128 0.000822 0.000000 0.027905 0.000000
# 6 0.000000 0.000000 0.000000 0.325859 0.000000 0.254354
#
#
# Mechanical properties :
#
#
# Convention : Reuss Voigt Hill
#
# Bulk Modulus (GPa) = 31.44510 55.73048 43.58779
# Shear Modulus (GPa) = 5.57100 31.44705 18.50903
#
# Velocity S-wave (km/s) = 1.57300 3.73726 2.86718
# Velocity P-wave (km/s) = 4.15516 6.58599 5.50639
#
# Compressibility (1/GPa) = 0.03180146
#
# Stress axis : x y z
#
# Youngs Moduli (GPa) = 170.08193 43.59331 91.23136
#
# Poissons Ratio (x) = 0.00590 0.30580
# Poissons Ratio (y) = 0.02303 0.04579
# Poissons Ratio (z) = 0.57011 0.02188
#
# Static dielectric constant tensor:
#      x y z
#    x 1.823440 0.000000 0.001270 
#    y 0.000000 1.874310 0.000000 
#    z 0.001270 0.000000 1.850460 
# 
# From -- ./inp_files/186802.got.cif
#   From: 2010.05.17/outbox.cif.g08.bks.cpg/sg12_94_cif.got.tgz:186802.got - 2010.06.03 13:09:07.
