data_PCOD9176257
_publ_section_title
;
Structure prediction by ZEFSAII (Michael W. Deem and Ramdas Pophale) SiO2 
 PCOD9176257
Probable space group: C 2/M
;
_chemical_formula_sum "Si O2"
_cell_formula_units_Z 56
_cell_length_a 26.011575
_cell_length_b 7.396510
_cell_length_c 14.826950
_cell_angle_alpha 90.000000
_cell_angle_beta 55.767821
_cell_angle_gamma 90.000000
_cell_volume 2358.453288
_symmetry_space_group_name_H-M "C 2/M"
_symmetry_group_IT_number 12
_symmetry_cell_setting 'monoclinic'
loop_
_space_group_symop_operation_xyz
x,y,z
-x,y,-z
-x,-y,-z
x,-y,z
1/2+x,1/2+y,z
1/2-x,1/2+y,-z
1/2-x,1/2-y,-z
1/2+x,1/2-y,z
loop_
_atom_site_type_symbol
_atom_site_label
_atom_site_fract_x
_atom_site_fract_y
_atom_site_fract_z
Si Si1 0.881356 0.210403 0.759298
Si Si2 0.972006 0.720228 0.932812
Si Si3 0.577929 0.778282 0.690920
Si Si4 0.289414 0.215508 0.371585
Si Si5 0.337946 0.782015 0.999314
Si Si6 0.230979 0.221362 0.241562
Si Si7 0.515277 0.205147 0.581329
O O1 0.843259 0.226795 0.890016
O O2 0.837541 0.279454 0.721938
O O3 0.948589 0.300993 0.697659
O O4 0.894122 0.000000 0.731813
O O5 0.970996 0.500000 0.934446
O O6 0.901968 0.778961 0.983167
O O7 0.019172 0.776828 0.808468
O O8 0.000000 0.779061 0.000000
O O9 0.641216 0.717084 0.675560
O O10 0.565328 0.715727 0.601117
O O11 0.578814 0.000000 0.687741
O O12 0.250000 0.250000 0.500000
O O13 0.255719 0.283028 0.314383
O O14 0.295140 0.000000 0.353159
O O15 0.336855 0.000000 0.001126
O O16 0.279627 0.721484 0.115989
O O17 0.229818 0.000000 0.242887
O O18 0.500000 0.291392 0.500000
O O19 0.536160 0.000000 0.541790
#
# Coordination Sequence:
#
# PCOD9176257 Si02
#       7
#     8   8   8   8   8   8   8
#     4  11  22  36  54  81 117 151 181 219 277 337
#     4   9  15  25  50  83 106 129 169 221 272 315
#     4   9  17  32  53  80 107 132 173 228 271 310
#     4  10  21  38  58  81 110 143 183 229 276 327
#     4  10  18  34  58  82 109 143 187 231 270 318
#     4   9  20  36  55  81 113 148 185 226 271 328
#     4  10  21  37  58  83 108 138 185 236 274 316
#
# _framework density 23.744375000000002
#
# number of rings (size 3 to 8) (size 9 to 14) (size 15 to 20)
#    0.000    2.286    1.429    1.714    2.000    3.714 
#    0.000    2.857    0.000    0.429    0.000    0.000 
#    0.000    0.000    0.000    0.000    0.000    0.000 
#
# Total GULP energy -156532.786117 kJ/mol
# GULP energy per Si atom -5590.456647 kJ/mol
# Density = 2.369033 g / cm^3
# Si number density = 23.744375 Si / 1000 Ang^3
#
#
#
# Elastic Constant Matrix: (Units=GPa)
#
#
# Indices 1 2 3 4 5 6 
#
# 1 162.7262 4.3785 14.9221 0.0000 29.5368 0.0000
# 2 4.3785 86.3420 -7.5286 0.0002 1.1223 0.0003
# 3 14.9221 -7.5286 61.7813 0.0000 22.6313 0.0000
# 4 0.0000 0.0002 0.0000 5.5995 0.0000 5.8711
# 5 29.5368 1.1223 22.6313 0.0000 49.3287 0.0000
# 6 0.0000 0.0003 0.0000 5.8711 0.0000 -8.4243
#
#
#
# Elastic Compliance Matrix: (Units=1/GPa)
#
#
# Indices 1 2 3 4 5 6 
#
# 1 0.006905 -0.000318 -0.000234 0.000000 -0.004020 0.000000
# 2 -0.000318 0.011771 0.001851 0.000000 -0.000926 0.000000
# 3 -0.000234 0.001851 0.019752 0.000000 -0.008964 0.000000
# 4 0.000000 0.000000 0.000000 0.103187 0.000000 0.071913
# 5 -0.004020 -0.000926 -0.008964 0.000000 0.026813 0.000000
# 6 0.000000 0.000000 0.000000 0.071913 0.000000 -0.068587
#
#
# Mechanical properties :
#
#
# Convention : Reuss Voigt Hill
#
# Bulk Modulus (GPa) = 24.37551 37.15481 30.76516
# Shear Modulus (GPa) = 45.07773 29.23928 37.15850
#
# Velocity S-wave (km/s) = 4.36186 3.51297 3.96022
# Velocity P-wave (km/s) = 5.97125 5.66890 5.82204
#
# Compressibility (1/GPa) = 0.04102478
#
# Stress axis : x y z
#
# Youngs Moduli (GPa) = 144.82292 84.95170 50.62846
#
# Poissons Ratio (x) = 0.02704 0.01185
# Poissons Ratio (y) = 0.04610 -0.09370
# Poissons Ratio (z) = 0.03389 -0.15722
#
# Static dielectric constant tensor:
#      x y z
#    x 1.868520 0.000000 0.016570 
#    y 0.000000 1.913730 0.000000 
#    z 0.016570 0.000000 1.872330 
# 
# From -- ./inp_files/238301.got.cif
#   From: 2010.05.17/outbox.cif.g08.bks.cpg/sg12_120_cif.got.tgz:238301.got - 2010.06.03 13:09:07.
