data_PCOD9176595
_publ_section_title
;
Structure prediction by ZEFSAII (Michael W. Deem and Ramdas Pophale) SiO2 
 PCOD9176595
Probable space group: C 2/M
;
_chemical_formula_sum "Si O2"
_cell_formula_units_Z 44
_cell_length_a 11.702302
_cell_length_b 26.585321
_cell_length_c 7.891333
_cell_angle_alpha 90.000000
_cell_angle_beta 61.038353
_cell_angle_gamma 90.000000
_cell_volume 2148.047376
_symmetry_space_group_name_H-M "C 2/M"
_symmetry_group_IT_number 12
_symmetry_cell_setting 'monoclinic'
loop_
_space_group_symop_operation_xyz
x,y,z
-x,y,-z
-x,-y,-z
x,-y,z
1/2+x,1/2+y,z
1/2-x,1/2+y,-z
1/2-x,1/2-y,-z
1/2+x,1/2-y,z
loop_
_atom_site_type_symbol
_atom_site_label
_atom_site_fract_x
_atom_site_fract_y
_atom_site_fract_z
Si Si1 0.673667 0.000000 0.242366
Si Si2 0.343780 0.197749 0.136197
Si Si3 0.602243 0.000000 0.699409
Si Si4 0.500000 0.148565 0.500000
Si Si5 0.361555 0.411695 0.172863
Si Si6 0.798315 0.601737 0.390893
Si Si7 0.255825 0.695464 0.169683
O O1 0.756620 0.949133 0.164599
O O2 0.637717 0.000000 0.470460
O O3 0.553154 0.000000 0.201308
O O4 0.288248 0.152584 0.290129
O O5 0.317622 0.255255 0.211727
O O6 0.500000 0.190130 0.000000
O O7 0.267007 0.197762 0.014329
O O8 0.662212 0.050798 0.732678
O O9 0.423362 0.113709 0.422468
O O10 0.612214 0.183515 0.344067
O O11 0.325423 0.410814 0.399665
O O12 0.340099 0.353882 0.140992
O O13 0.500000 0.428065 0.000000
#
# Coordination Sequence:
#
# PCOD9176595 Si02
#       7
#     4   8   4   4   8   8   8
#     4   9  17  30  59  87 117 151 191 238 281 333
#     4  11  22  39  57  82 117 149 190 243 292 346
#     4   9  16  32  56  88 114 149 191 237 287 339
#     4  10  18  35  58  84 114 151 190 238 280 346
#     4  10  20  36  57  85 118 154 199 232 282 339
#     4  10  20  35  59  84 118 153 191 239 288 336
#     4  10  22  38  57  83 114 150 194 240 289 343
#
# _framework density 20.483720000000002
#
# number of rings (size 3 to 8) (size 9 to 14) (size 15 to 20)
#    0.000    2.000    1.818    4.091    0.000    2.909 
#    6.545    1.364    0.000    0.000    0.000    5.091 
#    0.000    0.000    0.000    0.000    0.000    0.000 
#
# Total GULP energy -122652.434244 kJ/mol
# GULP energy per Si atom -5575.110647 kJ/mol
# Density = 2.043710 g / cm^3
# Si number density = 20.483720 Si / 1000 Ang^3
#
#
#
# Elastic Constant Matrix: (Units=GPa)
#
#
# Indices 1 2 3 4 5 6 
#
# 1 29.0930 21.2353 31.4627 0.0000 -11.9778 0.0000
# 2 21.2353 166.2590 36.7274 0.0000 -2.0921 0.0000
# 3 31.4627 36.7274 61.8168 0.0000 -26.9000 0.0000
# 4 0.0000 0.0000 0.0000 -3.0721 0.0000 -1.8857
# 5 -11.9778 -2.0921 -26.9000 0.0000 32.1456 0.0000
# 6 0.0000 0.0000 0.0000 -1.8857 0.0000 2.9988
#
#
#
# Elastic Compliance Matrix: (Units=1/GPa)
#
#
# Indices 1 2 3 4 5 6 
#
# 1 0.077389 -0.000790 -0.041508 0.000000 -0.005951 0.000000
# 2 -0.000790 0.007416 -0.006168 0.000000 -0.004973 0.000000
# 3 -0.041508 -0.006168 0.053570 0.000000 0.028960 0.000000
# 4 0.000000 0.000000 0.000000 -0.234857 0.000000 -0.147684
# 5 -0.005951 -0.004973 0.028960 0.000000 0.052802 0.000000
# 6 0.000000 0.000000 0.000000 -0.147684 0.000000 0.240605
#
#
# Mechanical properties :
#
#
# Convention : Reuss Voigt Hill
#
# Bulk Modulus (GPa) = 24.13012 48.44664 36.28838
# Shear Modulus (GPa) = 16.25116 17.59734 16.92425
#
# Velocity S-wave (km/s) = 2.81974 2.93420 2.87754
# Velocity P-wave (km/s) = 4.73360 5.93144 5.36605
#
# Compressibility (1/GPa) = 0.04144199
#
# Stress axis : x y z
#
# Youngs Moduli (GPa) = 12.92181 134.85218 18.66712
#
# Poissons Ratio (x) = 0.10651 0.77484
# Poissons Ratio (y) = 0.01021 0.11514
# Poissons Ratio (z) = 0.53636 0.83175
#
# Static dielectric constant tensor:
#      x y z
#    x 1.729770 0.000000 -0.018020 
#    y 0.000000 1.784660 0.000000 
#    z -0.018020 0.000000 1.829570 
# 
# From -- ./inp_files/51228.got.cif
#   From: 2010.05.17/outbox.cif.g08.bks.cpg/sg12_26_cif.got.tgz:51228.got - 2010.06.03 13:09:07.
