data_PCOD9176259
_publ_section_title
;
Structure prediction by ZEFSAII (Michael W. Deem and Ramdas Pophale) SiO2 
 PCOD9176259
Probable space group: C 2/M
;
_chemical_formula_sum "Si O2"
_cell_formula_units_Z 56
_cell_length_a 31.000522
_cell_length_b 16.797065
_cell_length_c 9.219288
_cell_angle_alpha 90.000000
_cell_angle_beta 38.755312
_cell_angle_gamma 90.000000
_cell_volume 3005.184865
_symmetry_space_group_name_H-M "C 2/M"
_symmetry_group_IT_number 12
_symmetry_cell_setting 'monoclinic'
loop_
_space_group_symop_operation_xyz
x,y,z
-x,y,-z
-x,-y,-z
x,-y,z
1/2+x,1/2+y,z
1/2-x,1/2+y,-z
1/2-x,1/2-y,-z
1/2+x,1/2-y,z
loop_
_atom_site_type_symbol
_atom_site_label
_atom_site_fract_x
_atom_site_fract_y
_atom_site_fract_z
Si Si1 0.917629 0.731235 0.754183
Si Si2 0.634033 0.092144 0.922045
Si Si3 0.130990 0.216705 0.411149
Si Si4 0.423654 0.812701 0.185474
Si Si5 0.294187 0.406202 0.583381
Si Si6 0.478867 0.415032 0.385892
Si Si7 0.899588 0.842801 0.071070
O O1 0.866445 0.741668 0.752162
O O2 0.000000 0.739631 0.500000
O O3 0.908906 0.646616 0.854727
O O4 0.891167 0.797389 0.939417
O O5 0.621865 0.131046 0.796313
O O6 0.713740 0.098672 0.757659
O O7 0.613826 0.000000 0.976489
O O8 0.111532 0.286664 0.573379
O O9 0.186250 0.157424 0.341173
O O10 0.067869 0.156159 0.546604
O O11 0.431859 0.727827 0.082581
O O12 0.500000 0.847541 0.000000
O O13 0.310128 0.500000 0.573007
O O14 0.337015 0.377245 0.328815
O O15 0.500000 0.408587 0.500000
O O16 0.443179 0.500000 0.462685
O O17 0.546338 0.410557 0.110014
#
# Coordination Sequence:
#
# PCOD9176259 Si02
#       7
#     8   8   8   8   8   8   8
#     4  11  20  38  64  86 115 147 188 244 290 338
#     4  10  24  44  60  80 113 150 193 244 293 341
#     4  11  19  34  57  86 119 149 191 231 283 337
#     4  10  19  34  61  83 108 142 184 244 290 332
#     4  10  23  39  55  82 121 160 194 228 273 338
#     4  11  19  29  51  87 123 158 188 225 275 331
#     4  10  18  34  58  82 119 154 190 221 274 340
#
# _framework density 18.634461999999999
#
# number of rings (size 3 to 8) (size 9 to 14) (size 15 to 20)
#    0.000    1.571    4.286    1.714    0.000    6.286 
#    0.000    2.857    0.000    3.429    0.000    0.000 
#    0.000    0.000    0.000    0.000    0.000    0.000 
#
# Total GULP energy -155928.805615 kJ/mol
# GULP energy per Si atom -5568.885915 kJ/mol
# Density = 1.859205 g / cm^3
# Si number density = 18.634462 Si / 1000 Ang^3
#
#
#
# Elastic Constant Matrix: (Units=GPa)
#
#
# Indices 1 2 3 4 5 6 
#
# 1 106.0421 34.2240 15.8107 0.0000 12.8405 0.0000
# 2 34.2240 108.5775 12.9054 0.0000 0.1590 0.0000
# 3 15.8107 12.9054 32.7012 0.0000 5.2447 0.0000
# 4 0.0000 0.0000 0.0000 18.4402 0.0000 2.9929
# 5 12.8405 0.1590 5.2447 0.0000 29.7106 0.0000
# 6 0.0000 0.0000 0.0000 2.9929 0.0000 -63.1319
#
#
#
# Elastic Compliance Matrix: (Units=1/GPa)
#
#
# Indices 1 2 3 4 5 6 
#
# 1 0.011525 -0.003196 -0.003617 0.000000 -0.004325 0.000000
# 2 -0.003196 0.010562 -0.002918 0.000000 0.001840 0.000000
# 3 -0.003617 -0.002918 0.034195 0.000000 -0.004458 0.000000
# 4 0.000000 0.000000 0.000000 0.053815 0.000000 0.002551
# 5 -0.004325 0.001840 -0.004458 0.000000 0.036304 0.000000
# 6 0.000000 0.000000 0.000000 0.002551 0.000000 -0.015719
#
#
# Mechanical properties :
#
#
# Convention : Reuss Voigt Hill
#
# Bulk Modulus (GPa) = 27.15974 41.46679 34.31327
# Shear Modulus (GPa) = 30.78477 9.29582 20.04030
#
# Velocity S-wave (km/s) = 4.06893 2.23592 3.28295
# Velocity P-wave (km/s) = 6.05653 5.38209 5.72924
#
# Compressibility (1/GPa) = 0.03681920
#
# Stress axis : x y z
#
# Youngs Moduli (GPa) = 86.76892 94.68216 29.24394
#
# Poissons Ratio (x) = 0.30264 0.10578
# Poissons Ratio (y) = 0.27735 0.08533
# Poissons Ratio (z) = 0.31384 0.27626
#
# Static dielectric constant tensor:
#      x y z
#    x 1.675490 0.000000 0.013930 
#    y 0.000000 1.649840 0.000000 
#    z 0.013930 0.000000 1.668310 
# 
# From -- ./inp_files/88064.got.cif
#   From: 2010.05.17/outbox.cif.g08.bks.cpg/sg12_45_cif.got.tgz:88064.got - 2010.06.03 13:09:07.
