data_PCOD9176551
_publ_section_title
;
Structure prediction by ZEFSAII (Michael W. Deem and Ramdas Pophale) SiO2 
 PCOD9176551
Probable space group: C 2/M
;
_chemical_formula_sum "Si O2"
_cell_formula_units_Z 56
_cell_length_a 22.745958
_cell_length_b 18.545745
_cell_length_c 22.054463
_cell_angle_alpha 90.000000
_cell_angle_beta 18.438388
_cell_angle_gamma 90.000000
_cell_volume 2942.545604
_symmetry_space_group_name_H-M "C 2/M"
_symmetry_group_IT_number 12
_symmetry_cell_setting 'monoclinic'
loop_
_space_group_symop_operation_xyz
x,y,z
-x,y,-z
-x,-y,-z
x,-y,z
1/2+x,1/2+y,z
1/2-x,1/2+y,-z
1/2-x,1/2-y,-z
1/2+x,1/2-y,z
loop_
_atom_site_type_symbol
_atom_site_label
_atom_site_fract_x
_atom_site_fract_y
_atom_site_fract_z
Si Si1 0.930133 0.417983 0.658784
Si Si2 0.363299 0.580004 0.265615
Si Si3 0.487874 0.730448 0.106209
Si Si4 0.820718 0.311127 0.384856
Si Si5 0.874744 0.415840 0.855584
Si Si6 0.462817 0.581616 0.306916
Si Si7 0.306333 0.225578 0.714513
O O1 0.886753 0.500000 0.681591
O O2 0.865087 0.408647 0.792244
O O3 0.852038 0.356146 0.691742
O O4 0.154882 0.411340 0.444245
O O5 0.433143 0.500000 0.180863
O O6 0.488292 0.645626 0.121813
O O7 0.359283 0.583103 0.342651
O O8 0.407718 0.773741 0.241154
O O9 0.338745 0.732753 0.198031
O O10 0.689753 0.756190 0.885763
O O11 0.750000 0.250000 0.500000
O O12 0.642224 0.361931 0.548232
O O13 0.977227 0.360903 0.262304
O O14 0.925294 0.500000 0.817655
O O15 0.675266 0.402013 0.081620
O O16 0.452424 0.500000 0.340402
O O17 0.500000 0.256524 0.500000
#
# Coordination Sequence:
#
# PCOD9176551 Si02
#       7
#     8   8   8   8   8   8   8
#     4  10  19  34  59  84 114 160 208 249 289 335
#     4  10  18  35  56  81 120 160 200 245 291 347
#     4  11  24  40  55  84 112 164 208 245 300 350
#     4  12  23  37  58  90 127 159 198 246 304 368
#     4  10  21  38  61  90 122 161 202 245 299 359
#     4  10  20  36  59  87 121 158 193 241 301 359
#     4  11  24  40  57  73 115 158 208 253 285 342
#
# _framework density 19.031141000000002
#
# number of rings (size 3 to 8) (size 9 to 14) (size 15 to 20)
#    0.000    1.429    4.286    1.286    0.000    4.286 
#    0.000    1.429    0.000    0.000    0.000    8.000 
#    0.000   13.714    0.000    0.000    0.000    0.000 
#
# Total GULP energy -156341.627047 kJ/mol
# GULP energy per Si atom -5583.629537 kJ/mol
# Density = 1.898782 g / cm^3
# Si number density = 19.031141 Si / 1000 Ang^3
#
#
#
# Elastic Constant Matrix: (Units=GPa)
#
#
# Indices 1 2 3 4 5 6 
#
# 1 62.2253 34.3881 44.9820 -0.0301 10.3016 0.0003
# 2 34.3881 76.8218 70.8902 0.0027 8.6553 0.0200
# 3 44.9820 70.8902 158.4590 -0.0915 22.7303 -0.0059
# 4 -0.0301 0.0027 -0.0915 22.0283 0.0132 -4.3635
# 5 10.3016 8.6553 22.7303 0.0132 34.7140 -0.0021
# 6 0.0003 0.0200 -0.0059 -4.3635 -0.0021 21.5101
#
#
#
# Elastic Compliance Matrix: (Units=1/GPa)
#
#
# Indices 1 2 3 4 5 6 
#
# 1 0.022548 -0.007235 -0.002718 0.000024 -0.003108 0.000010
# 2 -0.007235 0.024527 -0.009215 -0.000060 0.002066 -0.000037
# 3 -0.002718 -0.009215 0.011875 0.000054 -0.004671 0.000022
# 4 0.000024 -0.000060 0.000054 0.047297 -0.000045 0.009595
# 5 -0.003108 0.002066 -0.004671 -0.000045 0.032273 -0.000009
# 6 0.000010 -0.000037 0.000022 0.009595 -0.000009 0.048436
#
#
# Mechanical properties :
#
#
# Convention : Reuss Voigt Hill
#
# Bulk Modulus (GPa) = 48.51193 66.44742 57.47968
# Shear Modulus (GPa) = 21.53649 25.46686 23.50167
#
# Velocity S-wave (km/s) = 3.36764 3.66207 3.51794
# Velocity P-wave (km/s) = 6.37711 7.27130 6.83884
#
# Compressibility (1/GPa) = 0.02061349
#
# Stress axis : x y z
#
# Youngs Moduli (GPa) = 44.34887 40.77208 84.20931
#
# Poissons Ratio (x) = 0.29498 0.22892
# Poissons Ratio (y) = 0.32086 0.77600
# Poissons Ratio (z) = 0.12056 0.37572
#
# Static dielectric constant tensor:
#      x y z
#    x 1.649390 -0.000020 0.008880 
#    y -0.000020 1.662500 0.000060 
#    z 0.008880 0.000060 1.742960 
# 
# From -- ./inp_files/322652.got.cif
#   From: 2010.05.17/outbox.cif.g08.bks.cpg/sg12_162_cif.got.tgz:322652.got - 2010.06.03 13:09:07.
