data_PCOD9176416
_publ_section_title
;
Structure prediction by ZEFSAII (Michael W. Deem and Ramdas Pophale) SiO2 
 PCOD9176416
Probable space group: C 2/M
;
_chemical_formula_sum "Si O2"
_cell_formula_units_Z 56
_cell_length_a 25.664393
_cell_length_b 14.993965
_cell_length_c 11.416554
_cell_angle_alpha 90.000000
_cell_angle_beta 136.402737
_cell_angle_gamma 90.000000
_cell_volume 3029.495413
_symmetry_space_group_name_H-M "C 2/M"
_symmetry_group_IT_number 12
_symmetry_cell_setting 'monoclinic'
loop_
_space_group_symop_operation_xyz
x,y,z
-x,y,-z
-x,-y,-z
x,-y,z
1/2+x,1/2+y,z
1/2-x,1/2+y,-z
1/2-x,1/2-y,-z
1/2+x,1/2-y,z
loop_
_atom_site_type_symbol
_atom_site_label
_atom_site_fract_x
_atom_site_fract_y
_atom_site_fract_z
Si Si1 0.584644 0.897934 0.488100
Si Si2 0.934851 0.606899 0.808677
Si Si3 0.918628 0.221543 0.366658
Si Si4 0.758737 0.646477 0.541370
Si Si5 0.733858 0.595985 0.244127
Si Si6 0.688854 0.757499 0.005912
Si Si7 0.287604 0.395737 0.276334
O O1 0.553872 0.871235 0.309815
O O2 0.571330 0.817109 0.553945
O O3 0.675758 0.901628 0.626641
O O4 0.559778 0.000000 0.476430
O O5 0.938368 0.500000 0.819786
O O6 0.848576 0.629790 0.700616
O O7 0.000000 0.643594 0.000000
O O8 0.856288 0.161798 0.333020
O O9 0.000000 0.175846 0.500000
O O10 0.889042 0.243187 0.188180
O O11 0.750000 0.750000 0.500000
O O12 0.726025 0.601030 0.371325
O O13 0.717137 0.617912 0.591829
O O14 0.705305 0.500000 0.153665
O O15 0.701178 0.679742 0.120994
O O16 0.710466 0.851147 0.100320
O O17 0.750000 0.750000 0.000000
O O18 0.293133 0.500000 0.256492
#
# Coordination Sequence:
#
# PCOD9176416 Si02
#       7
#     8   8   8   8   8   8   8
#     4   9  17  33  56  83 115 149 184 232 291 348
#     4   9  18  32  53  87 122 150 182 220 284 361
#     4  11  24  41  57  80 119 156 203 243 296 350
#     4  11  19  35  60  86 123 150 191 240 288 350
#     4  10  18  34  61  87 114 147 187 236 293 350
#     4  10  20  37  56  85 111 147 199 241 283 338
#     4  11  22  38  60  87 117 153 199 247 287 338
#
# _framework density 18.484926000000002
#
# number of rings (size 3 to 8) (size 9 to 14) (size 15 to 20)
#    0.000    1.857    4.286    3.000    0.000    4.571 
#    0.000    1.429    0.000    0.000    0.000    2.000 
#    0.000    0.000    0.000    0.000    0.000    0.000 
#
# Total GULP energy -156066.353334 kJ/mol
# GULP energy per Si atom -5573.798333 kJ/mol
# Density = 1.844285 g / cm^3
# Si number density = 18.484926 Si / 1000 Ang^3
#
#
#
# Elastic Constant Matrix: (Units=GPa)
#
#
# Indices 1 2 3 4 5 6 
#
# 1 61.8923 29.0290 44.3214 0.0000 -12.4856 0.0000
# 2 29.0290 119.7881 48.3753 0.0000 -15.8074 0.0000
# 3 44.3214 48.3753 139.9795 0.0000 -6.7265 0.0000
# 4 0.0000 0.0000 0.0000 9.9479 0.0000 6.8211
# 5 -12.4856 -15.8074 -6.7265 0.0000 19.8192 0.0000
# 6 0.0000 0.0000 0.0000 6.8211 0.0000 -8.8297
#
#
#
# Elastic Compliance Matrix: (Units=1/GPa)
#
#
# Indices 1 2 3 4 5 6 
#
# 1 0.023866 -0.001668 -0.006427 0.000000 0.011524 0.000000
# 2 -0.001668 0.010784 -0.002883 0.000000 0.006572 0.000000
# 3 -0.006427 -0.002883 0.010034 0.000000 -0.002943 0.000000
# 4 0.000000 0.000000 0.000000 0.065715 0.000000 0.050766
# 5 0.011524 0.006572 -0.002943 0.000000 0.061959 0.000000
# 6 0.000000 0.000000 0.000000 0.050766 0.000000 -0.074037
#
#
# Mechanical properties :
#
#
# Convention : Reuss Voigt Hill
#
# Bulk Modulus (GPa) = 43.99632 62.79015 53.39324
# Shear Modulus (GPa) = 39.10815 17.51642 28.31229
#
# Velocity S-wave (km/s) = 4.60464 3.08166 3.91787
# Velocity P-wave (km/s) = 7.21964 6.83405 7.02949
#
# Compressibility (1/GPa) = 0.02272917
#
# Stress axis : x y z
#
# Youngs Moduli (GPa) = 41.90053 92.73292 99.66468
#
# Poissons Ratio (x) = 0.15464 0.64051
# Poissons Ratio (y) = 0.06987 0.28732
# Poissons Ratio (z) = 0.26928 0.26734
#
# Static dielectric constant tensor:
#      x y z
#    x 1.683360 0.000000 -0.005650 
#    y 0.000000 1.630670 0.000000 
#    z -0.005650 0.000000 1.669120 
# 
# From -- ./inp_files/189234.got.cif
#   From: 2010.05.17/outbox.cif.g08.bks.cpg/sg12_95_cif.got.tgz:189234.got - 2010.06.03 13:09:07.
