data_PCOD9176378
_publ_section_title
;
Structure prediction by ZEFSAII (Michael W. Deem and Ramdas Pophale) SiO2 
 PCOD9176378
Probable space group: C 2/M
;
_chemical_formula_sum "Si O2"
_cell_formula_units_Z 60
_cell_length_a 19.877797
_cell_length_b 9.874510
_cell_length_c 14.272011
_cell_angle_alpha 90.000000
_cell_angle_beta 81.442680
_cell_angle_gamma 90.000000
_cell_volume 2770.174192
_symmetry_space_group_name_H-M "C 2/M"
_symmetry_group_IT_number 12
_symmetry_cell_setting 'monoclinic'
loop_
_space_group_symop_operation_xyz
x,y,z
-x,y,-z
-x,-y,-z
x,-y,z
1/2+x,1/2+y,z
1/2-x,1/2+y,-z
1/2-x,1/2-y,-z
1/2+x,1/2-y,z
loop_
_atom_site_type_symbol
_atom_site_label
_atom_site_fract_x
_atom_site_fract_y
_atom_site_fract_z
Si Si1 0.844140 0.759567 0.934971
Si Si2 0.269289 0.336196 0.772805
Si Si3 0.603914 0.843740 0.589514
Si Si4 0.259077 0.000000 0.995719
Si Si5 0.518715 0.650693 0.361985
Si Si6 0.665220 0.655467 0.432529
Si Si7 0.508558 0.343282 0.139043
Si Si8 0.117130 0.343184 0.811876
O O1 0.822775 0.764843 0.828750
O O2 0.817841 0.618376 0.978214
O O3 0.924184 0.786438 0.923861
O O4 0.800342 0.881671 0.986729
O O5 0.275229 0.500000 0.786485
O O6 0.282095 0.310508 0.661026
O O7 0.193575 0.298245 0.819274
O O8 0.532637 0.764976 0.592566
O O9 0.658879 0.760099 0.518330
O O10 0.616315 0.840206 0.698222
O O11 0.601319 0.000000 0.560120
O O12 0.490168 0.500000 0.389574
O O13 0.592472 0.659214 0.393330
O O14 0.522959 0.660045 0.248663
O O15 0.677182 0.500000 0.460774
O O16 0.497316 0.500000 0.116376
O O17 0.441822 0.252860 0.139101
O O18 0.107259 0.500000 0.840860
#
# Coordination Sequence:
#
# PCOD9176378 Si02
#       8
#     8   8   8   4   8   8   8   8
#     4  11  20  41  64  95 117 147 179 232 277 347
#     4  10  19  38  62  82 113 152 197 235 277 338
#     4  10  20  33  45  72 115 148 191 239 287 324
#     4  10  24  36  66  98 122 140 174 226 298 334
#     4   9  17  30  50  76 102 145 192 237 276 329
#     4  10  19  31  52  77 102 149 196 240 280 327
#     4  10  18  34  60  85 115 148 192 235 278 329
#     4   9  21  37  56  80 112 162 199 231 279 335
#
# _framework density 21.659286999999999
#
# number of rings (size 3 to 8) (size 9 to 14) (size 15 to 20)
#    0.000    2.133    2.667    0.800    0.933    3.200 
#    2.400    0.000    0.000    4.800    0.000    0.000 
#    0.000    0.000    0.000    0.000    0.000    0.000 
#
# Total GULP energy -167230.338149 kJ/mol
# GULP energy per Si atom -5574.344605 kJ/mol
# Density = 2.160999 g / cm^3
# Si number density = 21.659287 Si / 1000 Ang^3
#
#
#
# Elastic Constant Matrix: (Units=GPa)
#
#
# Indices 1 2 3 4 5 6 
#
# 1 89.1673 53.7098 50.3267 0.0000 -38.7919 0.0000
# 2 53.7098 173.4813 67.3929 0.0000 -35.4748 0.0000
# 3 50.3267 67.3929 94.7667 0.0000 -14.2886 0.0000
# 4 0.0000 0.0000 0.0000 20.8341 0.0000 -18.3463
# 5 -38.7919 -35.4748 -14.2886 0.0000 42.0816 0.0000
# 6 0.0000 0.0000 0.0000 -18.3463 0.0000 15.7480
#
#
#
# Elastic Compliance Matrix: (Units=1/GPa)
#
#
# Indices 1 2 3 4 5 6 
#
# 1 0.026300 0.000447 -0.011143 0.000000 0.020838 0.000000
# 2 0.000447 0.009139 -0.005811 0.000000 0.006144 0.000000
# 3 -0.011143 -0.005811 0.019303 0.000000 -0.008616 0.000000
# 4 0.000000 0.000000 0.000000 -1.854856 0.000000 -2.160891
# 5 0.020838 0.006144 -0.008616 0.000000 0.045226 0.000000
# 6 0.000000 0.000000 0.000000 -2.160891 0.000000 -2.453919
#
#
# Mechanical properties :
#
#
# Convention : Reuss Voigt Hill
#
# Bulk Modulus (GPa) = 46.02040 77.80824 61.91432
# Shear Modulus (GPa) = -1.19946 28.13180 13.46617
#
# Velocity S-wave (km/s) = -0.74497 3.60784 2.49615
# Velocity P-wave (km/s) = 4.53360 7.30459 6.07909
#
# Compressibility (1/GPa) = 0.02172949
#
# Stress axis : x y z
#
# Youngs Moduli (GPa) = 38.02279 109.41542 51.80534
#
# Poissons Ratio (x) = -0.04895 0.57728
# Poissons Ratio (y) = -0.01701 0.30103
# Poissons Ratio (z) = 0.42369 0.63578
#
# Static dielectric constant tensor:
#      x y z
#    x 1.793450 0.000000 0.034400 
#    y 0.000000 1.725070 0.000000 
#    z 0.034400 0.000000 1.874830 
# 
# From -- ./inp_files/281164.got.cif
#   From: 2010.05.17/outbox.cif.g08.bks.cpg/sg12_141_cif.got.tgz:281164.got - 2010.06.03 13:09:07.
