data_PCOD9176697
_publ_section_title
;
Structure prediction by ZEFSAII (Michael W. Deem and Ramdas Pophale) SiO2 
 PCOD9176697
Probable space group: C 2/M
;
_chemical_formula_sum "Si O2"
_cell_formula_units_Z 64
_cell_length_a 25.524285
_cell_length_b 7.972516
_cell_length_c 19.407155
_cell_angle_alpha 90.000000
_cell_angle_beta 129.558243
_cell_angle_gamma 90.000000
_cell_volume 3044.756837
_symmetry_space_group_name_H-M "C 2/M"
_symmetry_group_IT_number 12
_symmetry_cell_setting 'monoclinic'
loop_
_space_group_symop_operation_xyz
x,y,z
-x,y,-z
-x,-y,-z
x,-y,z
1/2+x,1/2+y,z
1/2-x,1/2+y,-z
1/2-x,1/2-y,-z
1/2+x,1/2-y,z
loop_
_atom_site_type_symbol
_atom_site_label
_atom_site_fract_x
_atom_site_fract_y
_atom_site_fract_z
Si Si1 0.475781 0.703542 0.266332
Si Si2 0.333142 0.308063 0.791656
Si Si3 0.287754 0.201369 0.962746
Si Si4 0.841322 0.204121 0.220780
Si Si5 0.822025 0.798370 0.355945
Si Si6 0.456932 0.295124 0.531930
Si Si7 0.542932 0.198316 0.179052
Si Si8 0.914051 0.699970 0.994587
O O1 0.477207 0.500000 0.263074
O O2 0.397733 0.759840 0.213637
O O3 0.512562 0.754375 0.368673
O O4 0.509658 0.772762 0.225789
O O5 0.327780 0.500000 0.806832
O O6 0.257172 0.249053 0.709767
O O7 0.384718 0.284532 0.771245
O O8 0.373936 0.223593 0.889516
O O9 0.234677 0.258156 0.860310
O O10 0.292145 0.000000 0.964015
O O11 0.250000 0.250000 0.000000
O O12 0.362095 0.268323 0.009054
O O13 0.853812 0.256029 0.309158
O O14 0.842685 0.000000 0.220289
O O15 0.878093 0.741587 0.458013
O O16 0.822645 0.000000 0.357485
O O17 0.500000 0.242351 0.500000
O O18 0.459633 0.500000 0.533521
O O19 0.489012 0.264161 0.076016
O O20 0.553876 0.000000 0.178175
O O21 0.921286 0.500000 0.008595
#
# Coordination Sequence:
#
# PCOD9176697 Si02
#       8
#     8   8   8   8   8   8   8   8
#     4  10  19  34  58  91 123 151 191 241 286 338
#     4  12  25  40  60  86 115 150 197 250 295 339
#     4  10  19  31  48  76 113 152 187 223 273 332
#     4   9  16  29  54  81 113 151 184 223 277 337
#     4  10  18  35  61  87 117 152 192 233 282 345
#     4   9  16  30  60  95 120 151 194 234 281 347
#     4  11  24  41  60  83 114 157 199 238 292 352
#     4  10  21  39  61  83 112 151 197 240 285 349
#
# _framework density 21.019741
#
# number of rings (size 3 to 8) (size 9 to 14) (size 15 to 20)
#    0.000    1.875    2.500    2.625    0.000    3.000 
#    0.000    1.875    0.000    0.750    0.000    0.000 
#    0.000    0.000    0.000    0.000    0.000    0.000 
#
# Total GULP energy -178495.653591 kJ/mol
# GULP energy per Si atom -5577.989175 kJ/mol
# Density = 2.097190 g / cm^3
# Si number density = 21.019741 Si / 1000 Ang^3
#
#
#
# Elastic Constant Matrix: (Units=GPa)
#
#
# Indices 1 2 3 4 5 6 
#
# 1 113.9401 -2.3768 32.8113 0.0000 24.4813 0.0000
# 2 -2.3768 18.0822 3.8651 0.0000 4.5945 0.0000
# 3 32.8113 3.8651 89.9364 0.0000 20.4313 0.0000
# 4 0.0000 0.0000 0.0000 4.7739 0.0000 -7.9214
# 5 24.4813 4.5945 20.4313 0.0000 32.6473 0.0000
# 6 0.0000 0.0000 0.0000 -7.9214 0.0000 15.4989
#
#
#
# Elastic Compliance Matrix: (Units=1/GPa)
#
#
# Indices 1 2 3 4 5 6 
#
# 1 0.011171 0.003877 -0.002582 0.000000 -0.007306 0.000000
# 2 0.003877 0.058741 -0.001632 -0.000002 -0.010152 -0.000001
# 3 -0.002582 -0.001632 0.013568 0.000000 -0.006325 0.000000
# 4 0.000000 -0.000002 0.000000 1.378588 0.000000 0.704583
# 5 -0.007306 -0.010152 -0.006325 0.000000 0.041496 0.000000
# 6 0.000000 -0.000001 0.000000 0.704583 0.000000 0.424626
#
#
# Mechanical properties :
#
#
# Convention : Reuss Voigt Hill
#
# Bulk Modulus (GPa) = 12.07668 32.28422 22.18045
# Shear Modulus (GPa) = 2.55563 23.09462 12.82513
#
# Velocity S-wave (km/s) = 1.10384 3.31828 2.47279
# Velocity P-wave (km/s) = 2.71707 5.48394 4.32759
#
# Compressibility (1/GPa) = 0.08280418
#
# Stress axis : x y z
#
# Youngs Moduli (GPa) = 89.51871 17.02384 73.70231
#
# Poissons Ratio (x) = -0.06600 0.19032
# Poissons Ratio (y) = -0.34704 0.12032
# Poissons Ratio (z) = 0.23116 0.02779
#
# Static dielectric constant tensor:
#      x y z
#    x 1.844980 0.000000 0.067170 
#    y 0.000000 1.752850 0.000000 
#    z 0.067170 0.000000 1.876900 
# 
# From -- ./inp_files/324236.got.cif
#   From: 2010.05.17/outbox.cif.g08.bks.cpg/sg12_163_cif.got.tgz:324236.got - 2010.06.03 13:09:07.
