data_PCOD9176712
_publ_section_title
;
Structure prediction by ZEFSAII (Michael W. Deem and Ramdas Pophale) SiO2 
 PCOD9176712
Probable space group: C 2/M
;
_chemical_formula_sum "Si O2"
_cell_formula_units_Z 48
_cell_length_a 19.640233
_cell_length_b 16.623627
_cell_length_c 17.620724
_cell_angle_alpha 90.000000
_cell_angle_beta 158.035355
_cell_angle_gamma 90.000000
_cell_volume 2151.828762
_symmetry_space_group_name_H-M "C 2/M"
_symmetry_group_IT_number 12
_symmetry_cell_setting 'monoclinic'
loop_
_space_group_symop_operation_xyz
x,y,z
-x,y,-z
-x,-y,-z
x,-y,z
1/2+x,1/2+y,z
1/2-x,1/2+y,-z
1/2-x,1/2-y,-z
1/2+x,1/2-y,z
loop_
_atom_site_type_symbol
_atom_site_label
_atom_site_fract_x
_atom_site_fract_y
_atom_site_fract_z
Si Si1 0.543027 0.913667 0.831741
Si Si2 0.793451 0.881167 0.784149
Si Si3 0.703598 0.189274 0.218185
Si Si4 0.951956 0.621552 0.331502
Si Si5 0.844016 0.189988 0.206688
Si Si6 0.303024 0.325204 0.498682
O O1 0.588858 0.915071 0.791062
O O2 0.328564 0.896770 0.613651
O O3 0.590930 0.000000 0.916993
O O4 0.644894 0.836284 0.972202
O O5 0.806594 0.784723 0.807134
O O6 0.677420 0.909359 0.735895
O O7 0.660752 0.892265 0.574529
O O8 0.000000 0.911095 0.000000
O O9 0.832110 0.159694 0.281969
O O10 0.762481 0.184846 0.366373
O O11 0.500000 0.154310 0.000000
O O12 0.905471 0.716875 0.274043
O O13 0.983055 0.156017 0.286900
O O14 0.250000 0.250000 0.500000
#
# Coordination Sequence:
#
# PCOD9176712 Si02
#       6
#     8   8   8   8   8   8
#     4  12  27  43  60  93 138 176 218 276 330 384
#     4   9  18  33  62 100 128 153 207 273 332 392
#     4  10  18  35  61  95 127 161 208 276 327 373
#     4  10  20  37  63  96 126 165 211 270 328 392
#     4  11  22  39  68  93 125 168 225 263 323 393
#     4  12  23  39  68  99 126 169 223 274 325 392
#
# _framework density 22.306608000000001
#
# number of rings (size 3 to 8) (size 9 to 14) (size 15 to 20)
#    0.000    1.333    5.000    1.000    0.000    2.000 
#    0.000    3.333    0.000    3.000    0.000    0.000 
#    0.000    0.000    0.000    0.000    0.000    0.000 
#
# Total GULP energy -133683.105611 kJ/mol
# GULP energy per Si atom -5570.129400 kJ/mol
# Density = 2.225584 g / cm^3
# Si number density = 22.306608 Si / 1000 Ang^3
#
#
#
# Elastic Constant Matrix: (Units=GPa)
#
#
# Indices 1 2 3 4 5 6 
#
# 1 116.6880 3.0296 23.1928 -0.0060 -5.1485 0.0008
# 2 3.0296 57.3277 23.5112 -0.0286 -0.9046 -0.0185
# 3 23.1928 23.5112 92.9621 -0.0387 9.1298 -0.0286
# 4 -0.0060 -0.0286 -0.0387 -23.0601 -0.0225 -14.5926
# 5 -5.1485 -0.9046 9.1298 -0.0225 39.3292 -0.0127
# 6 0.0008 -0.0185 -0.0286 -14.5926 -0.0127 -16.9816
#
#
#
# Elastic Compliance Matrix: (Units=1/GPa)
#
#
# Indices 1 2 3 4 5 6 
#
# 1 0.009155 0.000619 -0.002619 -0.000005 0.001821 0.000007
# 2 0.000619 0.019606 -0.005286 -0.000019 0.001759 0.000002
# 3 -0.002619 -0.005286 0.013092 -0.000006 -0.003504 -0.000009
# 4 -0.000005 -0.000019 -0.000006 -0.095054 -0.000028 0.081682
# 5 0.001821 0.001759 -0.003504 -0.000028 0.026519 0.000008
# 6 0.000007 0.000002 -0.000009 0.081682 0.000008 -0.129078
#
#
# Mechanical properties :
#
#
# Convention : Reuss Voigt Hill
#
# Bulk Modulus (GPa) = 36.65630 40.71611 38.68621
# Shear Modulus (GPa) = -37.85152 14.34044 -11.75554
#
# Velocity S-wave (km/s) = -4.12378 2.53826 -2.29813
# Velocity P-wave (km/s) = 2.49108 5.18487 3.21538
#
# Compressibility (1/GPa) = 0.02728044
#
# Stress axis : x y z
#
# Youngs Moduli (GPa) = 109.23291 51.00351 76.38516
#
# Poissons Ratio (x) = -0.03158 0.20008
# Poissons Ratio (y) = -0.06764 0.40377
# Poissons Ratio (z) = 0.28613 0.26960
#
# Static dielectric constant tensor:
#      x y z
#    x 1.858010 0.000000 0.032440 
#    y 0.000000 1.836100 0.000000 
#    z 0.032440 0.000000 1.892510 
# 
# From -- ./inp_files/285939.got.cif
#   From: 2010.05.17/outbox.cif.g08.bks.cpg/sg12_143_cif.got.tgz:285939.got - 2010.06.03 13:09:07.
