data_PCOD9176508
_publ_section_title
;
Structure prediction by ZEFSAII (Michael W. Deem and Ramdas Pophale) SiO2 
 PCOD9176508
Probable space group: C 2/M
;
_chemical_formula_sum "Si O2"
_cell_formula_units_Z 64
_cell_length_a 25.240323
_cell_length_b 18.370015
_cell_length_c 21.306248
_cell_angle_alpha 90.000000
_cell_angle_beta 161.288521
_cell_angle_gamma 90.000000
_cell_volume 3169.198818
_symmetry_space_group_name_H-M "C 2/M"
_symmetry_group_IT_number 12
_symmetry_cell_setting 'monoclinic'
loop_
_space_group_symop_operation_xyz
x,y,z
-x,y,-z
-x,-y,-z
x,-y,z
1/2+x,1/2+y,z
1/2-x,1/2+y,-z
1/2-x,1/2-y,-z
1/2+x,1/2-y,z
loop_
_atom_site_type_symbol
_atom_site_label
_atom_site_fract_x
_atom_site_fract_y
_atom_site_fract_z
Si Si1 0.756428 0.415513 0.978834
Si Si2 0.814969 0.917561 0.763638
Si Si3 0.157132 0.730467 0.629686
Si Si4 0.336603 0.266274 0.945892
Si Si5 0.314970 0.578922 0.964347
Si Si6 0.958078 0.310481 0.732584
Si Si7 0.036832 0.786524 0.698458
Si Si8 0.691892 0.580399 0.395565
O O1 0.737075 0.500000 0.941635
O O2 0.793901 0.410704 0.095783
O O3 0.596308 0.366988 0.783303
O O4 0.909038 0.376154 0.116821
O O5 0.702587 0.850803 0.659303
O O6 0.814376 0.913233 0.687144
O O7 0.759121 0.000000 0.717021
O O8 0.000000 0.909378 0.000000
O O9 0.299897 0.761472 0.835211
O O10 0.000000 0.728334 0.500000
O O11 0.110092 0.777368 0.516175
O O12 0.196882 0.244366 0.840189
O O13 0.314324 0.353149 0.918251
O O14 0.506462 0.238834 0.166694
O O15 0.281879 0.500000 0.898278
O O16 0.500849 0.578098 0.199741
O O17 0.999552 0.260875 0.718380
O O18 0.786216 0.351928 0.531646
O O19 0.765262 0.500000 0.492475
#
# Coordination Sequence:
#
# PCOD9176508 Si02
#       8
#     8   8   8   8   8   8   8   8
#     4  10  19  33  56  77 100 134 169 206 258 306
#     4  10  20  35  50  69 104 146 173 197 245 303
#     4  10  21  34  52  73 101 135 170 212 250 293
#     4  10  19  33  52  76 101 133 166 211 259 293
#     4  10  19  32  49  75 105 134 168 204 247 300
#     4  11  18  34  54  75 103 131 168 212 255 300
#     4  10  18  35  53  76 104 130 167 217 250 294
#     4  10  21  33  49  74 105 137 170 209 249 295
#
# _framework density 20.194378
#
# number of rings (size 3 to 8) (size 9 to 14) (size 15 to 20)
#    0.000    1.875    3.750    1.875    0.000    2.250 
#    0.000    1.875    0.000   10.125    0.000    0.000 
#    0.000    3.500    0.000    0.000    0.000    0.000 
#
# Total GULP energy -178590.007825 kJ/mol
# GULP energy per Si atom -5580.937745 kJ/mol
# Density = 2.014841 g / cm^3
# Si number density = 20.194378 Si / 1000 Ang^3
#
#
#
# Elastic Constant Matrix: (Units=GPa)
#
#
# Indices 1 2 3 4 5 6 
#
# 1 32.7882 9.3707 4.9007 0.0012 -15.0702 0.0054
# 2 9.3707 93.7112 15.0153 0.0038 -11.6804 0.0087
# 3 4.9007 15.0153 56.7984 0.0010 -28.5531 0.0059
# 4 0.0012 0.0038 0.0010 30.5252 0.0005 5.1071
# 5 -15.0702 -11.6804 -28.5531 0.0005 27.1186 0.0012
# 6 0.0054 0.0087 0.0059 5.1071 0.0012 1.1201
#
#
#
# Elastic Compliance Matrix: (Units=1/GPa)
#
#
# Indices 1 2 3 4 5 6 
#
# 1 0.050674 -0.002289 0.021020 0.000260 0.049306 -0.001573
# 2 -0.002289 0.011415 -0.002099 0.000043 0.001434 -0.000263
# 3 0.021020 -0.002099 0.046241 0.000262 0.059464 -0.001584
# 4 0.000260 0.000043 0.000262 0.138112 0.000463 -0.629697
# 5 0.049306 0.001434 0.059464 0.000463 0.127502 -0.002806
# 6 -0.001573 -0.000263 -0.001584 -0.629697 -0.002806 3.763736
#
#
# Mechanical properties :
#
#
# Convention : Reuss Voigt Hill
#
# Bulk Modulus (GPa) = 7.06257 26.87456 16.96857
# Shear Modulus (GPa) = 1.20435 22.02018 11.61227
#
# Velocity S-wave (km/s) = 0.77309 3.30572 2.40057
# Velocity P-wave (km/s) = 2.07407 5.28273 4.01304
#
# Compressibility (1/GPa) = 0.14159151
#
# Stress axis : x y z
#
# Youngs Moduli (GPa) = 19.73414 87.60287 21.62605
#
# Poissons Ratio (x) = 0.20056 -0.45457
# Poissons Ratio (y) = 0.04518 0.04540
# Poissons Ratio (z) = -0.41480 0.18389
#
# Static dielectric constant tensor:
#      x y z
#    x 1.725160 0.000000 0.018540 
#    y 0.000000 1.739660 0.000000 
#    z 0.018540 0.000000 1.803430 
# 
# From -- ./inp_files/87969.got.cif
#   From: 2010.05.17/outbox.cif.g08.bks.cpg/sg12_44_cif.got.tgz:87969.got - 2010.06.03 13:09:07.
