data_PCOD9176721
_publ_section_title
;
Structure prediction by ZEFSAII (Michael W. Deem and Ramdas Pophale) SiO2 
 PCOD9176721
Probable space group: C 2/M
;
_chemical_formula_sum "Si O2"
_cell_formula_units_Z 56
_cell_length_a 24.044420
_cell_length_b 7.760354
_cell_length_c 16.587192
_cell_angle_alpha 90.000000
_cell_angle_beta 127.287207
_cell_angle_gamma 90.000000
_cell_volume 2462.454811
_symmetry_space_group_name_H-M "C 2/M"
_symmetry_group_IT_number 12
_symmetry_cell_setting 'monoclinic'
loop_
_space_group_symop_operation_xyz
x,y,z
-x,y,-z
-x,-y,-z
x,-y,z
1/2+x,1/2+y,z
1/2-x,1/2+y,-z
1/2-x,1/2-y,-z
1/2+x,1/2-y,z
loop_
_atom_site_type_symbol
_atom_site_label
_atom_site_fract_x
_atom_site_fract_y
_atom_site_fract_z
Si Si1 0.857487 0.795712 0.240242
Si Si2 0.421606 0.293334 0.458988
Si Si3 0.190179 0.705715 0.246480
Si Si4 0.197966 0.308466 0.527768
Si Si5 0.033730 0.289281 0.114881
Si Si6 0.579656 0.791500 0.858276
Si Si7 0.789605 0.706019 0.925926
O O1 0.873880 0.727082 0.342654
O O2 0.919989 0.768452 0.233055
O O3 0.788454 0.720981 0.136570
O O4 0.845140 0.000000 0.238970
O O5 0.500000 0.232215 0.500000
O O6 0.425770 0.500000 0.457827
O O7 0.376745 0.261920 0.501966
O O8 0.197520 0.500000 0.268256
O O9 0.249969 0.794295 0.350233
O O10 0.112587 0.766202 0.199474
O O11 0.194345 0.728522 0.154232
O O12 0.179242 0.500000 0.487409
O O13 0.250000 0.250000 0.500000
O O14 0.035207 0.500000 0.112646
O O15 0.984985 0.234979 0.145017
O O16 0.000000 0.233985 0.000000
O O17 0.580453 0.000000 0.859764
O O18 0.648879 0.723157 0.965034
O O19 0.788361 0.500000 0.940762
#
# Coordination Sequence:
#
# PCOD9176721 Si02
#       7
#     8   8   8   8   8   8   8
#     4  10  20  35  54  80 115 155 192 232 291 357
#     4  10  22  43  70  95 122 161 204 254 319 384
#     4  10  18  35  62  87 114 152 199 246 297 360
#     4  12  26  44  67  94 124 159 206 263 319 379
#     4   9  16  29  54  84 114 153 199 244 292 348
#     4  10  19  31  51  84 117 151 197 243 285 342
#     4   9  16  30  55  80 109 149 193 235 280 343
#
# _framework density 22.741534999999999
#
# number of rings (size 3 to 8) (size 9 to 14) (size 15 to 20)
#    0.000    2.000    2.857    1.714    0.000    2.000 
#    0.000    4.286    0.000    0.857    0.000    0.000 
#    0.000    0.000    0.000    0.000    0.000    0.000 
#
# Total GULP energy -156074.954130 kJ/mol
# GULP energy per Si atom -5574.105505 kJ/mol
# Density = 2.268977 g / cm^3
# Si number density = 22.741535 Si / 1000 Ang^3
#
#
#
# Elastic Constant Matrix: (Units=GPa)
#
#
# Indices 1 2 3 4 5 6 
#
# 1 186.7520 12.1912 37.0108 0.0000 10.5817 0.0000
# 2 12.1912 29.8965 -0.1226 0.0000 -0.0097 0.0000
# 3 37.0108 -0.1226 24.7717 0.0000 4.3507 0.0000
# 4 0.0000 0.0000 0.0000 -7.8875 0.0000 -8.4338
# 5 10.5817 -0.0097 4.3507 0.0000 33.0945 0.0000
# 6 0.0000 0.0000 0.0000 -8.4338 0.0000 26.7745
#
#
#
# Elastic Compliance Matrix: (Units=1/GPa)
#
#
# Indices 1 2 3 4 5 6 
#
# 1 0.007948 -0.003289 -0.011715 0.000000 -0.001002 0.000000
# 2 -0.003289 0.034811 0.005016 0.000000 0.000402 0.000000
# 3 -0.011715 0.005016 0.058591 0.000000 -0.003955 0.000000
# 4 0.000000 0.000000 0.000000 -0.094840 0.000000 -0.029874
# 5 -0.001002 0.000402 -0.003955 0.000000 0.031057 0.000000
# 6 0.000000 0.000000 0.000000 -0.029874 0.000000 0.027939
#
#
# Mechanical properties :
#
#
# Convention : Reuss Voigt Hill
#
# Bulk Modulus (GPa) = 12.28903 37.73100 25.01002
# Shear Modulus (GPa) = 44.40218 23.21903 33.81061
#
# Velocity S-wave (km/s) = 4.42347 3.19877 3.86000
# Velocity P-wave (km/s) = 5.61293 5.50183 5.55766
#
# Compressibility (1/GPa) = 0.08137337
#
# Stress axis : x y z
#
# Youngs Moduli (GPa) = 125.81909 28.72677 17.06738
#
# Poissons Ratio (x) = 0.09449 0.19995
# Poissons Ratio (y) = 0.41386 -0.08561
# Poissons Ratio (z) = 1.47398 -0.14410
#
# Static dielectric constant tensor:
#      x y z
#    x 1.971190 0.000000 0.030020 
#    y 0.000000 1.845900 0.000000 
#    z 0.030020 0.000000 1.827140 
# 
# From -- ./inp_files/288428.got.cif
#   From: 2010.05.17/outbox.cif.g08.bks.cpg/sg12_145_cif.got.tgz:288428.got - 2010.06.03 13:09:07.
