data_PCOD9176262
_publ_section_title
;
Structure prediction by ZEFSAII (Michael W. Deem and Ramdas Pophale) SiO2 
 PCOD9176262
Probable space group: C 2/M
;
_chemical_formula_sum "Si O2"
_cell_formula_units_Z 48
_cell_length_a 8.728456
_cell_length_b 16.939379
_cell_length_c 19.214168
_cell_angle_alpha 90.000000
_cell_angle_beta 65.045247
_cell_angle_gamma 90.000000
_cell_volume 2575.680382
_symmetry_space_group_name_H-M "C 2/M"
_symmetry_group_IT_number 12
_symmetry_cell_setting 'monoclinic'
loop_
_space_group_symop_operation_xyz
x,y,z
-x,y,-z
-x,-y,-z
x,-y,z
1/2+x,1/2+y,z
1/2-x,1/2+y,-z
1/2-x,1/2-y,-z
1/2+x,1/2-y,z
loop_
_atom_site_type_symbol
_atom_site_label
_atom_site_fract_x
_atom_site_fract_y
_atom_site_fract_z
Si Si1 0.074159 0.500000 0.769904
Si Si2 0.353248 0.500000 0.467121
Si Si3 0.792529 0.235422 0.210982
Si Si4 0.039636 0.658708 0.704204
Si Si5 0.902660 0.134073 0.836815
Si Si6 0.654403 0.000000 0.918104
Si Si7 0.797138 0.167442 0.527620
Si Si8 0.540566 0.500000 0.287236
O O1 0.999350 0.575521 0.747124
O O2 0.079625 0.500000 0.852993
O O3 0.273479 0.500000 0.714651
O O4 0.500000 0.500000 0.500000
O O5 0.262769 0.584429 0.494613
O O6 0.418825 0.500000 0.375679
O O7 0.638131 0.196186 0.282617
O O8 0.711437 0.293560 0.169534
O O9 0.889198 0.289751 0.246549
O O10 0.930462 0.170990 0.160015
O O11 0.182570 0.659053 0.618387
O O12 0.965356 0.078015 0.760400
O O13 0.777295 0.075766 0.901817
O O14 0.500000 0.000000 0.000000
O O15 0.750000 0.250000 0.500000
O O16 0.000000 0.170390 0.500000
#
# Coordination Sequence:
#
# PCOD9176262 Si02
#       8
#     4   4   8   8   8   4   8   4
#     4  10  18  34  58  83 103 149 189 227 270 338
#     4  10  22  34  50  73 105 146 191 235 289 354
#     4  10  20  33  60  85 109 139 191 243 274 327
#     4  11  20  35  57  80 111 145 198 237 285 339
#     4   9  20  36  60  84 109 146 186 226 282 334
#     4  10  20  39  62  87 120 152 179 216 285 356
#     4  11  23  36  54  78 112 153 194 245 306 346
#     4  10  18  35  53  75 106 147 190 228 280 347
#
# _framework density 18.635853000000001
#
# number of rings (size 3 to 8) (size 9 to 14) (size 15 to 20)
#    0.000    2.000    3.333    3.500    4.667    1.333 
#    0.000    1.250    0.000    1.000    0.000    0.000 
#    0.000    0.000    0.000    0.000    0.000    0.000 
#
# Total GULP energy -133659.681306 kJ/mol
# GULP energy per Si atom -5569.153388 kJ/mol
# Density = 1.859344 g / cm^3
# Si number density = 18.635853 Si / 1000 Ang^3
#
#
#
# Elastic Constant Matrix: (Units=GPa)
#
#
# Indices 1 2 3 4 5 6 
#
# 1 45.1789 38.7654 16.7284 0.0000 -19.6231 0.0000
# 2 38.7654 140.9189 41.2847 0.0000 -14.6382 0.0000
# 3 16.7284 41.2847 104.5573 0.0000 -28.6297 0.0000
# 4 0.0000 0.0000 0.0000 11.2712 0.0000 -9.9417
# 5 -19.6231 -14.6382 -28.6297 0.0000 20.6276 0.0000
# 6 0.0000 0.0000 0.0000 -9.9417 0.0000 23.7802
#
#
#
# Elastic Compliance Matrix: (Units=1/GPa)
#
#
# Indices 1 2 3 4 5 6 
#
# 1 0.054453 -0.012426 0.012846 0.000000 0.060813 0.000000
# 2 -0.012426 0.010916 -0.005545 0.000000 -0.011771 0.000000
# 3 0.012846 -0.005545 0.019303 0.000000 0.035077 0.000000
# 4 0.000000 0.000000 0.000000 0.140549 0.000000 0.058759
# 5 0.060813 -0.011771 0.035077 0.000000 0.146661 0.000000
# 6 0.000000 0.000000 0.000000 0.058759 0.000000 0.066617
#
#
# Mechanical properties :
#
#
# Convention : Reuss Voigt Hill
#
# Bulk Modulus (GPa) = 13.43684 53.80135 33.61910
# Shear Modulus (GPa) = 10.55837 24.06091 17.30964
#
# Velocity S-wave (km/s) = 2.38284 3.59710 3.05099
# Velocity P-wave (km/s) = 3.84661 6.79593 5.52182
#
# Compressibility (1/GPa) = 0.07442225
#
# Stress axis : x y z
#
# Youngs Moduli (GPa) = 18.36436 91.60483 51.80519
#
# Poissons Ratio (x) = 1.13828 -0.66549
# Poissons Ratio (y) = 0.22820 0.28728
# Poissons Ratio (z) = -0.23591 0.50798
#
# Static dielectric constant tensor:
#      x y z
#    x 1.644720 0.000000 -0.019200 
#    y 0.000000 1.736560 0.000000 
#    z -0.019200 0.000000 1.628000 
# 
# From -- ./inp_files/333155.got.cif
#   From: 2010.05.17/outbox.cif.g08.bks.cpg/sg12_167_cif.got.tgz:333155.got - 2010.06.03 13:09:07.
