data_PCOD9176349
_publ_section_title
;
Structure prediction by ZEFSAII (Michael W. Deem and Ramdas Pophale) SiO2 
 PCOD9176349
Probable space group: C 2/M
;
_chemical_formula_sum "Si O2"
_cell_formula_units_Z 64
_cell_length_a 20.440539
_cell_length_b 19.332417
_cell_length_c 16.556009
_cell_angle_alpha 90.000000
_cell_angle_beta 152.875303
_cell_angle_gamma 90.000000
_cell_volume 2982.846976
_symmetry_space_group_name_H-M "C 2/M"
_symmetry_group_IT_number 12
_symmetry_cell_setting 'monoclinic'
loop_
_space_group_symop_operation_xyz
x,y,z
-x,y,-z
-x,-y,-z
x,-y,z
1/2+x,1/2+y,z
1/2-x,1/2+y,-z
1/2-x,1/2-y,-z
1/2+x,1/2-y,z
loop_
_atom_site_type_symbol
_atom_site_label
_atom_site_fract_x
_atom_site_fract_y
_atom_site_fract_z
Si Si1 0.859852 0.418551 0.789521
Si Si2 0.913583 0.170603 0.514959
Si Si3 0.406837 0.424464 0.076088
Si Si4 0.631494 0.179485 0.504403
Si Si5 0.317735 0.580668 0.165031
Si Si6 0.512624 0.853111 0.810383
Si Si7 0.902845 0.200673 0.693334
Si Si8 0.672386 0.577896 0.180113
O O1 0.821624 0.500000 0.749995
O O2 0.727422 0.369849 0.669744
O O3 0.902267 0.395875 0.744976
O O4 0.000000 0.408207 0.000000
O O5 0.921089 0.252543 0.504987
O O6 0.901015 0.175970 0.598738
O O7 0.055244 0.125254 0.654998
O O8 0.478594 0.500000 0.149580
O O9 0.295723 0.421014 0.880823
O O10 0.346813 0.419261 0.100232
O O11 0.513892 0.362777 0.176374
O O12 0.516359 0.143275 0.318175
O O13 0.749919 0.205081 0.568171
O O14 0.720736 0.129202 0.658691
O O15 0.314054 0.500000 0.187595
O O16 0.166076 0.618384 0.005864
O O17 0.490137 0.771471 0.802517
O O18 0.695777 0.500000 0.235771
O O19 0.500000 0.590998 0.000000
#
# Coordination Sequence:
#
# PCOD9176349 Si02
#       8
#     8   8   8   8   8   8   8   8
#     4  11  23  38  59  87 114 145 191 251 308 351
#     4  10  20  38  59  85 119 153 192 244 298 351
#     4   9  19  35  55  85 123 159 195 232 284 347
#     4  11  20  34  59  91 118 156 196 246 296 341
#     4  10  22  40  64  88 116 160 199 238 295 361
#     4  11  22  40  60  87 117 148 199 249 295 350
#     4  10  18  34  59  89 119 149 191 248 297 336
#     4  10  20  33  54  89 127 161 196 239 288 344
#
# _framework density 21.456011
#
# number of rings (size 3 to 8) (size 9 to 14) (size 15 to 20)
#    0.000    1.750    3.750    1.500    0.000    7.500 
#    0.000    1.250    0.000    7.500    0.000    0.000 
#    0.000    0.000    0.000    0.000    0.000    0.000 
#
# Total GULP energy -178500.831500 kJ/mol
# GULP energy per Si atom -5578.150984 kJ/mol
# Density = 2.140718 g / cm^3
# Si number density = 21.456011 Si / 1000 Ang^3
#
#
#
# Elastic Constant Matrix: (Units=GPa)
#
#
# Indices 1 2 3 4 5 6 
#
# 1 41.7872 19.7137 10.0110 0.0000 -0.2897 0.0000
# 2 19.7137 125.6822 81.8703 0.0000 -7.4741 0.0000
# 3 10.0110 81.8703 116.7114 0.0000 8.5088 0.0001
# 4 0.0000 0.0000 0.0000 42.5718 0.0000 -22.9683
# 5 -0.2897 -7.4741 8.5088 0.0000 28.9345 0.0000
# 6 0.0000 0.0000 0.0001 -22.9683 0.0000 -62.3875
#
#
#
# Elastic Compliance Matrix: (Units=1/GPa)
#
#
# Indices 1 2 3 4 5 6 
#
# 1 0.025985 -0.005127 0.001477 0.000000 -0.001498 0.000000
# 2 -0.005127 0.017175 -0.012189 0.000000 0.007969 0.000000
# 3 0.001477 -0.012189 0.017597 0.000000 -0.008309 0.000000
# 4 0.000000 0.000000 0.000000 0.019597 0.000000 -0.007215
# 5 -0.001498 0.007969 -0.008309 0.000000 0.039048 0.000000
# 6 0.000000 0.000000 0.000000 -0.007215 0.000000 -0.013373
#
#
# Mechanical properties :
#
#
# Convention : Reuss Voigt Hill
#
# Bulk Modulus (GPa) = 34.38875 56.37451 45.38163
# Shear Modulus (GPa) = 33.92122 13.32950 23.62536
#
# Velocity S-wave (km/s) = 3.98045 2.49519 3.32189
# Velocity P-wave (km/s) = 6.09817 5.88496 5.99251
#
# Compressibility (1/GPa) = 0.02907928
#
# Stress axis : x y z
#
# Youngs Moduli (GPa) = 38.48327 58.22577 56.82677
#
# Poissons Ratio (x) = 0.29852 -0.08392
# Poissons Ratio (y) = 0.19730 0.69265
# Poissons Ratio (z) = -0.05683 0.70970
#
# Static dielectric constant tensor:
#      x y z
#    x 1.844300 0.000000 -0.021890 
#    y 0.000000 1.495420 0.000000 
#    z -0.021890 0.000000 1.784380 
# 
# From -- ./inp_files/328644.got.cif
#   From: 2010.05.17/outbox.cif.g08.bks.cpg/sg12_165_cif.got.tgz:328644.got - 2010.06.03 13:09:07.
