data_PCOD9176333
_publ_section_title
;
Structure prediction by ZEFSAII (Michael W. Deem and Ramdas Pophale) SiO2 
 PCOD9176333
Probable space group: C 2/M
;
_chemical_formula_sum "Si O2"
_cell_formula_units_Z 56
_cell_length_a 16.935247
_cell_length_b 23.861436
_cell_length_c 7.427083
_cell_angle_alpha 90.000000
_cell_angle_beta 86.381097
_cell_angle_gamma 90.000000
_cell_volume 2995.294458
_symmetry_space_group_name_H-M "C 2/M"
_symmetry_group_IT_number 12
_symmetry_cell_setting 'monoclinic'
loop_
_space_group_symop_operation_xyz
x,y,z
-x,y,-z
-x,-y,-z
x,-y,z
1/2+x,1/2+y,z
1/2-x,1/2+y,-z
1/2-x,1/2-y,-z
1/2+x,1/2-y,z
loop_
_atom_site_type_symbol
_atom_site_label
_atom_site_fract_x
_atom_site_fract_y
_atom_site_fract_z
Si Si1 0.453087 0.686432 0.192189
Si Si2 0.496900 0.193792 0.219186
Si Si3 0.837067 0.359185 0.788520
Si Si4 0.777122 0.763593 0.197666
Si Si5 0.930804 0.936633 0.362549
Si Si6 0.754370 0.564863 0.520480
Si Si7 0.827147 0.354199 0.225949
O O1 0.493212 0.741116 0.283987
O O2 0.363315 0.708317 0.180961
O O3 0.449590 0.622991 0.265197
O O4 0.500000 0.681822 0.000000
O O5 0.573014 0.158276 0.263416
O O6 0.416968 0.159946 0.269776
O O7 0.500000 0.198255 0.000000
O O8 0.785364 0.307367 0.722694
O O9 0.800530 0.411206 0.688121
O O10 0.826619 0.363152 0.008227
O O11 0.781090 0.702828 0.283349
O O12 0.750000 0.750000 0.000000
O O13 0.840720 0.929118 0.446145
O O14 0.000000 0.940254 0.500000
O O15 0.931229 0.000000 0.272528
O O16 0.771591 0.500000 0.500192
O O17 0.787563 0.596718 0.342020
#
# Coordination Sequence:
#
# PCOD9176333 Si02
#       7
#     8   8   8   8   8   8   8
#     4  10  18  34  59  86 114 147 192 235 291 359
#     4   8  17  35  57  88 122 150 179 240 300 355
#     4  10  19  37  61  86 120 153 191 247 297 348
#     4   9  17  32  56  88 116 148 186 241 298 350
#     4  10  23  42  55  76 120 158 195 248 292 338
#     4  11  24  41  60  84 116 158 206 246 284 347
#     4   9  20  37  59  84 121 155 191 237 302 351
#
# _framework density 18.695990999999999
#
# number of rings (size 3 to 8) (size 9 to 14) (size 15 to 20)
#    0.000    2.429    1.429    2.571    0.000    5.429 
#    5.143    1.429    0.000    2.571    0.000    0.000 
#    0.000    0.000    0.000    0.000    0.000    0.000 
#
# Total GULP energy -155883.315789 kJ/mol
# GULP energy per Si atom -5567.261278 kJ/mol
# Density = 1.865344 g / cm^3
# Si number density = 18.695991 Si / 1000 Ang^3
#
#
#
# Elastic Constant Matrix: (Units=GPa)
#
#
# Indices 1 2 3 4 5 6 
#
# 1 88.6438 74.9242 32.0882 0.0000 1.0778 0.0000
# 2 74.9242 168.6657 54.1384 0.0000 2.3171 0.0000
# 3 32.0882 54.1384 71.5215 0.0000 4.9643 0.0000
# 4 0.0000 0.0000 0.0000 33.7281 0.0000 -6.2996
# 5 1.0778 2.3171 4.9643 0.0000 7.7099 0.0000
# 6 0.0000 0.0000 0.0000 -6.2996 0.0000 36.5012
#
#
#
# Elastic Compliance Matrix: (Units=1/GPa)
#
#
# Indices 1 2 3 4 5 6 
#
# 1 0.018477 -0.007311 -0.002857 0.000000 0.001454 0.000000
# 2 -0.007311 0.010742 -0.004918 0.000000 0.000960 0.000000
# 3 -0.002857 -0.004918 0.019738 0.000000 -0.010832 0.000000
# 4 0.000000 0.000000 0.000000 0.030636 0.000000 0.005287
# 5 0.001454 0.000960 -0.010832 0.000000 0.136186 0.000000
# 6 0.000000 0.000000 0.000000 0.005287 0.000000 0.028309
#
#
# Mechanical properties :
#
#
# Convention : Reuss Voigt Hill
#
# Bulk Modulus (GPa) = 53.23078 72.34808 62.78943
# Shear Modulus (GPa) = 17.82409 26.76652 22.29530
#
# Velocity S-wave (km/s) = 3.09101 3.78785 3.45703
# Velocity P-wave (km/s) = 6.42438 7.60996 7.04217
#
# Compressibility (1/GPa) = 0.01878612
#
# Stress axis : x y z
#
# Youngs Moduli (GPa) = 54.12219 93.09503 50.66448
#
# Poissons Ratio (x) = 0.68059 0.14473
# Poissons Ratio (y) = 0.39567 0.24915
# Poissons Ratio (z) = 0.15461 0.45781
#
# Static dielectric constant tensor:
#      x y z
#    x 1.641530 0.000000 0.004130 
#    y 0.000000 1.666070 0.000000 
#    z 0.004130 0.000000 1.662280 
# 
# From -- ./inp_files/76867.got.cif
#   From: 2010.05.17/outbox.cif.g08.bks.cpg/sg12_39_cif.got.tgz:76867.got - 2010.06.03 13:09:07.
