data_PCOD9176688
_publ_section_title
;
Structure prediction by ZEFSAII (Michael W. Deem and Ramdas Pophale) SiO2 
 PCOD9176688
Probable space group: C 2/M
;
_chemical_formula_sum "Si O2"
_cell_formula_units_Z 56
_cell_length_a 20.623596
_cell_length_b 16.067791
_cell_length_c 18.015731
_cell_angle_alpha 90.000000
_cell_angle_beta 152.801645
_cell_angle_gamma 90.000000
_cell_volume 2728.710389
_symmetry_space_group_name_H-M "C 2/M"
_symmetry_group_IT_number 12
_symmetry_cell_setting 'monoclinic'
loop_
_space_group_symop_operation_xyz
x,y,z
-x,y,-z
-x,-y,-z
x,-y,z
1/2+x,1/2+y,z
1/2-x,1/2+y,-z
1/2-x,1/2-y,-z
1/2+x,1/2-y,z
loop_
_atom_site_type_symbol
_atom_site_label
_atom_site_fract_x
_atom_site_fract_y
_atom_site_fract_z
Si Si1 0.154435 0.737652 0.118177
Si Si2 0.594291 0.409143 0.023186
Si Si3 0.628443 0.858927 0.334765
Si Si4 0.879751 0.165403 0.682788
Si Si5 0.683226 0.824990 0.982286
Si Si6 0.470467 0.407172 0.296743
Si Si7 0.213613 0.907601 0.652109
O O1 0.143695 0.709574 0.022738
O O2 0.246367 0.670171 0.255944
O O3 0.199708 0.834286 0.153991
O O4 0.000000 0.737493 0.000000
O O5 0.653444 0.500000 0.062449
O O6 0.483724 0.377040 0.847746
O O7 0.500000 0.419130 0.000000
O O8 0.731297 0.876895 0.509329
O O9 0.649278 0.761844 0.331926
O O10 0.685555 0.905441 0.319343
O O11 0.465291 0.865381 0.193714
O O12 0.962182 0.160487 0.688826
O O13 0.804975 0.891763 0.122662
O O14 0.750000 0.750000 0.000000
O O15 0.504704 0.500000 0.303698
O O16 0.552536 0.399639 0.457836
O O17 0.230854 0.000000 0.704176
#
# Coordination Sequence:
#
# PCOD9176688 Si02
#       7
#     8   8   8   8   8   8   8
#     4  11  21  39  61  88 126 164 211 259 318 375
#     4  10  19  33  57  88 115 147 203 264 316 369
#     4  10  19  35  61  88 120 162 210 259 309 377
#     4  10  18  35  61  85 118 162 206 259 317 375
#     4  12  22  38  58  92 124 164 211 259 320 375
#     4  10  22  38  59  88 126 163 208 262 317 384
#     4  10  22  40  62  92 127 170 215 257 309 381
#
# _framework density 20.522516
#
# number of rings (size 3 to 8) (size 9 to 14) (size 15 to 20)
#    0.000    1.571    4.286    1.286    0.000    2.571 
#    0.000    1.429    0.000    0.000    0.000    2.000 
#    0.000    0.286    0.000    0.000    0.000    0.000 
#
# Total GULP energy -155949.717211 kJ/mol
# GULP energy per Si atom -5569.632758 kJ/mol
# Density = 2.047581 g / cm^3
# Si number density = 20.522516 Si / 1000 Ang^3
#
#
#
# Elastic Constant Matrix: (Units=GPa)
#
#
# Indices 1 2 3 4 5 6 
#
# 1 48.0571 5.9268 23.3789 -0.0001 -7.0259 -0.0001
# 2 5.9268 134.6132 52.1944 -0.0001 -14.8577 -0.0001
# 3 23.3789 52.1944 127.2912 -0.0002 11.0903 -0.0001
# 4 -0.0001 -0.0001 -0.0002 24.7078 -0.0001 -6.4536
# 5 -7.0259 -14.8577 11.0903 -0.0001 35.6486 -0.0001
# 6 -0.0001 -0.0001 -0.0001 -6.4536 -0.0001 30.8928
#
#
#
# Elastic Compliance Matrix: (Units=1/GPa)
#
#
# Indices 1 2 3 4 5 6 
#
# 1 0.024600 0.002098 -0.006041 0.000000 0.007602 0.000000
# 2 0.002098 0.009949 -0.004998 0.000000 0.006115 0.000000
# 3 -0.006041 -0.004998 0.011615 0.000000 -0.006887 0.000000
# 4 0.000000 0.000000 0.000000 0.042809 0.000000 0.008943
# 5 0.007602 0.006115 -0.006887 0.000000 0.034241 0.000000
# 6 0.000000 0.000000 0.000000 0.008943 0.000000 0.034238
#
#
# Mechanical properties :
#
#
# Convention : Reuss Voigt Hill
#
# Bulk Modulus (GPa) = 35.35661 52.55131 43.95396
# Shear Modulus (GPa) = 27.06214 33.48060 30.27137
#
# Velocity S-wave (km/s) = 3.63527 4.04345 3.84478
# Velocity P-wave (km/s) = 5.90643 6.88924 6.41668
#
# Compressibility (1/GPa) = 0.02828325
#
# Stress axis : x y z
#
# Youngs Moduli (GPa) = 40.65042 100.51294 86.09767
#
# Poissons Ratio (x) = -0.21090 0.52010
# Poissons Ratio (y) = -0.08529 0.43028
# Poissons Ratio (z) = 0.24556 0.50232
#
# Static dielectric constant tensor:
#      x y z
#    x 1.730810 0.000000 0.013880 
#    y 0.000000 1.830930 0.000000 
#    z 0.013880 0.000000 1.866170 
# 
# From -- ./inp_files/284570.got.cif
#   From: 2010.05.17/outbox.cif.g08.bks.cpg/sg12_143_cif.got.tgz:284570.got - 2010.06.03 13:09:07.
