data_PCOD9176966
_publ_section_title
;
Structure prediction by ZEFSAII (Michael W. Deem and Ramdas Pophale) SiO2 
 PCOD9176966
Probable space group: C 2/M
;
_chemical_formula_sum "Si O2"
_cell_formula_units_Z 58
_cell_length_a 15.455442
_cell_length_b 20.039795
_cell_length_c 8.464258
_cell_angle_alpha 90.000000
_cell_angle_beta 92.071507
_cell_angle_gamma 90.000000
_cell_volume 2619.869685
_symmetry_space_group_name_H-M "C 2/M"
_symmetry_group_IT_number 12
_symmetry_cell_setting 'monoclinic'
loop_
_space_group_symop_operation_xyz
x,y,z
-x,y,-z
-x,-y,-z
x,-y,z
1/2+x,1/2+y,z
1/2-x,1/2+y,-z
1/2-x,1/2-y,-z
1/2+x,1/2-y,z
loop_
_atom_site_type_symbol
_atom_site_label
_atom_site_fract_x
_atom_site_fract_y
_atom_site_fract_z
Si Si1 0.500000 0.500000 0.500000
Si Si2 0.163303 0.073202 0.047468
Si Si3 0.404673 0.250755 0.191132
Si Si4 0.276945 0.686784 0.714221
Si Si5 0.158404 0.428063 0.140859
Si Si6 0.241512 0.072553 0.535633
Si Si7 0.910358 0.285534 0.835810
Si Si8 0.427613 0.598214 0.273413
O O1 0.505492 0.559535 0.361418
O O2 0.252670 0.074610 0.951975
O O3 0.089436 0.080606 0.910006
O O4 0.155956 0.000000 0.119850
O O5 0.175623 0.133251 0.168542
O O6 0.315218 0.215541 0.232423
O O7 0.494341 0.213380 0.230528
O O8 0.418684 0.322278 0.273726
O O9 0.404197 0.256069 0.999754
O O10 0.258953 0.640276 0.562784
O O11 0.341230 0.750455 0.715192
O O12 0.116525 0.500000 0.104273
O O13 0.185019 0.425590 0.326284
O O14 0.109396 0.360076 0.108583
O O15 0.151602 0.070569 0.625992
O O16 0.249652 0.000000 0.452279
#
# Coordination Sequence:
#
# PCOD9176966 Si02
#       8
#     2   8   8   8   8   8   8   8
#     4  12  24  40  68  90 140 176 222 272 322 396
#     4  10  18  36  64  93 120 170 224 262 320 396
#     4  11  25  41  63  99 131 164 224 280 330 397
#     4  12  22  40  67  92 134 174 213 280 344 377
#     4   9  19  39  65  87 121 173 219 265 334 396
#     4  10  22  40  62  96 131 171 225 270 323 408
#     4  11  23  41  66  96 130 167 222 282 332 396
#     4  11  22  41  63  91 131 178 215 264 329 393
#
# _framework density 22.138504999999999
#
# number of rings (size 3 to 8) (size 9 to 14) (size 15 to 20)
#    0.000    1.379    4.138    3.310    1.931    2.207 
#    0.000    2.759    0.000    4.138    0.000    0.000 
#    0.000    0.000    0.000    0.000    0.000    0.000 
#
# Total GULP energy -161581.470565 kJ/mol
# GULP energy per Si atom -5571.774847 kJ/mol
# Density = 2.208812 g / cm^3
# Si number density = 22.138505 Si / 1000 Ang^3
#
#
#
# Elastic Constant Matrix: (Units=GPa)
#
#
# Indices 1 2 3 4 5 6 
#
# 1 81.0746 22.8395 1.2707 0.0000 -4.6422 0.0000
# 2 22.8395 149.0992 21.2909 0.0000 1.9420 0.0000
# 3 1.2707 21.2909 45.9407 0.0000 12.8813 0.0000
# 4 0.0000 0.0000 0.0000 52.5266 0.0000 5.3899
# 5 -4.6422 1.9420 12.8813 0.0000 10.4146 0.0000
# 6 0.0000 0.0000 0.0000 5.3899 0.0000 12.0918
#
#
#
# Elastic Compliance Matrix: (Units=1/GPa)
#
#
# Indices 1 2 3 4 5 6 
#
# 1 0.013396 -0.001888 -0.001942 0.000000 0.008725 0.000000
# 2 -0.001888 0.007574 -0.004326 0.000000 0.003096 0.000000
# 3 -0.001942 -0.004326 0.036501 0.000000 -0.045204 0.000000
# 4 0.000000 0.000000 0.000000 0.019951 0.000000 -0.008893
# 5 0.008725 0.003096 -0.045204 0.000000 0.155241 0.000000
# 6 0.000000 0.000000 0.000000 -0.008893 0.000000 0.086665
#
#
# Mechanical properties :
#
#
# Convention : Reuss Voigt Hill
#
# Bulk Modulus (GPa) = 24.29646 40.76852 32.53249
# Shear Modulus (GPa) = 14.31194 30.38749 22.34972
#
# Velocity S-wave (km/s) = 2.54534 3.70889 3.18077
# Velocity P-wave (km/s) = 4.43136 6.06600 5.31193
#
# Compressibility (1/GPa) = 0.04115826
#
# Stress axis : x y z
#
# Youngs Moduli (GPa) = 74.64727 132.03715 27.39678
#
# Poissons Ratio (x) = 0.24935 0.05320
# Poissons Ratio (y) = 0.14097 0.11852
# Poissons Ratio (z) = 0.14495 0.57118
#
# Static dielectric constant tensor:
#      x y z
#    x 1.874340 0.000000 0.057510 
#    y 0.000000 1.740370 0.000000 
#    z 0.057510 0.000000 1.868980 
# 
# From -- ./inp_files/75953.got.cif
#   From: 2010.05.17/outbox.cif.g08.bks.cpg/sg12_38_cif.got.tgz:75953.got - 2010.06.03 13:09:07.
