data_PCOD9176048
_publ_section_title
;
Structure prediction by ZEFSAII (Michael W. Deem and Ramdas Pophale) SiO2 
 PCOD9176048
Probable space group: C 2/M
;
_chemical_formula_sum "Si O2"
_cell_formula_units_Z 58
_cell_length_a 26.359999
_cell_length_b 12.657069
_cell_length_c 7.134621
_cell_angle_alpha 90.000000
_cell_angle_beta 74.944181
_cell_angle_gamma 90.000000
_cell_volume 2298.685904
_symmetry_space_group_name_H-M "C 2/M"
_symmetry_group_IT_number 12
_symmetry_cell_setting 'monoclinic'
loop_
_space_group_symop_operation_xyz
x,y,z
-x,y,-z
-x,-y,-z
x,-y,z
1/2+x,1/2+y,z
1/2-x,1/2+y,-z
1/2-x,1/2-y,-z
1/2+x,1/2-y,z
loop_
_atom_site_type_symbol
_atom_site_label
_atom_site_fract_x
_atom_site_fract_y
_atom_site_fract_z
Si Si1 0.000000 0.000000 0.500000
Si Si2 0.795550 0.156175 0.158853
Si Si3 0.550205 0.344232 0.758775
Si Si4 0.459692 0.883500 0.363460
Si Si5 0.203421 0.612872 0.955814
Si Si6 0.372539 0.201378 0.689234
Si Si7 0.088969 0.113910 0.122478
Si Si8 0.831225 0.882918 0.514650
O O1 0.016384 0.908279 0.642413
O O2 0.750386 0.119829 0.062024
O O3 0.851051 0.119776 0.014634
O O4 0.793191 0.118027 0.373569
O O5 0.795241 0.283235 0.169968
O O6 0.535331 0.220802 0.766088
O O7 0.554138 0.379155 0.970834
O O8 0.610152 0.364795 0.626369
O O9 0.500000 0.879456 0.500000
O O10 0.401696 0.866886 0.507386
O O11 0.464681 0.000000 0.271373
O O12 0.204910 0.500000 0.857331
O O13 0.151100 0.628307 0.128695
O O14 0.327600 0.281383 0.652753
O O15 0.413086 0.285284 0.742112
O O16 0.080098 0.000000 0.230952
O O17 0.828312 0.000000 0.605450
#
# Coordination Sequence:
#
# PCOD9176048 Si02
#       8
#     2   8   8   8   8   8   8   8
#     4  12  16  32  58  94 108 140 178 246 272 340
#     4   9  19  33  56  80 107 148 190 213 265 337
#     4  10  19  32  59  85 110 140 182 226 284 329
#     4  10  21  39  59  76 102 145 190 227 269 333
#     4  10  19  35  54  80 113 143 176 232 276 315
#     4  10  22  34  54  81 111 141 185 229 277 323
#     4  10  18  35  55  85 117 147 178 222 277 337
#     4  10  18  34  53  78 109 147 180 222 270 329
#
# _framework density 25.231808000000001
#
# number of rings (size 3 to 8) (size 9 to 14) (size 15 to 20)
#    0.000    2.069    2.069    2.897    0.000    0.552 
#    0.000   13.793    0.000    5.793    0.000    0.000 
#    0.000    0.000    0.000    0.000    0.000    0.000 
#
# Total GULP energy -162120.669391 kJ/mol
# GULP energy per Si atom -5590.367910 kJ/mol
# Density = 2.517438 g / cm^3
# Si number density = 25.231808 Si / 1000 Ang^3
#
#
#
# Elastic Constant Matrix: (Units=GPa)
#
#
# Indices 1 2 3 4 5 6 
#
# 1 72.4448 15.3294 2.0409 0.0000 6.6500 0.0000
# 2 15.3294 224.3603 18.0469 0.0000 14.1240 0.0000
# 3 2.0409 18.0469 73.5201 0.0000 22.6616 0.0000
# 4 0.0000 0.0000 0.0000 22.7472 0.0000 1.0805
# 5 6.6500 14.1240 22.6616 0.0000 37.9704 0.0000
# 6 0.0000 0.0000 0.0000 1.0805 0.0000 17.3495
#
#
#
# Elastic Compliance Matrix: (Units=1/GPa)
#
#
# Indices 1 2 3 4 5 6 
#
# 1 0.014200 -0.000859 0.000594 0.000000 -0.002522 0.000000
# 2 -0.000859 0.004648 -0.000773 0.000000 -0.001117 0.000000
# 3 0.000594 -0.000773 0.016811 0.000000 -0.009850 0.000000
# 4 0.000000 0.000000 0.000000 0.044092 0.000000 -0.002746
# 5 -0.002522 -0.001117 -0.009850 0.000000 0.033072 0.000000
# 6 0.000000 0.000000 0.000000 -0.002746 0.000000 0.057809
#
#
# Mechanical properties :
#
#
# Convention : Reuss Voigt Hill
#
# Bulk Modulus (GPa) = 29.77639 49.01770 39.39704
# Shear Modulus (GPa) = 27.18820 37.94064 32.56442
#
# Velocity S-wave (km/s) = 3.28615 3.88194 3.59640
# Velocity P-wave (km/s) = 5.12104 6.28981 5.73528
#
# Compressibility (1/GPa) = 0.03358366
#
# Stress axis : x y z
#
# Youngs Moduli (GPa) = 70.42154 215.13127 59.48499
#
# Poissons Ratio (x) = 0.18485 -0.03534
# Poissons Ratio (y) = 0.06051 0.04597
# Poissons Ratio (z) = -0.04184 0.16624
#
# Static dielectric constant tensor:
#      x y z
#    x 2.000120 0.000000 0.034140 
#    y 0.000000 1.947390 0.000000 
#    z 0.034140 0.000000 1.835350 
# 
# From -- ./inp_files/109973.got.cif
#   From: 2010.05.17/outbox.cif.g08.bks.cpg/sg12_55_cif.got.tgz:109973.got - 2010.06.03 13:09:07.
