data_PCOD9176414
_publ_section_title
;
Structure prediction by ZEFSAII (Michael W. Deem and Ramdas Pophale) SiO2 
 PCOD9176414
Probable space group: C 2/M
;
_chemical_formula_sum "Si O2"
_cell_formula_units_Z 40
_cell_length_a 15.120530
_cell_length_b 15.149886
_cell_length_c 8.426699
_cell_angle_alpha 90.000000
_cell_angle_beta 117.961495
_cell_angle_gamma 90.000000
_cell_volume 1704.997897
_symmetry_space_group_name_H-M "C 2/M"
_symmetry_group_IT_number 12
_symmetry_cell_setting 'monoclinic'
loop_
_space_group_symop_operation_xyz
x,y,z
-x,y,-z
-x,-y,-z
x,-y,z
1/2+x,1/2+y,z
1/2-x,1/2+y,-z
1/2-x,1/2-y,-z
1/2+x,1/2-y,z
loop_
_atom_site_type_symbol
_atom_site_label
_atom_site_fract_x
_atom_site_fract_y
_atom_site_fract_z
Si Si1 0.706612 0.212732 0.671993
Si Si2 0.714567 0.405353 0.776009
Si Si3 0.592215 0.103561 0.851068
Si Si4 0.092702 0.269204 0.267554
Si Si5 0.010038 0.906728 0.700927
O O1 0.682649 0.316778 0.663341
O O2 0.647145 0.155819 0.752186
O O3 0.827113 0.222120 0.784032
O O4 0.664445 0.187961 0.463803
O O5 0.710610 0.500000 0.686261
O O6 0.628716 0.409175 0.837079
O O7 0.824376 0.396460 0.940549
O O8 0.493838 0.157007 0.823002
O O9 0.571416 0.000000 0.795390
O O10 0.032994 0.183622 0.274898
O O11 0.000000 0.909303 0.500000
O O12 0.966091 0.000000 0.723787
#
# Coordination Sequence:
#
# PCOD9176414 Si02
#       5
#     8   8   8   8   8
#     4  11  23  39  61  91 122 157 204 253 298 359
#     4  10  21  39  64  89 117 156 205 251 299 359
#     4  11  24  43  63  88 127 168 200 245 308 367
#     4  11  23  38  61  91 122 158 203 249 302 362
#     4  10  18  34  61  86 114 155 200 249 300 352
#
# _framework density 23.460439000000001
#
# number of rings (size 3 to 8) (size 9 to 14) (size 15 to 20)
#    0.000    1.400    4.000    1.200    0.000    4.000 
#    0.000    6.000    0.000    3.600    0.000    0.000 
#    0.000    0.000    0.000    0.000    0.000    0.000 
#
# Total GULP energy -111350.997066 kJ/mol
# GULP energy per Si atom -5567.549853 kJ/mol
# Density = 2.340704 g / cm^3
# Si number density = 23.460439 Si / 1000 Ang^3
#
#
#
# Elastic Constant Matrix: (Units=GPa)
#
#
# Indices 1 2 3 4 5 6 
#
# 1 134.8530 68.8154 38.5932 0.0000 33.0539 0.0000
# 2 68.8154 187.2046 32.8163 0.0000 21.0200 0.0000
# 3 38.5932 32.8163 69.0208 0.0000 33.2726 0.0000
# 4 0.0000 0.0000 0.0000 6.0470 0.0000 5.2917
# 5 33.0539 21.0200 33.2726 0.0000 37.8847 0.0000
# 6 0.0000 0.0000 0.0000 5.2917 0.0000 -3.3459
#
#
#
# Elastic Compliance Matrix: (Units=1/GPa)
#
#
# Indices 1 2 3 4 5 6 
#
# 1 0.011021 -0.003042 -0.001551 0.000000 -0.006566 0.000000
# 2 -0.003042 0.006710 -0.001689 0.000000 0.000415 0.000000
# 3 -0.001551 -0.001689 0.026108 0.000000 -0.020639 0.000000
# 4 0.000000 0.000000 0.000000 0.069367 0.000000 0.109707
# 5 -0.006566 0.000415 -0.020639 0.000000 0.050021 0.000000
# 6 0.000000 0.000000 0.000000 0.109707 0.000000 -0.125365
#
#
# Mechanical properties :
#
#
# Convention : Reuss Voigt Hill
#
# Bulk Modulus (GPa) = 31.97507 74.61425 53.29466
# Shear Modulus (GPa) = 82.16788 24.84072 53.50430
#
# Velocity S-wave (km/s) = 5.92453 3.25750 4.78076
# Velocity P-wave (km/s) = 7.77554 6.78393 7.29660
#
# Compressibility (1/GPa) = 0.03127437
#
# Stress axis : x y z
#
# Youngs Moduli (GPa) = 90.73510 149.04163 38.30209
#
# Poissons Ratio (x) = 0.45341 0.05941
# Poissons Ratio (y) = 0.27603 0.06470
# Poissons Ratio (z) = 0.14073 0.25174
#
# Static dielectric constant tensor:
#      x y z
#    x 2.007860 0.000000 0.015830 
#    y 0.000000 1.926410 0.000000 
#    z 0.015830 0.000000 1.959940 
# 
# From -- ./inp_files/143334.got.cif
#   From: 2010.05.17/outbox.cif.g08.bks.cpg/sg12_72_cif.got.tgz:143334.got - 2010.06.03 13:09:07.
