data_PCOD9176926
_publ_section_title
;
Structure prediction by ZEFSAII (Michael W. Deem and Ramdas Pophale) SiO2 
 PCOD9176926
Probable space group: C 2/M
;
_chemical_formula_sum "Si O2"
_cell_formula_units_Z 64
_cell_length_a 9.151056
_cell_length_b 13.944653
_cell_length_c 23.175137
_cell_angle_alpha 90.000000
_cell_angle_beta 92.737634
_cell_angle_gamma 90.000000
_cell_volume 2953.964688
_symmetry_space_group_name_H-M "C 2/M"
_symmetry_group_IT_number 12
_symmetry_cell_setting 'monoclinic'
loop_
_space_group_symop_operation_xyz
x,y,z
-x,y,-z
-x,-y,-z
x,-y,z
1/2+x,1/2+y,z
1/2-x,1/2+y,-z
1/2-x,1/2-y,-z
1/2+x,1/2-y,z
loop_
_atom_site_type_symbol
_atom_site_label
_atom_site_fract_x
_atom_site_fract_y
_atom_site_fract_z
Si Si1 0.496382 0.106007 0.775205
Si Si2 0.807850 0.767013 0.370565
Si Si3 0.613886 0.285677 0.958790
Si Si4 0.042120 0.198738 0.293469
Si Si5 0.087576 0.394424 0.561021
Si Si6 0.840958 0.888433 0.480685
Si Si7 0.367269 0.195265 0.884689
Si Si8 0.336773 0.393072 0.817430
O O1 0.473865 0.193517 0.731582
O O2 0.404324 0.130039 0.830854
O O3 0.666345 0.107956 0.796629
O O4 0.461732 0.000000 0.751960
O O5 0.679860 0.706134 0.338860
O O6 0.927761 0.689807 0.394768
O O7 0.772942 0.829764 0.426424
O O8 0.894381 0.827896 0.324346
O O9 0.508939 0.202550 0.929717
O O10 0.710521 0.332338 0.909486
O O11 0.500000 0.338613 0.000000
O O12 0.750000 0.250000 0.000000
O O13 0.075176 0.132489 0.239213
O O14 0.060890 0.500000 0.584968
O O15 0.250385 0.385935 0.537932
O O16 0.000000 0.386535 0.500000
O O17 0.000000 0.850031 0.500000
O O18 0.852075 0.000000 0.463575
O O19 0.357501 0.305816 0.862223
O O20 0.373400 0.500000 0.839384
#
# Coordination Sequence:
#
# PCOD9176926 Si02
#       8
#     8   8   8   8   8   8   8   8
#     4  10  21  39  62  84 114 156 199 242 285 342
#     4  12  22  36  58  80 112 146 181 230 296 342
#     4   9  18  32  58  90 127 161 190 235 297 336
#     4  11  24  38  56  88 116 147 189 241 291 353
#     4  10  21  37  57  81 106 142 189 227 270 344
#     4  10  21  37  55  77 106 140 182 229 278 339
#     4  10  18  36  62  90 113 159 206 234 278 346
#     4  10  21  39  62  84 115 156 197 243 288 339
#
# _framework density 21.665796
#
# number of rings (size 3 to 8) (size 9 to 14) (size 15 to 20)
#    0.000    1.750    2.500    2.250    0.000    2.000 
#    0.000    1.875    0.000   15.000    0.000    0.000 
#    0.000    0.000    0.000    0.000    0.000    0.000 
#
# Total GULP energy -178517.983930 kJ/mol
# GULP energy per Si atom -5578.686998 kJ/mol
# Density = 2.161648 g / cm^3
# Si number density = 21.665796 Si / 1000 Ang^3
#
#
#
# Elastic Constant Matrix: (Units=GPa)
#
#
# Indices 1 2 3 4 5 6 
#
# 1 71.1943 -11.6346 2.1913 0.0000 -7.6894 0.0000
# 2 -11.6346 88.1034 9.2034 0.0000 5.7354 0.0000
# 3 2.1913 9.2034 63.2041 0.0000 -10.1558 0.0000
# 4 0.0000 0.0000 0.0000 2.3965 0.0000 -0.0095
# 5 -7.6894 5.7354 -10.1558 0.0000 42.8017 0.0000
# 6 0.0000 0.0000 0.0000 -0.0095 0.0000 12.3963
#
#
#
# Elastic Compliance Matrix: (Units=1/GPa)
#
#
# Indices 1 2 3 4 5 6 
#
# 1 0.014603 0.001822 -0.000405 0.000000 0.002283 0.000000
# 2 0.001822 0.011923 -0.002083 0.000000 -0.001765 0.000000
# 3 -0.000405 -0.002083 0.016813 0.000000 0.004196 0.000000
# 4 0.000000 0.000000 0.000000 0.417281 0.000000 0.000319
# 5 0.002283 -0.001765 0.004196 0.000000 0.025006 0.000000
# 6 0.000000 0.000000 0.000000 0.000319 0.000000 0.080669
#
#
# Mechanical properties :
#
#
# Convention : Reuss Voigt Hill
#
# Bulk Modulus (GPa) = 23.80480 24.66911 24.23695
# Shear Modulus (GPa) = 8.59654 26.36834 17.48244
#
# Velocity S-wave (km/s) = 1.99409 3.49241 2.84371
# Velocity P-wave (km/s) = 4.03893 5.26056 4.68969
#
# Compressibility (1/GPa) = 0.04200834
#
# Stress axis : x y z
#
# Youngs Moduli (GPa) = 68.47961 83.86890 59.47679
#
# Poissons Ratio (x) = -0.15281 0.02407
# Poissons Ratio (y) = -0.12477 0.12389
# Poissons Ratio (z) = 0.02771 0.17469
#
# Static dielectric constant tensor:
#      x y z
#    x 1.872290 0.000000 -0.026900 
#    y 0.000000 1.772480 0.000000 
#    z -0.026900 0.000000 1.844200 
# 
# From -- ./inp_files/332922.got.cif
#   From: 2010.05.17/outbox.cif.g08.bks.cpg/sg12_167_cif.got.tgz:332922.got - 2010.06.03 13:09:07.
