data_PCOD9176224
_publ_section_title
;
Structure prediction by ZEFSAII (Michael W. Deem and Ramdas Pophale) SiO2 
 PCOD9176224
Probable space group: C 2/M
;
_chemical_formula_sum "Si O2"
_cell_formula_units_Z 48
_cell_length_a 12.729119
_cell_length_b 20.081909
_cell_length_c 13.206495
_cell_angle_alpha 90.000000
_cell_angle_beta 51.700892
_cell_angle_gamma 90.000000
_cell_volume 2649.367291
_symmetry_space_group_name_H-M "C 2/M"
_symmetry_group_IT_number 12
_symmetry_cell_setting 'monoclinic'
loop_
_space_group_symop_operation_xyz
x,y,z
-x,y,-z
-x,-y,-z
x,-y,z
1/2+x,1/2+y,z
1/2-x,1/2+y,-z
1/2-x,1/2-y,-z
1/2+x,1/2-y,z
loop_
_atom_site_type_symbol
_atom_site_label
_atom_site_fract_x
_atom_site_fract_y
_atom_site_fract_z
Si Si1 0.495003 0.075215 0.786522
Si Si2 0.615358 0.813061 0.852755
Si Si3 0.132543 0.803512 0.168177
Si Si4 0.348294 0.323343 0.274890
Si Si5 0.866530 0.424166 0.512016
Si Si6 0.754041 0.661379 0.880576
O O1 0.550010 0.125231 0.836574
O O2 0.585938 0.080218 0.632040
O O3 0.345992 0.098224 0.845815
O O4 0.495386 0.000000 0.822675
O O5 0.748057 0.832824 0.835340
O O6 0.654790 0.756065 0.747889
O O7 0.500000 0.787372 0.000000
O O8 0.144400 0.725036 0.190217
O O9 0.983139 0.831316 0.259932
O O10 0.171763 0.816803 0.028093
O O11 0.231845 0.364185 0.399828
O O12 0.335259 0.348332 0.165718
O O13 0.812265 0.500000 0.561830
O O14 0.000000 0.418299 0.500000
#
# Coordination Sequence:
#
# PCOD9176224 Si02
#       6
#     8   8   8   8   8   8
#     4  11  22  39  60  84 116 160 207 238 275 351
#     4  11  21  38  60  90 124 157 195 238 297 356
#     4  10  19  34  56  88 124 148 185 248 303 347
#     4  11  20  34  63  88 117 153 193 249 300 347
#     4  10  22  40  59  82 117 160 200 241 292 349
#     4  10  18  34  57  86 119 152 191 239 301 347
#
# _framework density 18.117533000000002
#
# number of rings (size 3 to 8) (size 9 to 14) (size 15 to 20)
#    0.000    1.500    5.000    2.500    0.000    1.000 
#    0.000    2.500    0.000    6.500    0.000    0.000 
#    0.000    0.000    0.000    0.000    0.000    0.000 
#
# Total GULP energy -133696.747344 kJ/mol
# GULP energy per Si atom -5570.697806 kJ/mol
# Density = 1.807630 g / cm^3
# Si number density = 18.117533 Si / 1000 Ang^3
#
#
#
# Elastic Constant Matrix: (Units=GPa)
#
#
# Indices 1 2 3 4 5 6 
#
# 1 112.4281 18.2581 3.7813 0.0000 -11.6222 0.0000
# 2 18.2581 94.1536 28.2514 0.0000 -11.6921 0.0000
# 3 3.7813 28.2514 33.2454 0.0000 -9.4674 0.0000
# 4 0.0000 0.0000 0.0000 8.9362 0.0000 4.2804
# 5 -11.6222 -11.6921 -9.4674 0.0000 21.5822 0.0000
# 6 0.0000 0.0000 0.0000 4.2804 0.0000 5.6607
#
#
#
# Elastic Compliance Matrix: (Units=1/GPa)
#
#
# Indices 1 2 3 4 5 6 
#
# 1 0.009646 -0.001807 0.001873 0.000000 0.005037 0.000000
# 2 -0.001807 0.014739 -0.011796 0.000000 0.001837 0.000000
# 3 0.001873 -0.011796 0.043834 0.000000 0.013846 0.000000
# 4 0.000000 0.000000 0.000000 0.175452 0.000000 -0.132669
# 5 0.005037 0.001837 0.013846 0.000000 0.056116 0.000000
# 6 0.000000 0.000000 0.000000 -0.132669 0.000000 0.276973
#
#
# Mechanical properties :
#
#
# Convention : Reuss Voigt Hill
#
# Bulk Modulus (GPa) = 22.34255 37.82318 30.08286
# Shear Modulus (GPa) = 8.12823 19.87157 13.99990
#
# Velocity S-wave (km/s) = 2.12041 3.31541 2.78281
# Velocity P-wave (km/s) = 4.28411 5.96471 5.19285
#
# Compressibility (1/GPa) = 0.04475765
#
# Stress axis : x y z
#
# Youngs Moduli (GPa) = 103.67297 67.84706 22.81344
#
# Poissons Ratio (x) = 0.12259 -0.04272
# Poissons Ratio (y) = 0.18733 0.26911
# Poissons Ratio (z) = -0.19416 0.80035
#
# Static dielectric constant tensor:
#      x y z
#    x 1.666700 0.000000 0.017490 
#    y 0.000000 1.631720 0.000000 
#    z 0.017490 0.000000 1.641160 
# 
# From -- ./inp_files/89711.got.cif
#   From: 2010.05.17/outbox.cif.g08.bks.cpg/sg12_45_cif.got.tgz:89711.got - 2010.06.03 13:09:07.
