data_PCOD9176932
_publ_section_title
;
Structure prediction by ZEFSAII (Michael W. Deem and Ramdas Pophale) SiO2 
 PCOD9176932
Probable space group: C 2/M
;
_chemical_formula_sum "Si O2"
_cell_formula_units_Z 56
_cell_length_a 14.965493
_cell_length_b 21.267014
_cell_length_c 9.523356
_cell_angle_alpha 90.000000
_cell_angle_beta 71.587334
_cell_angle_gamma 90.000000
_cell_volume 2875.842403
_symmetry_space_group_name_H-M "C 2/M"
_symmetry_group_IT_number 12
_symmetry_cell_setting 'monoclinic'
loop_
_space_group_symop_operation_xyz
x,y,z
-x,y,-z
-x,-y,-z
x,-y,z
1/2+x,1/2+y,z
1/2-x,1/2+y,-z
1/2-x,1/2-y,-z
1/2+x,1/2-y,z
loop_
_atom_site_type_symbol
_atom_site_label
_atom_site_fract_x
_atom_site_fract_y
_atom_site_fract_z
Si Si1 0.854435 0.267800 0.890515
Si Si2 0.031049 0.571488 0.641772
Si Si3 0.598649 0.642594 0.010049
Si Si4 0.714138 0.570142 0.185116
Si Si5 0.294865 0.840716 0.373741
Si Si6 0.733164 0.701471 0.707927
Si Si7 0.910138 0.403149 0.951150
O O1 0.831690 0.285330 0.741158
O O2 0.892696 0.328580 0.949798
O O3 0.750000 0.250000 0.000000
O O4 0.916315 0.207533 0.895140
O O5 0.069469 0.500000 0.627831
O O6 0.108191 0.620385 0.660508
O O7 0.000000 0.586289 0.500000
O O8 0.938302 0.574380 0.783412
O O9 0.667944 0.661201 0.846098
O O10 0.500000 0.619510 0.000000
O O11 0.646798 0.595949 0.096253
O O12 0.688363 0.500000 0.244852
O O13 0.726278 0.619829 0.305519
O O14 0.817019 0.568723 0.062731
O O15 0.309007 0.770856 0.303006
O O16 0.252169 0.831465 0.550222
O O17 0.000000 0.418470 0.000000
#
# Coordination Sequence:
#
# PCOD9176932 Si02
#       7
#     8   8   8   8   8   8   8
#     4  10  18  36  62  92 124 158 201 256 310 366
#     4  11  25  39  55  89 134 170 204 243 303 391
#     4  11  23  41  67  94 119 160 216 272 319 366
#     4  12  24  42  65  90 127 170 213 260 311 377
#     4  11  22  40  60  91 130 167 206 255 317 381
#     4  10  21  40  65  91 126 160 208 264 321 374
#     4  12  22  36  63  94 126 163 205 249 307 370
#
# _framework density 19.472555
#
# number of rings (size 3 to 8) (size 9 to 14) (size 15 to 20)
#    0.000    1.000    5.714    3.000    2.000    0.857 
#    0.000    1.429    0.000    0.857    0.000    0.000 
#    0.000    0.000    0.000    0.000    0.000    0.000 
#
# Total GULP energy -156406.697168 kJ/mol
# GULP energy per Si atom -5585.953470 kJ/mol
# Density = 1.942824 g / cm^3
# Si number density = 19.472555 Si / 1000 Ang^3
#
#
#
# Elastic Constant Matrix: (Units=GPa)
#
#
# Indices 1 2 3 4 5 6 
#
# 1 67.1625 17.8149 20.5085 0.0000 22.2533 0.0000
# 2 17.8149 86.9065 18.0222 0.0000 5.3511 0.0000
# 3 20.5085 18.0222 131.0952 0.0000 11.8525 0.0000
# 4 0.0000 0.0000 0.0000 5.0267 0.0000 -9.3809
# 5 22.2533 5.3511 11.8525 0.0000 21.4331 0.0000
# 6 0.0000 0.0000 0.0000 -9.3809 0.0000 3.5136
#
#
#
# Elastic Compliance Matrix: (Units=1/GPa)
#
#
# Indices 1 2 3 4 5 6 
#
# 1 0.023809 -0.003203 -0.001181 0.000000 -0.023267 0.000000
# 2 -0.003203 0.012371 -0.001285 0.000000 0.000948 0.000000
# 3 -0.001181 -0.001285 0.008263 0.000000 -0.003023 0.000000
# 4 0.000000 0.000000 0.000000 -0.049953 0.000000 -0.133367
# 5 -0.023267 0.000948 -0.003023 0.000000 0.072249 0.000000
# 6 0.000000 0.000000 0.000000 -0.133367 0.000000 -0.071464
#
#
# Mechanical properties :
#
#
# Convention : Reuss Voigt Hill
#
# Bulk Modulus (GPa) = 30.20725 44.20615 37.20670
# Shear Modulus (GPa) = 283.31321 21.24924 152.28123
#
# Velocity S-wave (km/s) = 12.07516 3.30698 8.85284
# Velocity P-wave (km/s) = 14.48996 6.11003 11.11961
#
# Compressibility (1/GPa) = 0.03310464
#
# Stress axis : x y z
#
# Youngs Moduli (GPa) = 42.00153 80.83151 121.02552
#
# Poissons Ratio (x) = 0.25891 0.14289
# Poissons Ratio (y) = 0.13453 0.15556
# Poissons Ratio (z) = 0.04959 0.10390
#
# Static dielectric constant tensor:
#      x y z
#    x 1.672670 0.000000 0.010120 
#    y 0.000000 1.729070 0.000000 
#    z 0.010120 0.000000 1.716280 
# 
# From -- ./inp_files/64110.got.cif
#   From: 2010.05.17/outbox.cif.g08.bks.cpg/sg12_33_cif.got.tgz:64110.got - 2010.06.03 13:09:07.
