data_PCOD9176207
_publ_section_title
;
Structure prediction by ZEFSAII (Michael W. Deem and Ramdas Pophale) SiO2 
 PCOD9176207
Probable space group: C 2/M
;
_chemical_formula_sum "Si O2"
_cell_formula_units_Z 48
_cell_length_a 9.992535
_cell_length_b 15.208827
_cell_length_c 17.232590
_cell_angle_alpha 90.000000
_cell_angle_beta 112.400422
_cell_angle_gamma 90.000000
_cell_volume 2421.303192
_symmetry_space_group_name_H-M "C 2/M"
_symmetry_group_IT_number 12
_symmetry_cell_setting 'monoclinic'
loop_
_space_group_symop_operation_xyz
x,y,z
-x,y,-z
-x,-y,-z
x,-y,z
1/2+x,1/2+y,z
1/2-x,1/2+y,-z
1/2-x,1/2-y,-z
1/2+x,1/2-y,z
loop_
_atom_site_type_symbol
_atom_site_label
_atom_site_fract_x
_atom_site_fract_y
_atom_site_fract_z
Si Si1 0.828261 0.695323 0.449124
Si Si2 0.859107 0.670173 0.023961
Si Si3 0.043988 0.500000 0.319659
Si Si4 0.301693 0.500000 0.258984
Si Si5 0.192739 0.193919 0.713923
Si Si6 0.668384 0.000000 0.515588
Si Si7 0.323804 0.000000 0.941431
Si Si8 0.966623 0.666253 0.219228
O O1 0.750000 0.750000 0.500000
O O2 0.817167 0.752417 0.368610
O O3 0.771537 0.593519 0.439949
O O4 0.000000 0.688567 0.500000
O O5 0.903139 0.644010 0.121091
O O6 0.750000 0.750000 0.000000
O O7 0.774145 0.588789 0.969102
O O8 0.000000 0.687343 0.000000
O O9 0.154942 0.500000 0.274515
O O10 0.147217 0.500000 0.417679
O O11 0.956691 0.589434 0.283125
O O12 0.370993 0.594180 0.296919
O O13 0.240951 0.500000 0.158449
O O14 0.114729 0.250405 0.762652
O O15 0.365438 0.185762 0.761732
O O16 0.500000 0.000000 0.500000
O O17 0.500000 0.000000 0.000000
#
# Coordination Sequence:
#
# PCOD9176207 Si02
#       8
#     8   8   4   4   8   4   4   8
#     4  11  22  39  60  85 114 151 191 234 283 337
#     4  11  21  36  58  85 114 148 187 233 281 333
#     4  10  18  34  59  81 105 144 192 234 271 327
#     4  10  20  36  55  80 111 149 186 228 278 333
#     4  11  22  38  59  83 114 151 189 233 281 336
#     4  10  20  36  56  81 112 148 186 234 284 331
#     4  10  18  34  57  82 108 145 191 232 271 329
#     4  11  21  37  58  86 113 146 189 234 280 334
#
# _framework density 19.824034999999999
#
# number of rings (size 3 to 8) (size 9 to 14) (size 15 to 20)
#    0.000    1.333    0.000   11.500    0.000    0.000 
#    0.000    5.417    0.000    0.000    0.000    0.000 
#    0.000    0.000    0.000    0.000    0.000    0.000 
#
# Total GULP energy -133713.873615 kJ/mol
# GULP energy per Si atom -5571.411401 kJ/mol
# Density = 1.977891 g / cm^3
# Si number density = 19.824035 Si / 1000 Ang^3
#
#
#
# Elastic Constant Matrix: (Units=GPa)
#
#
# Indices 1 2 3 4 5 6 
#
# 1 50.1651 22.9155 -15.6375 0.0000 -15.7144 0.0000
# 2 22.9155 170.8175 27.5521 0.0000 -21.6880 0.0000
# 3 -15.6375 27.5521 93.1960 0.0000 -20.0745 0.0000
# 4 0.0000 0.0000 0.0000 29.1222 0.0000 -5.2877
# 5 -15.7144 -21.6880 -20.0745 0.0000 26.6951 0.0000
# 6 0.0000 0.0000 0.0000 -5.2877 0.0000 29.2463
#
#
#
# Elastic Compliance Matrix: (Units=1/GPa)
#
#
# Indices 1 2 3 4 5 6 
#
# 1 0.033387 -0.003106 0.012184 0.000000 0.026292 0.000000
# 2 -0.003106 0.006886 -0.002083 0.000000 0.002200 0.000000
# 3 0.012184 -0.002083 0.017387 0.000000 0.018554 0.000000
# 4 0.000000 0.000000 0.000000 0.035504 0.000000 0.006419
# 5 0.026292 0.002200 0.018554 0.000000 0.068677 0.000000
# 6 0.000000 0.000000 0.000000 0.006419 0.000000 0.035353
#
#
# Mechanical properties :
#
#
# Convention : Reuss Voigt Hill
#
# Bulk Modulus (GPa) = 13.95688 42.64874 28.30281
# Shear Modulus (GPa) = 24.14440 35.63595 29.89017
#
# Velocity S-wave (km/s) = 3.49368 4.24443 3.88722
# Velocity P-wave (km/s) = 4.83012 6.75134 5.86986
#
# Compressibility (1/GPa) = 0.07164927
#
# Stress axis : x y z
#
# Youngs Moduli (GPa) = 29.95182 145.21909 57.51471
#
# Poissons Ratio (x) = 0.45103 -0.70074
# Poissons Ratio (y) = 0.09303 0.11981
# Poissons Ratio (z) = -0.36492 0.30251
#
# Static dielectric constant tensor:
#      x y z
#    x 1.677500 0.000000 0.032200 
#    y 0.000000 1.875250 0.000000 
#    z 0.032200 0.000000 1.825410 
# 
# From -- ./inp_files/262214.got.cif
#   From: 2010.05.17/outbox.cif.g08.bks.cpg/sg12_132_cif.got.tgz:262214.got - 2010.06.03 13:09:07.
