data_PCOD9176898
_publ_section_title
;
Structure prediction by ZEFSAII (Michael W. Deem and Ramdas Pophale) SiO2 
 PCOD9176898
Probable space group: C 2/M
;
_chemical_formula_sum "Si O2"
_cell_formula_units_Z 46
_cell_length_a 23.767295
_cell_length_b 14.430626
_cell_length_c 6.871440
_cell_angle_alpha 90.000000
_cell_angle_beta 52.941240
_cell_angle_gamma 90.000000
_cell_volume 1880.725084
_symmetry_space_group_name_H-M "C 2/M"
_symmetry_group_IT_number 12
_symmetry_cell_setting 'monoclinic'
loop_
_space_group_symop_operation_xyz
x,y,z
-x,y,-z
-x,-y,-z
x,-y,z
1/2+x,1/2+y,z
1/2-x,1/2+y,-z
1/2-x,1/2-y,-z
1/2+x,1/2-y,z
loop_
_atom_site_type_symbol
_atom_site_label
_atom_site_fract_x
_atom_site_fract_y
_atom_site_fract_z
Si Si1 0.161346 0.202828 0.288831
Si Si2 0.264641 0.500000 0.406502
Si Si3 0.023124 0.105379 0.679952
Si Si4 0.134514 0.625809 0.799198
Si Si5 0.371893 0.666344 0.098266
Si Si6 0.303015 0.894806 0.927260
Si Si7 0.500000 0.000000 0.000000
O O1 0.092957 0.167066 0.541851
O O2 0.230669 0.140403 0.179669
O O3 0.146821 0.183855 0.090273
O O4 0.177055 0.312637 0.261920
O O5 0.202768 0.578406 0.568878
O O6 0.324532 0.581351 0.259899
O O7 0.000000 0.104605 0.500000
O O8 0.040413 0.000000 0.697306
O O9 0.954147 0.141086 0.932066
O O10 0.140943 0.735864 0.772809
O O11 0.138938 0.603127 0.023798
O O12 0.062845 0.580666 0.870552
O O13 0.292003 0.000000 0.870712
#
# Coordination Sequence:
#
# PCOD9176898 Si02
#       7
#     8   4   8   8   8   8   2
#     4   9  20  32  59  93 127 157 196 251 321 375
#     4  11  20  37  60  92 118 168 206 256 302 355
#     4   9  16  31  55  87 125 160 190 239 309 372
#     4  10  22  40  65  86 120 166 211 261 308 357
#     4  10  20  36  62  95 123 159 209 253 303 381
#     4  10  18  36  60  91 125 159 201 257 311 373
#     4  10  20  44  66  80 110 178 206 252 312 352
#
# _framework density 24.458649999999999
#
# number of rings (size 3 to 8) (size 9 to 14) (size 15 to 20)
#    0.000    2.261    2.609    1.043    2.435    0.000 
#    0.000   12.174    3.826    4.174    0.000    0.000 
#    0.000    0.000    0.000    0.000    0.000    0.000 
#
# Total GULP energy -128073.206028 kJ/mol
# GULP energy per Si atom -5568.400262 kJ/mol
# Density = 2.440298 g / cm^3
# Si number density = 24.458650 Si / 1000 Ang^3
#
#
#
# Elastic Constant Matrix: (Units=GPa)
#
#
# Indices 1 2 3 4 5 6 
#
# 1 86.6218 51.9409 51.0997 0.0000 -18.9430 0.0000
# 2 51.9409 314.5789 133.7218 0.0000 -43.2130 0.0000
# 3 51.0997 133.7218 171.0462 0.0000 -54.7695 0.0000
# 4 0.0000 0.0000 0.0000 25.6092 0.0000 0.3366
# 5 -18.9430 -43.2130 -54.7695 0.0000 53.8027 0.0000
# 6 0.0000 0.0000 0.0000 0.3366 0.0000 7.0884
#
#
#
# Elastic Compliance Matrix: (Units=1/GPa)
#
#
# Indices 1 2 3 4 5 6 
#
# 1 0.014186 -0.000808 -0.003286 0.000000 0.001001 0.000000
# 2 -0.000808 0.004807 -0.003518 0.000000 -0.000005 0.000000
# 3 -0.003286 -0.003518 0.012319 0.000000 0.008557 0.000000
# 4 0.000000 0.000000 0.000000 0.039073 0.000000 -0.001855
# 5 0.001001 -0.000005 0.008557 0.000000 0.027646 0.000000
# 6 0.000000 0.000000 0.000000 -0.001855 0.000000 0.141163
#
#
# Mechanical properties :
#
#
# Convention : Reuss Voigt Hill
#
# Bulk Modulus (GPa) = 62.16072 116.19685 89.17879
# Shear Modulus (GPa) = 19.24695 39.66570 29.45632
#
# Velocity S-wave (km/s) = 2.80825 4.03146 3.47411
# Velocity P-wave (km/s) = 5.99873 8.32351 7.25485
#
# Compressibility (1/GPa) = 0.01608733
#
# Stress axis : x y z
#
# Youngs Moduli (GPa) = 70.49082 208.02156 81.17682
#
# Poissons Ratio (x) = 0.16810 0.26674
# Poissons Ratio (y) = 0.05696 0.28562
# Poissons Ratio (z) = 0.23163 0.73191
#
# Static dielectric constant tensor:
#      x y z
#    x 2.067110 0.000000 0.140280 
#    y 0.000000 1.851630 0.000000 
#    z 0.140280 0.000000 1.923270 
# 
# From -- ./inp_files/104989.got.cif
#   From: 2010.05.17/outbox.cif.g08.bks.cpg/sg12_53_cif.got.tgz:104989.got - 2010.06.03 13:09:07.
