data_PCOD9176561
_publ_section_title
;
Structure prediction by ZEFSAII (Michael W. Deem and Ramdas Pophale) SiO2 
 PCOD9176561
Probable space group: C 2/M
;
_chemical_formula_sum "Si O2"
_cell_formula_units_Z 58
_cell_length_a 9.269722
_cell_length_b 21.956059
_cell_length_c 16.679000
_cell_angle_alpha 90.000000
_cell_angle_beta 72.717643
_cell_angle_gamma 90.000000
_cell_volume 3241.360365
_symmetry_space_group_name_H-M "C 2/M"
_symmetry_group_IT_number 12
_symmetry_cell_setting 'monoclinic'
loop_
_space_group_symop_operation_xyz
x,y,z
-x,y,-z
-x,-y,-z
x,-y,z
1/2+x,1/2+y,z
1/2-x,1/2+y,-z
1/2-x,1/2-y,-z
1/2+x,1/2-y,z
loop_
_atom_site_type_symbol
_atom_site_label
_atom_site_fract_x
_atom_site_fract_y
_atom_site_fract_z
Si Si1 0.311412 0.753925 0.834117
Si Si2 0.500000 0.000000 0.500000
Si Si3 0.959769 0.145551 0.722624
Si Si4 0.521729 0.170485 0.905308
Si Si5 0.650505 0.704704 0.425866
Si Si6 0.898455 0.391100 0.404275
Si Si7 0.285054 0.823746 0.670065
Si Si8 0.328580 0.070769 0.232375
O O1 0.426639 0.699059 0.792377
O O2 0.375920 0.795838 0.893459
O O3 0.155941 0.720263 0.879369
O O4 0.297513 0.794804 0.756621
O O5 0.588179 0.053441 0.537365
O O6 0.905826 0.173986 0.647353
O O7 0.845698 0.089960 0.755460
O O8 0.137658 0.133936 0.690602
O O9 0.571653 0.115528 0.839069
O O10 0.500000 0.150374 0.000000
O O11 0.500000 0.717778 0.500000
O O12 0.766938 0.657370 0.446033
O O13 0.735027 0.766414 0.386357
O O14 0.865704 0.414710 0.319213
O O15 0.059322 0.356907 0.375457
O O16 0.354456 0.000000 0.212051
#
# Coordination Sequence:
#
# PCOD9176561 Si02
#       8
#     8   2   8   8   8   8   8   8
#     4  10  18  35  56  88 126 148 186 236 296 366
#     4  12  28  44  58  84 118 156 216 252 286 332
#     4   9  20  34  57  82 109 156 192 232 293 356
#     4  11  21  34  60  93 123 157 190 241 301 354
#     4  10  22  36  56  88 120 146 187 245 309 357
#     4  11  24  42  60  83 118 159 198 248 296 350
#     4  11  20  36  62  87 116 152 195 238 306 367
#     4  10  21  43  60  77 116 161 205 242 283 346
#
# _framework density 17.893720999999999
#
# number of rings (size 3 to 8) (size 9 to 14) (size 15 to 20)
#    0.000    1.655    3.448    2.897    2.897    1.379 
#    1.241    0.345    0.000    0.000    0.000    0.966 
#    0.000    0.000    0.000    0.000    0.000    0.000 
#
# Total GULP energy -161681.822753 kJ/mol
# GULP energy per Si atom -5575.235267 kJ/mol
# Density = 1.785299 g / cm^3
# Si number density = 17.893721 Si / 1000 Ang^3
#
#
#
# Elastic Constant Matrix: (Units=GPa)
#
#
# Indices 1 2 3 4 5 6 
#
# 1 85.8803 40.4806 7.2688 0.0000 3.2096 0.0000
# 2 40.4806 86.8315 20.3922 0.0000 14.5044 0.0000
# 3 7.2688 20.3922 57.1416 0.0000 16.5842 0.0000
# 4 0.0000 0.0000 0.0000 11.6308 0.0000 11.0095
# 5 3.2096 14.5044 16.5842 0.0000 22.0868 0.0000
# 6 0.0000 0.0000 0.0000 11.0095 0.0000 22.6628
#
#
#
# Elastic Compliance Matrix: (Units=1/GPa)
#
#
# Indices 1 2 3 4 5 6 
#
# 1 0.015068 -0.007473 -0.000049 0.000000 0.002755 0.000000
# 2 -0.007473 0.016989 -0.002800 0.000000 -0.007969 0.000000
# 3 -0.000049 -0.002800 0.022977 0.000000 -0.015407 0.000000
# 4 0.000000 0.000000 0.000000 0.159173 0.000000 -0.077326
# 5 0.002755 -0.007969 -0.015407 0.000000 0.061677 0.000000
# 6 0.000000 0.000000 0.000000 -0.077326 0.000000 0.081690
#
#
# Mechanical properties :
#
#
# Convention : Reuss Voigt Hill
#
# Bulk Modulus (GPa) = 29.07811 40.68185 34.87998
# Shear Modulus (GPa) = 12.83096 22.05690 17.44393
#
# Velocity S-wave (km/s) = 2.68071 3.51474 3.12567
# Velocity P-wave (km/s) = 5.08600 6.26544 5.70627
#
# Compressibility (1/GPa) = 0.03439013
#
# Stress axis : x y z
#
# Youngs Moduli (GPa) = 66.36625 58.86127 43.52105
#
# Poissons Ratio (x) = 0.43988 0.00215
# Poissons Ratio (y) = 0.49597 0.12184
# Poissons Ratio (z) = 0.00328 0.16478
#
# Static dielectric constant tensor:
#      x y z
#    x 1.617820 0.000000 0.003040 
#    y 0.000000 1.577820 0.000000 
#    z 0.003040 0.000000 1.624580 
# 
# From -- ./inp_files/198484.got.cif
#   From: 2010.05.17/outbox.cif.g08.bks.cpg/sg12_100_cif.got.tgz:198484.got - 2010.06.03 13:09:07.
