data_PCOD9176020
_publ_section_title
;
Structure prediction by ZEFSAII (Michael W. Deem and Ramdas Pophale) SiO2 
 PCOD9176020
Probable space group: C 2/M
;
_chemical_formula_sum "Si O2"
_cell_formula_units_Z 36
_cell_length_a 19.813404
_cell_length_b 20.203612
_cell_length_c 5.527020
_cell_angle_alpha 90.000000
_cell_angle_beta 56.754152
_cell_angle_gamma 90.000000
_cell_volume 1850.353432
_symmetry_space_group_name_H-M "C 2/M"
_symmetry_group_IT_number 12
_symmetry_cell_setting 'monoclinic'
loop_
_space_group_symop_operation_xyz
x,y,z
-x,y,-z
-x,-y,-z
x,-y,z
1/2+x,1/2+y,z
1/2-x,1/2+y,-z
1/2-x,1/2-y,-z
1/2+x,1/2-y,z
loop_
_atom_site_type_symbol
_atom_site_label
_atom_site_fract_x
_atom_site_fract_y
_atom_site_fract_z
Si Si1 0.239502 0.500000 0.600068
Si Si2 0.396483 0.631676 0.587327
Si Si3 0.500000 0.312939 0.000000
Si Si4 0.658478 0.732914 0.926179
Si Si5 0.661183 0.500000 0.092343
Si Si6 0.237702 0.357950 0.594393
O O1 0.272781 0.500000 0.814587
O O2 0.196050 0.429003 0.644197
O O3 0.302827 0.500000 0.248653
O O4 0.476874 0.642590 0.275880
O O5 0.389377 0.566760 0.765278
O O6 0.323848 0.623036 0.539104
O O7 0.373884 0.699275 0.768834
O O8 0.580817 0.272350 0.901445
O O9 0.733332 0.686410 0.690398
O O10 0.689827 0.807455 0.859696
#
# Coordination Sequence:
#
# PCOD9176020 Si02
#       6
#     4   8   4   8   4   8
#     4  10  18  36  52  87 108 141 171 230 275 323
#     4  10  19  34  52  75 108 143 177 220 265 317
#     4  10  22  33  48  75 108 144 182 218 262 319
#     4  10  18  34  51  77 103 141 177 223 263 320
#     4  10  20  33  57  77 116 140 180 218 269 322
#     4   9  19  31  56  77 104 132 183 219 274 312
#
# _framework density 19.455742000000001
#
# number of rings (size 3 to 8) (size 9 to 14) (size 15 to 20)
#    0.000    2.222    2.222    1.333    0.000    0.444 
#    0.000    3.333    0.000    0.667    0.000    3.111 
#    0.000    0.000    0.000    0.000    0.000    0.000 
#
# Total GULP energy -100205.988644 kJ/mol
# GULP energy per Si atom -5566.999369 kJ/mol
# Density = 1.941146 g / cm^3
# Si number density = 19.455742 Si / 1000 Ang^3
#
#
#
# Elastic Constant Matrix: (Units=GPa)
#
#
# Indices 1 2 3 4 5 6 
#
# 1 28.7952 -1.4362 -1.0155 0.0000 0.7262 0.0000
# 2 -1.4362 163.3558 48.6291 0.0000 -6.2964 0.0000
# 3 -1.0155 48.6291 104.2443 0.0000 10.0125 0.0000
# 4 0.0000 0.0000 0.0000 22.8928 0.0000 1.0003
# 5 0.7262 -6.2964 10.0125 0.0000 19.4226 0.0000
# 6 0.0000 0.0000 0.0000 1.0003 0.0000 14.1392
#
#
#
# Elastic Compliance Matrix: (Units=1/GPa)
#
#
# Indices 1 2 3 4 5 6 
#
# 1 0.034786 0.000123 0.000424 0.000000 -0.001479 0.000000
# 2 0.000123 0.007454 -0.003901 0.000000 0.004423 0.000000
# 3 0.000424 -0.003901 0.012141 0.000000 -0.007539 0.000000
# 4 0.000000 0.000000 0.000000 0.043817 0.000000 -0.003100
# 5 -0.001479 0.004423 -0.007539 0.000000 0.056862 0.000000
# 6 0.000000 0.000000 0.000000 -0.003100 0.000000 0.070944
#
#
# Mechanical properties :
#
#
# Convention : Reuss Voigt Hill
#
# Bulk Modulus (GPa) = 20.97645 43.19446 32.08545
# Shear Modulus (GPa) = 20.11215 27.97211 24.04213
#
# Velocity S-wave (km/s) = 3.21867 3.79586 3.51912
# Velocity P-wave (km/s) = 4.96167 6.43902 5.74800
#
# Compressibility (1/GPa) = 0.04767251
#
# Stress axis : x y z
#
# Youngs Moduli (GPa) = 28.74683 134.14771 82.36597
#
# Poissons Ratio (x) = -0.01646 -0.03490
# Poissons Ratio (y) = -0.00353 0.32132
# Poissons Ratio (z) = -0.01218 0.52332
#
# Static dielectric constant tensor:
#      x y z
#    x 1.757510 0.000000 0.042830 
#    y 0.000000 1.740250 0.000000 
#    z 0.042830 0.000000 1.708710 
# 
# From -- ./inp_files/10758.got.cif
#   From: 2010.05.17/outbox.cif.g08.bks.cpg/sg12_6_cif.got.tgz:10758.got - 2010.06.03 13:09:07.
