data_PCOD9176280
_publ_section_title
;
Structure prediction by ZEFSAII (Michael W. Deem and Ramdas Pophale) SiO2 
 PCOD9176280
Probable space group: C 2/M
;
_chemical_formula_sum "Si O2"
_cell_formula_units_Z 56
_cell_length_a 25.504834
_cell_length_b 8.743252
_cell_length_c 11.691761
_cell_angle_alpha 90.000000
_cell_angle_beta 102.381505
_cell_angle_gamma 90.000000
_cell_volume 2546.566878
_symmetry_space_group_name_H-M "C 2/M"
_symmetry_group_IT_number 12
_symmetry_cell_setting 'monoclinic'
loop_
_space_group_symop_operation_xyz
x,y,z
-x,y,-z
-x,-y,-z
x,-y,z
1/2+x,1/2+y,z
1/2-x,1/2+y,-z
1/2-x,1/2-y,-z
1/2+x,1/2-y,z
loop_
_atom_site_type_symbol
_atom_site_label
_atom_site_fract_x
_atom_site_fract_y
_atom_site_fract_z
Si Si1 0.534385 0.824420 0.354799
Si Si2 0.684594 0.316281 0.644356
Si Si3 0.631736 0.674775 0.982201
Si Si4 0.915135 0.317629 0.271676
Si Si5 0.203750 0.318074 0.195331
Si Si6 0.853838 0.179917 0.614228
Si Si7 0.554265 0.834515 0.095375
O O1 0.473755 0.765657 0.346409
O O2 0.587210 0.726496 0.405508
O O3 0.538442 0.829225 0.218959
O O4 0.540109 0.000000 0.401032
O O5 0.678473 0.500000 0.656628
O O6 0.632770 0.232534 0.669169
O O7 0.737524 0.264340 0.736518
O O8 0.686445 0.288440 0.509464
O O9 0.642473 0.500000 0.958444
O O10 0.603378 0.753783 0.860600
O O11 0.683778 0.750165 0.065445
O O12 0.588955 0.696131 0.064604
O O13 0.919780 0.500000 0.264341
O O14 0.205690 0.500000 0.188142
O O15 0.163970 0.272078 0.281530
O O16 0.853237 0.000000 0.640875
O O17 0.582236 0.000000 0.086502
O O18 0.500000 0.835405 0.000000
#
# Coordination Sequence:
#
# PCOD9176280 Si02
#       7
#     8   8   8   8   8   8   8
#     4  10  21  37  61  92 126 163 203 247 301 366
#     4  10  25  46  64  88 123 164 208 257 308 360
#     4  12  24  37  60  94 128 158 200 253 310 367
#     4  11  24  43  65  90 124 168 210 247 297 369
#     4  11  23  42  67  91 122 162 206 255 308 365
#     4  11  23  40  65  96 126 156 202 260 313 359
#     4  10  18  34  58  85 123 162 200 247 302 364
#
# _framework density 21.990390000000001
#
# number of rings (size 3 to 8) (size 9 to 14) (size 15 to 20)
#    0.000    1.286    2.857    3.000    0.000    4.857 
#    0.000    2.857    0.000    0.000    0.000    0.000 
#    0.000    0.000    0.000    0.000    0.000    0.000 
#
# Total GULP energy -156425.149890 kJ/mol
# GULP energy per Si atom -5586.612496 kJ/mol
# Density = 2.194034 g / cm^3
# Si number density = 21.990390 Si / 1000 Ang^3
#
#
#
# Elastic Constant Matrix: (Units=GPa)
#
#
# Indices 1 2 3 4 5 6 
#
# 1 89.2420 11.3515 12.8438 0.0000 19.8457 0.0000
# 2 11.3515 48.5168 17.9526 0.0000 8.0738 0.0000
# 3 12.8438 17.9526 45.0534 0.0000 20.6053 0.0000
# 4 0.0000 0.0000 0.0000 26.4138 0.0000 -0.0251
# 5 19.8457 8.0738 20.6053 0.0000 39.4052 0.0000
# 6 0.0000 0.0000 0.0000 -0.0251 0.0000 26.5195
#
#
#
# Elastic Compliance Matrix: (Units=1/GPa)
#
#
# Indices 1 2 3 4 5 6 
#
# 1 0.012802 -0.001949 -0.000140 0.000000 -0.005975 0.000000
# 2 -0.001949 0.024473 -0.009663 0.000000 0.001020 0.000000
# 3 -0.000140 -0.009663 0.033053 0.000000 -0.015233 0.000000
# 4 0.000000 0.000000 0.000000 0.037859 0.000000 0.000036
# 5 -0.005975 0.001020 -0.015233 0.000000 0.036143 0.000000
# 6 0.000000 0.000000 0.000000 0.000036 0.000000 0.037708
#
#
# Mechanical properties :
#
#
# Convention : Reuss Voigt Hill
#
# Bulk Modulus (GPa) = 21.35649 29.67868 25.51759
# Shear Modulus (GPa) = 22.60890 27.84532 25.22711
#
# Velocity S-wave (km/s) = 3.20992 3.56230 3.39069
# Velocity P-wave (km/s) = 4.84468 5.51774 5.19213
#
# Compressibility (1/GPa) = 0.04682417
#
# Stress axis : x y z
#
# Youngs Moduli (GPa) = 78.11095 40.86102 30.25415
#
# Poissons Ratio (x) = 0.07964 0.00425
# Poissons Ratio (y) = 0.15225 0.29234
# Poissons Ratio (z) = 0.01097 0.39483
#
# Static dielectric constant tensor:
#      x y z
#    x 1.834760 0.000000 0.030570 
#    y 0.000000 1.773300 0.000000 
#    z 0.030570 0.000000 1.834410 
# 
# From -- ./inp_files/181131.got.cif
#   From: 2010.05.17/outbox.cif.g08.bks.cpg/sg12_91_cif.got.tgz:181131.got - 2010.06.03 13:09:07.
