data_PCOD9176977
_publ_section_title
;
Structure prediction by ZEFSAII (Michael W. Deem and Ramdas Pophale) SiO2 
 PCOD9176977
Probable space group: C 2/M
;
_chemical_formula_sum "Si O2"
_cell_formula_units_Z 56
_cell_length_a 12.890174
_cell_length_b 32.170038
_cell_length_c 9.205173
_cell_angle_alpha 90.000000
_cell_angle_beta 130.602822
_cell_angle_gamma 90.000000
_cell_volume 2898.150685
_symmetry_space_group_name_H-M "C 2/M"
_symmetry_group_IT_number 12
_symmetry_cell_setting 'monoclinic'
loop_
_space_group_symop_operation_xyz
x,y,z
-x,y,-z
-x,-y,-z
x,-y,z
1/2+x,1/2+y,z
1/2-x,1/2+y,-z
1/2-x,1/2-y,-z
1/2+x,1/2-y,z
loop_
_atom_site_type_symbol
_atom_site_label
_atom_site_fract_x
_atom_site_fract_y
_atom_site_fract_z
Si Si1 0.779363 0.580361 0.055143
Si Si2 0.911147 0.500000 0.564250
Si Si3 0.128430 0.500000 0.005275
Si Si4 0.405506 0.294221 0.553836
Si Si5 0.768800 0.075470 0.651260
Si Si6 0.413717 0.215865 0.774906
Si Si7 0.011959 0.871720 0.837518
Si Si8 0.966020 0.636948 0.632570
O O1 0.787353 0.543349 0.942579
O O2 0.740892 0.565827 0.184785
O O3 0.926044 0.602623 0.211931
O O4 0.663988 0.615696 0.925552
O O5 0.811938 0.538529 0.495314
O O6 0.000000 0.500000 0.500000
O O7 0.037455 0.500000 0.781901
O O8 0.000000 0.500000 0.000000
O O9 0.500000 0.289890 0.500000
O O10 0.426155 0.255953 0.683209
O O11 0.248430 0.292747 0.356872
O O12 0.448381 0.335650 0.681031
O O13 0.921362 0.086278 0.745698
O O14 0.680712 0.115765 0.526265
O O15 0.468234 0.175354 0.741493
O O16 0.500000 0.221907 0.000000
O O17 0.000000 0.860287 0.000000
O O18 0.000000 0.650972 0.500000
#
# Coordination Sequence:
#
# PCOD9176977 Si02
#       8
#     8   4   4   8   8   8   8   8
#     4  10  21  37  63  92 125 164 209 259 313 376
#     4  12  18  37  65  87 119 165 214 265 311 359
#     4  12  24  39  57  91 129 165 216 269 309 361
#     4  11  25  46  64  92 133 168 203 262 316 370
#     4  10  18  36  65  92 119 159 211 260 310 373
#     4  11  25  43  67  95 125 166 217 253 309 378
#     4  10  22  41  65  95 128 165 204 258 325 380
#     4  10  19  37  64  94 121 161 212 261 306 369
#
# _framework density 19.322666999999999
#
# number of rings (size 3 to 8) (size 9 to 14) (size 15 to 20)
#    0.000    1.429    4.286    1.286    2.000    1.714 
#    2.571    2.143    0.000    0.857    0.000    0.000 
#    0.000    0.000    0.000    0.000    0.000    0.000 
#
# Total GULP energy -155998.039875 kJ/mol
# GULP energy per Si atom -5571.358567 kJ/mol
# Density = 1.927869 g / cm^3
# Si number density = 19.322667 Si / 1000 Ang^3
#
#
#
# Elastic Constant Matrix: (Units=GPa)
#
#
# Indices 1 2 3 4 5 6 
#
# 1 93.4482 41.4855 39.4717 0.0000 2.1982 0.0000
# 2 41.4855 74.6519 27.0354 0.0000 -5.0619 0.0000
# 3 39.4717 27.0354 92.4587 0.0000 7.0857 0.0000
# 4 0.0000 0.0000 0.0000 31.0556 0.0000 -2.3434
# 5 2.1982 -5.0619 7.0857 0.0000 19.2692 0.0000
# 6 0.0000 0.0000 0.0000 -2.3434 0.0000 19.4486
#
#
#
# Elastic Compliance Matrix: (Units=1/GPa)
#
#
# Indices 1 2 3 4 5 6 
#
# 1 0.015911 -0.007363 -0.004479 0.000000 -0.002102 0.000000
# 2 -0.007363 0.019025 -0.002950 0.000000 0.006923 0.000000
# 3 -0.004479 -0.002950 0.014005 0.000000 -0.005414 0.000000
# 4 0.000000 0.000000 0.000000 0.032496 0.000000 0.003916
# 5 -0.002102 0.006923 -0.005414 0.000000 0.055946 0.000000
# 6 0.000000 0.000000 0.000000 0.003916 0.000000 0.051889
#
#
# Mechanical properties :
#
#
# Convention : Reuss Voigt Hill
#
# Bulk Modulus (GPa) = 51.65819 52.94933 52.30376
# Shear Modulus (GPa) = 22.19190 24.12575 23.15883
#
# Velocity S-wave (km/s) = 3.39262 3.53735 3.46574
# Velocity P-wave (km/s) = 6.49146 6.64424 6.56829
#
# Compressibility (1/GPa) = 0.01935802
#
# Stress axis : x y z
#
# Youngs Moduli (GPa) = 62.85025 52.56264 71.40200
#
# Poissons Ratio (x) = 0.38700 0.31978
# Poissons Ratio (y) = 0.46274 0.21066
# Poissons Ratio (z) = 0.28148 0.15508
#
# Static dielectric constant tensor:
#      x y z
#    x 1.654660 0.000000 0.012860 
#    y 0.000000 1.682530 0.000000 
#    z 0.012860 0.000000 1.668540 
# 
# From -- ./inp_files/54866.got.cif
#   From: 2010.05.17/outbox.cif.g08.bks.cpg/sg12_28_cif.got.tgz:54866.got - 2010.06.03 13:09:07.
