data_PCOD9176271
_publ_section_title
;
Structure prediction by ZEFSAII (Michael W. Deem and Ramdas Pophale) SiO2 
 PCOD9176271
Probable space group: C 2/M
;
_chemical_formula_sum "Si O2"
_cell_formula_units_Z 48
_cell_length_a 27.769664
_cell_length_b 13.583631
_cell_length_c 9.528698
_cell_angle_alpha 90.000000
_cell_angle_beta 134.864783
_cell_angle_gamma 90.000000
_cell_volume 2547.578514
_symmetry_space_group_name_H-M "C 2/M"
_symmetry_group_IT_number 12
_symmetry_cell_setting 'monoclinic'
loop_
_space_group_symop_operation_xyz
x,y,z
-x,y,-z
-x,-y,-z
x,-y,z
1/2+x,1/2+y,z
1/2-x,1/2+y,-z
1/2-x,1/2-y,-z
1/2+x,1/2-y,z
loop_
_atom_site_type_symbol
_atom_site_label
_atom_site_fract_x
_atom_site_fract_y
_atom_site_fract_z
Si Si1 0.682978 0.112711 0.911861
Si Si2 0.322639 0.384556 0.527786
Si Si3 0.945312 0.114528 0.272289
Si Si4 0.570483 0.709558 0.060747
Si Si5 0.162247 0.813808 0.740981
Si Si6 0.334651 0.886675 0.796545
O O1 0.651516 0.198698 0.752964
O O2 0.678532 0.000000 0.851924
O O3 0.760631 0.148480 0.086726
O O4 0.655677 0.115458 0.014850
O O5 0.317874 0.500000 0.486045
O O6 0.373668 0.364792 0.759386
O O7 0.354575 0.334689 0.455167
O O8 0.243953 0.353336 0.391393
O O9 0.876812 0.125971 0.220345
O O10 0.000000 0.148170 0.500000
O O11 0.958726 0.000000 0.264692
O O12 0.943262 0.177990 0.127643
O O13 0.609659 0.813742 0.151145
O O14 0.500000 0.707554 0.000000
O O15 0.340919 0.000000 0.762052
#
# Coordination Sequence:
#
# PCOD9176271 Si02
#       6
#     8   8   8   8   8   8
#     4   9  17  32  59  87 112 144 185 239 290 337
#     4  10  21  38  61  88 121 155 190 241 304 355
#     4  11  23  38  57  83 115 151 195 240 291 352
#     4  12  24  38  58  87 120 159 199 241 293 351
#     4  10  18  34  58  85 113 145 186 234 288 344
#     4   9  19  39  62  85 117 157 197 241 295 349
#
# _framework density 18.841422000000001
#
# number of rings (size 3 to 8) (size 9 to 14) (size 15 to 20)
#    0.000    1.833    1.667    4.500    0.000    3.000 
#    0.000    0.833    0.000    4.000    0.000    0.000 
#    0.000    0.000    0.000    0.000    0.000    0.000 
#
# Total GULP energy -133827.935266 kJ/mol
# GULP energy per Si atom -5576.163969 kJ/mol
# Density = 1.879854 g / cm^3
# Si number density = 18.841422 Si / 1000 Ang^3
#
#
#
# Elastic Constant Matrix: (Units=GPa)
#
#
# Indices 1 2 3 4 5 6 
#
# 1 32.6823 2.9090 25.9638 0.0000 0.0690 0.0000
# 2 2.9090 84.8070 28.7338 0.0000 -1.7768 0.0000
# 3 25.9638 28.7338 81.7620 0.0000 -10.8195 0.0000
# 4 0.0000 0.0000 0.0000 29.6320 0.0000 2.4317
# 5 0.0690 -1.7768 -10.8195 0.0000 16.2453 0.0000
# 6 0.0000 0.0000 0.0000 2.4317 0.0000 34.5810
#
#
#
# Elastic Compliance Matrix: (Units=1/GPa)
#
#
# Indices 1 2 3 4 5 6 
#
# 1 0.043467 0.003910 -0.016609 0.000000 -0.010818 0.000000
# 2 0.003910 0.013787 -0.006458 0.000000 -0.002810 0.000000
# 3 -0.016609 -0.006458 0.021593 0.000000 0.013746 0.000000
# 4 0.000000 0.000000 0.000000 0.033943 0.000000 -0.002387
# 5 -0.010818 -0.002810 0.013746 0.000000 0.070449 0.000000
# 6 0.000000 0.000000 0.000000 -0.002387 0.000000 0.029085
#
#
# Mechanical properties :
#
#
# Convention : Reuss Voigt Hill
#
# Bulk Modulus (GPa) = 24.67185 34.94050 29.80618
# Shear Modulus (GPa) = 18.92859 25.53462 22.23160
#
# Velocity S-wave (km/s) = 3.17302 3.68535 3.43874
# Velocity P-wave (km/s) = 5.15238 6.05754 5.62320
#
# Compressibility (1/GPa) = 0.04053202
#
# Stress axis : x y z
#
# Youngs Moduli (GPa) = 23.00604 72.53353 46.31047
#
# Poissons Ratio (x) = -0.28358 0.76915
# Poissons Ratio (y) = -0.08994 0.29909
# Poissons Ratio (z) = 0.38210 0.46846
#
# Static dielectric constant tensor:
#      x y z
#    x 1.696610 0.000000 0.040100 
#    y 0.000000 1.674050 0.000000 
#    z 0.040100 0.000000 1.694040 
# 
# From -- ./inp_files/105041.got.cif
#   From: 2010.05.17/outbox.cif.g08.bks.cpg/sg12_53_cif.got.tgz:105041.got - 2010.06.03 13:09:07.
