data_PCOD9176480
_publ_section_title
;
Structure prediction by ZEFSAII (Michael W. Deem and Ramdas Pophale) SiO2 
 PCOD9176480
Probable space group: C 2/M
;
_chemical_formula_sum "Si O2"
_cell_formula_units_Z 52
_cell_length_a 10.760797
_cell_length_b 22.397668
_cell_length_c 13.967432
_cell_angle_alpha 90.000000
_cell_angle_beta 133.400943
_cell_angle_gamma 90.000000
_cell_volume 2445.892141
_symmetry_space_group_name_H-M "C 2/M"
_symmetry_group_IT_number 12
_symmetry_cell_setting 'monoclinic'
loop_
_space_group_symop_operation_xyz
x,y,z
-x,y,-z
-x,-y,-z
x,-y,z
1/2+x,1/2+y,z
1/2-x,1/2+y,-z
1/2-x,1/2-y,-z
1/2+x,1/2-y,z
loop_
_atom_site_type_symbol
_atom_site_label
_atom_site_fract_x
_atom_site_fract_y
_atom_site_fract_z
Si Si1 0.646014 0.366820 0.990901
Si Si2 0.021257 0.311504 0.767108
Si Si3 0.807145 0.868823 0.435564
Si Si4 0.577163 0.678392 0.296955
Si Si5 0.643985 0.500000 0.993749
Si Si6 0.142883 0.618876 0.652883
Si Si7 0.658366 0.500000 0.292548
Si Si8 0.177170 0.000000 0.533380
O O1 0.805524 0.321402 0.081481
O O2 0.500000 0.358936 0.000000
O O3 0.557690 0.357820 0.840509
O O4 0.722167 0.434053 0.041692
O O5 0.052721 0.359304 0.699902
O O6 0.828109 0.329401 0.695253
O O7 0.999946 0.243126 0.724923
O O8 0.842452 0.849314 0.564268
O O9 0.000000 0.865823 0.500000
O O10 0.742223 0.936978 0.397261
O O11 0.741665 0.675614 0.314977
O O12 0.539129 0.500000 0.839581
O O13 0.500000 0.500000 0.000000
O O14 0.256224 0.558820 0.709528
O O15 0.000000 0.606775 0.500000
O O16 0.669259 0.500000 0.413132
O O17 0.000000 0.000000 0.500000
#
# Coordination Sequence:
#
# PCOD9176480 Si02
#       8
#     8   8   8   8   4   8   4   4
#     4  11  22  41  64  97 130 170 217 275 342 393
#     4  12  26  40  63  97 133 172 224 271 329 399
#     4  11  25  42  66  92 128 176 218 268 333 393
#     4  12  24  42  63  91 135 173 218 266 326 402
#     4  10  18  34  64  92 131 167 205 273 347 399
#     4  12  23  38  67 103 130 172 220 281 338 389
#     4  12  19  40  65 100 139 165 217 278 344 396
#     4  10  20  40  63  94 129 167 219 267 324 397
#
# _framework density 21.260135999999999
#
# number of rings (size 3 to 8) (size 9 to 14) (size 15 to 20)
#    0.000    0.615    6.154    2.077    2.154    1.231 
#    0.000    0.769    0.000    0.000    0.000    6.462 
#    0.000    0.000    0.000    0.000    0.000    0.000 
#
# Total GULP energy -144782.487894 kJ/mol
# GULP energy per Si atom -5568.557227 kJ/mol
# Density = 2.121175 g / cm^3
# Si number density = 21.260136 Si / 1000 Ang^3
#
#
#
# Elastic Constant Matrix: (Units=GPa)
#
#
# Indices 1 2 3 4 5 6 
#
# 1 55.2285 28.0658 -0.0818 0.0000 14.1096 0.0000
# 2 28.0658 134.7680 20.5379 0.0000 13.8736 0.0000
# 3 -0.0818 20.5379 76.5931 0.0000 21.6033 0.0000
# 4 0.0000 0.0000 0.0000 33.6946 0.0000 0.0599
# 5 14.1096 13.8736 21.6033 0.0000 25.7728 0.0000
# 6 0.0000 0.0000 0.0000 0.0599 0.0000 34.2236
#
#
#
# Elastic Compliance Matrix: (Units=1/GPa)
#
#
# Indices 1 2 3 4 5 6 
#
# 1 0.024310 -0.004301 0.005605 0.000000 -0.015691 0.000000
# 2 -0.004301 0.008701 -0.002201 0.000000 -0.000484 0.000000
# 3 0.005605 -0.002201 0.018575 0.000000 -0.017454 0.000000
# 4 0.000000 0.000000 0.000000 0.029678 0.000000 -0.000052
# 5 -0.015691 -0.000484 -0.017454 0.000000 0.062281 0.000000
# 6 0.000000 0.000000 0.000000 -0.000052 0.000000 0.029220
#
#
# Mechanical properties :
#
#
# Convention : Reuss Voigt Hill
#
# Bulk Modulus (GPa) = 20.08405 40.40373 30.24389
# Shear Modulus (GPa) = 26.15646 33.27604 29.71625
#
# Velocity S-wave (km/s) = 3.51138 3.96053 3.74270
# Velocity P-wave (km/s) = 5.08989 6.32140 5.73878
#
# Compressibility (1/GPa) = 0.04979076
#
# Stress axis : x y z
#
# Youngs Moduli (GPa) = 41.13616 114.92653 53.83554
#
# Poissons Ratio (x) = 0.49434 -0.30175
# Poissons Ratio (y) = 0.17694 0.11851
# Poissons Ratio (z) = -0.23057 0.25298
#
# Static dielectric constant tensor:
#      x y z
#    x 1.967010 0.000000 0.032330 
#    y 0.000000 1.774660 0.000000 
#    z 0.032330 0.000000 1.847810 
# 
# From -- ./inp_files/207796.got.cif
#   From: 2010.05.17/outbox.cif.g08.bks.cpg/sg12_104_cif.got.tgz:207796.got - 2010.06.03 13:09:07.
