data_PCOD9176698
_publ_section_title
;
Structure prediction by ZEFSAII (Michael W. Deem and Ramdas Pophale) SiO2 
 PCOD9176698
Probable space group: C 2/M
;
_chemical_formula_sum "Si O2"
_cell_formula_units_Z 64
_cell_length_a 25.034909
_cell_length_b 8.703072
_cell_length_c 16.515091
_cell_angle_alpha 90.000000
_cell_angle_beta 89.128370
_cell_angle_gamma 90.000000
_cell_volume 3597.901822
_symmetry_space_group_name_H-M "C 2/M"
_symmetry_group_IT_number 12
_symmetry_cell_setting 'monoclinic'
loop_
_space_group_symop_operation_xyz
x,y,z
-x,y,-z
-x,-y,-z
x,-y,z
1/2+x,1/2+y,z
1/2-x,1/2+y,-z
1/2-x,1/2-y,-z
1/2+x,1/2-y,z
loop_
_atom_site_type_symbol
_atom_site_label
_atom_site_fract_x
_atom_site_fract_y
_atom_site_fract_z
Si Si1 0.322527 0.183120 0.211590
Si Si2 0.288564 0.184828 0.737170
Si Si3 0.558662 0.184029 0.537051
Si Si4 0.305189 0.683737 0.033877
Si Si5 0.366429 0.683561 0.872273
Si Si6 0.041071 0.684628 0.231327
Si Si7 0.069844 0.817436 0.715238
Si Si8 0.617745 0.813787 0.378340
O O1 0.270010 0.245032 0.258729
O O2 0.376127 0.247917 0.249865
O O3 0.322666 0.000000 0.213228
O O4 0.317735 0.241502 0.119484
O O5 0.321615 0.242031 0.814853
O O6 0.325160 0.232086 0.659637
O O7 0.285662 0.000000 0.739695
O O8 0.500000 0.206944 0.500000
O O9 0.564566 0.267848 0.621737
O O10 0.600789 0.237229 0.467796
O O11 0.564543 0.000000 0.550499
O O12 0.300171 0.500000 0.043597
O O13 0.350087 0.715069 0.964937
O O14 0.250000 0.750000 0.000000
O O15 0.365812 0.500000 0.860061
O O16 0.422760 0.751583 0.842222
O O17 0.039715 0.500000 0.228696
O O18 0.073084 0.730833 0.312848
O O19 0.981973 0.750760 0.237838
O O20 0.070618 0.000000 0.722396
O O21 0.616870 0.000000 0.380215
#
# Coordination Sequence:
#
# PCOD9176698 Si02
#       8
#     8   8   8   8   8   8   8   8
#     4  12  25  41  60  83 115 157 201 243 295 352
#     4  10  19  34  57  85 118 154 194 239 292 347
#     4  10  18  35  61  87 117 152 195 238 284 346
#     4  11  22  37  60  89 121 153 194 242 290 343
#     4  10  20  34  56  89 121 151 189 239 291 342
#     4  10  19  36  59  85 116 155 195 236 289 345
#     4  12  25  40  58  85 120 155 194 242 297 354
#     4   8  16  31  56  87 115 148 188 236 285 339
#
# _framework density 17.788146999999999
#
# number of rings (size 3 to 8) (size 9 to 14) (size 15 to 20)
#    0.000    1.625    2.500    4.500    0.000    1.750 
#    0.000    2.500    0.000    3.750    0.000    0.000 
#    0.000    0.000    0.000    0.000    0.000    0.000 
#
# Total GULP energy -178727.087286 kJ/mol
# GULP energy per Si atom -5585.221478 kJ/mol
# Density = 1.774766 g / cm^3
# Si number density = 17.788147 Si / 1000 Ang^3
#
#
#
# Elastic Constant Matrix: (Units=GPa)
#
#
# Indices 1 2 3 4 5 6 
#
# 1 167.6457 67.1791 67.6642 0.0000 -20.3480 0.0000
# 2 67.1791 103.2094 49.1812 0.0000 -10.6479 0.0000
# 3 67.6642 49.1812 80.3005 0.0000 -16.8059 0.0000
# 4 0.0000 0.0000 0.0000 28.6162 0.0000 -2.6670
# 5 -20.3480 -10.6479 -16.8059 0.0000 30.5364 0.0000
# 6 0.0000 0.0000 0.0000 -2.6670 0.0000 29.6601
#
#
#
# Elastic Compliance Matrix: (Units=1/GPa)
#
#
# Indices 1 2 3 4 5 6 
#
# 1 0.009979 -0.003503 -0.005795 0.000000 0.002239 0.000000
# 2 -0.003503 0.014913 -0.006308 0.000000 -0.000606 0.000000
# 3 -0.005795 -0.006308 0.022526 0.000000 0.006336 0.000000
# 4 0.000000 0.000000 0.000000 0.035241 0.000000 0.003169
# 5 0.002239 -0.000606 0.006336 0.000000 0.037516 0.000000
# 6 0.000000 0.000000 0.000000 0.003169 0.000000 0.034000
#
#
# Mechanical properties :
#
#
# Convention : Reuss Voigt Hill
#
# Bulk Modulus (GPa) = 61.70895 79.91159 70.81027
# Shear Modulus (GPa) = 26.20689 28.90461 27.55575
#
# Velocity S-wave (km/s) = 3.84249 4.03542 3.94014
# Velocity P-wave (km/s) = 7.37921 8.16912 7.78419
#
# Compressibility (1/GPa) = 0.01620510
#
# Stress axis : x y z
#
# Youngs Moduli (GPa) = 100.20616 67.05600 44.39327
#
# Poissons Ratio (x) = 0.23492 0.25725
# Poissons Ratio (y) = 0.35105 0.28005
# Poissons Ratio (z) = 0.58067 0.42302
#
# Static dielectric constant tensor:
#      x y z
#    x 1.596470 0.000000 -0.030950 
#    y 0.000000 1.597100 0.000000 
#    z -0.030950 0.000000 1.598070 
# 
# From -- ./inp_files/281254.got.cif
#   From: 2010.05.17/outbox.cif.g08.bks.cpg/sg12_141_cif.got.tgz:281254.got - 2010.06.03 13:09:07.
