data_PCOD9176862
_publ_section_title
;
Structure prediction by ZEFSAII (Michael W. Deem and Ramdas Pophale) SiO2 
 PCOD9176862
Probable space group: C 2/M
;
_chemical_formula_sum "Si O2"
_cell_formula_units_Z 52
_cell_length_a 10.504799
_cell_length_b 26.255714
_cell_length_c 8.788678
_cell_angle_alpha 90.000000
_cell_angle_beta 83.515110
_cell_angle_gamma 90.000000
_cell_volume 2408.504422
_symmetry_space_group_name_H-M "C 2/M"
_symmetry_group_IT_number 12
_symmetry_cell_setting 'monoclinic'
loop_
_space_group_symop_operation_xyz
x,y,z
-x,y,-z
-x,-y,-z
x,-y,z
1/2+x,1/2+y,z
1/2-x,1/2+y,-z
1/2-x,1/2-y,-z
1/2+x,1/2-y,z
loop_
_atom_site_type_symbol
_atom_site_label
_atom_site_fract_x
_atom_site_fract_y
_atom_site_fract_z
Si Si1 0.735642 0.500000 0.702720
Si Si2 0.985671 0.500000 0.185296
Si Si3 0.772350 0.889837 0.288263
Si Si4 0.863183 0.000000 0.606401
Si Si5 0.136287 0.112549 0.398271
Si Si6 0.363905 0.701807 0.100454
Si Si7 0.277415 0.808436 0.192237
Si Si8 0.509938 0.889653 0.816253
O O1 0.874893 0.500000 0.757577
O O2 0.675336 0.446367 0.756768
O O3 0.737710 0.500000 0.519479
O O4 0.930892 0.444844 0.236896
O O5 0.000000 0.500000 0.000000
O O6 0.767490 0.885737 0.470710
O O7 0.863928 0.847841 0.204163
O O8 0.629477 0.884626 0.239849
O O9 0.856065 0.943719 0.681788
O O10 0.000000 0.000000 0.500000
O O11 0.163836 0.161668 0.292398
O O12 0.000000 0.115274 0.500000
O O13 0.313011 0.749361 0.206652
O O14 0.500000 0.713134 0.000000
O O15 0.261134 0.690417 0.980560
O O16 0.398969 0.842127 0.223560
O O17 0.500000 0.891389 0.000000
#
# Coordination Sequence:
#
# PCOD9176862 Si02
#       8
#     4   4   8   4   8   8   8   8
#     4   8  16  32  56  90 120 157 195 242 303 365
#     4   8  16  27  53  85 122 154 188 248 306 346
#     4  10  20  38  65  88 124 163 200 249 308 358
#     4   8  16  33  60  84 122 165 195 237 303 359
#     4  10  21  40  61  92 126 162 203 250 300 366
#     4  11  24  41  62  86 116 162 205 252 304 357
#     4  11  24  38  61  86 118 159 206 255 298 355
#     4  10  18  36  58  90 122 157 201 248 303 368
#
# _framework density 21.590160999999998
#
# number of rings (size 3 to 8) (size 9 to 14) (size 15 to 20)
#    0.000    2.154    1.538    1.385    2.154    1.846 
#    0.000    1.154    0.000    5.538    0.000    0.000 
#    0.000    0.000    0.000    0.000    0.000    0.000 
#
# Total GULP energy -144892.017630 kJ/mol
# GULP energy per Si atom -5572.769909 kJ/mol
# Density = 2.154102 g / cm^3
# Si number density = 21.590161 Si / 1000 Ang^3
#
#
#
# Elastic Constant Matrix: (Units=GPa)
#
#
# Indices 1 2 3 4 5 6 
#
# 1 86.1610 30.1124 21.6231 0.0000 7.8146 0.0000
# 2 30.1124 215.3630 46.0697 0.0000 -24.2027 0.0000
# 3 21.6231 46.0697 37.4068 0.0000 4.4720 0.0000
# 4 0.0000 0.0000 0.0000 1312.2515 0.0000 -225.3041
# 5 7.8146 -24.2027 4.4720 0.0000 36.7204 0.0000
# 6 0.0000 0.0000 0.0000 -225.3041 0.0000 63.9336
#
#
#
# Elastic Compliance Matrix: (Units=1/GPa)
#
#
# Indices 1 2 3 4 5 6 
#
# 1 0.013802 -0.000799 -0.006677 0.000000 -0.002651 0.000000
# 2 -0.000799 0.007496 -0.009520 0.000000 0.006270 0.000000
# 3 -0.006677 -0.009520 0.043531 0.000000 -0.010155 0.000000
# 4 0.000000 0.000000 0.000000 0.001929 0.000000 0.006800
# 5 -0.002651 0.006270 -0.010155 0.000000 0.033167 0.000000
# 6 0.000000 0.000000 0.000000 0.006800 0.000000 0.039603
#
#
# Mechanical properties :
#
#
# Convention : Reuss Voigt Hill
#
# Bulk Modulus (GPa) = 32.42825 59.39348 45.91086
# Shear Modulus (GPa) = 27.20371 298.65612 162.92992
#
# Velocity S-wave (km/s) = 3.55351 11.77413 8.69648
# Velocity P-wave (km/s) = 5.64704 14.57427 11.05211
#
# Compressibility (1/GPa) = 0.03083731
#
# Stress axis : x y z
#
# Youngs Moduli (GPa) = 72.45551 133.40108 22.97218
#
# Poissons Ratio (x) = 0.10665 0.15337
# Poissons Ratio (y) = 0.05793 0.21869
# Poissons Ratio (z) = 0.48375 1.26994
#
# Static dielectric constant tensor:
#      x y z
#    x 1.849810 0.000000 -0.015910 
#    y 0.000000 1.845700 0.000000 
#    z -0.015910 0.000000 1.766190 
# 
# From -- ./inp_files/52590.got.cif
#   From: 2010.05.17/outbox.cif.g08.bks.cpg/sg12_27_cif.got.tgz:52590.got - 2010.06.03 13:09:07.
