data_PCOD9176940
_publ_section_title
;
Structure prediction by ZEFSAII (Michael W. Deem and Ramdas Pophale) SiO2 
 PCOD9176940
Probable space group: C 2/M
;
_chemical_formula_sum "Si O2"
_cell_formula_units_Z 64
_cell_length_a 11.989341
_cell_length_b 30.828813
_cell_length_c 17.337646
_cell_angle_alpha 90.000000
_cell_angle_beta 150.357768
_cell_angle_gamma 90.000000
_cell_volume 3169.429556
_symmetry_space_group_name_H-M "C 2/M"
_symmetry_group_IT_number 12
_symmetry_cell_setting 'monoclinic'
loop_
_space_group_symop_operation_xyz
x,y,z
-x,y,-z
-x,-y,-z
x,-y,z
1/2+x,1/2+y,z
1/2-x,1/2+y,-z
1/2-x,1/2-y,-z
1/2+x,1/2-y,z
loop_
_atom_site_type_symbol
_atom_site_label
_atom_site_fract_x
_atom_site_fract_y
_atom_site_fract_z
Si Si1 0.008798 0.783944 0.424548
Si Si2 0.002802 0.670375 0.286398
Si Si3 0.196069 0.371310 0.676898
Si Si4 0.620594 0.624523 0.655745
Si Si5 0.072894 0.598471 0.887670
Si Si6 0.009564 0.951926 0.913552
Si Si7 0.414582 0.346729 0.194021
Si Si8 0.238959 0.249351 0.862251
O O1 0.246962 0.808419 0.554509
O O2 0.000000 0.760257 0.500000
O O3 0.828995 0.823647 0.323525
O O4 0.924695 0.751541 0.310552
O O5 0.897855 0.653560 0.304265
O O6 0.992570 0.628301 0.225318
O O7 0.848185 0.706839 0.151184
O O8 0.341036 0.413834 0.786412
O O9 0.368439 0.343053 0.729711
O O10 0.000000 0.383655 0.500000
O O11 0.500000 0.614556 0.500000
O O12 0.528355 0.629292 0.689149
O O13 0.833160 0.592708 0.784866
O O14 0.235184 0.559987 0.958293
O O15 0.226437 0.625177 0.038971
O O16 0.948125 0.000000 0.848036
O O17 0.000000 0.952072 0.000000
O O18 0.314840 0.298412 0.140204
O O19 0.500000 0.253217 0.000000
#
# Coordination Sequence:
#
# PCOD9176940 Si02
#       8
#     8   8   8   8   8   8   8   8
#     4  10  20  39  57  79 116 165 214 256 309 362
#     4  12  24  38  59  92 121 171 211 264 317 356
#     4  11  24  41  66  92 132 160 216 262 313 382
#     4  10  18  36  63  87 112 160 212 246 297 372
#     4  11  21  38  66  86 126 151 213 255 304 381
#     4  10  22  41  67  97 130 165 200 250 325 393
#     4  10  23  39  58  89 121 172 209 261 312 363
#     4  11  25  37  57  83 126 161 224 265 311 362
#
# _framework density 20.192907999999999
#
# number of rings (size 3 to 8) (size 9 to 14) (size 15 to 20)
#    0.000    1.375    3.750    3.750    3.500    2.250 
#    0.000    0.000    0.000    6.375    0.000    0.000 
#    0.000    0.000    0.000    0.000    0.000    0.000 
#
# Total GULP energy -178184.422994 kJ/mol
# GULP energy per Si atom -5568.263219 kJ/mol
# Density = 2.014695 g / cm^3
# Si number density = 20.192908 Si / 1000 Ang^3
#
#
#
# Elastic Constant Matrix: (Units=GPa)
#
#
# Indices 1 2 3 4 5 6 
#
# 1 104.9013 16.1525 27.7287 0.0000 -0.2377 0.0000
# 2 16.1525 68.1652 14.8093 0.0000 16.9305 0.0000
# 3 27.7287 14.8093 80.3146 -0.0001 6.6346 -0.0001
# 4 0.0000 0.0000 -0.0001 5.0992 0.0000 -6.4840
# 5 -0.2377 16.9305 6.6346 0.0000 34.2695 0.0000
# 6 0.0000 0.0000 -0.0001 -6.4840 0.0000 -4.1212
#
#
#
# Elastic Compliance Matrix: (Units=1/GPa)
#
#
# Indices 1 2 3 4 5 6 
#
# 1 0.010803 -0.002271 -0.003465 0.000000 0.001868 0.000000
# 2 -0.002271 0.017684 -0.001782 0.000000 -0.008407 0.000000
# 3 -0.003465 -0.001782 0.014131 0.000000 -0.001879 0.000000
# 4 0.000000 0.000000 0.000000 0.065357 0.000000 -0.102828
# 5 0.001868 -0.008407 -0.001879 0.000000 0.033711 0.000000
# 6 0.000000 0.000000 0.000000 -0.102828 0.000000 -0.080866
#
#
# Mechanical properties :
#
#
# Convention : Reuss Voigt Hill
#
# Bulk Modulus (GPa) = 36.25674 41.19579 38.72627
# Shear Modulus (GPa) = 58.78963 20.02888 39.40926
#
# Velocity S-wave (km/s) = 5.40159 3.15282 4.42253
# Velocity P-wave (km/s) = 7.54302 5.80510 6.73039
#
# Compressibility (1/GPa) = 0.02758108
#
# Stress axis : x y z
#
# Youngs Moduli (GPa) = 92.57017 56.54941 70.76515
#
# Poissons Ratio (x) = 0.12842 0.24521
# Poissons Ratio (y) = 0.21021 0.12612
# Poissons Ratio (z) = 0.32077 0.10078
#
# Static dielectric constant tensor:
#      x y z
#    x 1.843120 0.000000 -0.007940 
#    y 0.000000 1.693050 0.000000 
#    z -0.007940 0.000000 1.784010 
# 
# From -- ./inp_files/266336.got.cif
#   From: 2010.05.17/outbox.cif.g08.bks.cpg/sg12_134_cif.got.tgz:266336.got - 2010.06.03 13:09:07.
