data_PCOD9176896
_publ_section_title
;
Structure prediction by ZEFSAII (Michael W. Deem and Ramdas Pophale) SiO2 
 PCOD9176896
Probable space group: C 2/M
;
_chemical_formula_sum "Si O2"
_cell_formula_units_Z 64
_cell_length_a 14.507116
_cell_length_b 18.244716
_cell_length_c 15.754504
_cell_angle_alpha 90.000000
_cell_angle_beta 130.165184
_cell_angle_gamma 90.000000
_cell_volume 3186.568054
_symmetry_space_group_name_H-M "C 2/M"
_symmetry_group_IT_number 12
_symmetry_cell_setting 'monoclinic'
loop_
_space_group_symop_operation_xyz
x,y,z
-x,y,-z
-x,-y,-z
x,-y,z
1/2+x,1/2+y,z
1/2-x,1/2+y,-z
1/2-x,1/2-y,-z
1/2+x,1/2-y,z
loop_
_atom_site_type_symbol
_atom_site_label
_atom_site_fract_x
_atom_site_fract_y
_atom_site_fract_z
Si Si1 0.394426 0.317859 0.764659
Si Si2 0.234123 0.416356 0.420159
Si Si3 0.890683 0.350905 0.814377
Si Si4 0.879777 0.789598 0.564244
Si Si5 0.644885 0.340584 0.997813
Si Si6 0.476225 0.863597 0.582821
Si Si7 0.769366 0.586089 0.228720
Si Si8 0.162812 0.666293 0.030751
O O1 0.507676 0.346371 0.886126
O O2 0.423048 0.315865 0.682230
O O3 0.369048 0.233778 0.774978
O O4 0.281667 0.367961 0.721962
O O5 0.271593 0.500000 0.448394
O O6 0.159889 0.400532 0.290257
O O7 0.346141 0.360172 0.489427
O O8 0.142034 0.397350 0.442903
O O9 0.830324 0.363529 0.869937
O O10 0.034422 0.356885 0.914536
O O11 0.750000 0.750000 0.500000
O O12 0.963199 0.724748 0.579185
O O13 0.730175 0.354661 0.967937
O O14 0.688535 0.390745 0.100401
O O15 0.661168 0.255298 0.034764
O O16 0.500000 0.886868 0.500000
O O17 0.593434 0.888807 0.704588
O O18 0.764025 0.500000 0.240757
#
# Coordination Sequence:
#
# PCOD9176896 Si02
#       8
#     8   8   8   8   8   8   8   8
#     4  11  21  37  61  89 121 166 214 251 308 369
#     4  11  23  41  64  91 128 165 201 259 326 373
#     4  10  18  36  60  90 120 160 213 262 299 366
#     4  10  21  39  60  90 121 159 210 259 304 369
#     4  10  21  35  56  91 122 164 207 259 307 362
#     4  11  24  39  64  97 125 162 210 261 310 372
#     4  12  25  39  60  94 135 167 199 255 325 380
#     4   9  19  33  59  89 121 157 217 262 292 355
#
# _framework density 20.084303999999999
#
# number of rings (size 3 to 8) (size 9 to 14) (size 15 to 20)
#    0.000    1.500    3.750    3.000    3.500    3.500 
#    0.000    1.875    0.000    0.375    0.000    0.000 
#    0.000    0.000    0.000    0.000    0.000    0.000 
#
# Total GULP energy -178801.654208 kJ/mol
# GULP energy per Si atom -5587.551694 kJ/mol
# Density = 2.003859 g / cm^3
# Si number density = 20.084304 Si / 1000 Ang^3
#
#
#
# Elastic Constant Matrix: (Units=GPa)
#
#
# Indices 1 2 3 4 5 6 
#
# 1 44.5802 -6.1670 -6.5695 0.0000 -11.7222 0.0000
# 2 -6.1670 78.8965 15.2557 0.0000 5.8360 0.0000
# 3 -6.5695 15.2557 70.0598 0.0000 -12.5447 0.0000
# 4 0.0000 0.0000 0.0000 21.1474 0.0000 1.7761
# 5 -11.7222 5.8360 -12.5447 0.0000 27.2137 0.0000
# 6 0.0000 0.0000 0.0000 1.7761 0.0000 15.4101
#
#
#
# Elastic Compliance Matrix: (Units=1/GPa)
#
#
# Indices 1 2 3 4 5 6 
#
# 1 0.026810 0.000115 0.004962 0.000000 0.013811 0.000000
# 2 0.000115 0.013768 -0.003823 0.000000 -0.004665 0.000000
# 3 0.004962 -0.003823 0.017549 0.000000 0.011047 0.000000
# 4 0.000000 0.000000 0.000000 0.047749 0.000000 -0.005503
# 5 0.013811 -0.004665 0.011047 0.000000 0.048788 0.000000
# 6 0.000000 0.000000 0.000000 -0.005503 0.000000 0.065527
#
#
# Mechanical properties :
#
#
# Convention : Reuss Voigt Hill
#
# Bulk Modulus (GPa) = 16.49206 22.06388 19.27797
# Shear Modulus (GPa) = 21.01764 25.48873 23.25318
#
# Velocity S-wave (km/s) = 3.23843 3.56629 3.40631
# Velocity P-wave (km/s) = 4.71301 5.28842 5.00898
#
# Compressibility (1/GPa) = 0.06063525
#
# Stress axis : x y z
#
# Youngs Moduli (GPa) = 37.29928 72.63186 56.98258
#
# Poissons Ratio (x) = -0.00832 -0.28275
# Poissons Ratio (y) = -0.00427 0.21783
# Poissons Ratio (z) = -0.18508 0.27765
#
# Static dielectric constant tensor:
#      x y z
#    x 1.712900 0.000000 -0.008350 
#    y 0.000000 1.693770 0.000000 
#    z -0.008350 0.000000 1.728060 
# 
# From -- ./inp_files/216819.got.cif
#   From: 2010.05.17/outbox.cif.g08.bks.cpg/sg12_109_cif.got.tgz:216819.got - 2010.06.03 13:09:07.
