data_PCOD9176748
_publ_section_title
;
Structure prediction by ZEFSAII (Michael W. Deem and Ramdas Pophale) SiO2 
 PCOD9176748
Probable space group: C 2/M
;
_chemical_formula_sum "Si O2"
_cell_formula_units_Z 44
_cell_length_a 10.801002
_cell_length_b 20.935563
_cell_length_c 13.410467
_cell_angle_alpha 90.000000
_cell_angle_beta 39.695119
_cell_angle_gamma 90.000000
_cell_volume 1936.827990
_symmetry_space_group_name_H-M "C 2/M"
_symmetry_group_IT_number 12
_symmetry_cell_setting 'monoclinic'
loop_
_space_group_symop_operation_xyz
x,y,z
-x,y,-z
-x,-y,-z
x,-y,z
1/2+x,1/2+y,z
1/2-x,1/2+y,-z
1/2-x,1/2-y,-z
1/2+x,1/2-y,z
loop_
_atom_site_type_symbol
_atom_site_label
_atom_site_fract_x
_atom_site_fract_y
_atom_site_fract_z
Si Si1 0.306416 0.000000 0.356881
Si Si2 0.805719 0.500000 0.754443
Si Si3 0.938992 0.731089 0.819212
Si Si4 0.111121 0.137985 0.669653
Si Si5 0.730571 0.362037 0.376377
Si Si6 0.423107 0.500000 0.307039
Si Si7 0.205427 0.860150 0.832402
O O1 0.298231 0.933369 0.301631
O O2 0.481748 0.000000 0.328646
O O3 0.125414 0.000000 0.545353
O O4 0.753854 0.500000 0.666858
O O5 0.715720 0.434834 0.850210
O O6 0.867244 0.678662 0.786884
O O7 0.994418 0.797035 0.732522
O O8 0.129383 0.695313 0.747537
O O9 0.750000 0.750000 0.000000
O O10 0.239051 0.132992 0.492078
O O11 0.992374 0.071429 0.759246
O O12 0.224465 0.146207 0.702503
O O13 0.500000 0.352958 0.500000
O O14 0.000000 0.835257 0.000000
#
# Coordination Sequence:
#
# PCOD9176748 Si02
#       7
#     4   4   8   8   8   4   8
#     4  10  18  39  65  99 132 179 230 275 342 408
#     4  10  18  35  63  98 133 170 221 284 346 404
#     4  12  25  43  64  98 138 184 227 282 344 408
#     4  10  23  42  67  98 134 179 227 280 348 408
#     4  11  25  44  68  99 139 185 231 283 340 416
#     4   8  19  36  62  97 133 170 219 288 342 400
#     4  11  22  40  66  99 137 177 225 286 349 407
#
# _framework density 22.717555999999998
#
# number of rings (size 3 to 8) (size 9 to 14) (size 15 to 20)
#    0.000    1.455    3.636    1.364    2.545    0.727 
#    0.000    0.909    0.000    0.000    0.000    7.000 
#    0.000    0.000    0.000    0.000    0.000    0.000 
#
# Total GULP energy -122584.659876 kJ/mol
# GULP energy per Si atom -5572.029994 kJ/mol
# Density = 2.266585 g / cm^3
# Si number density = 22.717556 Si / 1000 Ang^3
#
#
#
# Elastic Constant Matrix: (Units=GPa)
#
#
# Indices 1 2 3 4 5 6 
#
# 1 73.4619 29.7729 25.7745 -0.0005 -12.6933 0.0006
# 2 29.7729 185.3093 47.6121 -0.0001 -20.0150 0.0003
# 3 25.7745 47.6121 61.7140 -0.0008 -15.2452 0.0009
# 4 -0.0005 -0.0001 -0.0008 32.4932 0.0005 -15.1218
# 5 -12.6933 -20.0150 -15.2452 0.0005 29.4225 -0.0007
# 6 0.0006 0.0003 0.0009 -15.1218 -0.0007 54.7204
#
#
#
# Elastic Compliance Matrix: (Units=1/GPa)
#
#
# Indices 1 2 3 4 5 6 
#
# 1 0.016470 -0.000886 -0.005262 0.000000 0.003776 0.000000
# 2 -0.000886 0.006901 -0.004459 0.000000 0.002001 0.000000
# 3 -0.005262 -0.004459 0.023545 0.000000 0.006896 0.000000
# 4 0.000000 0.000000 0.000000 0.035318 0.000000 0.009760
# 5 0.003776 0.002001 0.006896 0.000000 0.040551 0.000000
# 6 0.000000 0.000000 0.000000 0.009760 0.000000 0.020972
#
#
# Mechanical properties :
#
#
# Convention : Reuss Voigt Hill
#
# Bulk Modulus (GPa) = 38.90915 58.53381 48.72148
# Shear Modulus (GPa) = 28.81178 37.81561 33.31369
#
# Velocity S-wave (km/s) = 3.56513 4.08438 3.83355
# Velocity P-wave (km/s) = 5.84049 6.93287 6.40999
#
# Compressibility (1/GPa) = 0.02570090
#
# Stress axis : x y z
#
# Youngs Moduli (GPa) = 60.71479 144.91313 42.47113
#
# Poissons Ratio (x) = 0.12845 0.22349
# Poissons Ratio (y) = 0.05382 0.18939
# Poissons Ratio (z) = 0.31949 0.64621
#
# Static dielectric constant tensor:
#      x y z
#    x 2.199460 0.000000 0.050980 
#    y 0.000000 1.819740 0.000000 
#    z 0.050980 0.000000 1.886080 
# 
# From -- ./inp_files/207562.got.cif
#   From: 2010.05.17/outbox.cif.g08.bks.cpg/sg12_104_cif.got.tgz:207562.got - 2010.06.03 13:09:07.
