data_PCOD9176619
_publ_section_title
;
Structure prediction by ZEFSAII (Michael W. Deem and Ramdas Pophale) SiO2 
 PCOD9176619
Probable space group: C 2/M
;
_chemical_formula_sum "Si O2"
_cell_formula_units_Z 56
_cell_length_a 21.182881
_cell_length_b 7.664382
_cell_length_c 17.587492
_cell_angle_alpha 90.000000
_cell_angle_beta 105.090079
_cell_angle_gamma 90.000000
_cell_volume 2756.933763
_symmetry_space_group_name_H-M "C 2/M"
_symmetry_group_IT_number 12
_symmetry_cell_setting 'monoclinic'
loop_
_space_group_symop_operation_xyz
x,y,z
-x,y,-z
-x,-y,-z
x,-y,z
1/2+x,1/2+y,z
1/2-x,1/2+y,-z
1/2-x,1/2-y,-z
1/2+x,1/2-y,z
loop_
_atom_site_type_symbol
_atom_site_label
_atom_site_fract_x
_atom_site_fract_y
_atom_site_fract_z
Si Si1 0.951547 0.702232 0.226686
Si Si2 0.705377 0.292774 0.097259
Si Si3 0.926569 0.288818 0.499278
Si Si4 0.147090 0.795824 0.673930
Si Si5 0.088965 0.714759 0.331804
Si Si6 0.793275 0.703542 0.734256
Si Si7 0.845743 0.289705 0.079071
O O1 0.963507 0.500000 0.210837
O O2 0.904959 0.708644 0.286095
O O3 0.908309 0.778471 0.144531
O O4 0.021791 0.776759 0.271316
O O5 0.709564 0.500000 0.107675
O O6 0.684857 0.216748 0.171434
O O7 0.777994 0.225957 0.096570
O O8 0.659270 0.253914 0.011181
O O9 0.925303 0.500000 0.496721
O O10 0.877319 0.223284 0.419731
O O11 0.910584 0.232960 0.579868
O O12 0.000000 0.233420 0.500000
O O13 0.220070 0.721315 0.706149
O O14 0.147700 0.000000 0.695324
O O15 0.087736 0.500000 0.330738
O O16 0.152057 0.775725 0.304982
O O17 0.786394 0.500000 0.711632
O O18 0.845122 0.500000 0.085757
#
# Coordination Sequence:
#
# PCOD9176619 Si02
#       7
#     8   8   8   8   8   8   8
#     4  10  18  35  59  81 103 137 187 227 257 308
#     4  10  19  32  53  80 110 141 176 221 267 316
#     4  10  19  35  59  81 103 138 184 228 263 306
#     4  11  22  33  52  81 113 141 171 218 273 323
#     4   9  19  36  58  79 103 140 184 224 263 311
#     4  10  21  37  54  77 111 146 177 215 268 324
#     4   9  18  31  53  82 107 134 177 227 267 309
#
# _framework density 20.312421000000001
#
# number of rings (size 3 to 8) (size 9 to 14) (size 15 to 20)
#    0.000    2.143    2.857    0.857    0.000    2.571 
#    0.000    2.143    0.000    4.286    0.000    0.000 
#    0.000    0.000    0.000    0.000    0.000    0.000 
#
# Total GULP energy -156322.585996 kJ/mol
# GULP energy per Si atom -5582.949500 kJ/mol
# Density = 2.026619 g / cm^3
# Si number density = 20.312421 Si / 1000 Ang^3
#
#
#
# Elastic Constant Matrix: (Units=GPa)
#
#
# Indices 1 2 3 4 5 6 
#
# 1 80.4801 -4.7404 39.3326 0.0000 -2.3560 0.0000
# 2 -4.7404 36.8722 -14.2698 0.0000 0.7669 0.0000
# 3 39.3326 -14.2698 109.5800 0.0000 4.7453 0.0000
# 4 0.0000 0.0000 0.0000 20.2196 0.0000 5.6037
# 5 -2.3560 0.7669 4.7453 0.0000 36.9917 0.0000
# 6 0.0000 0.0000 0.0000 5.6037 0.0000 4.6602
#
#
#
# Elastic Compliance Matrix: (Units=1/GPa)
#
#
# Indices 1 2 3 4 5 6 
#
# 1 0.015173 -0.000232 -0.005549 0.000000 0.001683 0.000000
# 2 -0.000232 0.028606 0.003856 0.000000 -0.001103 0.000000
# 3 -0.005549 0.003856 0.011704 0.000000 -0.001935 0.000000
# 4 0.000000 0.000000 0.000000 0.074176 0.000000 -0.089194
# 5 0.001683 -0.001103 -0.001935 0.000000 0.027411 0.000000
# 6 0.000000 0.000000 0.000000 -0.089194 0.000000 0.321835
#
#
# Mechanical properties :
#
#
# Convention : Reuss Voigt Hill
#
# Bulk Modulus (GPa) = 19.36760 29.73080 24.54920
# Shear Modulus (GPa) = 10.00066 26.14828 18.07447
#
# Velocity S-wave (km/s) = 2.22129 3.59180 2.98623
# Velocity P-wave (km/s) = 4.01676 5.64534 4.89920
#
# Compressibility (1/GPa) = 0.05163263
#
# Stress axis : x y z
#
# Youngs Moduli (GPa) = 65.90595 34.95752 85.44406
#
# Poissons Ratio (x) = 0.00811 0.47416
# Poissons Ratio (y) = 0.01529 -0.32949
# Poissons Ratio (z) = 0.36573 -0.13480
#
# Static dielectric constant tensor:
#      x y z
#    x 1.715880 0.000000 0.018520 
#    y 0.000000 1.773160 0.000000 
#    z 0.018520 0.000000 1.698450 
# 
# From -- ./inp_files/230941.got.cif
#   From: 2010.05.17/outbox.cif.g08.bks.cpg/sg12_116_cif.got.tgz:230941.got - 2010.06.03 13:09:07.
