data_PCOD9176666
_publ_section_title
;
Structure prediction by ZEFSAII (Michael W. Deem and Ramdas Pophale) SiO2 
 PCOD9176666
Probable space group: C 2/M
;
_chemical_formula_sum "Si O2"
_cell_formula_units_Z 64
_cell_length_a 24.124003
_cell_length_b 14.904142
_cell_length_c 18.318192
_cell_angle_alpha 90.000000
_cell_angle_beta 28.573360
_cell_angle_gamma 90.000000
_cell_volume 3150.100679
_symmetry_space_group_name_H-M "C 2/M"
_symmetry_group_IT_number 12
_symmetry_cell_setting 'monoclinic'
loop_
_space_group_symop_operation_xyz
x,y,z
-x,y,-z
-x,-y,-z
x,-y,z
1/2+x,1/2+y,z
1/2-x,1/2+y,-z
1/2-x,1/2-y,-z
1/2+x,1/2-y,z
loop_
_atom_site_type_symbol
_atom_site_label
_atom_site_fract_x
_atom_site_fract_y
_atom_site_fract_z
Si Si1 0.557045 0.656890 0.032114
Si Si2 0.060506 0.596753 0.167482
Si Si3 0.000817 0.797500 0.737903
Si Si4 0.177223 0.103909 0.157723
Si Si5 0.226047 0.208966 0.399084
Si Si6 0.987250 0.643513 0.094330
Si Si7 0.310886 0.600310 0.253358
Si Si8 0.864697 0.895469 0.635457
O O1 0.549578 0.662975 0.128168
O O2 0.551926 0.760678 0.013391
O O3 0.438264 0.610129 0.143023
O O4 0.661696 0.614258 0.865027
O O5 0.020675 0.500000 0.242868
O O6 0.006195 0.689779 0.255233
O O7 0.038168 0.595596 0.105961
O O8 0.197674 0.606174 0.024114
O O9 0.136022 0.816154 0.567091
O O10 0.919754 0.837949 0.768999
O O11 0.197196 0.132248 0.218102
O O12 0.137220 0.000000 0.206095
O O13 0.353130 0.167937 0.264670
O O14 0.240583 0.315409 0.367030
O O15 0.173125 0.164672 0.387663
O O16 0.000000 0.600204 0.000000
O O17 0.265569 0.500000 0.318658
O O18 0.000000 0.888803 0.500000
O O19 0.838928 0.000000 0.648851
#
# Coordination Sequence:
#
# PCOD9176666 Si02
#       8
#     8   8   8   8   8   8   8   8
#     4   9  18  35  58  83 116 153 205 253 292 339
#     4  10  23  39  56  82 121 161 196 234 295 365
#     4  11  23  37  60  89 123 156 197 254 308 352
#     4  10  21  39  62  87 111 151 203 251 299 353
#     4  11  22  37  61  92 124 157 195 249 306 360
#     4  10  18  35  60  87 115 149 198 244 293 358
#     4  10  20  37  60  85 118 165 206 239 290 356
#     4  10  20  37  61  86 115 148 192 247 302 355
#
# _framework density 20.316811000000001
#
# number of rings (size 3 to 8) (size 9 to 14) (size 15 to 20)
#    0.000    1.875    3.750    1.875    1.750    6.750 
#    0.000    0.000    0.000    0.375    0.000    0.000 
#    0.000    0.000    0.000    0.000    0.000    0.000 
#
# Total GULP energy -178547.977762 kJ/mol
# GULP energy per Si atom -5579.624305 kJ/mol
# Density = 2.027057 g / cm^3
# Si number density = 20.316811 Si / 1000 Ang^3
#
#
#
# Elastic Constant Matrix: (Units=GPa)
#
#
# Indices 1 2 3 4 5 6 
#
# 1 39.6969 30.3581 12.8252 0.0000 -5.4659 0.0000
# 2 30.3581 79.5266 4.0210 0.0000 -5.7072 0.0000
# 3 12.8252 4.0210 61.1097 0.0000 -6.4468 0.0000
# 4 0.0000 0.0000 0.0000 2.9612 0.0000 4.3071
# 5 -5.4659 -5.7072 -6.4468 0.0000 22.1407 0.0000
# 6 0.0000 0.0000 0.0000 4.3071 0.0000 16.4372
#
#
#
# Elastic Compliance Matrix: (Units=1/GPa)
#
#
# Indices 1 2 3 4 5 6 
#
# 1 0.038764 -0.014172 -0.006787 0.000000 0.003940 0.000000
# 2 -0.014172 0.018008 0.001970 0.000000 0.001717 0.000000
# 3 -0.006787 0.001970 0.018091 0.000000 0.004100 0.000000
# 4 0.000000 0.000000 0.000000 0.545659 0.000000 -0.142981
# 5 0.003940 0.001717 0.004100 0.000000 0.047775 0.000000
# 6 0.000000 0.000000 0.000000 -0.142981 0.000000 0.098303
#
#
# Mechanical properties :
#
#
# Convention : Reuss Voigt Hill
#
# Bulk Modulus (GPa) = 27.11037 30.52686 28.81861
# Shear Modulus (GPa) = 6.12091 17.18310 11.65200
#
# Velocity S-wave (km/s) = 1.73761 2.91135 2.39742
# Velocity P-wave (km/s) = 4.17115 5.13413 4.67749
#
# Compressibility (1/GPa) = 0.03688625
#
# Stress axis : x y z
#
# Youngs Moduli (GPa) = 25.79719 55.53146 55.27497
#
# Poissons Ratio (x) = 0.78697 0.37517
# Poissons Ratio (y) = 0.36559 -0.10892
# Poissons Ratio (z) = 0.17509 -0.10942
#
# Static dielectric constant tensor:
#      x y z
#    x 1.712890 0.000000 0.028750 
#    y 0.000000 1.725140 0.000000 
#    z 0.028750 0.000000 1.769850 
# 
# From -- ./inp_files/290109.got.cif
#   From: 2010.05.17/outbox.cif.g08.bks.cpg/sg12_146_cif.got.tgz:290109.got - 2010.06.03 13:09:07.
