data_PCOD9176241
_publ_section_title
;
Structure prediction by ZEFSAII (Michael W. Deem and Ramdas Pophale) SiO2 
 PCOD9176241
Probable space group: C 2/M
;
_chemical_formula_sum "Si O2"
_cell_formula_units_Z 48
_cell_length_a 14.941327
_cell_length_b 7.553252
_cell_length_c 26.398584
_cell_angle_alpha 90.000000
_cell_angle_beta 43.556468
_cell_angle_gamma 90.000000
_cell_volume 2052.894235
_symmetry_space_group_name_H-M "C 2/M"
_symmetry_group_IT_number 12
_symmetry_cell_setting 'monoclinic'
loop_
_space_group_symop_operation_xyz
x,y,z
-x,y,-z
-x,-y,-z
x,-y,z
1/2+x,1/2+y,z
1/2-x,1/2+y,-z
1/2-x,1/2-y,-z
1/2+x,1/2-y,z
loop_
_atom_site_type_symbol
_atom_site_label
_atom_site_fract_x
_atom_site_fract_y
_atom_site_fract_z
Si Si1 0.672072 0.293396 0.143747
Si Si2 0.417739 0.286650 0.984999
Si Si3 0.174569 0.298679 0.251370
Si Si4 0.391660 0.792099 0.505877
Si Si5 0.391704 0.214505 0.389459
Si Si6 0.440536 0.282360 0.175634
O O1 0.664968 0.500000 0.158934
O O2 0.771349 0.271850 0.056605
O O3 0.721034 0.199194 0.174089
O O4 0.531045 0.226937 0.184727
O O5 0.417871 0.500000 0.984096
O O6 0.500000 0.226449 0.000000
O O7 0.485396 0.225390 0.905915
O O8 0.160041 0.500000 0.275883
O O9 0.292532 0.218482 0.234763
O O10 0.029864 0.222909 0.311150
O O11 0.500000 0.718374 0.500000
O O12 0.393706 0.721757 0.447359
O O13 0.240620 0.774773 0.583400
O O14 0.421343 0.000000 0.488755
O O15 0.385661 0.000000 0.390760
O O16 0.438742 0.500000 0.176083
#
# Coordination Sequence:
#
# PCOD9176241 Si02
#       6
#     8   8   8   8   8   8
#     4  11  22  34  52  80 107 132 173 228 273 300
#     4  10  18  34  58  75  96 138 181 213 262 325
#     4  10  20  38  56  72 104 146 181 206 250 322
#     4   9  18  34  57  84 110 138 171 209 257 309
#     4   9  19  34  55  81 107 139 175 214 253 300
#     4   9  19  35  54  75 101 138 176 214 263 320
#
# _framework density 23.381620999999999
#
# number of rings (size 3 to 8) (size 9 to 14) (size 15 to 20)
#    0.000    2.333    1.667    1.000    0.000    2.667 
#    0.000    5.833    0.000    0.000    0.000    0.000 
#    0.000    0.000    0.000    0.000    0.000    0.000 
#
# Total GULP energy -133989.980044 kJ/mol
# GULP energy per Si atom -5582.915835 kJ/mol
# Density = 2.332840 g / cm^3
# Si number density = 23.381621 Si / 1000 Ang^3
#
#
#
# Elastic Constant Matrix: (Units=GPa)
#
#
# Indices 1 2 3 4 5 6 
#
# 1 134.0967 1.4086 20.2914 -0.0001 -46.7025 -0.0002
# 2 1.4086 59.2489 -10.5908 0.0003 1.8825 0.0006
# 3 20.2914 -10.5908 79.7658 -0.0001 -34.9229 0.0000
# 4 -0.0001 0.0003 -0.0001 16.2022 -0.0001 -2.8998
# 5 -46.7025 1.8825 -34.9229 -0.0001 36.2359 0.0001
# 6 -0.0002 0.0006 0.0000 -2.8998 0.0001 4.7278
#
#
#
# Elastic Compliance Matrix: (Units=1/GPa)
#
#
# Indices 1 2 3 4 5 6 
#
# 1 0.016491 0.000250 0.008888 0.000000 0.029808 0.000000
# 2 0.000250 0.017401 0.003446 -0.000001 0.002739 -0.000003
# 3 0.008888 0.003446 0.027109 0.000000 0.037404 -0.000001
# 4 0.000000 -0.000001 0.000000 0.069331 0.000000 0.042524
# 5 0.029808 0.002739 0.037404 0.000000 0.101921 -0.000002
# 6 0.000000 -0.000003 -0.000001 0.042524 -0.000002 0.237597
#
#
# Mechanical properties :
#
#
# Convention : Reuss Voigt Hill
#
# Bulk Modulus (GPa) = 11.60506 32.81443 22.20974
# Shear Modulus (GPa) = 10.56179 28.89998 19.73088
#
# Velocity S-wave (km/s) = 2.12766 3.51951 2.90808
# Velocity P-wave (km/s) = 3.31813 5.52998 4.56019
#
# Compressibility (1/GPa) = 0.08616928
#
# Stress axis : x y z
#
# Youngs Moduli (GPa) = 60.63918 57.46808 36.88792
#
# Poissons Ratio (x) = -0.01435 -0.32788
# Poissons Ratio (y) = -0.01514 -0.12712
# Poissons Ratio (z) = -0.53899 -0.19804
#
# Static dielectric constant tensor:
#      x y z
#    x 1.883110 0.000000 -0.023980 
#    y 0.000000 1.884610 0.000000 
#    z -0.023980 0.000000 1.925750 
# 
# From -- ./inp_files/308599.got.cif
#   From: 2010.05.17/outbox.cif.g08.bks.cpg/sg12_155_cif.got.tgz:308599.got - 2010.06.03 13:09:07.
