data_PCOD9176351
_publ_section_title
;
Structure prediction by ZEFSAII (Michael W. Deem and Ramdas Pophale) SiO2 
 PCOD9176351
Probable space group: C 2/M
;
_chemical_formula_sum "Si O2"
_cell_formula_units_Z 56
_cell_length_a 22.688328
_cell_length_b 18.739941
_cell_length_c 18.604965
_cell_angle_alpha 90.000000
_cell_angle_beta 163.354015
_cell_angle_gamma 90.000000
_cell_volume 2265.998601
_symmetry_space_group_name_H-M "C 2/M"
_symmetry_group_IT_number 12
_symmetry_cell_setting 'monoclinic'
loop_
_space_group_symop_operation_xyz
x,y,z
-x,y,-z
-x,-y,-z
x,-y,z
1/2+x,1/2+y,z
1/2-x,1/2+y,-z
1/2-x,1/2-y,-z
1/2+x,1/2-y,z
loop_
_atom_site_type_symbol
_atom_site_label
_atom_site_fract_x
_atom_site_fract_y
_atom_site_fract_z
Si Si1 0.691590 0.918287 0.669525
Si Si2 0.428580 0.291876 0.996819
Si Si3 0.505194 0.311124 0.239559
Si Si4 0.270299 0.649784 0.251824
Si Si5 0.869348 0.918031 0.509832
Si Si6 0.855237 0.580061 0.030713
Si Si7 0.524684 0.823763 0.702142
O O1 0.500000 0.921853 0.500000
O O2 0.623335 0.865207 0.525375
O O3 0.740617 0.000000 0.705546
O O4 0.866326 0.874603 0.915857
O O5 0.560745 0.284998 0.224281
O O6 0.500000 0.271892 0.000000
O O7 0.250414 0.232383 0.795023
O O8 0.625255 0.380488 0.406501
O O9 0.520349 0.256363 0.324481
O O10 0.258143 0.324588 0.944167
O O11 0.500000 0.626902 0.500000
O O12 0.249627 0.628049 0.310229
O O13 0.128288 0.605806 0.031610
O O14 0.113188 0.917548 0.771655
O O15 0.802792 0.000000 0.432012
O O16 0.927639 0.500000 0.124503
O O17 0.967014 0.632766 0.214626
#
# Coordination Sequence:
#
# PCOD9176351 Si02
#       7
#     8   8   8   8   8   8   8
#     4  11  23  39  62  89 117 152 198 245 286 336
#     4  12  25  41  59  82 119 158 195 234 289 356
#     4  10  20  34  57  88 118 154 189 237 294 335
#     4  10  19  35  60  88 115 147 194 238 284 344
#     4   9  18  31  54  88 119 146 184 240 294 340
#     4   9  16  28  54  90 123 146 177 239 300 343
#     4  10  18  34  59  91 119 141 194 246 288 338
#
# _framework density 24.713166000000001
#
# number of rings (size 3 to 8) (size 9 to 14) (size 15 to 20)
#    0.000    1.857    2.857    2.143    2.000    3.143 
#    0.000    2.857    0.000    1.714    0.000    0.000 
#    0.000    0.000    0.000    0.000    0.000    0.000 
#
# Total GULP energy -156547.117752 kJ/mol
# GULP energy per Si atom -5590.968491 kJ/mol
# Density = 2.465692 g / cm^3
# Si number density = 24.713166 Si / 1000 Ang^3
#
#
#
# Elastic Constant Matrix: (Units=GPa)
#
#
# Indices 1 2 3 4 5 6 
#
# 1 97.2761 1.5971 25.0785 -0.0232 -25.7135 -0.0079
# 2 1.5971 138.6555 26.3059 -0.0063 -28.3274 -0.0018
# 3 25.0785 26.3059 57.7569 -0.0038 -17.8624 -0.0149
# 4 -0.0232 -0.0063 -0.0038 10.5633 -0.0124 -8.3597
# 5 -25.7135 -28.3274 -17.8624 -0.0124 46.4140 -0.0054
# 6 -0.0079 -0.0018 -0.0149 -8.3597 -0.0054 15.8914
#
#
#
# Elastic Compliance Matrix: (Units=1/GPa)
#
#
# Indices 1 2 3 4 5 6 
#
# 1 0.013244 0.002121 -0.004594 0.000070 0.006864 0.000041
# 2 0.002121 0.008909 -0.003330 0.000027 0.005331 0.000015
# 3 -0.004594 -0.003330 0.022032 0.000027 0.003902 0.000033
# 4 0.000070 0.000027 0.000027 0.162189 0.000118 0.085320
# 5 0.006864 0.005331 0.003902 0.000118 0.030103 0.000080
# 6 0.000041 0.000015 0.000033 0.085320 0.000080 0.107810
#
#
# Mechanical properties :
#
#
# Convention : Reuss Voigt Hill
#
# Bulk Modulus (GPa) = 30.69433 44.40572 37.55003
# Shear Modulus (GPa) = 13.63321 30.62088 22.12704
#
# Velocity S-wave (km/s) = 2.35129 3.52383 2.99549
# Velocity P-wave (km/s) = 4.45181 5.87912 5.21453
#
# Compressibility (1/GPa) = 0.03257931
#
# Stress axis : x y z
#
# Youngs Moduli (GPa) = 75.50614 112.25206 45.38854
#
# Poissons Ratio (x) = -0.23812 0.20851
# Poissons Ratio (y) = -0.16017 0.15114
# Poissons Ratio (z) = 0.34688 0.37379
#
# Static dielectric constant tensor:
#      x y z
#    x 1.998290 0.000000 0.068000 
#    y 0.000000 1.901010 0.000000 
#    z 0.068000 0.000000 1.966600 
# 
# From -- ./inp_files/290864.got.cif
#   From: 2010.05.17/outbox.cif.g08.bks.cpg/sg12_146_cif.got.tgz:290864.got - 2010.06.03 13:09:07.
