data_PCOD9176307
_publ_section_title
;
Structure prediction by ZEFSAII (Michael W. Deem and Ramdas Pophale) SiO2 
 PCOD9176307
Probable space group: C 2/M
;
_chemical_formula_sum "Si O2"
_cell_formula_units_Z 32
_cell_length_a 11.016397
_cell_length_b 19.228909
_cell_length_c 8.315992
_cell_angle_alpha 90.000000
_cell_angle_beta 64.566105
_cell_angle_gamma 90.000000
_cell_volume 1590.871772
_symmetry_space_group_name_H-M "C 2/M"
_symmetry_group_IT_number 12
_symmetry_cell_setting 'monoclinic'
loop_
_space_group_symop_operation_xyz
x,y,z
-x,y,-z
-x,-y,-z
x,-y,z
1/2+x,1/2+y,z
1/2-x,1/2+y,-z
1/2-x,1/2-y,-z
1/2+x,1/2-y,z
loop_
_atom_site_type_symbol
_atom_site_label
_atom_site_fract_x
_atom_site_fract_y
_atom_site_fract_z
Si Si1 0.567726 0.858232 0.133795
Si Si2 0.352039 0.752852 0.662610
Si Si3 0.284673 0.861415 0.440109
Si Si4 0.157086 0.000000 0.442367
Si Si5 0.154418 0.500000 0.979149
O O1 0.630776 0.789230 0.175492
O O2 0.440736 0.877501 0.319717
O O3 0.500000 0.844351 0.000000
O O4 0.661312 0.926480 0.067814
O O5 0.500000 0.742506 0.500000
O O6 0.276920 0.809894 0.594840
O O7 0.273621 0.681152 0.680434
O O8 0.201860 0.930888 0.508420
O O9 0.242983 0.000000 0.227457
O O10 0.000000 0.000000 0.500000
O O11 0.000000 0.500000 0.000000
#
# Coordination Sequence:
#
# PCOD9176307 Si02
#       5
#     8   8   8   4   4
#     4  10  18  34  59  81 110 147 186 233 280 326
#     4   9  20  34  55  84 115 145 188 237 271 330
#     4  10  19  36  55  83 114 147 190 228 275 338
#     4  12  22  35  61  83 110 152 188 228 286 334
#     4  10  18  37  55  83 115 140 188 236 270 341
#
# _framework density 20.114757000000001
#
# number of rings (size 3 to 8) (size 9 to 14) (size 15 to 20)
#    0.000    2.000    5.000    0.750    0.000    2.000 
#    0.000    3.750    0.000    1.500    0.000    0.000 
#    0.000    0.000    0.000    0.000    0.000    0.000 
#
# Total GULP energy -89266.725856 kJ/mol
# GULP energy per Si atom -5579.170366 kJ/mol
# Density = 2.006898 g / cm^3
# Si number density = 20.114757 Si / 1000 Ang^3
#
#
#
# Elastic Constant Matrix: (Units=GPa)
#
#
# Indices 1 2 3 4 5 6 
#
# 1 57.9414 30.5791 9.3706 0.0000 -7.7037 0.0000
# 2 30.5791 105.9258 11.2245 0.0000 3.7439 0.0000
# 3 9.3706 11.2245 37.2429 0.0000 -3.9719 0.0000
# 4 0.0000 0.0000 0.0000 23.5336 0.0000 0.8054
# 5 -7.7037 3.7439 -3.9719 0.0000 38.6583 0.0000
# 6 0.0000 0.0000 0.0000 0.8054 0.0000 29.4537
#
#
#
# Elastic Compliance Matrix: (Units=1/GPa)
#
#
# Indices 1 2 3 4 5 6 
#
# 1 0.021566 -0.006057 -0.003114 0.000000 0.004564 0.000000
# 2 -0.006057 0.011514 -0.002218 0.000000 -0.002550 0.000000
# 3 -0.003114 -0.002218 0.028573 0.000000 0.002530 0.000000
# 4 0.000000 0.000000 0.000000 0.042532 0.000000 -0.001163
# 5 0.004564 -0.002550 0.002530 0.000000 0.027284 0.000000
# 6 0.000000 0.000000 0.000000 -0.001163 0.000000 0.033983
#
#
# Mechanical properties :
#
#
# Convention : Reuss Voigt Hill
#
# Bulk Modulus (GPa) = 25.72377 33.71762 29.72070
# Shear Modulus (GPa) = 24.85221 28.32483 26.58852
#
# Velocity S-wave (km/s) = 3.51881 3.75662 3.63966
# Velocity P-wave (km/s) = 5.41532 5.96785 5.69829
#
# Compressibility (1/GPa) = 0.03887454
#
# Stress axis : x y z
#
# Youngs Moduli (GPa) = 46.36938 86.84812 34.99855
#
# Poissons Ratio (x) = 0.52605 0.10898
# Poissons Ratio (y) = 0.28086 0.07763
# Poissons Ratio (z) = 0.14439 0.19265
#
# Static dielectric constant tensor:
#      x y z
#    x 1.729730 0.000000 0.015650 
#    y 0.000000 1.744720 0.000000 
#    z 0.015650 0.000000 1.751350 
# 
# From -- ./inp_files/46464.got.cif
#   From: 2010.05.17/outbox.cif.g08.bks.cpg/sg12_24_cif.got.tgz:46464.got - 2010.06.03 13:09:07.
