data_PCOD9176451
_publ_section_title
;
Structure prediction by ZEFSAII (Michael W. Deem and Ramdas Pophale) SiO2 
 PCOD9176451
Probable space group: C 2/M
;
_chemical_formula_sum "Si O2"
_cell_formula_units_Z 48
_cell_length_a 14.658507
_cell_length_b 27.475007
_cell_length_c 9.334468
_cell_angle_alpha 90.000000
_cell_angle_beta 137.646995
_cell_angle_gamma 90.000000
_cell_volume 2532.686243
_symmetry_space_group_name_H-M "C 2/M"
_symmetry_group_IT_number 12
_symmetry_cell_setting 'monoclinic'
loop_
_space_group_symop_operation_xyz
x,y,z
-x,y,-z
-x,-y,-z
x,-y,z
1/2+x,1/2+y,z
1/2-x,1/2+y,-z
1/2-x,1/2-y,-z
1/2+x,1/2-y,z
loop_
_atom_site_type_symbol
_atom_site_label
_atom_site_fract_x
_atom_site_fract_y
_atom_site_fract_z
Si Si1 0.458383 0.202571 0.785378
Si Si2 0.117681 0.554750 0.234411
Si Si3 0.205208 0.855751 0.582820
Si Si4 0.026363 0.186350 0.861044
Si Si5 0.719382 0.148831 0.996770
Si Si6 0.579308 0.944347 0.730706
O O1 0.310002 0.178822 0.615434
O O2 0.475629 0.258982 0.766853
O O3 0.500000 0.199569 0.000000
O O4 0.569528 0.172219 0.827448
O O5 0.145978 0.500000 0.214165
O O6 0.244256 0.589381 0.380893
O O7 0.041417 0.552198 0.294883
O O8 0.000000 0.578106 0.000000
O O9 0.220621 0.846401 0.771507
O O10 0.060803 0.847786 0.344527
O O11 0.181647 0.176821 0.997258
O O12 0.000000 0.177963 0.000000
O O13 0.692734 0.092986 0.918329
O O14 0.500000 0.925752 0.500000
O O15 0.629360 0.000000 0.764756
#
# Coordination Sequence:
#
# PCOD9176451 Si02
#       6
#     8   8   8   8   8   8
#     4   9  19  38  61  85 110 147 198 243 280 330
#     4  10  18  34  62  91 112 140 187 239 285 337
#     4  11  20  38  60  86 115 149 191 239 285 337
#     4  11  25  38  54  82 122 157 190 235 287 341
#     4  11  21  38  61  85 115 152 192 234 285 340
#     4  10  21  36  59  91 119 143 184 239 288 336
#
# _framework density 18.952207999999999
#
# number of rings (size 3 to 8) (size 9 to 14) (size 15 to 20)
#    0.000    1.667    3.333    2.000    2.333    0.000 
#    0.000    4.167    0.000    3.000    0.000    0.000 
#    0.000    0.000    0.000    0.000    0.000    0.000 
#
# Total GULP energy -133821.055541 kJ/mol
# GULP energy per Si atom -5575.877314 kJ/mol
# Density = 1.890907 g / cm^3
# Si number density = 18.952208 Si / 1000 Ang^3
#
#
#
# Elastic Constant Matrix: (Units=GPa)
#
#
# Indices 1 2 3 4 5 6 
#
# 1 91.2945 16.3813 14.8408 0.0000 0.2584 0.0000
# 2 16.3813 95.5381 11.8046 0.0000 4.2723 0.0000
# 3 14.8408 11.8046 56.1193 0.0000 -9.0091 0.0000
# 4 0.0000 0.0000 0.0000 15.9393 0.0000 -6.9204
# 5 0.2584 4.2723 -9.0091 0.0000 25.3396 0.0000
# 6 0.0000 0.0000 0.0000 -6.9204 0.0000 11.8116
#
#
#
# Elastic Compliance Matrix: (Units=1/GPa)
#
#
# Indices 1 2 3 4 5 6 
#
# 1 0.011717 -0.001611 -0.002901 0.000000 -0.000879 0.000000
# 2 -0.001611 0.011155 -0.002354 0.000000 -0.002701 0.000000
# 3 -0.002901 -0.002354 0.020309 0.000000 0.007647 0.000000
# 4 0.000000 0.000000 0.000000 0.084142 0.000000 0.049299
# 5 -0.000879 -0.002701 0.007647 0.000000 0.042647 0.000000
# 6 0.000000 0.000000 0.000000 0.049299 0.000000 0.113547
#
#
# Mechanical properties :
#
#
# Convention : Reuss Voigt Hill
#
# Bulk Modulus (GPa) = 33.95719 36.55615 35.25667
# Shear Modulus (GPa) = 16.28317 23.94644 20.11480
#
# Velocity S-wave (km/s) = 2.93434 3.55845 3.26136
# Velocity P-wave (km/s) = 5.42555 6.01780 5.72934
#
# Compressibility (1/GPa) = 0.02944884
#
# Stress axis : x y z
#
# Youngs Moduli (GPa) = 85.34825 89.64623 49.23913
#
# Poissons Ratio (x) = 0.14444 0.14283
# Poissons Ratio (y) = 0.13752 0.11591
# Poissons Ratio (z) = 0.24757 0.21102
#
# Static dielectric constant tensor:
#      x y z
#    x 1.535270 0.000000 0.066310 
#    y 0.000000 1.704620 0.000000 
#    z 0.066310 0.000000 1.595930 
# 
# From -- ./inp_files/67352.got.cif
#   From: 2010.05.17/outbox.cif.g08.bks.cpg/sg12_34_cif.got.tgz:67352.got - 2010.06.03 13:09:07.
