data_PCOD9176641
_publ_section_title
;
Structure prediction by ZEFSAII (Michael W. Deem and Ramdas Pophale) SiO2 
 PCOD9176641
Probable space group: C 2/M
;
_chemical_formula_sum "Si O2"
_cell_formula_units_Z 48
_cell_length_a 14.718393
_cell_length_b 13.838386
_cell_length_c 11.391363
_cell_angle_alpha 90.000000
_cell_angle_beta 96.716650
_cell_angle_gamma 90.000000
_cell_volume 2304.255110
_symmetry_space_group_name_H-M "C 2/M"
_symmetry_group_IT_number 12
_symmetry_cell_setting 'monoclinic'
loop_
_space_group_symop_operation_xyz
x,y,z
-x,y,-z
-x,-y,-z
x,-y,z
1/2+x,1/2+y,z
1/2-x,1/2+y,-z
1/2-x,1/2-y,-z
1/2+x,1/2-y,z
loop_
_atom_site_type_symbol
_atom_site_label
_atom_site_fract_x
_atom_site_fract_y
_atom_site_fract_z
Si Si1 0.922508 0.161650 0.226082
Si Si2 0.221317 0.606671 0.169068
Si Si3 0.596904 0.200573 0.970310
Si Si4 0.901998 0.750388 0.464032
Si Si5 0.287580 0.704176 0.670674
Si Si6 0.892885 0.106062 0.875527
O O1 0.830382 0.106741 0.179663
O O2 0.925082 0.171898 0.366260
O O3 0.013309 0.118060 0.184109
O O4 0.909169 0.269431 0.166178
O O5 0.188032 0.500000 0.197718
O O6 0.177358 0.637532 0.037741
O O7 0.201162 0.692135 0.259990
O O8 0.606627 0.305544 0.034242
O O9 0.500000 0.159560 0.000000
O O10 0.813594 0.694734 0.398458
O O11 0.861033 0.795067 0.576906
O O12 0.000000 0.699555 0.500000
O O13 0.312022 0.625348 0.771300
O O14 0.888626 0.000000 0.927622
#
# Coordination Sequence:
#
# PCOD9176641 Si02
#       6
#     8   8   8   8   8   8
#     4  10  19  33  55  85 110 140 181 229 277 336
#     4  10  20  35  57  81 110 145 185 227 271 325
#     4   9  20  35  54  82 112 146 179 220 274 333
#     4  10  18  35  60  77 108 151 182 226 276 324
#     4   9  20  36  55  85 109 143 185 228 277 323
#     4  10  19  34  56  84 115 142 174 226 285 333
#
# _framework density 20.831028
#
# number of rings (size 3 to 8) (size 9 to 14) (size 15 to 20)
#    0.000    2.333    1.667    1.000    0.000    4.000 
#    0.000    9.167    0.000    3.000    0.000    0.000 
#    0.000    0.000    0.000    0.000    0.000    0.000 
#
# Total GULP energy -133839.625543 kJ/mol
# GULP energy per Si atom -5576.651064 kJ/mol
# Density = 2.078362 g / cm^3
# Si number density = 20.831028 Si / 1000 Ang^3
#
#
#
# Elastic Constant Matrix: (Units=GPa)
#
#
# Indices 1 2 3 4 5 6 
#
# 1 103.0406 15.6417 12.6191 0.0000 18.7990 0.0000
# 2 15.6417 65.9988 9.7738 0.0000 2.2903 0.0000
# 3 12.6191 9.7738 68.0803 0.0000 -7.0575 0.0000
# 4 0.0000 0.0000 0.0000 4.6936 0.0000 -5.5954
# 5 18.7990 2.2903 -7.0575 0.0000 41.1558 0.0000
# 6 0.0000 0.0000 0.0000 -5.5954 0.0000 -4.1734
#
#
#
# Elastic Compliance Matrix: (Units=1/GPa)
#
#
# Indices 1 2 3 4 5 6 
#
# 1 0.011313 -0.002143 -0.002354 0.000000 -0.005452 0.000000
# 2 -0.002143 0.015952 -0.001917 0.000000 -0.000237 0.000000
# 3 -0.002354 -0.001917 0.015804 0.000000 0.003892 0.000000
# 4 0.000000 0.000000 0.000000 0.081997 0.000000 -0.109936
# 5 -0.005452 -0.000237 0.003892 0.000000 0.027469 0.000000
# 6 0.000000 0.000000 0.000000 -0.109936 0.000000 -0.092219
#
#
# Mechanical properties :
#
#
# Convention : Reuss Voigt Hill
#
# Bulk Modulus (GPa) = 33.07052 34.79878 33.93465
# Shear Modulus (GPa) = 60.07746 21.60756 40.84251
#
# Velocity S-wave (km/s) = 5.37615 3.22417 4.43274
# Velocity P-wave (km/s) = 7.37885 5.53190 6.52109
#
# Compressibility (1/GPa) = 0.03023841
#
# Stress axis : x y z
#
# Youngs Moduli (GPa) = 88.39137 62.68820 63.27631
#
# Poissons Ratio (x) = 0.13436 0.14898
# Poissons Ratio (y) = 0.18946 0.12133
# Poissons Ratio (z) = 0.20811 0.12020
#
# Static dielectric constant tensor:
#      x y z
#    x 1.794010 0.000000 0.005260 
#    y 0.000000 1.713130 0.000000 
#    z 0.005260 0.000000 1.799330 
# 
# From -- ./inp_files/142905.got.cif
#   From: 2010.05.17/outbox.cif.g08.bks.cpg/sg12_72_cif.got.tgz:142905.got - 2010.06.03 13:09:07.
