data_PCOD9176725
_publ_section_title
;
Structure prediction by ZEFSAII (Michael W. Deem and Ramdas Pophale) SiO2 
 PCOD9176725
Probable space group: C 2/M
;
_chemical_formula_sum "Si O2"
_cell_formula_units_Z 48
_cell_length_a 21.078414
_cell_length_b 8.259649
_cell_length_c 15.651381
_cell_angle_alpha 90.000000
_cell_angle_beta 111.796177
_cell_angle_gamma 90.000000
_cell_volume 2530.107964
_symmetry_space_group_name_H-M "C 2/M"
_symmetry_group_IT_number 12
_symmetry_cell_setting 'monoclinic'
loop_
_space_group_symop_operation_xyz
x,y,z
-x,y,-z
-x,-y,-z
x,-y,z
1/2+x,1/2+y,z
1/2-x,1/2+y,-z
1/2-x,1/2-y,-z
1/2+x,1/2-y,z
loop_
_atom_site_type_symbol
_atom_site_label
_atom_site_fract_x
_atom_site_fract_y
_atom_site_fract_z
Si Si1 0.076072 0.302229 0.758740
Si Si2 0.923878 0.695540 0.739004
Si Si3 0.327866 0.195685 0.038753
Si Si4 0.172230 0.191669 0.461105
Si Si5 0.076024 0.695530 0.565366
Si Si6 0.076078 0.697701 0.067243
O O1 0.076170 0.500000 0.759240
O O2 0.130639 0.248724 0.856577
O O3 0.090831 0.249364 0.669406
O O4 0.999659 0.251681 0.747557
O O5 0.924788 0.500000 0.740120
O O6 0.868238 0.749074 0.642791
O O7 0.910460 0.751191 0.829141
O O8 0.329688 0.000000 0.039698
O O9 0.250000 0.250000 0.000000
O O10 0.368736 0.251397 0.974863
O O11 0.250000 0.250000 0.500000
O O12 0.131100 0.252107 0.523501
O O13 0.171636 0.000000 0.461347
O O14 0.074589 0.500000 0.565139
O O15 0.000000 0.750660 0.500000
O O16 0.076479 0.500000 0.067534
O O17 0.000000 0.746206 0.000000
#
# Coordination Sequence:
#
# PCOD9176725 Si02
#       6
#     8   8   8   8   8   8
#     4   9  17  32  59  87 113 149 190 229 280 345
#     4  10  18  35  62  89 113 147 195 241 286 342
#     4  10  20  35  54  83 118 151 186 231 282 334
#     4  12  26  42  59  84 119 155 193 244 297 347
#     4  10  19  36  63  90 115 150 192 235 287 351
#     4   9  16  30  59  89 111 143 195 240 273 329
#
# _framework density 18.971522
#
# number of rings (size 3 to 8) (size 9 to 14) (size 15 to 20)
#    0.000    2.000    3.333    1.500    0.000    1.667 
#    0.000    5.833    0.000    1.000    0.000    0.000 
#    0.000    0.000    0.000    0.000    0.000    0.000 
#
# Total GULP energy -134011.103182 kJ/mol
# GULP energy per Si atom -5583.795966 kJ/mol
# Density = 1.892834 g / cm^3
# Si number density = 18.971522 Si / 1000 Ang^3
#
#
#
# Elastic Constant Matrix: (Units=GPa)
#
#
# Indices 1 2 3 4 5 6 
#
# 1 198.6611 16.4256 134.9295 0.0000 -3.5281 0.0000
# 2 16.4256 11.6894 23.4812 0.0000 -3.1302 0.0000
# 3 134.9295 23.4812 233.7400 0.0000 -11.8943 0.0000
# 4 0.0000 0.0000 0.0000 10.0851 0.0000 7.1584
# 5 -3.5281 -3.1302 -11.8943 0.0000 39.4852 0.0000
# 6 0.0000 0.0000 0.0000 7.1584 0.0000 26.2890
#
#
#
# Elastic Compliance Matrix: (Units=1/GPa)
#
#
# Indices 1 2 3 4 5 6 
#
# 1 0.008369 -0.002752 -0.004598 0.000000 -0.000856 0.000000
# 2 -0.002752 0.109198 -0.009092 0.000000 0.005672 0.000000
# 3 -0.004598 -0.009092 0.007910 0.000000 0.001251 0.000000
# 4 0.000000 0.000000 0.000000 0.122912 0.000000 -0.033468
# 5 -0.000856 0.005672 0.001251 0.000000 0.026076 0.000000
# 6 0.000000 0.000000 0.000000 -0.033468 0.000000 0.047152
#
#
# Mechanical properties :
#
#
# Convention : Reuss Voigt Hill
#
# Bulk Modulus (GPa) = 10.80021 88.19589 49.49805
# Shear Modulus (GPa) = 12.97465 33.12215 23.04840
#
# Velocity S-wave (km/s) = 2.61799 4.18292 3.48932
# Velocity P-wave (km/s) = 3.85275 8.36173 6.51008
#
# Compressibility (1/GPa) = 0.09259076
#
# Stress axis : x y z
#
# Youngs Moduli (GPa) = 119.48596 9.15768 126.42664
#
# Poissons Ratio (x) = 0.02521 0.58134
# Poissons Ratio (y) = 0.32888 1.14952
# Poissons Ratio (z) = 0.54943 0.08326
#
# Static dielectric constant tensor:
#      x y z
#    x 1.595330 0.000000 -0.029480 
#    y 0.000000 1.666310 0.000000 
#    z -0.029480 0.000000 1.652880 
# 
# From -- ./inp_files/230379.got.cif
#   From: 2010.05.17/outbox.cif.g08.bks.cpg/sg12_116_cif.got.tgz:230379.got - 2010.06.03 13:09:07.
