data_PCOD9176534
_publ_section_title
;
Structure prediction by ZEFSAII (Michael W. Deem and Ramdas Pophale) SiO2 
 PCOD9176534
Probable space group: C 2/M
;
_chemical_formula_sum "Si O2"
_cell_formula_units_Z 44
_cell_length_a 9.556849
_cell_length_b 23.884594
_cell_length_c 12.300581
_cell_angle_alpha 90.000000
_cell_angle_beta 111.266059
_cell_angle_gamma 90.000000
_cell_volume 2616.558422
_symmetry_space_group_name_H-M "C 2/M"
_symmetry_group_IT_number 12
_symmetry_cell_setting 'monoclinic'
loop_
_space_group_symop_operation_xyz
x,y,z
-x,y,-z
-x,-y,-z
x,-y,z
1/2+x,1/2+y,z
1/2-x,1/2+y,-z
1/2-x,1/2-y,-z
1/2+x,1/2-y,z
loop_
_atom_site_type_symbol
_atom_site_label
_atom_site_fract_x
_atom_site_fract_y
_atom_site_fract_z
Si Si1 0.141892 0.000000 0.305526
Si Si2 0.091989 0.222671 0.418831
Si Si3 0.471331 0.843279 0.660929
Si Si4 0.948382 0.592781 0.867234
Si Si5 0.256147 0.880450 0.402939
Si Si6 0.805274 0.500000 0.118624
Si Si7 0.703557 0.500000 0.851275
O O1 0.196408 0.056639 0.380130
O O2 0.962510 0.000000 0.242772
O O3 0.217017 0.000000 0.206448
O O4 0.250000 0.250000 0.500000
O O5 0.013175 0.276164 0.342420
O O6 0.127759 0.167099 0.361614
O O7 0.000000 0.206895 0.500000
O O8 0.426977 0.861701 0.768419
O O9 0.348068 0.866558 0.539760
O O10 0.626209 0.869594 0.660933
O O11 0.802631 0.553607 0.842882
O O12 0.082548 0.552562 0.862838
O O13 0.000000 0.614139 0.000000
O O14 0.701241 0.500000 0.982153
#
# Coordination Sequence:
#
# PCOD9176534 Si02
#       7
#     4   8   8   8   8   4   4
#     4  12  21  33  52  86 122 135 171 239 282 319
#     4  10  18  35  55  78 106 143 185 212 260 335
#     4  10  18  36  58  80 108 143 189 228 261 330
#     4   9  18  35  58  79 102 147 194 223 262 322
#     4  10  22  33  54  88 110 147 179 218 286 324
#     4   9  17  34  57  71 107 153 191 213 256 348
#     4   9  21  34  48  81 112 152 183 215 273 323
#
# _framework density 16.815982000000002
#
# number of rings (size 3 to 8) (size 9 to 14) (size 15 to 20)
#    0.000    2.182    5.455    1.364    0.000    5.818 
#    0.000    1.364    0.000    3.273    0.000    0.000 
#    0.000    0.000    0.000    0.000    0.000    0.000 
#
# Total GULP energy -122561.031962 kJ/mol
# GULP energy per Si atom -5570.955998 kJ/mol
# Density = 1.677771 g / cm^3
# Si number density = 16.815982 Si / 1000 Ang^3
#
#
#
# Elastic Constant Matrix: (Units=GPa)
#
#
# Indices 1 2 3 4 5 6 
#
# 1 78.9684 31.0360 33.2081 0.0000 -0.9526 0.0000
# 2 31.0360 128.6774 43.1746 0.0000 0.1202 0.0000
# 3 33.2081 43.1746 70.5667 0.0000 -21.3749 0.0000
# 4 0.0000 0.0000 0.0000 9.8141 0.0000 -6.6001
# 5 -0.9526 0.1202 -21.3749 0.0000 24.6801 0.0000
# 6 0.0000 0.0000 0.0000 -6.6001 0.0000 21.3446
#
#
#
# Elastic Compliance Matrix: (Units=1/GPa)
#
#
# Indices 1 2 3 4 5 6 
#
# 1 0.017064 -0.000758 -0.009985 0.000000 -0.007986 0.000000
# 2 -0.000758 0.010822 -0.008526 0.000000 -0.007466 0.000000
# 3 -0.009985 -0.008526 0.032511 0.000000 0.027813 0.000000
# 4 0.000000 0.000000 0.000000 0.128646 0.000000 0.039779
# 5 -0.007986 -0.007466 0.027813 0.000000 0.064335 0.000000
# 6 0.000000 0.000000 0.000000 0.039779 0.000000 0.059151
#
#
# Mechanical properties :
#
#
# Convention : Reuss Voigt Hill
#
# Bulk Modulus (GPa) = 45.74869 54.78331 50.26600
# Shear Modulus (GPa) = 13.95272 22.55402 18.25337
#
# Velocity S-wave (km/s) = 2.88363 3.66625 3.29823
# Velocity P-wave (km/s) = 6.19287 7.11131 6.66792
#
# Compressibility (1/GPa) = 0.02185855
#
# Stress axis : x y z
#
# Youngs Moduli (GPa) = 58.60319 92.40601 30.75866
#
# Poissons Ratio (x) = 0.07003 0.30714
# Poissons Ratio (y) = 0.04441 0.26225
# Poissons Ratio (z) = 0.58518 0.78785
#
# Static dielectric constant tensor:
#      x y z
#    x 1.571650 0.000000 0.013100 
#    y 0.000000 1.581990 0.000000 
#    z 0.013100 0.000000 1.560570 
# 
# From -- ./inp_files/122140.got.cif
#   From: 2010.05.17/outbox.cif.g08.bks.cpg/sg12_62_cif.got.tgz:122140.got - 2010.06.03 13:09:07.
