data_PCOD9176434
_publ_section_title
;
Structure prediction by ZEFSAII (Michael W. Deem and Ramdas Pophale) SiO2 
 PCOD9176434
Probable space group: C 2/M
;
_chemical_formula_sum "Si O2"
_cell_formula_units_Z 48
_cell_length_a 14.319788
_cell_length_b 14.237654
_cell_length_c 12.030214
_cell_angle_alpha 90.000000
_cell_angle_beta 52.891913
_cell_angle_gamma 90.000000
_cell_volume 1956.043028
_symmetry_space_group_name_H-M "C 2/M"
_symmetry_group_IT_number 12
_symmetry_cell_setting 'monoclinic'
loop_
_space_group_symop_operation_xyz
x,y,z
-x,y,-z
-x,-y,-z
x,-y,z
1/2+x,1/2+y,z
1/2-x,1/2+y,-z
1/2-x,1/2-y,-z
1/2+x,1/2-y,z
loop_
_atom_site_type_symbol
_atom_site_label
_atom_site_fract_x
_atom_site_fract_y
_atom_site_fract_z
Si Si1 0.425911 0.898676 0.405448
Si Si2 0.468551 0.388380 0.154097
Si Si3 0.787254 0.299982 0.671036
Si Si4 0.783068 0.099909 0.619179
Si Si5 0.383776 0.765118 0.835251
Si Si6 0.126312 0.607140 0.953600
O O1 0.376386 0.877633 0.562951
O O2 0.309467 0.902216 0.413367
O O3 0.503243 0.819656 0.293870
O O4 0.484221 0.000000 0.355265
O O5 0.459060 0.500000 0.188072
O O6 0.344503 0.334174 0.259874
O O7 0.567093 0.334784 0.156550
O O8 0.500000 0.381647 0.000000
O O9 0.834235 0.204180 0.578544
O O10 0.798545 0.279019 0.792394
O O11 0.850217 0.000000 0.567699
O O12 0.711140 0.102144 0.786924
O O13 0.338522 0.826905 0.970701
O O14 0.110550 0.500000 0.005425
O O15 0.000000 0.641031 0.000000
#
# Coordination Sequence:
#
# PCOD9176434 Si02
#       6
#     8   8   8   8   8   8
#     4  11  23  42  67  96 132 172 219 277 333 388
#     4  11  26  47  68  97 139 181 221 272 336 402
#     4  12  25  43  66  96 134 179 222 268 329 400
#     4  10  21  38  65  93 121 164 218 271 324 383
#     4  12  24  40  68  99 133 173 220 273 331 398
#     4  10  18  34  61  92 123 156 206 272 329 373
#
# _framework density 24.539337
#
# number of rings (size 3 to 8) (size 9 to 14) (size 15 to 20)
#    0.000    1.000    3.333    3.500    0.000    6.667 
#    0.000    3.333    0.000    2.000    0.000    0.000 
#    0.000    0.000    0.000    0.000    0.000    0.000 
#
# Total GULP energy -134218.334230 kJ/mol
# GULP energy per Si atom -5592.430593 kJ/mol
# Density = 2.448348 g / cm^3
# Si number density = 24.539337 Si / 1000 Ang^3
#
#
#
# Elastic Constant Matrix: (Units=GPa)
#
#
# Indices 1 2 3 4 5 6 
#
# 1 72.4918 33.4329 12.9082 0.0000 12.0877 0.0000
# 2 33.4329 155.5436 23.5346 0.0000 11.8315 0.0000
# 3 12.9082 23.5346 103.9276 0.0000 10.2385 0.0000
# 4 0.0000 0.0000 0.0000 14.7333 0.0000 -5.2594
# 5 12.0877 11.8315 10.2385 0.0000 32.5190 0.0000
# 6 0.0000 0.0000 0.0000 -5.2594 0.0000 8.1488
#
#
#
# Elastic Compliance Matrix: (Units=1/GPa)
#
#
# Indices 1 2 3 4 5 6 
#
# 1 0.016093 -0.002976 -0.000869 0.000000 -0.004626 0.000000
# 2 -0.002976 0.007337 -0.001174 0.000000 -0.001194 0.000000
# 3 -0.000869 -0.001174 0.010240 0.000000 -0.002474 0.000000
# 4 0.000000 0.000000 0.000000 0.088193 0.000000 0.056922
# 5 -0.004626 -0.001194 -0.002474 0.000000 0.033684 0.000000
# 6 0.000000 0.000000 0.000000 0.056922 0.000000 0.159457
#
#
# Mechanical properties :
#
#
# Convention : Reuss Voigt Hill
#
# Bulk Modulus (GPa) = 42.31673 52.41273 47.36473
# Shear Modulus (GPa) = 15.01865 28.55272 21.78568
#
# Velocity S-wave (km/s) = 2.47659 3.41478 2.98281
# Velocity P-wave (km/s) = 5.04578 6.07887 5.58626
#
# Compressibility (1/GPa) = 0.02363132
#
# Stress axis : x y z
#
# Youngs Moduli (GPa) = 62.13830 136.29274 97.65953
#
# Poissons Ratio (x) = 0.40557 0.08489
# Poissons Ratio (y) = 0.18491 0.11468
# Poissons Ratio (z) = 0.05402 0.16005
#
# Static dielectric constant tensor:
#      x y z
#    x 1.999990 0.000000 -0.028280 
#    y 0.000000 2.018140 0.000000 
#    z -0.028280 0.000000 1.925400 
# 
# From -- ./inp_files/143546.got.cif
#   From: 2010.05.17/outbox.cif.g08.bks.cpg/sg12_72_cif.got.tgz:143546.got - 2010.06.03 13:09:07.
