data_PCOD9176522
_publ_section_title
;
Structure prediction by ZEFSAII (Michael W. Deem and Ramdas Pophale) SiO2 
 PCOD9176522
Probable space group: C 2/M
;
_chemical_formula_sum "Si O2"
_cell_formula_units_Z 64
_cell_length_a 14.209099
_cell_length_b 26.268765
_cell_length_c 13.303015
_cell_angle_alpha 90.000000
_cell_angle_beta 37.846245
_cell_angle_gamma 90.000000
_cell_volume 3046.508690
_symmetry_space_group_name_H-M "C 2/M"
_symmetry_group_IT_number 12
_symmetry_cell_setting 'monoclinic'
loop_
_space_group_symop_operation_xyz
x,y,z
-x,y,-z
-x,-y,-z
x,-y,z
1/2+x,1/2+y,z
1/2-x,1/2+y,-z
1/2-x,1/2-y,-z
1/2+x,1/2-y,z
loop_
_atom_site_type_symbol
_atom_site_label
_atom_site_fract_x
_atom_site_fract_y
_atom_site_fract_z
Si Si1 0.269365 0.440968 0.549592
Si Si2 0.611120 0.444580 0.172666
Si Si3 0.547560 0.261841 0.113555
Si Si4 0.683139 0.094746 0.843528
Si Si5 0.251596 0.160962 0.531492
Si Si6 0.525363 0.367582 0.086425
Si Si7 0.696403 0.297196 0.195786
Si Si8 0.814361 0.241278 0.579857
O O1 0.226816 0.500000 0.562169
O O2 0.452036 0.436435 0.369528
O O3 0.234110 0.428719 0.694709
O O4 0.189981 0.393700 0.556918
O O5 0.595243 0.500000 0.138479
O O6 0.758447 0.442394 0.118711
O O7 0.622251 0.401915 0.078758
O O8 0.596364 0.311959 0.009926
O O9 0.370578 0.248613 0.259581
O O10 0.500000 0.391950 0.000000
O O11 0.636080 0.216336 0.987441
O O12 0.784527 0.145018 0.783810
O O13 0.500000 0.103660 0.000000
O O14 0.174000 0.190882 0.501161
O O15 0.359508 0.205012 0.488680
O O16 0.129139 0.145340 0.720860
O O17 0.599129 0.277871 0.182147
O O18 0.643104 0.267630 0.340293
#
# Coordination Sequence:
#
# PCOD9176522 Si02
#       8
#     8   8   8   8   8   8   8   8
#     4  10  21  39  61  85 120 160 199 246 300 355
#     4  10  22  40  59  87 121 155 203 252 296 352
#     4  10  20  34  55  82 115 160 190 230 297 355
#     4  12  23  37  60  90 124 160 198 245 296 358
#     4   9  19  33  55  82 112 150 191 244 295 346
#     4  10  19  36  59  83 114 151 197 247 301 355
#     4  11  21  34  56  85 120 157 194 233 296 362
#     4  10  18  35  54  81 118 146 195 244 288 348
#
# _framework density 21.007653999999999
#
# number of rings (size 3 to 8) (size 9 to 14) (size 15 to 20)
#    0.000    1.750    2.500    3.375    0.000    2.250 
#    0.000    5.625    0.000    1.500    0.000    2.625 
#    0.000   10.000    0.000    0.000    0.000    0.000 
#
# Total GULP energy -178344.438136 kJ/mol
# GULP energy per Si atom -5573.263692 kJ/mol
# Density = 2.095984 g / cm^3
# Si number density = 21.007654 Si / 1000 Ang^3
#
#
#
# Elastic Constant Matrix: (Units=GPa)
#
#
# Indices 1 2 3 4 5 6 
#
# 1 86.6878 21.7658 20.4457 0.0000 34.3486 0.0000
# 2 21.7658 135.2214 18.3397 0.0000 15.9994 0.0000
# 3 20.4457 18.3397 47.0483 0.0000 8.3259 0.0000
# 4 0.0000 0.0000 0.0000 20.7447 0.0000 1.3055
# 5 34.3486 15.9994 8.3259 0.0000 32.5037 0.0000
# 6 0.0000 0.0000 0.0000 1.3055 0.0000 17.0431
#
#
#
# Elastic Compliance Matrix: (Units=1/GPa)
#
#
# Indices 1 2 3 4 5 6 
#
# 1 0.021116 -0.000200 -0.005412 0.000000 -0.020829 0.000000
# 2 -0.000200 0.008143 -0.002530 0.000000 -0.003149 0.000000
# 3 -0.005412 -0.002530 0.024470 0.000000 0.000697 0.000000
# 4 0.000000 0.000000 0.000000 0.048439 0.000000 -0.003710
# 5 -0.020829 -0.003149 0.000697 0.000000 0.054149 0.000000
# 6 0.000000 0.000000 0.000000 -0.003710 0.000000 0.058959
#
#
# Mechanical properties :
#
#
# Convention : Reuss Voigt Hill
#
# Bulk Modulus (GPa) = 26.70678 43.33999 35.02339
# Shear Modulus (GPa) = 20.48839 27.95206 24.22022
#
# Velocity S-wave (km/s) = 3.12634 3.65165 3.39916
# Velocity P-wave (km/s) = 5.07666 6.20119 5.66689
#
# Compressibility (1/GPa) = 0.03744367
#
# Stress axis : x y z
#
# Youngs Moduli (GPa) = 47.35820 122.80181 40.86701
#
# Poissons Ratio (x) = 0.02460 0.22117
# Poissons Ratio (y) = 0.00949 0.10339
# Poissons Ratio (z) = 0.25631 0.31069
#
# Static dielectric constant tensor:
#      x y z
#    x 1.798030 0.000000 -0.018180 
#    y 0.000000 1.809290 0.000000 
#    z -0.018180 0.000000 1.783070 
# 
# From -- ./inp_files/218917.got.cif
#   From: 2010.05.17/outbox.cif.g08.bks.cpg/sg12_110_cif.got.tgz:218917.got - 2010.06.03 13:09:07.
