data_PCOD9176912
_publ_section_title
;
Structure prediction by ZEFSAII (Michael W. Deem and Ramdas Pophale) SiO2 
 PCOD9176912
Probable space group: C 2/M
;
_chemical_formula_sum "Si O2"
_cell_formula_units_Z 64
_cell_length_a 21.675096
_cell_length_b 19.637331
_cell_length_c 18.041953
_cell_angle_alpha 90.000000
_cell_angle_beta 153.673827
_cell_angle_gamma 90.000000
_cell_volume 3405.663434
_symmetry_space_group_name_H-M "C 2/M"
_symmetry_group_IT_number 12
_symmetry_cell_setting 'monoclinic'
loop_
_space_group_symop_operation_xyz
x,y,z
-x,y,-z
-x,-y,-z
x,-y,z
1/2+x,1/2+y,z
1/2-x,1/2+y,-z
1/2-x,1/2-y,-z
1/2+x,1/2-y,z
loop_
_atom_site_type_symbol
_atom_site_label
_atom_site_fract_x
_atom_site_fract_y
_atom_site_fract_z
Si Si1 0.402540 0.723481 0.796287
Si Si2 0.857537 0.576205 0.391705
Si Si3 0.512756 0.863729 0.177382
Si Si4 0.852784 0.419269 0.807216
Si Si5 0.318199 0.310526 0.869490
Si Si6 0.889008 0.681749 0.558065
Si Si7 0.715915 0.418540 0.806452
Si Si8 0.572471 0.281994 0.659190
O O1 0.481469 0.791257 0.857102
O O2 0.345965 0.726622 0.819745
O O3 0.270394 0.706549 0.604022
O O4 0.531679 0.672262 0.934887
O O5 0.809615 0.500000 0.356921
O O6 0.754770 0.619436 0.230205
O O7 0.881688 0.621084 0.490525
O O8 0.000000 0.572955 0.500000
O O9 0.639934 0.900223 0.270674
O O10 0.542919 0.847500 0.294669
O O11 0.368272 0.903659 0.006990
O O12 0.855722 0.500000 0.815006
O O13 0.735375 0.399601 0.739585
O O14 0.000000 0.394371 0.000000
O O15 0.214132 0.262730 0.803657
O O16 0.975577 0.743503 0.614245
O O17 0.683467 0.500000 0.778609
O O18 0.610520 0.360149 0.720441
O O19 0.500000 0.278229 0.500000
#
# Coordination Sequence:
#
# PCOD9176912 Si02
#       8
#     8   8   8   8   8   8   8   8
#     4  10  20  34  56  86 113 148 194 246 284 350
#     4  10  19  36  60  86 114 149 196 242 287 345
#     4  11  20  33  58  83 121 153 192 240 296 344
#     4   8  16  31  53  81 110 143 191 244 289 340
#     4  10  18  36  61  86 110 147 200 242 297 335
#     4  11  23  36  54  92 123 154 197 235 297 357
#     4  10  22  38  60  89 115 155 208 248 295 358
#     4  12  20  38  62  83 120 152 192 252 298 345
#
# _framework density 18.792227
#
# number of rings (size 3 to 8) (size 9 to 14) (size 15 to 20)
#    0.000    1.750    5.000    2.250    3.500    1.750 
#    0.000    5.000    0.000    0.000    0.000    0.875 
#    0.000    0.000    0.000    0.000    0.000    0.000 
#
# Total GULP energy -178255.058147 kJ/mol
# GULP energy per Si atom -5570.470567 kJ/mol
# Density = 1.874946 g / cm^3
# Si number density = 18.792227 Si / 1000 Ang^3
#
#
#
# Elastic Constant Matrix: (Units=GPa)
#
#
# Indices 1 2 3 4 5 6 
#
# 1 44.3288 32.3504 36.9079 -0.0007 -0.2256 -0.0003
# 2 32.3504 117.6203 29.4103 -0.0003 8.9517 -0.0001
# 3 36.9079 29.4103 75.3681 -0.0012 11.6394 -0.0005
# 4 -0.0007 -0.0003 -0.0012 32.6623 -0.0008 12.3311
# 5 -0.2256 8.9517 11.6394 -0.0008 17.6309 -0.0003
# 6 -0.0003 -0.0001 -0.0005 12.3311 -0.0003 23.3226
#
#
#
# Elastic Compliance Matrix: (Units=1/GPa)
#
#
# Indices 1 2 3 4 5 6 
#
# 1 0.049076 -0.009168 -0.023686 0.000001 0.020919 0.000000
# 2 -0.009168 0.011244 0.001115 0.000000 -0.006562 0.000000
# 3 -0.023686 0.001115 0.027355 0.000000 -0.018928 0.000000
# 4 0.000001 0.000000 0.000000 0.038252 0.000001 -0.020225
# 5 0.020919 -0.006562 -0.018928 0.000001 0.072814 0.000000
# 6 0.000000 0.000000 0.000000 -0.020225 0.000000 0.053570
#
#
# Mechanical properties :
#
#
# Convention : Reuss Voigt Hill
#
# Bulk Modulus (GPa) = 41.32439 48.29496 44.80967
# Shear Modulus (GPa) = 15.43901 23.96640 19.70271
#
# Velocity S-wave (km/s) = 2.86940 3.57506 3.24149
# Velocity P-wave (km/s) = 5.74594 6.54191 6.15680
#
# Compressibility (1/GPa) = 0.02419878
#
# Stress axis : x y z
#
# Youngs Moduli (GPa) = 20.37638 88.93644 36.55585
#
# Poissons Ratio (x) = 0.81533 0.86587
# Poissons Ratio (y) = 0.18680 -0.04077
# Poissons Ratio (z) = 0.48264 -0.09918
#
# Static dielectric constant tensor:
#      x y z
#    x 1.679370 0.000000 0.018860 
#    y 0.000000 1.698320 0.000000 
#    z 0.018860 0.000000 1.699450 
# 
# From -- ./inp_files/285782.got.cif
#   From: 2010.05.17/outbox.cif.g08.bks.cpg/sg12_143_cif.got.tgz:285782.got - 2010.06.03 13:09:07.
