data_PCOD9176209
_publ_section_title
;
Structure prediction by ZEFSAII (Michael W. Deem and Ramdas Pophale) SiO2 
 PCOD9176209
Probable space group: C 2/M
;
_chemical_formula_sum "Si O2"
_cell_formula_units_Z 48
_cell_length_a 20.819139
_cell_length_b 7.608789
_cell_length_c 14.048296
_cell_angle_alpha 90.000000
_cell_angle_beta 89.763443
_cell_angle_gamma 90.000000
_cell_volume 2225.349628
_symmetry_space_group_name_H-M "C 2/M"
_symmetry_group_IT_number 12
_symmetry_cell_setting 'monoclinic'
loop_
_space_group_symop_operation_xyz
x,y,z
-x,y,-z
-x,-y,-z
x,-y,z
1/2+x,1/2+y,z
1/2-x,1/2+y,-z
1/2-x,1/2-y,-z
1/2+x,1/2-y,z
loop_
_atom_site_type_symbol
_atom_site_label
_atom_site_fract_x
_atom_site_fract_y
_atom_site_fract_z
Si Si1 0.049830 0.784020 0.418676
Si Si2 0.125467 0.215142 0.865395
Si Si3 0.691571 0.697411 0.433489
Si Si4 0.485775 0.714467 0.794495
Si Si5 0.253950 0.204993 0.767197
Si Si6 0.137992 0.213077 0.083418
O O1 0.121622 0.715364 0.439388
O O2 0.028672 0.729373 0.313099
O O3 0.000000 0.730656 0.500000
O O4 0.049955 0.000000 0.416380
O O5 0.184005 0.272615 0.797987
O O6 0.055510 0.271713 0.830377
O O7 0.126162 0.000000 0.864974
O O8 0.137951 0.270198 0.973961
O O9 0.678238 0.500000 0.463019
O O10 0.750000 0.750000 0.500000
O O11 0.714736 0.705328 0.324333
O O12 0.486172 0.500000 0.795854
O O13 0.427529 0.769076 0.863478
O O14 0.301456 0.222830 0.856445
O O15 0.247856 0.000000 0.741856
O O16 0.139702 0.000000 0.084929
#
# Coordination Sequence:
#
# PCOD9176209 Si02
#       6
#     8   8   8   8   8   8
#     4   9  18  32  55  84 108 135 179 232 278 321
#     4   9  19  31  52  84 113 145 189 233 273 320
#     4  11  23  40  61  86 111 143 181 226 278 329
#     4   9  16  30  53  81 109 139 183 238 280 315
#     4  11  22  36  55  82 115 151 183 222 273 333
#     4  10  18  34  57  82 110 144 188 237 280 320
#
# _framework density 21.569644
#
# number of rings (size 3 to 8) (size 9 to 14) (size 15 to 20)
#    0.000    2.167    1.667    2.000    2.333    2.000 
#    0.000    0.833    0.000    8.000    0.000    0.000 
#    0.000    0.000    0.000    0.000    0.000    0.000 
#
# Total GULP energy -134088.471849 kJ/mol
# GULP energy per Si atom -5587.019660 kJ/mol
# Density = 2.152055 g / cm^3
# Si number density = 21.569644 Si / 1000 Ang^3
#
#
#
# Elastic Constant Matrix: (Units=GPa)
#
#
# Indices 1 2 3 4 5 6 
#
# 1 114.5284 -2.1412 27.8401 0.0000 -3.3241 0.0000
# 2 -2.1412 37.5418 -6.4672 0.0000 2.9179 0.0000
# 3 27.8401 -6.4672 79.3538 0.0000 2.6977 0.0000
# 4 0.0000 0.0000 0.0000 14.4586 0.0000 9.7632
# 5 -3.3241 2.9179 2.6977 0.0000 44.4438 0.0000
# 6 0.0000 0.0000 0.0000 9.7632 0.0000 9.4761
#
#
#
# Elastic Compliance Matrix: (Units=1/GPa)
#
#
# Indices 1 2 3 4 5 6 
#
# 1 0.009584 -0.000112 -0.003403 0.000000 0.000931 0.000000
# 2 -0.000112 0.027181 0.002320 0.000000 -0.001934 0.000000
# 3 -0.003403 0.002320 0.014028 0.000000 -0.001258 0.000000
# 4 0.000000 0.000000 0.000000 0.227292 0.000000 -0.234177
# 5 0.000931 -0.001934 -0.001258 0.000000 0.022773 0.000000
# 6 0.000000 0.000000 0.000000 -0.234177 0.000000 0.346799
#
#
# Mechanical properties :
#
#
# Convention : Reuss Voigt Hill
#
# Bulk Modulus (GPa) = 20.66025 29.98751 25.32388
# Shear Modulus (GPa) = 7.50548 27.82186 17.66367
#
# Velocity S-wave (km/s) = 1.86741 3.59536 2.86477
# Velocity P-wave (km/s) = 3.77476 5.58286 4.76535
#
# Compressibility (1/GPa) = 0.04840212
#
# Stress axis : x y z
#
# Youngs Moduli (GPa) = 104.34490 36.79099 71.28822
#
# Poissons Ratio (x) = 0.00412 0.24260
# Poissons Ratio (y) = 0.01168 -0.16540
# Poissons Ratio (z) = 0.35509 -0.08536
#
# Static dielectric constant tensor:
#      x y z
#    x 1.783220 0.000000 0.003400 
#    y 0.000000 1.802950 0.000000 
#    z 0.003400 0.000000 1.722610 
# 
# From -- ./inp_files/221686.got.cif
#   From: 2010.05.17/outbox.cif.g08.bks.cpg/sg12_111_cif.got.tgz:221686.got - 2010.06.03 13:09:07.
