data_PCOD9176743
_publ_section_title
;
Structure prediction by ZEFSAII (Michael W. Deem and Ramdas Pophale) SiO2 
 PCOD9176743
Probable space group: C 2/M
;
_chemical_formula_sum "Si O2"
_cell_formula_units_Z 64
_cell_length_a 15.352954
_cell_length_b 15.324286
_cell_length_c 15.879534
_cell_angle_alpha 90.000000
_cell_angle_beta 45.936131
_cell_angle_gamma 90.000000
_cell_volume 2684.577903
_symmetry_space_group_name_H-M "C 2/M"
_symmetry_group_IT_number 12
_symmetry_cell_setting 'monoclinic'
loop_
_space_group_symop_operation_xyz
x,y,z
-x,y,-z
-x,-y,-z
x,-y,z
1/2+x,1/2+y,z
1/2-x,1/2+y,-z
1/2-x,1/2-y,-z
1/2+x,1/2-y,z
loop_
_atom_site_type_symbol
_atom_site_label
_atom_site_fract_x
_atom_site_fract_y
_atom_site_fract_z
Si Si1 0.958609 0.650207 0.624884
Si Si2 0.078125 0.846650 0.302613
Si Si3 0.732120 0.662688 0.697968
Si Si4 0.248547 0.130534 0.327443
Si Si5 0.990309 0.399153 0.795959
Si Si6 0.485801 0.597587 0.910354
Si Si7 0.244432 0.894398 0.040270
Si Si8 0.695249 0.350888 0.545857
O O1 0.962447 0.754623 0.630074
O O2 0.816136 0.623727 0.714223
O O3 0.008204 0.625350 0.684688
O O4 0.000000 0.627834 0.500000
O O5 0.146312 0.899702 0.330791
O O6 0.181777 0.845728 0.161227
O O7 0.949171 0.869970 0.348103
O O8 0.761191 0.764702 0.670959
O O9 0.590042 0.659798 0.807825
O O10 0.756353 0.619053 0.591135
O O11 0.390989 0.110649 0.225343
O O12 0.222793 0.103620 0.439920
O O13 0.959694 0.500000 0.811672
O O14 0.873469 0.358894 0.921375
O O15 0.515688 0.500000 0.858658
O O16 0.351676 0.616900 0.970164
O O17 0.500000 0.597442 0.000000
O O18 0.249727 0.000000 0.056933
O O19 0.750000 0.250000 0.500000
#
# Coordination Sequence:
#
# PCOD9176743 Si02
#       8
#     8   8   8   8   8   8   8   8
#     4  11  22  39  65  99 129 167 214 268 337 398
#     4  11  21  39  66  96 130 170 216 272 325 387
#     4  10  19  35  59  92 121 159 205 265 324 393
#     4  10  22  38  60  93 124 169 219 266 321 379
#     4  11  25  45  64  90 132 181 226 270 328 393
#     4  10  20  37  59  86 122 162 204 258 324 387
#     4  10  23  42  64  90 127 176 222 267 323 388
#     4  10  18  35  63  90 128 163 204 263 328 387
#
# _framework density 23.839873999999998
#
# number of rings (size 3 to 8) (size 9 to 14) (size 15 to 20)
#    0.000    1.625    1.250    5.625    0.000    3.250 
#    4.500    3.750    0.000    3.375    0.000    0.000 
#    0.000    0.000    0.000    0.000    0.000    0.000 
#
# Total GULP energy -178188.678768 kJ/mol
# GULP energy per Si atom -5568.396211 kJ/mol
# Density = 2.378561 g / cm^3
# Si number density = 23.839874 Si / 1000 Ang^3
#
#
#
# Elastic Constant Matrix: (Units=GPa)
#
#
# Indices 1 2 3 4 5 6 
#
# 1 122.9097 5.7686 17.8000 0.0000 -6.6844 0.0000
# 2 5.7686 35.7063 4.7444 0.0000 5.0632 0.0000
# 3 17.8000 4.7444 92.9548 0.0000 -11.8414 0.0000
# 4 0.0000 0.0000 0.0000 23.3123 0.0000 -10.4378
# 5 -6.6844 5.0632 -11.8414 0.0000 30.9041 0.0000
# 6 0.0000 0.0000 0.0000 -10.4378 0.0000 7.2282
#
#
#
# Elastic Compliance Matrix: (Units=1/GPa)
#
#
# Indices 1 2 3 4 5 6 
#
# 1 0.008483 -0.001410 -0.001355 0.000000 0.001546 0.000000
# 2 -0.001410 0.029328 -0.001974 0.000000 -0.005866 0.000000
# 3 -0.001355 -0.001974 0.011693 0.000000 0.004511 0.000000
# 4 0.000000 0.000000 0.000000 0.121365 0.000000 0.175257
# 5 0.001546 -0.005866 0.004511 0.000000 0.035382 0.000000
# 6 0.000000 0.000000 0.000000 0.175257 0.000000 0.391427
#
#
# Mechanical properties :
#
#
# Convention : Reuss Voigt Hill
#
# Bulk Modulus (GPa) = 24.98436 34.24408 29.61422
# Shear Modulus (GPa) = 8.05804 27.17274 17.61539
#
# Velocity S-wave (km/s) = 1.84049 3.37976 2.72123
# Velocity P-wave (km/s) = 3.87548 5.44295 4.72467
#
# Compressibility (1/GPa) = 0.04002504
#
# Stress axis : x y z
#
# Youngs Moduli (GPa) = 117.88830 34.09687 85.52246
#
# Poissons Ratio (x) = 0.04806 0.11592
# Poissons Ratio (y) = 0.16618 0.16885
# Poissons Ratio (z) = 0.15979 0.06732
#
# Static dielectric constant tensor:
#      x y z
#    x 1.976760 0.000000 -0.041010 
#    y 0.000000 1.963140 0.000000 
#    z -0.041010 0.000000 1.993610 
# 
# From -- ./inp_files/216781.got.cif
#   From: 2010.05.17/outbox.cif.g08.bks.cpg/sg12_109_cif.got.tgz:216781.got - 2010.06.03 13:09:07.
