data_PCOD9176742
_publ_section_title
;
Structure prediction by ZEFSAII (Michael W. Deem and Ramdas Pophale) SiO2 
 PCOD9176742
Probable space group: C 2/M
;
_chemical_formula_sum "Si O2"
_cell_formula_units_Z 50
_cell_length_a 24.484331
_cell_length_b 7.592263
_cell_length_c 15.821379
_cell_angle_alpha 90.000000
_cell_angle_beta 128.105524
_cell_angle_gamma 90.000000
_cell_volume 2314.247799
_symmetry_space_group_name_H-M "C 2/M"
_symmetry_group_IT_number 12
_symmetry_cell_setting 'monoclinic'
loop_
_space_group_symop_operation_xyz
x,y,z
-x,y,-z
-x,-y,-z
x,-y,z
1/2+x,1/2+y,z
1/2-x,1/2+y,-z
1/2-x,1/2-y,-z
1/2+x,1/2-y,z
loop_
_atom_site_type_symbol
_atom_site_label
_atom_site_fract_x
_atom_site_fract_y
_atom_site_fract_z
Si Si1 0.924901 0.285061 0.463485
Si Si2 0.000000 0.500000 0.000000
Si Si3 0.690949 0.785550 0.782301
Si Si4 0.896605 0.285755 0.140215
Si Si5 0.935017 0.810393 0.840486
Si Si6 0.151108 0.297213 0.088247
Si Si7 0.445111 0.787505 0.670586
O O1 0.925772 0.500000 0.463778
O O2 0.863528 0.232603 0.342247
O O3 0.917531 0.227712 0.553493
O O4 0.000000 0.229056 0.500000
O O5 0.013830 0.654983 0.084977
O O6 0.658581 0.731521 0.841436
O O7 0.766340 0.706779 0.838929
O O8 0.696783 0.000000 0.787237
O O9 0.894806 0.500000 0.136661
O O10 0.973922 0.234544 0.241947
O O11 0.876035 0.226261 0.027040
O O12 0.875551 0.800043 0.854424
O O13 0.908623 0.780270 0.720326
O O14 0.969689 0.000000 0.877496
O O15 0.123337 0.500000 0.074049
O O16 0.442725 0.000000 0.668914
#
# Coordination Sequence:
#
# PCOD9176742 Si02
#       7
#     8   2   8   8   8   8   8
#     4   9  16  31  60  94 119 158 211 267 325 377
#     4  12  22  44  64  94 130 168 208 264 312 370
#     4  10  19  35  57  90 123 159 213 261 313 386
#     4   9  18  31  57  86 119 161 203 256 311 379
#     4  12  25  41  63  94 129 171 215 261 315 377
#     4  11  22  38  57  83 125 176 215 251 315 385
#     4  10  18  35  63  90 125 163 209 264 322 377
#
# _framework density 21.605291000000001
#
# number of rings (size 3 to 8) (size 9 to 14) (size 15 to 20)
#    0.000    1.760    3.200    2.160    2.240    0.000 
#    0.000    4.000    0.000    0.960    0.000    0.000 
#    0.000    0.000    0.000    0.000    0.000    0.000 
#
# Total GULP energy -139610.357361 kJ/mol
# GULP energy per Si atom -5584.414294 kJ/mol
# Density = 2.155612 g / cm^3
# Si number density = 21.605291 Si / 1000 Ang^3
#
#
#
# Elastic Constant Matrix: (Units=GPa)
#
#
# Indices 1 2 3 4 5 6 
#
# 1 129.4996 15.6207 70.3418 0.0000 -28.5987 0.0000
# 2 15.6207 95.7305 12.3920 0.0000 -9.0708 0.0000
# 3 70.3418 12.3920 133.4445 0.0000 -35.8521 0.0000
# 4 0.0000 0.0000 0.0000 115.8755 0.0000 21.5410
# 5 -28.5987 -9.0708 -35.8521 0.0000 45.5265 0.0000
# 6 0.0000 0.0000 0.0000 21.5410 0.0000 15.4797
#
#
#
# Elastic Compliance Matrix: (Units=1/GPa)
#
#
# Indices 1 2 3 4 5 6 
#
# 1 0.011212 -0.000902 -0.005051 0.000000 0.002886 0.000000
# 2 -0.000902 0.010749 -0.000126 0.000000 0.001476 0.000000
# 3 -0.005051 -0.000126 0.011807 0.000000 0.006100 0.000000
# 4 0.000000 0.000000 0.000000 0.011641 0.000000 -0.016200
# 5 0.002886 0.001476 0.006100 0.000000 0.028875 0.000000
# 6 0.000000 0.000000 0.000000 -0.016200 0.000000 0.087144
#
#
# Mechanical properties :
#
#
# Convention : Reuss Voigt Hill
#
# Bulk Modulus (GPa) = 46.27669 61.70928 53.99299
# Shear Modulus (GPa) = 27.65636 52.73100 40.19368
#
# Velocity S-wave (km/s) = 3.58169 4.94566 4.31787
# Velocity P-wave (km/s) = 6.21050 7.82539 7.06425
#
# Compressibility (1/GPa) = 0.02160915
#
# Stress axis : x y z
#
# Youngs Moduli (GPa) = 89.19280 93.02880 84.69744
#
# Poissons Ratio (x) = 0.08393 0.42780
# Poissons Ratio (y) = 0.08047 0.01069
# Poissons Ratio (z) = 0.45050 0.01174
#
# Static dielectric constant tensor:
#      x y z
#    x 1.655500 0.000000 -0.077210 
#    y 0.000000 1.849030 0.000000 
#    z -0.077210 0.000000 1.745220 
# 
# From -- ./inp_files/243565.got.cif
#   From: 2010.05.17/outbox.cif.g08.bks.cpg/sg12_122_cif.got.tgz:243565.got - 2010.06.03 13:09:07.
