data_PCOD9176043
_publ_section_title
;
Structure prediction by ZEFSAII (Michael W. Deem and Ramdas Pophale) SiO2 
 PCOD9176043
Probable space group: C 2/M
;
_chemical_formula_sum "Si O2"
_cell_formula_units_Z 44
_cell_length_a 18.104120
_cell_length_b 25.626420
_cell_length_c 9.108967
_cell_angle_alpha 90.000000
_cell_angle_beta 140.235899
_cell_angle_gamma 90.000000
_cell_volume 2703.099870
_symmetry_space_group_name_H-M "C 2/M"
_symmetry_group_IT_number 12
_symmetry_cell_setting 'monoclinic'
loop_
_space_group_symop_operation_xyz
x,y,z
-x,y,-z
-x,-y,-z
x,-y,z
1/2+x,1/2+y,z
1/2-x,1/2+y,-z
1/2-x,1/2-y,-z
1/2+x,1/2-y,z
loop_
_atom_site_type_symbol
_atom_site_label
_atom_site_fract_x
_atom_site_fract_y
_atom_site_fract_z
Si Si1 0.496031 0.057670 0.749331
Si Si2 0.238968 0.673285 0.355613
Si Si3 0.500000 0.138894 0.500000
Si Si4 0.847126 0.710779 0.091083
Si Si5 0.564314 0.247177 0.245587
Si Si6 0.194894 0.558196 0.286805
O O1 0.476885 0.102433 0.603609
O O2 0.397106 0.058505 0.721182
O O3 0.495118 0.000000 0.679416
O O4 0.616651 0.063480 0.020799
O O5 0.344824 0.710715 0.558139
O O6 0.133880 0.695040 0.298366
O O7 0.264247 0.611903 0.411190
O O8 0.201251 0.683148 0.129632
O O9 0.389393 0.173111 0.285543
O O10 0.966584 0.736464 0.216452
O O11 0.750000 0.750000 0.000000
O O12 0.500000 0.266169 0.000000
O O13 0.249808 0.500000 0.368895
#
# Coordination Sequence:
#
# PCOD9176043 Si02
#       6
#     8   8   4   8   8   8
#     4   9  18  29  46  73 101 128 164 207 254 305
#     4  10  18  34  53  74 100 134 171 209 251 307
#     4  12  19  30  48  70 104 138 159 204 254 304
#     4  11  22  32  46  73 106 136 168 205 254 303
#     4   9  20  34  53  74  99 133 174 212 248 303
#     4   9  17  31  50  72  98 131 169 209 254 303
#
# _framework density 16.277608000000001
#
# number of rings (size 3 to 8) (size 9 to 14) (size 15 to 20)
#    0.000    2.182    1.818    3.545    5.091    2.909 
#    0.000    0.000    0.000    0.545    0.000    5.091 
#    0.000    0.000    0.000    0.000    0.000    0.000 
#
# Total GULP energy -122574.160351 kJ/mol
# GULP energy per Si atom -5571.552743 kJ/mol
# Density = 1.624056 g / cm^3
# Si number density = 16.277608 Si / 1000 Ang^3
#
#
#
# Elastic Constant Matrix: (Units=GPa)
#
#
# Indices 1 2 3 4 5 6 
#
# 1 67.7663 39.4465 20.7164 0.0000 -0.6536 0.0000
# 2 39.4465 142.1842 50.8728 0.0000 -5.3355 0.0000
# 3 20.7164 50.8728 76.4893 0.0000 -7.6945 0.0000
# 4 0.0000 0.0000 0.0000 25.6080 0.0000 -10.2868
# 5 -0.6536 -5.3355 -7.6945 0.0000 19.2951 0.0000
# 6 0.0000 0.0000 0.0000 -10.2868 0.0000 10.7049
#
#
#
# Elastic Compliance Matrix: (Units=1/GPa)
#
#
# Indices 1 2 3 4 5 6 
#
# 1 0.017871 -0.004237 -0.002166 0.000000 -0.001430 0.000000
# 2 -0.004237 0.010234 -0.005614 0.000000 0.000448 0.000000
# 3 -0.002166 -0.005614 0.017951 0.000000 0.005533 0.000000
# 4 0.000000 0.000000 0.000000 0.063601 0.000000 0.061117
# 5 -0.001430 0.000448 0.005533 0.000000 0.054108 0.000000
# 6 0.000000 0.000000 0.000000 0.061117 0.000000 0.152146
#
#
# Mechanical properties :
#
#
# Convention : Reuss Voigt Hill
#
# Bulk Modulus (GPa) = 45.40915 56.50125 50.95520
# Shear Modulus (GPa) = 14.39735 22.81520 18.60627
#
# Velocity S-wave (km/s) = 2.97726 3.74790 3.38458
# Velocity P-wave (km/s) = 6.30682 7.31542 6.82977
#
# Compressibility (1/GPa) = 0.02202199
#
# Stress axis : x y z
#
# Youngs Moduli (GPa) = 55.95605 97.71342 55.70730
#
# Poissons Ratio (x) = 0.41397 0.12068
# Poissons Ratio (y) = 0.23706 0.31275
# Poissons Ratio (z) = 0.12122 0.54858
#
# Static dielectric constant tensor:
#      x y z
#    x 1.542430 0.000000 -0.018610 
#    y 0.000000 1.586160 0.000000 
#    z -0.018610 0.000000 1.540100 
# 
# From -- ./inp_files/51557.got.cif
#   From: 2010.05.17/outbox.cif.g08.bks.cpg/sg12_26_cif.got.tgz:51557.got - 2010.06.03 13:09:07.
