data_PCOD9176959
_publ_section_title
;
Structure prediction by ZEFSAII (Michael W. Deem and Ramdas Pophale) SiO2 
 PCOD9176959
Probable space group: C 2/M
;
_chemical_formula_sum "Si O2"
_cell_formula_units_Z 48
_cell_length_a 22.480889
_cell_length_b 7.850848
_cell_length_c 12.186090
_cell_angle_alpha 90.000000
_cell_angle_beta 80.571495
_cell_angle_gamma 90.000000
_cell_volume 2121.717038
_symmetry_space_group_name_H-M "C 2/M"
_symmetry_group_IT_number 12
_symmetry_cell_setting 'monoclinic'
loop_
_space_group_symop_operation_xyz
x,y,z
-x,y,-z
-x,-y,-z
x,-y,z
1/2+x,1/2+y,z
1/2-x,1/2+y,-z
1/2-x,1/2-y,-z
1/2+x,1/2-y,z
loop_
_atom_site_type_symbol
_atom_site_label
_atom_site_fract_x
_atom_site_fract_y
_atom_site_fract_z
Si Si1 0.687480 0.294222 0.579145
Si Si2 0.568001 0.692674 0.490159
Si Si3 0.318417 0.702914 0.960615
Si Si4 0.139337 0.793529 0.817209
Si Si5 0.504355 0.704971 0.870569
Si Si6 0.898614 0.311042 0.745681
O O1 0.684358 0.500000 0.578763
O O2 0.750000 0.250000 0.500000
O O3 0.624686 0.232947 0.541346
O O4 0.683926 0.236056 0.707463
O O5 0.500000 0.769963 0.500000
O O6 0.558120 0.500000 0.537198
O O7 0.592839 0.688367 0.358831
O O8 0.327882 0.500000 0.950721
O O9 0.341994 0.779723 0.840718
O O10 0.250000 0.750000 0.000000
O O11 0.350619 0.767731 0.061836
O O12 0.070703 0.753909 0.807240
O O13 0.144080 0.000000 0.821676
O O14 0.495353 0.500000 0.868272
O O15 0.454420 0.789683 0.811202
O O16 0.500000 0.752401 0.000000
O O17 0.896626 0.500000 0.699252
#
# Coordination Sequence:
#
# PCOD9176959 Si02
#       6
#     8   8   8   8   8   8
#     4  10  22  40  63  92 122 158 205 258 316 376
#     4  10  22  43  69  92 121 166 220 268 312 377
#     4  11  23  41  62  90 124 163 208 254 311 375
#     4   9  19  38  64  89 118 156 200 249 307 371
#     4  10  18  36  64  90 117 157 203 249 304 369
#     4  12  25  39  60  93 131 165 202 257 314 374
#
# _framework density 22.623184999999999
#
# number of rings (size 3 to 8) (size 9 to 14) (size 15 to 20)
#    0.000    1.667    1.667    3.000    2.333    4.000 
#    0.000    3.333    0.000    0.000    0.000    0.000 
#    0.000    0.000    0.000    0.000    0.000    0.000 
#
# Total GULP energy -134048.376570 kJ/mol
# GULP energy per Si atom -5585.349024 kJ/mol
# Density = 2.257169 g / cm^3
# Si number density = 22.623185 Si / 1000 Ang^3
#
#
#
# Elastic Constant Matrix: (Units=GPa)
#
#
# Indices 1 2 3 4 5 6 
#
# 1 80.9988 -2.5724 11.7601 0.0000 -17.5800 0.0000
# 2 -2.5724 43.6894 -1.3213 0.0000 0.7337 0.0000
# 3 11.7601 -1.3213 109.1693 0.0000 -22.2981 0.0000
# 4 0.0000 0.0000 0.0000 10.6863 0.0000 -8.6689
# 5 -17.5800 0.7337 -22.2981 0.0000 39.0550 0.0000
# 6 0.0000 0.0000 0.0000 -8.6689 0.0000 16.9421
#
#
#
# Elastic Compliance Matrix: (Units=1/GPa)
#
#
# Indices 1 2 3 4 5 6 
#
# 1 0.013710 0.000699 -0.000238 0.000000 0.006022 0.000000
# 2 0.000699 0.022936 0.000202 0.000000 -0.000001 0.000000
# 3 -0.000238 0.000202 0.010375 0.000000 0.005813 0.000000
# 4 0.000000 0.000000 0.000000 0.159984 0.000000 0.081861
# 5 0.006022 -0.000001 0.005813 0.000000 0.031634 0.000000
# 6 0.000000 0.000000 0.000000 0.081861 0.000000 0.100911
#
#
# Mechanical properties :
#
#
# Convention : Reuss Voigt Hill
#
# Bulk Modulus (GPa) = 20.68402 27.73226 24.20814
# Shear Modulus (GPa) = 14.11068 28.40274 21.25671
#
# Velocity S-wave (km/s) = 2.50016 3.54711 3.06861
# Velocity P-wave (km/s) = 4.18295 5.39082 4.82483
#
# Compressibility (1/GPa) = 0.04834650
#
# Stress axis : x y z
#
# Youngs Moduli (GPa) = 72.94112 43.59936 96.38119
#
# Poissons Ratio (x) = -0.03047 0.02298
# Poissons Ratio (y) = -0.05098 -0.01948
# Poissons Ratio (z) = 0.01739 -0.00881
#
# Static dielectric constant tensor:
#      x y z
#    x 1.853330 0.000000 0.010590 
#    y 0.000000 1.620680 0.000000 
#    z 0.010590 0.000000 1.827360 
# 
# From -- ./inp_files/172893.got.cif
#   From: 2010.05.17/outbox.cif.g08.bks.cpg/sg12_87_cif.got.tgz:172893.got - 2010.06.03 13:09:07.
