data_PCOD9176961
_publ_section_title
;
Structure prediction by ZEFSAII (Michael W. Deem and Ramdas Pophale) SiO2 
 PCOD9176961
Probable space group: C 2/M
;
_chemical_formula_sum "Si O2"
_cell_formula_units_Z 48
_cell_length_a 8.950029
_cell_length_b 28.565591
_cell_length_c 20.071791
_cell_angle_alpha 90.000000
_cell_angle_beta 151.459074
_cell_angle_gamma 90.000000
_cell_volume 2451.814112
_symmetry_space_group_name_H-M "C 2/M"
_symmetry_group_IT_number 12
_symmetry_cell_setting 'monoclinic'
loop_
_space_group_symop_operation_xyz
x,y,z
-x,y,-z
-x,-y,-z
x,-y,z
1/2+x,1/2+y,z
1/2-x,1/2+y,-z
1/2-x,1/2-y,-z
1/2+x,1/2-y,z
loop_
_atom_site_type_symbol
_atom_site_label
_atom_site_fract_x
_atom_site_fract_y
_atom_site_fract_z
Si Si1 0.729172 0.351605 0.527323
Si Si2 0.692414 0.351468 0.765939
Si Si3 0.983974 0.446486 0.413064
Si Si4 0.284106 0.786544 0.347873
Si Si5 0.827882 0.282600 0.092668
Si Si6 0.285274 0.550658 0.162150
O O1 0.500000 0.347555 0.500000
O O2 0.511853 0.344797 0.378936
O O3 0.866094 0.404137 0.569654
O O4 0.995839 0.311764 0.621386
O O5 0.488983 0.323839 0.741149
O O6 0.725213 0.405549 0.794210
O O7 0.022376 0.328417 0.880823
O O8 0.103224 0.500000 0.449612
O O9 0.615234 0.446714 0.253573
O O10 0.000000 0.436740 0.500000
O O11 0.500000 0.778021 0.500000
O O12 0.092551 0.742550 0.242940
O O13 0.500000 0.291235 0.000000
O O14 0.750000 0.250000 0.000000
O O15 0.278991 0.500000 0.194285
O O16 0.000000 0.553282 0.000000
#
# Coordination Sequence:
#
# PCOD9176961 Si02
#       6
#     8   8   8   8   8   8
#     4  11  23  37  62  96 129 169 215 266 330 372
#     4  11  23  42  66  92 129 170 213 265 317 387
#     4  10  18  36  64  91 123 164 215 261 310 384
#     4  10  23  45  66  88 129 178 222 261 319 387
#     4  12  27  44  65  97 127 171 215 269 326 381
#     4  10  21  38  68  98 122 164 216 260 311 379
#
# _framework density 19.57734
#
# number of rings (size 3 to 8) (size 9 to 14) (size 15 to 20)
#    0.000    1.333    5.000    0.500    4.667    3.667 
#    0.000    0.000    0.000    0.500    0.000    0.000 
#    0.000    0.000    0.000    0.000    0.000    0.000 
#
# Total GULP energy -133926.367929 kJ/mol
# GULP energy per Si atom -5580.265330 kJ/mol
# Density = 1.953278 g / cm^3
# Si number density = 19.577340 Si / 1000 Ang^3
#
#
#
# Elastic Constant Matrix: (Units=GPa)
#
#
# Indices 1 2 3 4 5 6 
#
# 1 112.5085 50.9064 28.3375 -0.0005 34.9118 0.0003
# 2 50.9064 115.7883 26.9171 -0.0014 24.6014 -0.0065
# 3 28.3375 26.9171 84.3066 0.0298 24.7312 0.0064
# 4 -0.0005 -0.0014 0.0298 24.7252 -0.0008 17.2257
# 5 34.9118 24.6014 24.7312 -0.0008 30.2110 -0.0027
# 6 0.0003 -0.0065 0.0064 17.2257 -0.0027 20.7101
#
#
#
# Elastic Compliance Matrix: (Units=1/GPa)
#
#
# Indices 1 2 3 4 5 6 
#
# 1 0.014962 -0.003543 0.000431 0.000003 -0.014758 -0.000006
# 2 -0.003543 0.011361 -0.001215 -0.000001 -0.004163 0.000004
# 3 0.000431 -0.001215 0.015740 -0.000035 -0.012394 0.000022
# 4 0.000003 -0.000001 -0.000035 0.096176 0.000021 -0.079995
# 5 -0.014758 -0.004163 -0.012394 0.000021 0.063691 -0.000006
# 6 -0.000006 0.000004 0.000022 -0.079995 -0.000006 0.114822
#
#
# Mechanical properties :
#
#
# Convention : Reuss Voigt Hill
#
# Bulk Modulus (GPa) = 29.93135 58.32506 44.12820
# Shear Modulus (GPa) = 14.85700 28.89207 21.87454
#
# Velocity S-wave (km/s) = 2.75778 3.84577 3.34629
# Velocity P-wave (km/s) = 5.04603 7.04108 6.12532
#
# Compressibility (1/GPa) = 0.03340979
#
# Stress axis : x y z
#
# Youngs Moduli (GPa) = 66.83541 88.02085 63.53116
#
# Poissons Ratio (x) = 0.31183 -0.02740
# Poissons Ratio (y) = 0.23678 0.07722
# Poissons Ratio (z) = -0.02883 0.10698
#
# Static dielectric constant tensor:
#      x y z
#    x 1.703280 0.000010 0.027660 
#    y 0.000010 1.583760 0.000040 
#    z 0.027660 0.000040 1.737820 
# 
# From -- ./inp_files/80833.got.cif
#   From: 2010.05.17/outbox.cif.g08.bks.cpg/sg12_41_cif.got.tgz:80833.got - 2010.06.03 13:09:07.
