data_PCOD9176010
_publ_section_title
;
Structure prediction by ZEFSAII (Michael W. Deem and Ramdas Pophale) SiO2 
 PCOD9176010
Probable space group: C 2/M
;
_chemical_formula_sum "Si O2"
_cell_formula_units_Z 52
_cell_length_a 25.025068
_cell_length_b 16.003793
_cell_length_c 14.692842
_cell_angle_alpha 90.000000
_cell_angle_beta 22.238598
_cell_angle_gamma 90.000000
_cell_volume 2227.045361
_symmetry_space_group_name_H-M "C 2/M"
_symmetry_group_IT_number 12
_symmetry_cell_setting 'monoclinic'
loop_
_space_group_symop_operation_xyz
x,y,z
-x,y,-z
-x,-y,-z
x,-y,z
1/2+x,1/2+y,z
1/2-x,1/2+y,-z
1/2-x,1/2-y,-z
1/2+x,1/2-y,z
loop_
_atom_site_type_symbol
_atom_site_label
_atom_site_fract_x
_atom_site_fract_y
_atom_site_fract_z
Si Si1 0.163245 0.900661 0.234649
Si Si2 0.500000 0.871051 0.000000
Si Si3 0.855166 0.404661 0.768189
Si Si4 0.771751 0.827555 0.682194
Si Si5 0.253808 0.362787 0.247307
Si Si6 0.429196 0.671334 0.264711
Si Si7 0.651930 0.867254 0.594368
O O1 0.238727 0.883297 0.212013
O O2 0.000000 0.868975 0.500000
O O3 0.151856 0.000000 0.236457
O O4 0.263280 0.866548 0.995441
O O5 0.636661 0.824515 0.827037
O O6 0.562064 0.913539 0.812490
O O7 0.891998 0.500000 0.738232
O O8 0.762436 0.405438 0.823493
O O9 0.000000 0.365016 0.500000
O O10 0.794510 0.733974 0.681604
O O11 0.894770 0.859204 0.421344
O O12 0.163686 0.398570 0.473291
O O13 0.419399 0.357219 0.006616
O O14 0.410915 0.772177 0.303550
O O15 0.309740 0.640374 0.384472
#
# Coordination Sequence:
#
# PCOD9176010 Si02
#       7
#     8   4   8   8   8   8   8
#     4  10  22  42  63  80 110 154 194 239 293 342
#     4  10  18  34  49  86 121 144 180 218 282 348
#     4  10  24  42  58  80 111 152 198 240 292 348
#     4  10  21  32  57  87 115 146 185 234 279 339
#     4  11  20  32  58  83 112 148 187 236 282 331
#     4   9  17  30  48  84 115 146 181 220 270 340
#     4   9  18  28  50  78 118 149 175 218 275 337
#
# _framework density 23.349322000000001
#
# number of rings (size 3 to 8) (size 9 to 14) (size 15 to 20)
#    0.000    2.154    1.538    2.308    2.154    1.231 
#    0.000    0.385    0.000    5.538    0.000    0.000 
#    0.000    0.000    0.000    0.000    0.000    0.000 
#
# Total GULP energy -144949.163230 kJ/mol
# GULP energy per Si atom -5574.967817 kJ/mol
# Density = 2.329618 g / cm^3
# Si number density = 23.349322 Si / 1000 Ang^3
#
#
#
# Elastic Constant Matrix: (Units=GPa)
#
#
# Indices 1 2 3 4 5 6 
#
# 1 98.4680 2.7095 56.3364 -0.0001 30.4882 -0.0001
# 2 2.7095 32.5157 5.9180 -0.0007 2.0055 0.0002
# 3 56.3364 5.9180 183.1384 -0.0004 42.7185 0.0001
# 4 -0.0001 -0.0007 -0.0004 -16.0578 0.0004 12.2368
# 5 30.4882 2.0055 42.7185 0.0004 55.7534 0.0000
# 6 -0.0001 0.0002 0.0001 12.2368 0.0000 33.3921
#
#
#
# Elastic Compliance Matrix: (Units=1/GPa)
#
#
# Indices 1 2 3 4 5 6 
#
# 1 0.013413 -0.000271 -0.002933 0.000000 -0.005078 0.000000
# 2 -0.000271 0.030950 -0.000842 -0.000001 -0.000320 0.000000
# 3 -0.002933 -0.000842 0.007316 0.000000 -0.003972 0.000000
# 4 0.000000 -0.000001 0.000000 -0.048681 0.000001 0.017839
# 5 -0.005078 -0.000320 -0.003972 0.000001 0.023767 0.000000
# 6 0.000000 0.000000 0.000000 0.017839 0.000000 0.023410
#
#
# Mechanical properties :
#
#
# Convention : Reuss Voigt Hill
#
# Bulk Modulus (GPa) = 22.94226 49.33888 36.14057
# Shear Modulus (GPa) = 68.68408 31.22810 49.95609
#
# Velocity S-wave (km/s) = 5.42952 3.66106 4.63050
# Velocity P-wave (km/s) = 7.01094 6.24882 6.64082
#
# Compressibility (1/GPa) = 0.04358768
#
# Stress axis : x y z
#
# Youngs Moduli (GPa) = 74.55272 32.31023 136.68331
#
# Poissons Ratio (x) = 0.00875 0.40088
# Poissons Ratio (y) = 0.02018 0.11512
# Poissons Ratio (z) = 0.21866 0.02721
#
# Static dielectric constant tensor:
#      x y z
#    x 1.880480 0.000000 0.005290 
#    y 0.000000 1.892510 0.000000 
#    z 0.005290 0.000000 1.953010 
# 
# From -- ./inp_files/169841.got.cif
#   From: 2010.05.17/outbox.cif.g08.bks.cpg/sg12_85_cif.got.tgz:169841.got - 2010.06.03 13:09:07.
