data_PCOD9176427
_publ_section_title
;
Structure prediction by ZEFSAII (Michael W. Deem and Ramdas Pophale) SiO2 
 PCOD9176427
Probable space group: C 2/M
;
_chemical_formula_sum "Si O2"
_cell_formula_units_Z 56
_cell_length_a 14.077125
_cell_length_b 22.854015
_cell_length_c 14.495511
_cell_angle_alpha 90.000000
_cell_angle_beta 38.030158
_cell_angle_gamma 90.000000
_cell_volume 2873.058120
_symmetry_space_group_name_H-M "C 2/M"
_symmetry_group_IT_number 12
_symmetry_cell_setting 'monoclinic'
loop_
_space_group_symop_operation_xyz
x,y,z
-x,y,-z
-x,-y,-z
x,-y,z
1/2+x,1/2+y,z
1/2-x,1/2+y,-z
1/2-x,1/2-y,-z
1/2+x,1/2-y,z
loop_
_atom_site_type_symbol
_atom_site_label
_atom_site_fract_x
_atom_site_fract_y
_atom_site_fract_z
Si Si1 0.383177 0.672902 0.174193
Si Si2 0.320302 0.903398 0.238334
Si Si3 0.076102 0.158836 0.203281
Si Si4 0.825897 0.567994 0.606137
Si Si5 0.340097 0.564297 0.454692
Si Si6 0.661366 0.718230 0.320904
Si Si7 0.823015 0.433094 0.024420
O O1 0.483160 0.684705 0.189406
O O2 0.297241 0.610908 0.253178
O O3 0.253332 0.722152 0.263663
O O4 0.500000 0.672886 0.000000
O O5 0.224887 0.932167 0.393243
O O6 0.267407 0.835976 0.273451
O O7 0.291136 0.929860 0.159251
O O8 0.500030 0.913470 0.121442
O O9 0.132704 0.205493 0.234581
O O10 0.212149 0.115620 0.065648
O O11 0.960981 0.115409 0.345812
O O12 0.803278 0.500000 0.649857
O O13 0.792526 0.571819 0.521632
O O14 0.000000 0.584445 0.500000
O O15 0.410343 0.500000 0.384521
O O16 0.500000 0.718106 0.500000
O O17 0.802701 0.500000 0.008232
#
# Coordination Sequence:
#
# PCOD9176427 Si02
#       7
#     8   8   8   8   8   8   8
#     4  11  26  43  64  92 119 164 211 255 308 365
#     4  10  20  35  57  91 126 162 203 244 299 372
#     4  10  23  41  60  91 121 160 206 257 306 360
#     4   9  20  41  64  90 122 156 202 261 307 356
#     4  10  18  34  61  90 122 157 205 251 303 368
#     4  11  23  43  62  88 124 164 203 256 308 359
#     4  10  20  35  58  88 131 165 192 245 310 370
#
# _framework density 19.491426000000001
#
# number of rings (size 3 to 8) (size 9 to 14) (size 15 to 20)
#    0.000    1.857    1.429    2.571    4.000    3.143 
#    2.571    3.571    0.000    0.000    0.000    0.000 
#    0.000    0.000    0.000    0.000    0.000    0.000 
#
# Total GULP energy -156378.259852 kJ/mol
# GULP energy per Si atom -5584.937852 kJ/mol
# Density = 1.944706 g / cm^3
# Si number density = 19.491426 Si / 1000 Ang^3
#
#
#
# Elastic Constant Matrix: (Units=GPa)
#
#
# Indices 1 2 3 4 5 6 
#
# 1 83.8514 40.7014 17.5317 -0.0035 -14.6280 -0.0002
# 2 40.7014 78.3936 23.8987 -0.0012 0.9492 0.0003
# 3 17.5317 23.8987 62.2829 -0.0107 5.0043 0.0037
# 4 -0.0035 -0.0012 -0.0107 19.5084 0.0026 -3.1467
# 5 -14.6280 0.9492 5.0043 0.0026 20.5339 -0.0002
# 6 -0.0002 0.0003 0.0037 -3.1467 -0.0002 25.5108
#
#
#
# Elastic Compliance Matrix: (Units=1/GPa)
#
#
# Indices 1 2 3 4 5 6 
#
# 1 0.019917 -0.009559 -0.003176 -0.000001 0.015405 0.000001
# 2 -0.009559 0.019044 -0.004078 -0.000002 -0.006696 0.000000
# 3 -0.003176 -0.004078 0.019055 0.000010 -0.006718 -0.000002
# 4 -0.000001 -0.000002 0.000010 0.052301 -0.000009 0.006451
# 5 0.015405 -0.006696 -0.006718 -0.000009 0.061621 0.000001
# 6 0.000001 0.000000 -0.000002 0.006451 0.000001 0.039995
#
#
# Mechanical properties :
#
#
# Convention : Reuss Voigt Hill
#
# Bulk Modulus (GPa) = 41.00412 43.19905 42.10159
# Shear Modulus (GPa) = 19.70922 22.60370 21.15646
#
# Velocity S-wave (km/s) = 3.18335 3.40909 3.29815
# Velocity P-wave (km/s) = 5.88169 6.14061 6.01254
#
# Compressibility (1/GPa) = 0.02438780
#
# Stress axis : x y z
#
# Youngs Moduli (GPa) = 50.20767 52.51113 52.48088
#
# Poissons Ratio (x) = 0.50196 0.16669
# Poissons Ratio (y) = 0.47994 0.21404
# Poissons Ratio (z) = 0.15947 0.21416
#
# Static dielectric constant tensor:
#      x y z
#    x 1.696370 0.000000 -0.018950 
#    y 0.000000 1.675490 0.000000 
#    z -0.018950 0.000000 1.664640 
# 
# From -- ./inp_files/217640.got.cif
#   From: 2010.05.17/outbox.cif.g08.bks.cpg/sg12_109_cif.got.tgz:217640.got - 2010.06.03 13:09:07.
