data_PCOD9176162
_publ_section_title
;
Structure prediction by ZEFSAII (Michael W. Deem and Ramdas Pophale) SiO2 
 PCOD9176162
Probable space group: C 2/M
;
_chemical_formula_sum "Si O2"
_cell_formula_units_Z 56
_cell_length_a 25.346259
_cell_length_b 7.505752
_cell_length_c 15.688198
_cell_angle_alpha 90.000000
_cell_angle_beta 129.146307
_cell_angle_gamma 90.000000
_cell_volume 2314.639430
_symmetry_space_group_name_H-M "C 2/M"
_symmetry_group_IT_number 12
_symmetry_cell_setting 'monoclinic'
loop_
_space_group_symop_operation_xyz
x,y,z
-x,y,-z
-x,-y,-z
x,-y,z
1/2+x,1/2+y,z
1/2-x,1/2+y,-z
1/2-x,1/2-y,-z
1/2+x,1/2-y,z
loop_
_atom_site_type_symbol
_atom_site_label
_atom_site_fract_x
_atom_site_fract_y
_atom_site_fract_z
Si Si1 0.084648 0.799614 0.481270
Si Si2 0.698180 0.207834 0.123308
Si Si3 0.870657 0.214043 0.114399
Si Si4 0.766396 0.712574 0.419315
Si Si5 0.374342 0.709067 0.796337
Si Si6 0.521263 0.718781 0.239508
Si Si7 0.350324 0.280984 0.287404
O O1 0.163896 0.804851 0.534753
O O2 0.048472 0.721128 0.360592
O O3 0.094198 0.720380 0.585930
O O4 0.056304 0.000000 0.462260
O O5 0.632412 0.277337 0.108576
O O6 0.772572 0.281460 0.225404
O O7 0.700340 0.000000 0.141153
O O8 0.686838 0.233500 0.011244
O O9 0.864937 0.274853 0.205874
O O10 0.943448 0.273738 0.152704
O O11 0.870287 0.000000 0.117077
O O12 0.774724 0.500000 0.414571
O O13 0.750000 0.750000 0.500000
O O14 0.699055 0.782761 0.304729
O O15 0.372777 0.500000 0.775170
O O16 0.433037 0.780059 0.794251
O O17 0.523617 0.500000 0.243569
O O18 0.350915 0.500000 0.291321
#
# Coordination Sequence:
#
# PCOD9176162 Si02
#       7
#     8   8   8   8   8   8   8
#     4  10  18  34  56  83 116 143 177 226 274 327
#     4  11  22  37  57  83 110 142 182 234 285 321
#     4  10  21  39  58  79 108 148 190 227 270 327
#     4  11  20  31  52  82 115 147 181 222 276 328
#     4  10  20  35  55  82 111 144 183 224 272 329
#     4   9  19  35  57  82 112 147 183 221 269 328
#     4   9  19  34  58  86 110 138 182 233 279 320
#
# _framework density 24.193833999999999
#
# number of rings (size 3 to 8) (size 9 to 14) (size 15 to 20)
#    0.000    2.000    2.857    1.286    0.000    1.714 
#    0.000    8.571    0.000    0.000    0.000    2.000 
#    0.000    0.000    0.000    0.000    0.000    0.000 
#
# Total GULP energy -156287.474021 kJ/mol
# GULP energy per Si atom -5581.695501 kJ/mol
# Density = 2.413877 g / cm^3
# Si number density = 24.193834 Si / 1000 Ang^3
#
#
#
# Elastic Constant Matrix: (Units=GPa)
#
#
# Indices 1 2 3 4 5 6 
#
# 1 66.2705 -0.6450 24.7711 0.0000 -10.9366 0.0000
# 2 -0.6450 76.4028 -6.4256 0.0000 2.9100 0.0000
# 3 24.7711 -6.4256 89.7536 0.0000 -21.2950 0.0000
# 4 0.0000 0.0000 0.0000 6.6172 0.0000 0.6540
# 5 -10.9366 2.9100 -21.2950 0.0000 37.2129 0.0000
# 6 0.0000 0.0000 0.0000 0.6540 0.0000 7.7862
#
#
#
# Elastic Compliance Matrix: (Units=1/GPa)
#
#
# Indices 1 2 3 4 5 6 
#
# 1 0.017061 -0.000303 -0.004090 0.000000 0.002697 0.000000
# 2 -0.000303 0.013184 0.000881 0.000000 -0.000616 0.000000
# 3 -0.004090 0.000881 0.013922 0.000000 0.006696 0.000000
# 4 0.000000 0.000000 0.000000 0.152386 0.000000 -0.012800
# 5 0.002697 -0.000616 0.006696 0.000000 0.031545 0.000000
# 6 0.000000 0.000000 0.000000 -0.012800 0.000000 0.129508
#
#
# Mechanical properties :
#
#
# Convention : Reuss Voigt Hill
#
# Bulk Modulus (GPa) = 26.92292 29.75866 28.34079
# Shear Modulus (GPa) = 13.26224 24.63834 18.95029
#
# Velocity S-wave (km/s) = 2.34383 3.19466 2.80173
# Velocity P-wave (km/s) = 4.29848 5.09260 4.71230
#
# Compressibility (1/GPa) = 0.03714307
#
# Stress axis : x y z
#
# Youngs Moduli (GPa) = 58.61409 75.85223 71.82717
#
# Poissons Ratio (x) = 0.02296 0.29380
# Poissons Ratio (y) = 0.01774 -0.06330
# Poissons Ratio (z) = 0.23975 -0.06685
#
# Static dielectric constant tensor:
#      x y z
#    x 1.966100 0.000000 -0.088840 
#    y 0.000000 1.957450 0.000000 
#    z -0.088840 0.000000 1.995090 
# 
# From -- ./inp_files/238388.got.cif
#   From: 2010.05.17/outbox.cif.g08.bks.cpg/sg12_120_cif.got.tgz:238388.got - 2010.06.03 13:09:07.
