data_PCOD9176695
_publ_section_title
;
Structure prediction by ZEFSAII (Michael W. Deem and Ramdas Pophale) SiO2 
 PCOD9176695
Probable space group: C 2/M
;
_chemical_formula_sum "Si O2"
_cell_formula_units_Z 52
_cell_length_a 19.599913
_cell_length_b 11.254890
_cell_length_c 15.126189
_cell_angle_alpha 90.000000
_cell_angle_beta 125.047173
_cell_angle_gamma 90.000000
_cell_volume 2731.736787
_symmetry_space_group_name_H-M "C 2/M"
_symmetry_group_IT_number 12
_symmetry_cell_setting 'monoclinic'
loop_
_space_group_symop_operation_xyz
x,y,z
-x,y,-z
-x,-y,-z
x,-y,z
1/2+x,1/2+y,z
1/2-x,1/2+y,-z
1/2-x,1/2-y,-z
1/2+x,1/2-y,z
loop_
_atom_site_type_symbol
_atom_site_label
_atom_site_fract_x
_atom_site_fract_y
_atom_site_fract_z
Si Si1 0.091251 0.362854 0.026426
Si Si2 0.564304 0.860956 0.797095
Si Si3 0.379791 0.629354 0.265893
Si Si4 0.866174 0.639948 0.649527
Si Si5 0.000000 0.197868 0.500000
Si Si6 0.775090 0.267061 0.754993
Si Si7 0.151102 0.365247 0.558468
O O1 0.114438 0.500000 0.068080
O O2 0.157146 0.271972 0.117089
O O3 0.086419 0.356687 0.917298
O O4 0.000000 0.342404 0.000000
O O5 0.611313 0.752341 0.783044
O O6 0.465174 0.835732 0.715281
O O7 0.578629 0.000000 0.777613
O O8 0.374707 0.500000 0.215587
O O9 0.460619 0.628162 0.389243
O O10 0.297882 0.644584 0.266063
O O11 0.859184 0.500000 0.659548
O O12 0.824278 0.697451 0.703111
O O13 0.824279 0.665958 0.523789
O O14 0.075104 0.280883 0.525108
O O15 0.723250 0.152901 0.684209
O O16 0.121783 0.500000 0.535846
#
# Coordination Sequence:
#
# PCOD9176695 Si02
#       7
#     8   8   8   8   4   8   8
#     4  10  19  36  64  90 112 149 205 259 295 340
#     4  10  21  38  65  92 115 156 208 252 291 348
#     4  11  23  38  57  88 127 162 193 241 307 363
#     4  10  18  35  61  87 115 150 200 251 297 346
#     4  10  20  36  60  84 117 158 203 242 285 356
#     4  11  22  36  58  87 123 153 197 252 301 354
#     4  10  21  35  57  88 122 157 196 246 303 358
#
# _framework density 19.035509999999999
#
# number of rings (size 3 to 8) (size 9 to 14) (size 15 to 20)
#    0.000    1.692    3.077    2.308    0.000    3.077 
#    0.000    1.538    0.000    0.923    0.000    0.000 
#    0.000    0.000    0.000    0.000    0.000    0.000 
#
# Total GULP energy -144844.816426 kJ/mol
# GULP energy per Si atom -5570.954478 kJ/mol
# Density = 1.899218 g / cm^3
# Si number density = 19.035510 Si / 1000 Ang^3
#
#
#
# Elastic Constant Matrix: (Units=GPa)
#
#
# Indices 1 2 3 4 5 6 
#
# 1 49.4870 37.9730 3.2705 0.0000 -1.3901 0.0000
# 2 37.9730 95.2511 20.7988 0.0000 -11.2917 0.0000
# 3 3.2705 20.7988 90.5775 0.0000 6.6985 0.0000
# 4 0.0000 0.0000 0.0000 18.3058 0.0000 9.1927
# 5 -1.3901 -11.2917 6.6985 0.0000 27.3138 0.0000
# 6 0.0000 0.0000 0.0000 9.1927 0.0000 -193.5964
#
#
#
# Elastic Compliance Matrix: (Units=1/GPa)
#
#
# Indices 1 2 3 4 5 6 
#
# 1 0.029830 -0.012889 0.002204 0.000000 -0.004351 0.000000
# 2 -0.012889 0.017426 -0.004095 0.000000 0.007552 0.000000
# 3 0.002204 -0.004095 0.012240 0.000000 -0.004582 0.000000
# 4 0.000000 0.000000 0.000000 0.053355 0.000000 0.002534
# 5 -0.004351 0.007552 -0.004582 0.000000 0.040636 0.000000
# 6 0.000000 0.000000 0.000000 0.002534 0.000000 -0.005045
#
#
# Mechanical properties :
#
#
# Convention : Reuss Voigt Hill
#
# Bulk Modulus (GPa) = 33.40346 39.93335 36.66841
# Shear Modulus (GPa) = 26.59861 -18.04381 4.27740
#
# Velocity S-wave (km/s) = 3.74212 -3.08214 1.50065
# Velocity P-wave (km/s) = 6.02141 2.89098 4.72309
#
# Compressibility (1/GPa) = 0.02993702
#
# Stress axis : x y z
#
# Youngs Moduli (GPa) = 33.52372 57.38437 81.70079
#
# Poissons Ratio (x) = 0.73963 -0.18010
# Poissons Ratio (y) = 0.43209 0.33454
# Poissons Ratio (z) = -0.07390 0.23497
#
# Static dielectric constant tensor:
#      x y z
#    x 1.672840 0.000000 -0.005840 
#    y 0.000000 1.660270 0.000000 
#    z -0.005840 0.000000 1.709570 
# 
# From -- ./inp_files/232031.got.cif
#   From: 2010.05.17/outbox.cif.g08.bks.cpg/sg12_117_cif.got.tgz:232031.got - 2010.06.03 13:09:07.
