data_PCOD9176607
_publ_section_title
;
Structure prediction by ZEFSAII (Michael W. Deem and Ramdas Pophale) SiO2 
 PCOD9176607
Probable space group: C 2/M
;
_chemical_formula_sum "Si O2"
_cell_formula_units_Z 64
_cell_length_a 14.839524
_cell_length_b 8.784356
_cell_length_c 26.877457
_cell_angle_alpha 90.000000
_cell_angle_beta 101.725639
_cell_angle_gamma 90.000000
_cell_volume 3430.514857
_symmetry_space_group_name_H-M "C 2/M"
_symmetry_group_IT_number 12
_symmetry_cell_setting 'monoclinic'
loop_
_space_group_symop_operation_xyz
x,y,z
-x,y,-z
-x,-y,-z
x,-y,z
1/2+x,1/2+y,z
1/2-x,1/2+y,-z
1/2-x,1/2-y,-z
1/2+x,1/2-y,z
loop_
_atom_site_type_symbol
_atom_site_label
_atom_site_fract_x
_atom_site_fract_y
_atom_site_fract_z
Si Si1 0.687252 0.815017 0.593778
Si Si2 0.455177 0.316524 0.135411
Si Si3 0.426927 0.181811 0.325060
Si Si4 0.843415 0.316313 0.861439
Si Si5 0.774989 0.816327 0.056058
Si Si6 0.900400 0.677186 0.515179
Si Si7 0.392393 0.319355 0.622308
Si Si8 0.836202 0.183461 0.218242
O O1 0.614023 0.764725 0.626437
O O2 0.667268 0.761700 0.535489
O O3 0.788326 0.774698 0.623605
O O4 0.681447 0.000000 0.590020
O O5 0.461623 0.500000 0.134922
O O6 0.555718 0.249230 0.137119
O O7 0.376926 0.270397 0.086507
O O8 0.409988 0.274239 0.183537
O O9 0.531267 0.238721 0.335989
O O10 0.367150 0.245526 0.273367
O O11 0.424262 0.000000 0.324091
O O12 0.848728 0.500000 0.861370
O O13 0.798952 0.271321 0.909703
O O14 0.765408 0.270854 0.812309
O O15 0.774257 0.000000 0.053905
O O16 0.750000 0.750000 0.000000
O O17 0.878988 0.500000 0.524853
O O18 0.902751 0.771094 0.565848
O O19 0.000000 0.677978 0.500000
O O20 0.402285 0.500000 0.628173
O O21 0.836916 0.000000 0.221935
#
# Coordination Sequence:
#
# PCOD9176607 Si02
#       8
#     8   8   8   8   8   8   8   8
#     4   9  20  37  55  76 106 141 171 208 262 318
#     4   9  19  36  57  79 109 146 184 222 272 324
#     4  11  22  39  58  78 105 140 178 215 265 324
#     4   9  19  36  57  80 110 144 184 227 271 317
#     4   9  19  35  53  79 115 153 185 226 272 318
#     4  10  18  35  59  77 104 142 174 210 259 315
#     4  11  22  36  55  81 109 136 173 218 263 314
#     4   9  20  39  57  77 107 140 174 223 275 317
#
# _framework density 18.656092000000001
#
# number of rings (size 3 to 8) (size 9 to 14) (size 15 to 20)
#    0.000    2.375    1.250    2.625    0.000    3.750 
#    0.000   11.875    0.000    0.000    0.000    0.000 
#    0.000    0.000    0.000    0.000    0.000    0.000 
#
# Total GULP energy -178535.293703 kJ/mol
# GULP energy per Si atom -5579.227928 kJ/mol
# Density = 1.861363 g / cm^3
# Si number density = 18.656092 Si / 1000 Ang^3
#
#
#
# Elastic Constant Matrix: (Units=GPa)
#
#
# Indices 1 2 3 4 5 6 
#
# 1 123.9820 24.0886 35.0312 0.0000 16.3983 0.0000
# 2 24.0886 20.4204 19.6351 0.0000 4.8756 0.0000
# 3 35.0312 19.6351 91.6085 0.0000 21.3112 0.0000
# 4 0.0000 0.0000 0.0000 33.3096 0.0000 3.2352
# 5 16.3983 4.8756 21.3112 0.0000 16.2338 0.0000
# 6 0.0000 0.0000 0.0000 3.2352 0.0000 29.2071
#
#
#
# Elastic Compliance Matrix: (Units=1/GPa)
#
#
# Indices 1 2 3 4 5 6 
#
# 1 0.011358 -0.011464 -0.000026 0.000000 -0.007996 0.000000
# 2 -0.011464 0.073287 -0.012810 0.000000 0.006386 0.000000
# 3 -0.000026 -0.012810 0.018385 0.000000 -0.020262 0.000000
# 4 0.000000 0.000000 0.000000 0.030348 0.000000 -0.003362
# 5 -0.007996 0.006386 -0.020262 0.000000 0.094358 0.000000
# 6 0.000000 0.000000 0.000000 -0.003362 0.000000 0.034611
#
#
# Mechanical properties :
#
#
# Convention : Reuss Voigt Hill
#
# Bulk Modulus (GPa) = 18.37224 43.72452 31.04838
# Shear Modulus (GPa) = 15.19343 26.23381 20.71362
#
# Velocity S-wave (km/s) = 2.85686 3.75397 3.33571
# Velocity P-wave (km/s) = 4.55537 6.50214 5.61379
#
# Compressibility (1/GPa) = 0.05442996
#
# Stress axis : x y z
#
# Youngs Moduli (GPa) = 88.04372 13.64504 54.39170
#
# Poissons Ratio (x) = 0.15643 0.00141
# Poissons Ratio (y) = 1.00935 0.69674
# Poissons Ratio (z) = 0.00229 0.17479
#
# Static dielectric constant tensor:
#      x y z
#    x 1.653800 0.000000 0.008750 
#    y 0.000000 1.631560 0.000000 
#    z 0.008750 0.000000 1.632760 
# 
# From -- ./inp_files/359879.got.cif
#   From: 2010.05.17/outbox.cif.g08.bks.cpg/sg12_180_cif.got.tgz:359879.got - 2010.06.03 13:09:07.
