data_PCOD9176037
_publ_section_title
;
Structure prediction by ZEFSAII (Michael W. Deem and Ramdas Pophale) SiO2 
 PCOD9176037
Probable space group: C 2/M
;
_chemical_formula_sum "Si O2"
_cell_formula_units_Z 56
_cell_length_a 15.436162
_cell_length_b 24.339678
_cell_length_c 8.651359
_cell_angle_alpha 90.000000
_cell_angle_beta 109.832682
_cell_angle_gamma 90.000000
_cell_volume 3057.622150
_symmetry_space_group_name_H-M "C 2/M"
_symmetry_group_IT_number 12
_symmetry_cell_setting 'monoclinic'
loop_
_space_group_symop_operation_xyz
x,y,z
-x,y,-z
-x,-y,-z
x,-y,z
1/2+x,1/2+y,z
1/2-x,1/2+y,-z
1/2-x,1/2-y,-z
1/2+x,1/2-y,z
loop_
_atom_site_type_symbol
_atom_site_label
_atom_site_fract_x
_atom_site_fract_y
_atom_site_fract_z
Si Si1 0.939320 0.804645 0.607745
Si Si2 0.886124 0.363700 0.298074
Si Si3 0.771630 0.815596 0.008582
Si Si4 0.930692 0.684547 0.642825
Si Si5 0.754296 0.436283 0.402626
Si Si6 0.908284 0.880420 0.873325
Si Si7 0.759403 0.158348 0.351996
O O1 0.972141 0.744899 0.681182
O O2 0.943825 0.846450 0.748709
O O3 0.832763 0.803957 0.487791
O O4 0.000000 0.822663 0.500000
O O5 0.890283 0.321005 0.444553
O O6 0.844000 0.416574 0.359075
O O7 0.990226 0.361539 0.298057
O O8 0.816792 0.343502 0.126027
O O9 0.786536 0.839591 0.189408
O O10 0.750000 0.750000 0.000000
O O11 0.856581 0.836579 0.954147
O O12 0.845255 0.679148 0.703775
O O13 0.758028 0.500000 0.442709
O O14 0.668578 0.421732 0.238629
O O15 0.743091 0.398256 0.549424
O O16 0.000000 0.906421 0.000000
#
# Coordination Sequence:
#
# PCOD9176037 Si02
#       7
#     8   8   8   8   8   8   8
#     4  11  19  32  55  77 114 156 182 225 280 345
#     4   9  19  33  54  81 108 144 188 231 275 339
#     4  11  21  34  52  81 122 151 179 225 288 349
#     4  10  18  34  52  79 113 148 189 225 276 343
#     4   9  20  41  61  78 108 151 199 250 287 320
#     4  10  22  35  54  86 116 147 194 234 283 343
#     4  10  21  34  53  80 110 148 193 234 277 343
#
# _framework density 18.314885
#
# number of rings (size 3 to 8) (size 9 to 14) (size 15 to 20)
#    0.000    2.000    1.429    3.857    2.000    0.857 
#    0.000    8.571    0.000   14.571    0.000   13.000 
#    0.000    0.000    0.000    0.000    0.000    0.000 
#
# Total GULP energy -156008.901233 kJ/mol
# GULP energy per Si atom -5571.746473 kJ/mol
# Density = 1.827320 g / cm^3
# Si number density = 18.314885 Si / 1000 Ang^3
#
#
#
# Elastic Constant Matrix: (Units=GPa)
#
#
# Indices 1 2 3 4 5 6 
#
# 1 104.1397 20.6137 20.5288 0.0000 -8.7345 0.0000
# 2 20.6137 79.0869 18.2208 0.0000 -9.6498 0.0000
# 3 20.5288 18.2208 65.8078 0.0000 4.1052 0.0000
# 4 0.0000 0.0000 0.0000 10.1818 0.0000 -2.9577
# 5 -8.7345 -9.6498 4.1052 0.0000 32.0328 0.0000
# 6 0.0000 0.0000 0.0000 -2.9577 0.0000 14.3837
#
#
#
# Elastic Compliance Matrix: (Units=1/GPa)
#
#
# Indices 1 2 3 4 5 6 
#
# 1 0.010789 -0.001767 -0.003051 0.000000 0.002800 0.000000
# 2 -0.001767 0.014498 -0.003735 0.000000 0.004364 0.000000
# 3 -0.003051 -0.003735 0.017443 0.000000 -0.004193 0.000000
# 4 0.000000 0.000000 0.000000 0.104454 0.000000 0.021479
# 5 0.002800 0.004364 -0.004193 0.000000 0.033834 0.000000
# 6 0.000000 0.000000 0.000000 0.021479 0.000000 0.073940
#
#
# Mechanical properties :
#
#
# Convention : Reuss Voigt Hill
#
# Bulk Modulus (GPa) = 39.02733 40.86233 39.94483
# Shear Modulus (GPa) = 17.81864 23.96440 20.89152
#
# Velocity S-wave (km/s) = 3.12253 3.62120 3.38107
# Velocity P-wave (km/s) = 5.86136 6.31217 6.09094
#
# Compressibility (1/GPa) = 0.02562307
#
# Stress axis : x y z
#
# Youngs Moduli (GPa) = 92.69032 68.97490 57.32898
#
# Poissons Ratio (x) = 0.12191 0.17490
# Poissons Ratio (y) = 0.16383 0.21413
# Poissons Ratio (z) = 0.28278 0.25763
#
# Static dielectric constant tensor:
#      x y z
#    x 1.687430 0.000000 0.015810 
#    y 0.000000 1.601140 0.000000 
#    z 0.015810 0.000000 1.639450 
# 
# From -- ./inp_files/65422.got.cif
#   From: 2010.05.17/outbox.cif.g08.bks.cpg/sg12_33_cif.got.tgz:65422.got - 2010.06.03 13:09:07.
