data_PCOD9176802
_publ_section_title
;
Structure prediction by ZEFSAII (Michael W. Deem and Ramdas Pophale) SiO2 
 PCOD9176802
Probable space group: C 2/M
;
_chemical_formula_sum "Si O2"
_cell_formula_units_Z 56
_cell_length_a 9.044455
_cell_length_b 23.780407
_cell_length_c 15.462660
_cell_angle_alpha 90.000000
_cell_angle_beta 117.223563
_cell_angle_gamma 90.000000
_cell_volume 2957.325823
_symmetry_space_group_name_H-M "C 2/M"
_symmetry_group_IT_number 12
_symmetry_cell_setting 'monoclinic'
loop_
_space_group_symop_operation_xyz
x,y,z
-x,y,-z
-x,-y,-z
x,-y,z
1/2+x,1/2+y,z
1/2-x,1/2+y,-z
1/2-x,1/2-y,-z
1/2+x,1/2-y,z
loop_
_atom_site_type_symbol
_atom_site_label
_atom_site_fract_x
_atom_site_fract_y
_atom_site_fract_z
Si Si1 0.615120 0.166792 0.261786
Si Si2 0.411515 0.377881 0.244375
Si Si3 0.624921 0.287664 0.206784
Si Si4 0.449777 0.826668 0.391306
Si Si5 0.238802 0.618280 0.867323
Si Si6 0.805478 0.432887 0.962631
Si Si7 0.744368 0.435044 0.310125
O O1 0.790888 0.139068 0.289423
O O2 0.593066 0.221929 0.195997
O O3 0.588996 0.181666 0.355376
O O4 0.459293 0.127311 0.196713
O O5 0.478164 0.321452 0.214932
O O6 0.300630 0.412104 0.146691
O O7 0.575472 0.413595 0.310325
O O8 0.788043 0.295075 0.310881
O O9 0.672404 0.322627 0.133410
O O10 0.500000 0.809132 0.500000
O O11 0.390422 0.892091 0.375600
O O12 0.287616 0.577148 0.801102
O O13 0.266595 0.595245 0.969722
O O14 0.796192 0.500000 0.968960
O O15 0.000000 0.417835 0.000000
O O16 0.778953 0.500000 0.334251
#
# Coordination Sequence:
#
# PCOD9176802 Si02
#       7
#     8   8   8   8   8   8   8
#     4  10  18  36  56  76 107 143 174 215 269 321
#     4  10  19  34  53  78 107 138 180 224 262 306
#     4   9  20  35  55  77 107 141 174 215 268 321
#     4   9  20  36  56  81 105 136 177 217 263 328
#     4   9  19  35  52  76 107 144 181 214 258 316
#     4  11  21  33  52  79 109 138 183 233 260 292
#     4   9  19  35  54  76 107 142 177 216 269 321
#
# _framework density 18.936026999999999
#
# number of rings (size 3 to 8) (size 9 to 14) (size 15 to 20)
#    0.000    3.000    1.429    2.571    0.000    3.143 
#    0.000   11.429    0.000    0.857    0.000    0.000 
#    0.000    0.000    0.000    0.000    0.000    0.000 
#
# Total GULP energy -156109.985715 kJ/mol
# GULP energy per Si atom -5575.356633 kJ/mol
# Density = 1.889293 g / cm^3
# Si number density = 18.936027 Si / 1000 Ang^3
#
#
#
# Elastic Constant Matrix: (Units=GPa)
#
#
# Indices 1 2 3 4 5 6 
#
# 1 118.3808 21.3362 11.3347 0.0000 -19.2905 0.0000
# 2 21.3362 49.0383 -8.0753 0.0000 3.1888 0.0000
# 3 11.3347 -8.0753 51.1665 0.0000 -17.1971 0.0000
# 4 0.0000 0.0000 0.0000 7.6162 0.0000 -0.2823
# 5 -19.2905 3.1888 -17.1971 0.0000 18.8892 0.0000
# 6 0.0000 0.0000 0.0000 -0.2823 0.0000 14.5440
#
#
#
# Elastic Compliance Matrix: (Units=1/GPa)
#
#
# Indices 1 2 3 4 5 6 
#
# 1 0.011650 -0.005779 0.001201 0.000000 0.013967 0.000000
# 2 -0.005779 0.023811 0.002455 0.000000 -0.007687 0.000000
# 3 0.001201 0.002455 0.028729 0.000000 0.026968 0.000000
# 4 0.000000 0.000000 0.000000 0.131394 0.000000 0.002550
# 5 0.013967 -0.007687 0.026968 0.000000 0.093054 0.000000
# 6 0.000000 0.000000 0.000000 0.002550 0.000000 0.068806
#
#
# Mechanical properties :
#
#
# Convention : Reuss Voigt Hill
#
# Bulk Modulus (GPa) = 16.68231 29.75297 23.21764
# Shear Modulus (GPa) = 13.10025 21.14254 17.12139
#
# Velocity S-wave (km/s) = 2.63309 3.34507 3.01020
# Velocity P-wave (km/s) = 4.25126 5.53767 4.93655
#
# Compressibility (1/GPa) = 0.05994374
#
# Stress axis : x y z
#
# Youngs Moduli (GPa) = 85.83844 41.99785 34.80749
#
# Poissons Ratio (x) = 0.24271 -0.04182
# Poissons Ratio (y) = 0.49607 -0.08544
# Poissons Ratio (z) = -0.10313 -0.10309
#
# Static dielectric constant tensor:
#      x y z
#    x 1.684430 0.000000 -0.005120 
#    y 0.000000 1.671910 0.000000 
#    z -0.005120 0.000000 1.643920 
# 
# From -- ./inp_files/198518.got.cif
#   From: 2010.05.17/outbox.cif.g08.bks.cpg/sg12_100_cif.got.tgz:198518.got - 2010.06.03 13:09:07.
