data_PCOD9176738
_publ_section_title
;
Structure prediction by ZEFSAII (Michael W. Deem and Ramdas Pophale) SiO2 
 PCOD9176738
Probable space group: C 2/M
;
_chemical_formula_sum "Si O2"
_cell_formula_units_Z 44
_cell_length_a 18.144284
_cell_length_b 19.077858
_cell_length_c 8.041710
_cell_angle_alpha 90.000000
_cell_angle_beta 128.207258
_cell_angle_gamma 90.000000
_cell_volume 2187.348705
_symmetry_space_group_name_H-M "C 2/M"
_symmetry_group_IT_number 12
_symmetry_cell_setting 'monoclinic'
loop_
_space_group_symop_operation_xyz
x,y,z
-x,y,-z
-x,-y,-z
x,-y,z
1/2+x,1/2+y,z
1/2-x,1/2+y,-z
1/2-x,1/2-y,-z
1/2+x,1/2-y,z
loop_
_atom_site_type_symbol
_atom_site_label
_atom_site_fract_x
_atom_site_fract_y
_atom_site_fract_z
Si Si1 0.711388 0.353373 0.172135
Si Si2 0.464145 0.646684 0.272224
Si Si3 0.978090 0.000000 0.770168
Si Si4 0.784305 0.000000 0.618500
Si Si5 0.913009 0.245621 0.779653
Si Si6 0.565902 0.000000 0.260284
Si Si7 0.916979 0.641765 0.507305
O O1 0.699369 0.428589 0.251114
O O2 0.671467 0.290875 0.237042
O O3 0.819425 0.359590 0.271242
O O4 0.644063 0.341522 0.920723
O O5 0.500000 0.669205 0.500000
O O6 0.479652 0.565903 0.260993
O O7 0.530723 0.683295 0.231003
O O8 0.866083 0.000000 0.597850
O O9 0.000000 0.000000 0.000000
O O10 0.679911 0.000000 0.394211
O O11 0.888182 0.302882 0.609113
O O12 0.000000 0.280754 0.000000
O O13 0.553280 0.069580 0.357851
O O14 0.500000 0.000000 0.000000
O O15 0.000000 0.663076 0.500000
#
# Coordination Sequence:
#
# PCOD9176738 Si02
#       7
#     8   8   4   4   8   4   8
#     4  10  20  38  61  86 117 161 195 233 288 360
#     4  11  21  34  55  90 124 148 186 243 300 347
#     4  12  17  34  59  85 120 155 190 236 292 359
#     4  10  18  35  63  88 109 155 201 232 280 349
#     4  10  20  38  62  85 116 155 197 234 290 358
#     4  10  23  43  63  85 114 154 206 244 282 345
#     4  11  23  41  62  86 118 153 198 250 293 330
#
# _framework density 20.115675
#
# number of rings (size 3 to 8) (size 9 to 14) (size 15 to 20)
#    0.000    1.455    3.636    2.727    0.000    0.000 
#    3.273   10.000    0.000    0.000    0.000    0.000 
#    0.000    0.000    0.000    0.000    0.000    0.000 
#
# Total GULP energy -122518.041488 kJ/mol
# GULP energy per Si atom -5569.001886 kJ/mol
# Density = 2.006989 g / cm^3
# Si number density = 20.115675 Si / 1000 Ang^3
#
#
#
# Elastic Constant Matrix: (Units=GPa)
#
#
# Indices 1 2 3 4 5 6 
#
# 1 88.0554 -0.1515 50.6419 0.0000 23.5548 0.0000
# 2 -0.1515 72.4567 12.3972 0.0000 4.1666 0.0000
# 3 50.6419 12.3972 142.5149 0.0000 14.1092 0.0000
# 4 0.0000 0.0000 0.0000 12.6036 0.0000 1.1108
# 5 23.5548 4.1666 14.1092 0.0000 26.0081 0.0000
# 6 0.0000 0.0000 0.0000 1.1108 0.0000 -8.4141
#
#
#
# Elastic Compliance Matrix: (Units=1/GPa)
#
#
# Indices 1 2 3 4 5 6 
#
# 1 0.018035 0.001719 -0.005193 0.000000 -0.013793 0.000000
# 2 0.001719 0.014243 -0.001553 0.000000 -0.002996 0.000000
# 3 -0.005193 -0.001553 0.008990 0.000000 0.000075 0.000000
# 4 0.000000 0.000000 0.000000 0.078430 0.000000 0.010354
# 5 -0.013793 -0.002996 0.000075 0.000000 0.051380 0.000000
# 6 0.000000 0.000000 0.000000 0.010354 0.000000 -0.117480
#
#
# Mechanical properties :
#
#
# Convention : Reuss Voigt Hill
#
# Bulk Modulus (GPa) = 32.03636 47.64467 39.84052
# Shear Modulus (GPa) = 67.51599 22.04880 44.78240
#
# Velocity S-wave (km/s) = 5.79972 3.31433 4.72343
# Velocity P-wave (km/s) = 7.79805 6.19542 7.04247
#
# Compressibility (1/GPa) = 0.03121454
#
# Stress axis : x y z
#
# Youngs Moduli (GPa) = 55.44636 70.20986 111.23766
#
# Poissons Ratio (x) = -0.12071 0.57764
# Poissons Ratio (y) = -0.09533 0.17279
# Poissons Ratio (z) = 0.28793 0.10906
#
# Static dielectric constant tensor:
#      x y z
#    x 1.678300 0.000000 0.029290 
#    y 0.000000 1.736730 0.000000 
#    z 0.029290 0.000000 2.066840 
# 
# From -- ./inp_files/76146.got.cif
#   From: 2010.05.17/outbox.cif.g08.bks.cpg/sg12_39_cif.got.tgz:76146.got - 2010.06.03 13:09:07.
