data_PCOD9176086
_publ_section_title
;
Structure prediction by ZEFSAII (Michael W. Deem and Ramdas Pophale) SiO2 
 PCOD9176086
Probable space group: C 2/M
;
_chemical_formula_sum "Si O2"
_cell_formula_units_Z 56
_cell_length_a 32.801774
_cell_length_b 13.553960
_cell_length_c 9.642214
_cell_angle_alpha 90.000000
_cell_angle_beta 126.596465
_cell_angle_gamma 90.000000
_cell_volume 3441.731712
_symmetry_space_group_name_H-M "C 2/M"
_symmetry_group_IT_number 12
_symmetry_cell_setting 'monoclinic'
loop_
_space_group_symop_operation_xyz
x,y,z
-x,y,-z
-x,-y,-z
x,-y,z
1/2+x,1/2+y,z
1/2-x,1/2+y,-z
1/2-x,1/2-y,-z
1/2+x,1/2-y,z
loop_
_atom_site_type_symbol
_atom_site_label
_atom_site_fract_x
_atom_site_fract_y
_atom_site_fract_z
Si Si1 0.811517 0.116859 0.898489
Si Si2 0.449317 0.885672 0.984582
Si Si3 0.652909 0.771655 0.810360
Si Si4 0.706209 0.219827 0.638354
Si Si5 0.347269 0.216600 0.763461
Si Si6 0.782682 0.387726 0.851204
Si Si7 0.948243 0.615010 0.311601
O O1 0.751253 0.141881 0.763993
O O2 0.836518 0.180643 0.822796
O O3 0.820173 0.000000 0.910713
O O4 0.834017 0.169037 0.083462
O O5 0.405459 0.809328 0.855666
O O6 0.433443 0.000000 0.926232
O O7 0.500000 0.868661 0.000000
O O8 0.457995 0.875912 0.167093
O O9 0.663236 0.775209 0.668437
O O10 0.597863 0.813808 0.738483
O O11 0.695128 0.844343 0.962250
O O12 0.683973 0.207952 0.440901
O O13 0.735626 0.323371 0.707097
O O14 0.326777 0.133900 0.829042
O O15 0.769977 0.500000 0.837670
O O16 0.933622 0.500000 0.308947
O O17 0.000000 0.635058 0.500000
#
# Coordination Sequence:
#
# PCOD9176086 Si02
#       7
#     8   8   8   8   8   8   8
#     4  10  20  36  55  74 103 144 184 215 249 303
#     4  10  20  35  55  80 105 132 168 210 264 320
#     4  10  20  35  52  77 108 140 171 214 263 311
#     4  10  22  32  48  81 109 135 178 213 255 307
#     4  10  20  35  52  77 108 140 171 214 263 311
#     4  10  18  34  55  71 104 145 174 212 258 308
#     4  10  20  35  55  80 105 132 168 210 264 320
#
# _framework density 16.270879000000001
#
# number of rings (size 3 to 8) (size 9 to 14) (size 15 to 20)
#    0.000    2.286    2.857    4.286    2.000    5.714 
#    0.000    0.000    0.000    0.857    0.000    0.000 
#    0.000    0.000    0.000    0.000    0.000    0.000 
#
# Total GULP energy -156084.726679 kJ/mol
# GULP energy per Si atom -5574.454524 kJ/mol
# Density = 1.623385 g / cm^3
# Si number density = 16.270879 Si / 1000 Ang^3
#
#
#
# Elastic Constant Matrix: (Units=GPa)
#
#
# Indices 1 2 3 4 5 6 
#
# 1 92.1271 31.0029 8.8812 0.0000 -0.3600 0.0000
# 2 31.0029 82.1648 18.9569 0.0000 10.6979 0.0000
# 3 8.8812 18.9569 50.5927 0.0000 5.9485 0.0000
# 4 0.0000 0.0000 0.0000 4.6599 0.0000 2.5494
# 5 -0.3600 10.6979 5.9485 0.0000 23.3933 0.0000
# 6 0.0000 0.0000 0.0000 2.5494 0.0000 2.1493
#
#
#
# Elastic Compliance Matrix: (Units=1/GPa)
#
#
# Indices 1 2 3 4 5 6 
#
# 1 0.012591 -0.004938 -0.000668 0.000000 0.002622 0.000000
# 2 -0.004938 0.015845 -0.004339 0.000000 -0.006219 0.000000
# 3 -0.000668 -0.004339 0.021932 0.000000 -0.003603 0.000000
# 4 0.000000 0.000000 0.000000 0.611225 0.000000 -0.724984
# 5 0.002622 -0.006219 -0.003603 0.000000 0.046548 0.000000
# 6 0.000000 0.000000 0.000000 -0.724984 0.000000 1.325179
#
#
# Mechanical properties :
#
#
# Convention : Reuss Voigt Hill
#
# Bulk Modulus (GPa) = 32.81106 38.06294 35.43700
# Shear Modulus (GPa) = 2.42322 17.11008 9.76665
#
# Velocity S-wave (km/s) = 1.22169 3.24632 2.45267
# Velocity P-wave (km/s) = 4.71162 6.12336 5.46328
#
# Compressibility (1/GPa) = 0.03047752
#
# Stress axis : x y z
#
# Youngs Moduli (GPa) = 79.42165 63.11272 45.59460
#
# Poissons Ratio (x) = 0.31166 0.03047
# Poissons Ratio (y) = 0.39219 0.19783
# Poissons Ratio (z) = 0.05307 0.27384
#
# Static dielectric constant tensor:
#      x y z
#    x 1.581510 0.000000 -0.015850 
#    y 0.000000 1.536570 0.000000 
#    z -0.015850 0.000000 1.547130 
# 
# From -- ./inp_files/111316.got.cif
#   From: 2010.05.17/outbox.cif.g08.bks.cpg/sg12_56_cif.got.tgz:111316.got - 2010.06.03 13:09:07.
