data_PCOD9176734
_publ_section_title
;
Structure prediction by ZEFSAII (Michael W. Deem and Ramdas Pophale) SiO2 
 PCOD9176734
Probable space group: C 2/M
;
_chemical_formula_sum "Si O2"
_cell_formula_units_Z 58
_cell_length_a 24.022642
_cell_length_b 11.807515
_cell_length_c 11.687145
_cell_angle_alpha 90.000000
_cell_angle_beta 61.694973
_cell_angle_gamma 90.000000
_cell_volume 2918.672583
_symmetry_space_group_name_H-M "C 2/M"
_symmetry_group_IT_number 12
_symmetry_cell_setting 'monoclinic'
loop_
_space_group_symop_operation_xyz
x,y,z
-x,y,-z
-x,-y,-z
x,-y,z
1/2+x,1/2+y,z
1/2-x,1/2+y,-z
1/2-x,1/2-y,-z
1/2+x,1/2-y,z
loop_
_atom_site_type_symbol
_atom_site_label
_atom_site_fract_x
_atom_site_fract_y
_atom_site_fract_z
Si Si1 0.168912 0.629421 0.901710
Si Si2 0.774206 0.873395 0.431040
Si Si3 0.480662 0.208209 0.363196
Si Si4 0.611774 0.874676 0.207376
Si Si5 0.124668 0.127527 0.489737
Si Si6 0.500000 0.000000 0.500000
Si Si7 0.554196 0.136693 0.857460
Si Si8 0.719982 0.789064 0.257522
O O1 0.190217 0.500000 0.860113
O O2 0.122559 0.664730 0.843781
O O3 0.227560 0.712570 0.854859
O O4 0.128170 0.627426 0.057767
O O5 0.750000 0.750000 0.500000
O O6 0.845180 0.874033 0.411372
O O7 0.756804 0.864428 0.314917
O O8 0.748832 0.000000 0.495196
O O9 0.556687 0.213394 0.286754
O O10 0.443584 0.316645 0.441897
O O11 0.464397 0.101309 0.458680
O O12 0.458796 0.182900 0.255219
O O13 0.675584 0.857187 0.214618
O O14 0.583364 0.000000 0.266719
O O15 0.172263 0.205110 0.370661
O O16 0.124550 0.000000 0.446393
O O17 0.550813 0.000000 0.854830
O O18 0.500000 0.173368 0.000000
#
# Coordination Sequence:
#
# PCOD9176734 Si02
#       8
#     8   8   8   8   8   2   8   8
#     4  10  21  36  61  90 122 159 212 266 318 374
#     4   9  19  38  60  88 122 163 211 265 318 382
#     4  12  22  40  61  91 130 164 201 263 317 388
#     4  11  22  38  58  88 125 159 203 270 325 378
#     4  10  23  41  61  86 125 171 216 260 315 382
#     4  12  24  36  56  96 132 156 192 252 330 380
#     4  10  18  35  62  94 122 157 200 259 317 365
#     4  11  21  38  59  89 121 171 210 262 316 388
#
# _framework density 19.872047999999999
#
# number of rings (size 3 to 8) (size 9 to 14) (size 15 to 20)
#    0.000    1.517    2.759    2.897    0.000    0.552 
#    4.966    5.172    0.000    2.069    0.000    0.000 
#    0.000    0.000    0.000    0.000    0.000    0.000 
#
# Total GULP energy -161567.031222 kJ/mol
# GULP energy per Si atom -5571.276939 kJ/mol
# Density = 1.982682 g / cm^3
# Si number density = 19.872048 Si / 1000 Ang^3
#
#
#
# Elastic Constant Matrix: (Units=GPa)
#
#
# Indices 1 2 3 4 5 6 
#
# 1 75.6573 20.4127 10.0064 0.0000 4.7248 0.0000
# 2 20.4127 84.0479 11.9539 0.0000 -5.5573 0.0000
# 3 10.0064 11.9539 47.8408 0.0000 12.7393 0.0000
# 4 0.0000 0.0000 0.0000 18.9042 0.0000 -4.4872
# 5 4.7248 -5.5573 12.7393 0.0000 40.2371 0.0000
# 6 0.0000 0.0000 0.0000 -4.4872 0.0000 34.5809
#
#
#
# Elastic Compliance Matrix: (Units=1/GPa)
#
#
# Indices 1 2 3 4 5 6 
#
# 1 0.014459 -0.003368 -0.001754 0.000000 -0.001608 0.000000
# 2 -0.003368 0.013445 -0.003554 0.000000 0.003378 0.000000
# 3 -0.001754 -0.003554 0.024281 0.000000 -0.007972 0.000000
# 4 0.000000 0.000000 0.000000 0.054579 0.000000 0.007082
# 5 -0.001608 0.003378 -0.007972 0.000000 0.028032 0.000000
# 6 0.000000 0.000000 0.000000 0.007082 0.000000 0.029837
#
#
# Mechanical properties :
#
#
# Convention : Reuss Voigt Hill
#
# Bulk Modulus (GPa) = 28.71099 32.47688 30.59394
# Shear Modulus (GPa) = 25.82688 29.75599 27.79144
#
# Velocity S-wave (km/s) = 3.60899 3.87380 3.74373
# Velocity P-wave (km/s) = 5.64320 6.03215 5.84091
#
# Compressibility (1/GPa) = 0.03482986
#
# Stress axis : x y z
#
# Youngs Moduli (GPa) = 69.16242 74.37754 41.18507
#
# Poissons Ratio (x) = 0.25053 0.07226
# Poissons Ratio (y) = 0.23296 0.14639
# Poissons Ratio (z) = 0.12134 0.26437
#
# Static dielectric constant tensor:
#      x y z
#    x 1.706440 0.000000 0.025640 
#    y 0.000000 1.696040 0.000000 
#    z 0.025640 0.000000 1.616220 
# 
# From -- ./inp_files/174537.got.cif
#   From: 2010.05.17/outbox.cif.g08.bks.cpg/sg12_88_cif.got.tgz:174537.got - 2010.06.03 13:09:07.
