data_PCOD9176771
_publ_section_title
;
Structure prediction by ZEFSAII (Michael W. Deem and Ramdas Pophale) SiO2 
 PCOD9176771
Probable space group: C 2/M
;
_chemical_formula_sum "Si O2"
_cell_formula_units_Z 48
_cell_length_a 14.372432
_cell_length_b 22.761568
_cell_length_c 9.689652
_cell_angle_alpha 90.000000
_cell_angle_beta 108.667966
_cell_angle_gamma 90.000000
_cell_volume 3003.095428
_symmetry_space_group_name_H-M "C 2/M"
_symmetry_group_IT_number 12
_symmetry_cell_setting 'monoclinic'
loop_
_space_group_symop_operation_xyz
x,y,z
-x,y,-z
-x,-y,-z
x,-y,z
1/2+x,1/2+y,z
1/2-x,1/2+y,-z
1/2-x,1/2-y,-z
1/2+x,1/2-y,z
loop_
_atom_site_type_symbol
_atom_site_label
_atom_site_fract_x
_atom_site_fract_y
_atom_site_fract_z
Si Si1 0.718829 0.195424 0.887577
Si Si2 0.400477 0.500000 0.543203
Si Si3 0.637373 0.371346 0.866633
Si Si4 0.963216 0.000000 0.138514
Si Si5 0.520740 0.750012 0.850822
Si Si6 0.380862 0.623135 0.454155
Si Si7 0.819091 0.782534 0.640553
O O1 0.602042 0.205549 0.829049
O O2 0.765500 0.202765 0.758778
O O3 0.750000 0.250000 0.000000
O O4 0.769402 0.140420 0.989626
O O5 0.500000 0.500000 0.500000
O O6 0.441815 0.500000 0.716859
O O7 0.346157 0.558074 0.473564
O O8 0.594053 0.437806 0.860132
O O9 0.560991 0.318056 0.865937
O O10 0.659758 0.360017 0.715344
O O11 0.000000 0.000000 0.000000
O O12 0.418334 0.752353 0.722703
O O13 0.500000 0.764065 0.000000
O O14 0.500000 0.624920 0.500000
O O15 0.352553 0.661167 0.570939
O O16 0.750000 0.750000 0.500000
#
# Coordination Sequence:
#
# PCOD9176771 Si02
#       7
#     8   4   8   4   8   8   8
#     4  10  22  35  51  76 108 140 183 216 265 329
#     4  10  18  36  46  76 105 149 175 209 275 332
#     4  11  20  35  50  79 110 146 178 216 269 327
#     4  12  22  28  54  80 112 144 186 219 279 339
#     4  11  20  36  55  72 113 148 172 224 271 321
#     4  11  20  32  53  72 111 144 175 218 263 327
#     4  12  23  33  55  81 104 143 187 224 273 321
#
# _framework density 15.983508
#
# number of rings (size 3 to 8) (size 9 to 14) (size 15 to 20)
#    0.000    1.000    8.333    2.500    2.333    0.000 
#    0.000    0.000    0.000    0.000    0.000    1.750 
#    0.000    2.667    0.000    0.000    0.000    0.000 
#
# Total GULP energy -133691.653327 kJ/mol
# GULP energy per Si atom -5570.485555 kJ/mol
# Density = 1.594713 g / cm^3
# Si number density = 15.983508 Si / 1000 Ang^3
#
#
#
# Elastic Constant Matrix: (Units=GPa)
#
#
# Indices 1 2 3 4 5 6 
#
# 1 90.7201 25.7654 56.1792 0.0000 -1.1507 0.0000
# 2 25.7654 46.9664 19.8792 0.0000 -2.0084 0.0000
# 3 56.1792 19.8792 137.2065 0.0000 -11.9550 0.0000
# 4 0.0000 0.0000 0.0000 24.0201 0.0000 0.7794
# 5 -1.1507 -2.0084 -11.9550 0.0000 40.2377 0.0000
# 6 0.0000 0.0000 0.0000 0.7794 0.0000 -5.1031
#
#
#
# Elastic Compliance Matrix: (Units=1/GPa)
#
#
# Indices 1 2 3 4 5 6 
#
# 1 0.016586 -0.006641 -0.005971 0.000000 -0.001631 0.000000
# 2 -0.006641 0.025343 -0.000882 0.000000 0.000813 0.000000
# 3 -0.005971 -0.000882 0.010104 0.000000 0.002787 0.000000
# 4 0.000000 0.000000 0.000000 0.041426 0.000000 0.006327
# 5 -0.001631 0.000813 0.002787 0.000000 0.025674 0.000000
# 6 0.000000 0.000000 0.000000 0.006327 0.000000 -0.194994
#
#
# Mechanical properties :
#
#
# Convention : Reuss Voigt Hill
#
# Bulk Modulus (GPa) = 39.92862 53.17119 46.54990
# Shear Modulus (GPa) = -123.38417 23.36888 -50.00764
#
# Velocity S-wave (km/s) = -8.79558 3.82784 -5.59955
# Velocity P-wave (km/s) = 8.83823 7.27152 3.55242
#
# Compressibility (1/GPa) = 0.02504469
#
# Stress axis : x y z
#
# Youngs Moduli (GPa) = 60.29151 39.45827 98.97345
#
# Poissons Ratio (x) = 0.26206 0.59098
# Poissons Ratio (y) = 0.40042 0.08726
# Poissons Ratio (z) = 0.36000 0.03479
#
# Static dielectric constant tensor:
#      x y z
#    x 1.668630 0.000000 -0.082240 
#    y 0.000000 1.390700 0.000000 
#    z -0.082240 0.000000 1.619490 
# 
# From -- ./inp_files/64886.got.cif
#   From: 2010.05.17/outbox.cif.g08.bks.cpg/sg12_33_cif.got.tgz:64886.got - 2010.06.03 13:09:07.
