data_PCOD9176929
_publ_section_title
;
Structure prediction by ZEFSAII (Michael W. Deem and Ramdas Pophale) SiO2 
 PCOD9176929
Probable space group: C 2/M
;
_chemical_formula_sum "Si O2"
_cell_formula_units_Z 64
_cell_length_a 17.591716
_cell_length_b 16.666364
_cell_length_c 14.201097
_cell_angle_alpha 90.000000
_cell_angle_beta 136.101146
_cell_angle_gamma 90.000000
_cell_volume 2887.000888
_symmetry_space_group_name_H-M "C 2/M"
_symmetry_group_IT_number 12
_symmetry_cell_setting 'monoclinic'
loop_
_space_group_symop_operation_xyz
x,y,z
-x,y,-z
-x,-y,-z
x,-y,z
1/2+x,1/2+y,z
1/2-x,1/2+y,-z
1/2-x,1/2-y,-z
1/2+x,1/2-y,z
loop_
_atom_site_type_symbol
_atom_site_label
_atom_site_fract_x
_atom_site_fract_y
_atom_site_fract_z
Si Si1 0.450570 0.588388 0.349765
Si Si2 0.120143 0.910624 0.140662
Si Si3 0.207512 0.248124 0.258468
Si Si4 0.258072 0.088952 0.073980
Si Si5 0.256760 0.828626 0.892334
Si Si6 0.935813 0.755030 0.542243
Si Si7 0.510602 0.872234 0.110378
Si Si8 0.517510 0.086988 0.323557
O O1 0.500000 0.586978 0.500000
O O2 0.472861 0.500000 0.328437
O O3 0.320552 0.606573 0.230616
O O4 0.504508 0.669359 0.354712
O O5 0.175475 0.842734 0.252451
O O6 0.188596 0.914310 0.105782
O O7 0.113494 0.000000 0.176111
O O8 0.000000 0.884461 0.000000
O O9 0.247872 0.254908 0.184773
O O10 0.310174 0.276981 0.410166
O O11 0.099999 0.302286 0.174517
O O12 0.385712 0.095120 0.214180
O O13 0.246914 0.000000 0.016653
O O14 0.220520 0.158477 0.968221
O O15 0.385903 0.844637 0.016270
O O16 0.937409 0.669482 0.594480
O O17 0.000000 0.743648 0.500000
O O18 0.543811 0.914752 0.235911
O O19 0.500000 0.914774 0.000000
O O20 0.549842 0.000000 0.394488
#
# Coordination Sequence:
#
# PCOD9176929 Si02
#       8
#     8   8   8   8   8   8   8   8
#     4  10  20  37  59  87 125 165 205 258 316 376
#     4  10  21  38  58  85 125 167 210 260 320 384
#     4  11  21  39  60  89 126 167 214 261 314 379
#     4   9  19  35  59  91 123 156 204 272 325 372
#     4  10  18  36  62  90 121 154 205 259 320 377
#     4  11  22  40  63  93 128 169 215 264 316 379
#     4   9  21  40  65  93 123 165 206 264 326 376
#     4  10  22  41  64  96 131 165 214 266 319 381
#
# _framework density 22.168334000000002
#
# number of rings (size 3 to 8) (size 9 to 14) (size 15 to 20)
#    0.000    2.000    2.500    2.250    0.000    2.500 
#    6.750    4.375    0.000    0.000    0.000    0.000 
#    0.000    0.000    0.000    0.000    0.000    0.000 
#
# Total GULP energy -178272.510757 kJ/mol
# GULP energy per Si atom -5571.015961 kJ/mol
# Density = 2.211788 g / cm^3
# Si number density = 22.168334 Si / 1000 Ang^3
#
#
#
# Elastic Constant Matrix: (Units=GPa)
#
#
# Indices 1 2 3 4 5 6 
#
# 1 54.6532 10.1135 17.0435 0.0000 12.1719 0.0000
# 2 10.1135 155.7924 41.3895 0.0000 7.2744 0.0000
# 3 17.0435 41.3895 78.8706 0.0000 24.1464 0.0000
# 4 0.0000 0.0000 0.0000 101.7158 0.0000 28.1870
# 5 12.1719 7.2744 24.1464 0.0000 22.4955 0.0000
# 6 0.0000 0.0000 0.0000 28.1870 0.0000 26.5098
#
#
#
# Elastic Compliance Matrix: (Units=1/GPa)
#
#
# Indices 1 2 3 4 5 6 
#
# 1 0.020979 -0.000580 -0.001208 0.000000 -0.009867 0.000000
# 2 -0.000580 0.007584 -0.004766 0.000000 0.002977 0.000000
# 3 -0.001208 -0.004766 0.021998 0.000000 -0.021418 0.000000
# 4 0.000000 0.000000 0.000000 0.013938 0.000000 -0.014820
# 5 -0.009867 0.002977 -0.021418 0.000000 0.071819 0.000000
# 6 0.000000 0.000000 0.000000 -0.014820 0.000000 0.053479
#
#
# Mechanical properties :
#
#
# Convention : Reuss Voigt Hill
#
# Bulk Modulus (GPa) = 26.70073 47.37879 37.03976
# Shear Modulus (GPa) = 23.21379 44.86222 34.03800
#
# Velocity S-wave (km/s) = 3.23950 4.50344 3.92271
# Velocity P-wave (km/s) = 5.10521 6.96132 6.10423
#
# Compressibility (1/GPa) = 0.03745216
#
# Stress axis : x y z
#
# Youngs Moduli (GPa) = 47.66727 131.86392 45.45836
#
# Poissons Ratio (x) = 0.07650 0.05492
# Poissons Ratio (y) = 0.02766 0.21664
# Poissons Ratio (z) = 0.05759 0.62843
#
# Static dielectric constant tensor:
#      x y z
#    x 1.850990 0.000000 -0.037620 
#    y 0.000000 1.906950 0.000000 
#    z -0.037620 0.000000 1.826070 
# 
# From -- ./inp_files/226883.got.cif
#   From: 2010.05.17/outbox.cif.g08.bks.cpg/sg12_114_cif.got.tgz:226883.got - 2010.06.03 13:09:07.
