data_PCOD9176722
_publ_section_title
;
Structure prediction by ZEFSAII (Michael W. Deem and Ramdas Pophale) SiO2 
 PCOD9176722
Probable space group: C 2/M
;
_chemical_formula_sum "Si O2"
_cell_formula_units_Z 56
_cell_length_a 19.599617
_cell_length_b 8.648065
_cell_length_c 21.419047
_cell_angle_alpha 90.000000
_cell_angle_beta 124.337683
_cell_angle_gamma 90.000000
_cell_volume 2997.805255
_symmetry_space_group_name_H-M "C 2/M"
_symmetry_group_IT_number 12
_symmetry_cell_setting 'monoclinic'
loop_
_space_group_symop_operation_xyz
x,y,z
-x,y,-z
-x,-y,-z
x,-y,z
1/2+x,1/2+y,z
1/2-x,1/2+y,-z
1/2-x,1/2-y,-z
1/2+x,1/2-y,z
loop_
_atom_site_type_symbol
_atom_site_label
_atom_site_fract_x
_atom_site_fract_y
_atom_site_fract_z
Si Si1 0.080363 0.685765 0.500955
Si Si2 0.902066 0.320514 0.960670
Si Si3 0.515265 0.814809 0.795609
Si Si4 0.636333 0.187242 0.194683
Si Si5 0.255207 0.813651 0.633652
Si Si6 0.659425 0.319036 0.945716
Si Si7 0.093774 0.184470 0.368852
O O1 0.082415 0.500000 0.498568
O O2 0.165220 0.745980 0.575182
O O3 0.078337 0.753580 0.430169
O O4 0.000000 0.731367 0.500000
O O5 0.876659 0.500000 0.959977
O O6 0.860446 0.261633 0.875145
O O7 0.883150 0.217843 0.010233
O O8 0.000000 0.323631 0.000000
O O9 0.449592 0.768905 0.816024
O O10 0.604755 0.761712 0.864078
O O11 0.479966 0.738258 0.714906
O O12 0.511906 0.000000 0.787535
O O13 0.708171 0.233036 0.279683
O O14 0.635833 0.000000 0.191534
O O15 0.321936 0.754471 0.617242
O O16 0.253150 0.000000 0.629403
O O17 0.662781 0.500000 0.934967
O O18 0.750000 0.250000 0.000000
O O19 0.100573 0.000000 0.372731
#
# Coordination Sequence:
#
# PCOD9176722 Si02
#       7
#     8   8   8   8   8   8   8
#     4  11  24  42  61  84 118 159 199 244 296 350
#     4  10  18  35  62  87 116 156 197 239 294 353
#     4  10  19  38  63  88 118 154 196 244 294 348
#     4   8  16  32  58  89 116 149 189 236 294 348
#     4  10  20  37  62  90 120 155 197 245 293 348
#     4  12  25  40  57  84 119 161 205 248 297 349
#     4  11  22  38  63  93 120 153 195 240 291 353
#
# _framework density 18.680333000000001
#
# number of rings (size 3 to 8) (size 9 to 14) (size 15 to 20)
#    0.000    1.714    1.429    5.143    0.000    1.429 
#    2.571    1.429    0.000    0.000    0.000    0.000 
#    0.000    0.000    0.000    0.000    0.000    0.000 
#
# Total GULP energy -156385.912400 kJ/mol
# GULP energy per Si atom -5585.211157 kJ/mol
# Density = 1.863782 g / cm^3
# Si number density = 18.680333 Si / 1000 Ang^3
#
#
#
# Elastic Constant Matrix: (Units=GPa)
#
#
# Indices 1 2 3 4 5 6 
#
# 1 77.2175 28.7205 64.9211 0.0000 16.5582 0.0000
# 2 28.7205 79.5903 36.0793 0.0000 6.2323 0.0000
# 3 64.9211 36.0793 148.7816 0.0000 14.4392 0.0000
# 4 0.0000 0.0000 0.0000 32.0252 0.0000 4.1344
# 5 16.5582 6.2323 14.4392 0.0000 28.9999 0.0000
# 6 0.0000 0.0000 0.0000 4.1344 0.0000 21.4217
#
#
#
# Elastic Compliance Matrix: (Units=1/GPa)
#
#
# Indices 1 2 3 4 5 6 
#
# 1 0.023229 -0.003938 -0.008381 0.000000 -0.008244 0.000000
# 2 -0.003938 0.014838 -0.001879 0.000000 -0.000005 0.000000
# 3 -0.008381 -0.001879 0.010855 0.000000 -0.000215 0.000000
# 4 0.000000 0.000000 0.000000 0.032023 0.000000 -0.006180
# 5 -0.008244 -0.000005 -0.000215 0.000000 0.039298 0.000000
# 6 0.000000 0.000000 0.000000 -0.006180 0.000000 0.047875
#
#
# Mechanical properties :
#
#
# Convention : Reuss Voigt Hill
#
# Bulk Modulus (GPa) = 48.71983 62.78125 55.75054
# Shear Modulus (GPa) = 24.58736 28.21393 26.40064
#
# Velocity S-wave (km/s) = 3.63191 3.89054 3.76345
# Velocity P-wave (km/s) = 6.61249 7.33914 6.98527
#
# Compressibility (1/GPa) = 0.02052552
#
# Stress axis : x y z
#
# Youngs Moduli (GPa) = 43.04893 67.39635 92.12258
#
# Poissons Ratio (x) = 0.26538 0.77210
# Poissons Ratio (y) = 0.16951 0.17314
# Poissons Ratio (z) = 0.36080 0.12667
#
# Static dielectric constant tensor:
#      x y z
#    x 1.643950 0.000000 -0.000790 
#    y 0.000000 1.634290 0.000000 
#    z -0.000790 0.000000 1.654540 
# 
# From -- ./inp_files/314370.got.cif
#   From: 2010.05.17/outbox.cif.g08.bks.cpg/sg12_158_cif.got.tgz:314370.got - 2010.06.03 13:09:07.
