data_PCOD9176482
_publ_section_title
;
Structure prediction by ZEFSAII (Michael W. Deem and Ramdas Pophale) SiO2 
 PCOD9176482
Probable space group: C 2/M
;
_chemical_formula_sum "Si O2"
_cell_formula_units_Z 56
_cell_length_a 17.105023
_cell_length_b 25.971629
_cell_length_c 9.012352
_cell_angle_alpha 90.000000
_cell_angle_beta 41.887195
_cell_angle_gamma 90.000000
_cell_volume 2673.131879
_symmetry_space_group_name_H-M "C 2/M"
_symmetry_group_IT_number 12
_symmetry_cell_setting 'monoclinic'
loop_
_space_group_symop_operation_xyz
x,y,z
-x,y,-z
-x,-y,-z
x,-y,z
1/2+x,1/2+y,z
1/2-x,1/2+y,-z
1/2-x,1/2-y,-z
1/2+x,1/2-y,z
loop_
_atom_site_type_symbol
_atom_site_label
_atom_site_fract_x
_atom_site_fract_y
_atom_site_fract_z
Si Si1 0.600979 0.135150 0.747329
Si Si2 0.223849 0.145725 0.011287
Si Si3 0.715806 0.297296 0.332639
Si Si4 0.480302 0.347676 0.184336
Si Si5 0.103373 0.306182 0.451818
Si Si6 0.868306 0.942783 0.688944
Si Si7 0.809938 0.941090 0.426247
O O1 0.675416 0.176837 0.737405
O O2 0.557969 0.164718 0.661289
O O3 0.689023 0.089669 0.572219
O O4 0.500000 0.116137 0.000000
O O5 0.218650 0.185307 0.156794
O O6 0.221074 0.090417 0.092014
O O7 0.105453 0.147105 0.083234
O O8 0.331323 0.155568 0.752059
O O9 0.604406 0.319945 0.578946
O O10 0.699301 0.236279 0.361974
O O11 0.413712 0.401382 0.238150
O O12 0.500000 0.319272 0.000000
O O13 0.000000 0.281197 0.500000
O O14 0.824543 0.944759 0.583382
O O15 0.000000 0.919493 0.500000
O O16 0.881273 0.000000 0.733298
O O17 0.815754 0.000000 0.359503
#
# Coordination Sequence:
#
# PCOD9176482 Si02
#       7
#     8   8   8   8   8   8   8
#     4  11  24  44  66  90 125 162 208 260 308 368
#     4  12  20  38  63  91 127 162 207 258 305 371
#     4  11  23  43  64  91 124 166 211 255 311 371
#     4  11  22  36  60  96 132 165 200 257 312 366
#     4  12  27  42  63  91 124 167 211 256 311 370
#     4  10  18  34  64  97 124 159 202 252 316 381
#     4  10  21  39  64  93 125 163 209 254 312 374
#
# _framework density 20.949210999999998
#
# number of rings (size 3 to 8) (size 9 to 14) (size 15 to 20)
#    0.000    1.000    4.286    4.714    0.000    2.286 
#    0.000    2.143    0.000    0.857    0.000    0.000 
#    0.000    0.000    0.000    0.000    0.000    0.000 
#
# Total GULP energy -156417.002869 kJ/mol
# GULP energy per Si atom -5586.321531 kJ/mol
# Density = 2.090153 g / cm^3
# Si number density = 20.949211 Si / 1000 Ang^3
#
#
#
# Elastic Constant Matrix: (Units=GPa)
#
#
# Indices 1 2 3 4 5 6 
#
# 1 61.4218 -9.3222 6.6324 0.0000 2.7756 0.0000
# 2 -9.3222 64.4490 8.4896 0.0000 5.1350 0.0000
# 3 6.6324 8.4896 88.8696 0.0000 16.8217 0.0000
# 4 0.0000 0.0000 0.0000 -35.9300 0.0000 -27.6475
# 5 2.7756 5.1350 16.8217 0.0000 28.9241 0.0000
# 6 0.0000 0.0000 0.0000 -27.6475 0.0000 -1.8539
#
#
#
# Elastic Compliance Matrix: (Units=1/GPa)
#
#
# Indices 1 2 3 4 5 6 
#
# 1 0.016892 0.002719 -0.001261 0.000000 -0.001370 0.000000
# 2 0.002719 0.016272 -0.001305 0.000000 -0.002391 0.000000
# 3 -0.001261 -0.001305 0.012815 0.000000 -0.007100 0.000000
# 4 0.000000 0.000000 0.000000 0.002657 0.000000 -0.039622
# 5 -0.001370 -0.002391 -0.007100 0.000000 0.039259 0.000000
# 6 0.000000 0.000000 0.000000 -0.039622 0.000000 0.051492
#
#
# Mechanical properties :
#
#
# Convention : Reuss Voigt Hill
#
# Bulk Modulus (GPa) = 21.60567 25.14888 23.37727
# Shear Modulus (GPa) = 32.36062 12.15740 22.25901
#
# Velocity S-wave (km/s) = 3.93455 2.41161 3.26317
# Velocity P-wave (km/s) = 5.56567 4.44806 5.03795
#
# Compressibility (1/GPa) = 0.04628415
#
# Stress axis : x y z
#
# Youngs Moduli (GPa) = 59.20116 61.45625 78.03241
#
# Poissons Ratio (x) = -0.16707 0.09840
# Poissons Ratio (y) = -0.16094 0.10181
# Poissons Ratio (z) = 0.07465 0.08019
#
# Static dielectric constant tensor:
#      x y z
#    x 1.772220 0.000000 -0.008330 
#    y 0.000000 1.796800 0.000000 
#    z -0.008330 0.000000 1.739460 
# 
# From -- ./inp_files/80425.got.cif
#   From: 2010.05.17/outbox.cif.g08.bks.cpg/sg12_41_cif.got.tgz:80425.got - 2010.06.03 13:09:07.
