data_PCOD9176158
_publ_section_title
;
Structure prediction by ZEFSAII (Michael W. Deem and Ramdas Pophale) SiO2 
 PCOD9176158
Probable space group: C 2/M
;
_chemical_formula_sum "Si O2"
_cell_formula_units_Z 44
_cell_length_a 9.258144
_cell_length_b 24.093533
_cell_length_c 15.758259
_cell_angle_alpha 90.000000
_cell_angle_beta 36.269335
_cell_angle_gamma 90.000000
_cell_volume 2079.444946
_symmetry_space_group_name_H-M "C 2/M"
_symmetry_group_IT_number 12
_symmetry_cell_setting 'monoclinic'
loop_
_space_group_symop_operation_xyz
x,y,z
-x,y,-z
-x,-y,-z
x,-y,z
1/2+x,1/2+y,z
1/2-x,1/2+y,-z
1/2-x,1/2-y,-z
1/2+x,1/2-y,z
loop_
_atom_site_type_symbol
_atom_site_label
_atom_site_fract_x
_atom_site_fract_y
_atom_site_fract_z
Si Si1 0.500000 0.687554 0.000000
Si Si2 0.755587 0.897676 0.927891
Si Si3 0.413998 0.895731 0.812272
Si Si4 0.229812 0.000000 0.170923
Si Si5 0.811440 0.196483 0.665861
Si Si6 0.711280 0.000000 0.655578
Si Si7 0.409418 0.280225 0.814374
O O1 0.705820 0.642682 0.867995
O O2 0.699137 0.735053 0.934383
O O3 0.889310 0.943661 0.807621
O O4 0.871686 0.837413 0.881429
O O5 0.500000 0.886555 0.000000
O O6 0.710563 0.919918 0.043446
O O7 0.622119 0.854156 0.748708
O O8 0.559088 0.945593 0.698678
O O9 0.274511 0.000000 0.248715
O O10 0.500000 0.000000 0.000000
O O11 0.661639 0.252267 0.718955
O O12 0.908521 0.203210 0.715245
O O13 0.000000 0.188818 0.500000
O O14 0.000000 0.000000 0.500000
#
# Coordination Sequence:
#
# PCOD9176158 Si02
#       7
#     4   8   8   4   8   4   8
#     4  10  22  35  54  81 108 142 176 238 272 320
#     4  11  17  32  59  81 103 131 183 235 271 306
#     4  11  21  36  55  80 111 138 185 226 280 323
#     4  10  18  34  56  83 105 133 189 226 269 311
#     4  11  22  35  51  77 113 149 181 221 276 343
#     4  12  22  35  56  84 114 145 176 226 281 332
#     4  11  20  35  55  80 108 143 185 228 280 322
#
# _framework density 21.159493000000001
#
# number of rings (size 3 to 8) (size 9 to 14) (size 15 to 20)
#    0.000    1.091    6.364    2.182    0.000    3.273 
#    0.000    0.000    0.000    0.000    0.000    1.909 
#    0.000    0.000    0.000    0.000    0.000    0.000 
#
# Total GULP energy -122572.041017 kJ/mol
# GULP energy per Si atom -5571.456410 kJ/mol
# Density = 2.111133 g / cm^3
# Si number density = 21.159493 Si / 1000 Ang^3
#
#
#
# Elastic Constant Matrix: (Units=GPa)
#
#
# Indices 1 2 3 4 5 6 
#
# 1 54.1785 7.6011 23.7813 0.0000 8.1380 -0.0001
# 2 7.6011 145.7039 21.2675 0.0000 -10.4462 0.0000
# 3 23.7813 21.2675 81.2300 0.0000 3.9918 -0.0001
# 4 0.0000 0.0000 0.0000 15.3969 0.0000 -2.3128
# 5 8.1380 -10.4462 3.9918 0.0000 21.4762 0.0001
# 6 -0.0001 0.0000 -0.0001 -2.3128 0.0001 24.1459
#
#
#
# Elastic Compliance Matrix: (Units=1/GPa)
#
#
# Indices 1 2 3 4 5 6 
#
# 1 0.022353 -0.000858 -0.005937 0.000000 -0.007784 0.000000
# 2 -0.000858 0.007499 -0.001925 0.000000 0.004331 0.000000
# 3 -0.005937 -0.001925 0.014622 0.000000 -0.001404 0.000000
# 4 0.000000 0.000000 0.000000 0.065896 0.000000 0.006312
# 5 -0.007784 0.004331 -0.001404 0.000000 0.051880 0.000000
# 6 0.000000 0.000000 0.000000 0.006312 0.000000 0.042019
#
#
# Mechanical properties :
#
#
# Convention : Reuss Voigt Hill
#
# Bulk Modulus (GPa) = 36.98964 42.93470 39.96217
# Shear Modulus (GPa) = 21.67111 27.43464 24.55288
#
# Velocity S-wave (km/s) = 3.20375 3.60469 3.41012
# Velocity P-wave (km/s) = 5.58611 6.13678 5.86791
#
# Compressibility (1/GPa) = 0.02703460
#
# Stress axis : x y z
#
# Youngs Moduli (GPa) = 44.73657 133.34274 68.39007
#
# Poissons Ratio (x) = 0.11435 0.40604
# Poissons Ratio (y) = 0.03836 0.13167
# Poissons Ratio (z) = 0.26561 0.25672
#
# Static dielectric constant tensor:
#      x y z
#    x 1.861710 0.000000 0.088860 
#    y 0.000000 1.849310 0.000000 
#    z 0.088860 0.000000 1.832320 
# 
# From -- ./inp_files/265471.got.cif
#   From: 2010.05.17/outbox.cif.g08.bks.cpg/sg12_133_cif.got.tgz:265471.got - 2010.06.03 13:09:07.
