data_PCOD9176097
_publ_section_title
;
Structure prediction by ZEFSAII (Michael W. Deem and Ramdas Pophale) SiO2 
 PCOD9176097
Probable space group: C 2/M
;
_chemical_formula_sum "Si O2"
_cell_formula_units_Z 48
_cell_length_a 15.353901
_cell_length_b 32.051454
_cell_length_c 7.360638
_cell_angle_alpha 90.000000
_cell_angle_beta 140.995698
_cell_angle_gamma 90.000000
_cell_volume 2279.785569
_symmetry_space_group_name_H-M "C 2/M"
_symmetry_group_IT_number 12
_symmetry_cell_setting 'monoclinic'
loop_
_space_group_symop_operation_xyz
x,y,z
-x,y,-z
-x,-y,-z
x,-y,z
1/2+x,1/2+y,z
1/2-x,1/2+y,-z
1/2-x,1/2-y,-z
1/2+x,1/2-y,z
loop_
_atom_site_type_symbol
_atom_site_label
_atom_site_fract_x
_atom_site_fract_y
_atom_site_fract_z
Si Si1 0.645353 0.834453 0.627259
Si Si2 0.339703 0.344775 0.283112
Si Si3 0.304216 0.928420 0.841024
Si Si4 0.107597 0.573477 0.429650
Si Si5 0.653238 0.745060 0.666806
Si Si6 0.800452 0.000000 0.826947
Si Si7 0.605429 0.500000 0.447641
O O1 0.500000 0.832890 0.500000
O O2 0.640724 0.877678 0.512235
O O3 0.662641 0.788109 0.568708
O O4 0.766410 0.838648 0.970301
O O5 0.500000 0.353431 0.500000
O O6 0.259788 0.382721 0.244167
O O7 0.321504 0.301492 0.365765
O O8 0.358016 0.935360 0.724332
O O9 0.179359 0.960633 0.660586
O O10 0.442518 0.932880 0.187401
O O11 0.205483 0.541225 0.695627
O O12 0.500000 0.742674 0.500000
O O13 0.750000 0.750000 0.000000
O O14 0.851365 0.000000 0.697516
O O15 0.939681 0.000000 0.171825
#
# Coordination Sequence:
#
# PCOD9176097 Si02
#       7
#     8   8   8   8   8   4   4
#     4  10  18  34  55  79 105 139 179 213 255 310
#     4  10  20  34  53  80 109 138 172 217 263 307
#     4  10  20  36  55  79 106 137 175 217 262 307
#     4  10  20  35  57  79 103 138 178 217 255 311
#     4   8  16  30  51  74 102 138 175 206 248 312
#     4   9  19  35  55  77 101 139 179 207 256 323
#     4   9  19  35  55  75 105 140 171 210 262 322
#
# _framework density 21.054611000000001
#
# number of rings (size 3 to 8) (size 9 to 14) (size 15 to 20)
#    0.000    2.500    1.667    0.500    2.333    2.000 
#    0.000    2.500    0.000    0.000    0.000    0.000 
#    0.000    0.000    0.000    0.000    0.000    0.000 
#
# Total GULP energy -133750.922380 kJ/mol
# GULP energy per Si atom -5572.955099 kJ/mol
# Density = 2.100669 g / cm^3
# Si number density = 21.054611 Si / 1000 Ang^3
#
#
#
# Elastic Constant Matrix: (Units=GPa)
#
#
# Indices 1 2 3 4 5 6 
#
# 1 46.8380 20.1329 24.7613 0.0000 15.4467 0.0000
# 2 20.1329 193.3392 68.2449 0.0000 23.4875 0.0000
# 3 24.7613 68.2449 172.2027 0.0000 46.6544 0.0000
# 4 0.0000 0.0000 0.0000 30.2741 0.0000 -5.0141
# 5 15.4467 23.4875 46.6544 0.0000 24.5470 0.0000
# 6 0.0000 0.0000 0.0000 -5.0141 0.0000 37.9928
#
#
#
# Elastic Compliance Matrix: (Units=1/GPa)
#
#
# Indices 1 2 3 4 5 6 
#
# 1 0.027326 -0.001107 0.001817 0.000000 -0.019589 0.000000
# 2 -0.001107 0.006135 -0.001795 0.000000 -0.001763 0.000000
# 3 0.001817 -0.001795 0.012579 0.000000 -0.023333 0.000000
# 4 0.000000 0.000000 0.000000 0.033770 0.000000 0.004457
# 5 -0.019589 -0.001763 -0.023333 0.000000 0.099099 0.000000
# 6 0.000000 0.000000 0.000000 0.004457 0.000000 0.026909
#
#
# Mechanical properties :
#
#
# Convention : Reuss Voigt Hill
#
# Bulk Modulus (GPa) = 22.79474 70.96200 46.87837
# Shear Modulus (GPa) = 22.46071 38.51217 30.48644
#
# Velocity S-wave (km/s) = 3.26971 4.28150 3.80935
# Velocity P-wave (km/s) = 5.01045 7.63011 6.45458
#
# Compressibility (1/GPa) = 0.04386977
#
# Stress axis : x y z
#
# Youngs Moduli (GPa) = 36.59544 162.99511 79.49909
#
# Poissons Ratio (x) = 0.18044 -0.14442
# Poissons Ratio (y) = 0.04051 0.14267
# Poissons Ratio (z) = -0.06648 0.29251
#
# Static dielectric constant tensor:
#      x y z
#    x 1.725420 0.000000 -0.033350 
#    y 0.000000 1.841870 0.000000 
#    z -0.033350 0.000000 1.735680 
# 
# From -- ./inp_files/80899.got.cif
#   From: 2010.05.17/outbox.cif.g08.bks.cpg/sg12_41_cif.got.tgz:80899.got - 2010.06.03 13:09:07.
