data_PCOD9176163
_publ_section_title
;
Structure prediction by ZEFSAII (Michael W. Deem and Ramdas Pophale) SiO2 
 PCOD9176163
Probable space group: C 2/M
;
_chemical_formula_sum "Si O2"
_cell_formula_units_Z 56
_cell_length_a 9.647838
_cell_length_b 27.694505
_cell_length_c 17.593031
_cell_angle_alpha 90.000000
_cell_angle_beta 37.470977
_cell_angle_gamma 90.000000
_cell_volume 2859.726881
_symmetry_space_group_name_H-M "C 2/M"
_symmetry_group_IT_number 12
_symmetry_cell_setting 'monoclinic'
loop_
_space_group_symop_operation_xyz
x,y,z
-x,y,-z
-x,-y,-z
x,-y,z
1/2+x,1/2+y,z
1/2-x,1/2+y,-z
1/2-x,1/2-y,-z
1/2+x,1/2-y,z
loop_
_atom_site_type_symbol
_atom_site_label
_atom_site_fract_x
_atom_site_fract_y
_atom_site_fract_z
Si Si1 0.279299 0.698200 0.561402
Si Si2 0.744582 0.649120 0.589625
Si Si3 0.269109 0.632517 0.066455
Si Si4 0.191043 0.595639 0.677591
Si Si5 0.156369 0.056039 0.543891
Si Si6 0.920802 0.190598 0.857021
Si Si7 0.284204 0.770380 0.810311
O O1 0.500000 0.724310 0.500000
O O2 0.317171 0.677287 0.460945
O O3 0.249508 0.650767 0.627904
O O4 0.043423 0.727365 0.666514
O O5 0.735079 0.592555 0.574115
O O6 0.576734 0.661439 0.730615
O O7 0.000000 0.662155 0.500000
O O8 0.240695 0.680355 0.131045
O O9 0.048081 0.599527 0.175097
O O10 0.500000 0.609281 0.000000
O O11 0.303515 0.654196 0.967296
O O12 0.399353 0.572690 0.633407
O O13 0.191786 0.566988 0.597416
O O14 0.162577 0.000000 0.559830
O O15 0.091872 0.225826 0.829845
O O16 0.763378 0.225006 0.874837
#
# Coordination Sequence:
#
# PCOD9176163 Si02
#       7
#     8   8   8   8   8   8   8
#     4  10  18  34  56  84 113 157 196 248 301 344
#     4  11  22  38  57  86 124 157 195 247 312 362
#     4   9  20  37  58  84 118 167 202 242 285 345
#     4   9  16  34  63  89 117 146 194 239 293 356
#     4  10  20  36  65  96 117 144 189 249 307 364
#     4  11  23  37  55  83 118 162 208 247 294 343
#     4  10  22  36  55  81 118 158 207 257 283 336
#
# _framework density 19.582288999999999
#
# number of rings (size 3 to 8) (size 9 to 14) (size 15 to 20)
#    0.000    2.000    4.286    1.286    4.000    1.429 
#    0.000    2.143    0.000    4.286    0.000    0.000 
#    0.000    0.000    0.000    0.000    0.000    0.000 
#
# Total GULP energy -156427.406028 kJ/mol
# GULP energy per Si atom -5586.693072 kJ/mol
# Density = 1.953772 g / cm^3
# Si number density = 19.582289 Si / 1000 Ang^3
#
#
#
# Elastic Constant Matrix: (Units=GPa)
#
#
# Indices 1 2 3 4 5 6 
#
# 1 90.9420 39.8338 52.5396 0.0000 6.8711 0.0000
# 2 39.8338 79.6222 35.3247 0.0000 -4.4590 0.0000
# 3 52.5396 35.3247 132.2060 0.0000 -7.6950 0.0000
# 4 0.0000 0.0000 0.0000 16.5484 0.0000 -3.4246
# 5 6.8711 -4.4590 -7.6950 0.0000 20.2970 0.0000
# 6 0.0000 0.0000 0.0000 -3.4246 0.0000 25.7972
#
#
#
# Elastic Compliance Matrix: (Units=1/GPa)
#
#
# Indices 1 2 3 4 5 6 
#
# 1 0.018292 -0.007066 -0.005964 0.000000 -0.010006 0.000000
# 2 -0.007066 0.017037 -0.001418 0.000000 0.005597 0.000000
# 3 -0.005964 -0.001418 0.010647 0.000000 0.005744 0.000000
# 4 0.000000 0.000000 0.000000 0.062136 0.000000 0.008249
# 5 -0.010006 0.005597 0.005744 0.000000 0.056063 0.000000
# 6 0.000000 0.000000 0.000000 0.008249 0.000000 0.039859
#
#
# Mechanical properties :
#
#
# Convention : Reuss Voigt Hill
#
# Bulk Modulus (GPa) = 58.54669 62.01849 60.28259
# Shear Modulus (GPa) = 20.95342 24.19999 22.57670
#
# Velocity S-wave (km/s) = 3.27466 3.51922 3.39914
# Velocity P-wave (km/s) = 6.65286 6.94642 6.80122
#
# Compressibility (1/GPa) = 0.01708039
#
# Stress axis : x y z
#
# Youngs Moduli (GPa) = 54.66721 58.69587 93.91964
#
# Poissons Ratio (x) = 0.41474 0.56014
# Poissons Ratio (y) = 0.38627 0.13321
# Poissons Ratio (z) = 0.32604 0.08325
#
# Static dielectric constant tensor:
#      x y z
#    x 1.731270 0.000000 -0.026010 
#    y 0.000000 1.675920 0.000000 
#    z -0.026010 0.000000 1.738990 
# 
# From -- ./inp_files/260102.got.cif
#   From: 2010.05.17/outbox.cif.g08.bks.cpg/sg12_131_cif.got.tgz:260102.got - 2010.06.03 13:09:07.
