data_PCOD9176306
_publ_section_title
;
Structure prediction by ZEFSAII (Michael W. Deem and Ramdas Pophale) SiO2 
 PCOD9176306
Probable space group: C 2/M
;
_chemical_formula_sum "Si O2"
_cell_formula_units_Z 56
_cell_length_a 32.556207
_cell_length_b 8.344836
_cell_length_c 20.704050
_cell_angle_alpha 90.000000
_cell_angle_beta 150.045609
_cell_angle_gamma 90.000000
_cell_volume 2808.520387
_symmetry_space_group_name_H-M "C 2/M"
_symmetry_group_IT_number 12
_symmetry_cell_setting 'monoclinic'
loop_
_space_group_symop_operation_xyz
x,y,z
-x,y,-z
-x,-y,-z
x,-y,z
1/2+x,1/2+y,z
1/2-x,1/2+y,-z
1/2-x,1/2-y,-z
1/2+x,1/2-y,z
loop_
_atom_site_type_symbol
_atom_site_label
_atom_site_fract_x
_atom_site_fract_y
_atom_site_fract_z
Si Si1 0.980840 0.183815 0.043264
Si Si2 0.469904 0.693421 0.654643
Si Si3 0.946649 0.806280 0.365946
Si Si4 0.298758 0.817902 0.467543
Si Si5 0.735390 0.191919 0.906949
Si Si6 0.100143 0.196420 0.941354
Si Si7 0.640498 0.178177 0.301527
O O1 0.069461 0.191944 0.198272
O O2 0.919025 0.253705 0.012183
O O3 0.954777 0.000000 0.995742
O O4 0.000000 0.260591 0.000000
O O5 0.468887 0.500000 0.654396
O O6 0.511295 0.745982 0.643967
O O7 0.376977 0.753558 0.535538
O O8 0.527984 0.746976 0.793371
O O9 0.852568 0.750270 0.238093
O O10 0.000000 0.751665 0.500000
O O11 0.946429 0.000000 0.365707
O O12 0.326969 0.818613 0.581012
O O13 0.215510 0.715618 0.355473
O O14 0.279817 0.000000 0.422546
O O15 0.736232 0.000000 0.908645
O O16 0.750000 0.250000 0.000000
O O17 0.812269 0.246498 0.967932
O O18 0.098188 0.000000 0.940076
O O19 0.607200 0.000000 0.244211
#
# Coordination Sequence:
#
# PCOD9176306 Si02
#       7
#     8   8   8   8   8   8   8
#     4  10  20  36  57  78 108 148 187 230 284 338
#     4  10  18  34  59  81 109 147 186 232 289 343
#     4  10  22  41  61  84 119 157 194 238 296 357
#     4  10  20  33  53  82 108 137 183 232 275 326
#     4  11  21  37  62  90 120 153 198 246 294 352
#     4   9  18  34  57  83 110 144 187 236 287 342
#     4  10  20  34  53  77 108 142 180 226 280 330
#
# _framework density 19.939323999999999
#
# number of rings (size 3 to 8) (size 9 to 14) (size 15 to 20)
#    0.000    2.000    2.857    1.286    0.000    2.286 
#    2.571    1.429    0.000    0.000    0.000    0.000 
#    0.000    0.000    0.000    0.000    0.000    0.000 
#
# Total GULP energy -156198.760377 kJ/mol
# GULP energy per Si atom -5578.527156 kJ/mol
# Density = 1.989394 g / cm^3
# Si number density = 19.939324 Si / 1000 Ang^3
#
#
#
# Elastic Constant Matrix: (Units=GPa)
#
#
# Indices 1 2 3 4 5 6 
#
# 1 176.7557 11.8171 50.0613 0.0000 20.4018 0.0000
# 2 11.8171 18.3511 1.0503 0.0000 -2.0041 0.0000
# 3 50.0613 1.0503 66.1238 0.0000 14.4368 0.0000
# 4 0.0000 0.0000 0.0000 22.9280 0.0000 4.9153
# 5 20.4018 -2.0041 14.4368 0.0000 39.2002 0.0000
# 6 0.0000 0.0000 0.0000 4.9153 0.0000 10.8200
#
#
#
# Elastic Compliance Matrix: (Units=1/GPa)
#
#
# Indices 1 2 3 4 5 6 
#
# 1 0.007754 -0.004947 -0.005280 0.000000 -0.002344 0.000000
# 2 -0.004947 0.058113 0.001752 0.000000 0.004900 0.000000
# 3 -0.005280 0.001752 0.020089 0.000000 -0.004561 0.000000
# 4 0.000000 0.000000 0.000000 0.048321 0.000000 -0.021951
# 5 -0.002344 0.004900 -0.004561 0.000000 0.028660 0.000000
# 6 0.000000 0.000000 0.000000 -0.021951 0.000000 0.102393
#
#
# Mechanical properties :
#
#
# Convention : Reuss Voigt Hill
#
# Bulk Modulus (GPa) = 14.49149 43.00977 28.75063
# Shear Modulus (GPa) = 16.37829 27.80978 22.09403
#
# Velocity S-wave (km/s) = 2.86913 3.73865 3.33237
# Velocity P-wave (km/s) = 4.27311 6.34459 5.40894
#
# Compressibility (1/GPa) = 0.06900603
#
# Stress axis : x y z
#
# Youngs Moduli (GPa) = 128.96010 17.20782 49.77931
#
# Poissons Ratio (x) = 0.08513 0.26285
# Poissons Ratio (y) = 0.63798 -0.08723
# Poissons Ratio (z) = 0.68095 -0.03015
#
# Static dielectric constant tensor:
#      x y z
#    x 1.722410 0.000000 -0.010970 
#    y 0.000000 1.718910 0.000000 
#    z -0.010970 0.000000 1.688150 
# 
# From -- ./inp_files/329672.got.cif
#   From: 2010.05.17/outbox.cif.g08.bks.cpg/sg12_165_cif.got.tgz:329672.got - 2010.06.03 13:09:07.
