data_PCOD9176809
_publ_section_title
;
Structure prediction by ZEFSAII (Michael W. Deem and Ramdas Pophale) SiO2 
 PCOD9176809
Probable space group: C 2/M
;
_chemical_formula_sum "Si O2"
_cell_formula_units_Z 56
_cell_length_a 17.183056
_cell_length_b 21.669585
_cell_length_c 14.127921
_cell_angle_alpha 90.000000
_cell_angle_beta 147.778939
_cell_angle_gamma 90.000000
_cell_volume 2804.846141
_symmetry_space_group_name_H-M "C 2/M"
_symmetry_group_IT_number 12
_symmetry_cell_setting 'monoclinic'
loop_
_space_group_symop_operation_xyz
x,y,z
-x,y,-z
-x,-y,-z
x,-y,z
1/2+x,1/2+y,z
1/2-x,1/2+y,-z
1/2-x,1/2-y,-z
1/2+x,1/2-y,z
loop_
_atom_site_type_symbol
_atom_site_label
_atom_site_fract_x
_atom_site_fract_y
_atom_site_fract_z
Si Si1 0.528723 0.349001 0.206296
Si Si2 0.734579 0.427952 0.079355
Si Si3 0.327845 0.294374 0.327841
Si Si4 0.060921 0.278847 0.953110
Si Si5 0.552357 0.930176 0.361192
Si Si6 0.274197 0.851618 0.312013
Si Si7 0.708847 0.854372 0.384642
O O1 0.436253 0.289073 0.085922
O O2 0.621596 0.364300 0.208146
O O3 0.655546 0.333235 0.411462
O O4 0.415887 0.402022 0.117893
O O5 0.718288 0.500000 0.087532
O O6 0.768698 0.387187 0.207556
O O7 0.880228 0.422428 0.165936
O O8 0.500000 0.300960 0.500000
O O9 0.297842 0.222392 0.327893
O O10 0.267936 0.344392 0.340678
O O11 0.225767 0.303051 0.130812
O O12 0.939899 0.314389 0.767894
O O13 0.000000 0.277848 0.000000
O O14 0.605046 0.881901 0.495062
O O15 0.652755 0.917655 0.372916
O O16 0.574818 0.000000 0.419347
#
# Coordination Sequence:
#
# PCOD9176809 Si02
#       7
#     8   8   8   8   8   8   8
#     4  11  20  34  55  83 119 153 194 236 275 334
#     4  11  22  36  55  85 122 161 196 233 275 339
#     4  11  22  37  61  91 118 148 191 242 292 349
#     4  10  18  36  56  80 114 151 186 233 283 342
#     4  10  23  39  57  82 116 158 203 238 284 340
#     4  11  20  35  57  84 124 161 194 227 279 348
#     4  10  23  38  61  80 117 155 193 237 297 339
#
# _framework density 19.965444000000002
#
# number of rings (size 3 to 8) (size 9 to 14) (size 15 to 20)
#    0.000    1.429    4.286    2.571    2.000    5.714 
#    0.000    1.429    0.000    4.286    0.000    0.000 
#    0.000    0.000    0.000    0.000    0.000    0.000 
#
# Total GULP energy -156074.733208 kJ/mol
# GULP energy per Si atom -5574.097615 kJ/mol
# Density = 1.992000 g / cm^3
# Si number density = 19.965444 Si / 1000 Ang^3
#
#
#
# Elastic Constant Matrix: (Units=GPa)
#
#
# Indices 1 2 3 4 5 6 
#
# 1 28.1873 4.7434 32.1750 0.0000 7.5326 0.0000
# 2 4.7434 24.4447 19.9232 0.0000 -6.6996 0.0000
# 3 32.1750 19.9232 153.3292 0.0000 20.7635 0.0000
# 4 0.0000 0.0000 0.0000 26.2639 0.0000 6.3930
# 5 7.5326 -6.6996 20.7635 0.0000 26.5225 0.0000
# 6 0.0000 0.0000 0.0000 6.3930 0.0000 16.6045
#
#
#
# Elastic Compliance Matrix: (Units=1/GPa)
#
#
# Indices 1 2 3 4 5 6 
#
# 1 0.048014 -0.004823 -0.008319 0.000000 -0.008342 0.000000
# 2 -0.004823 0.055638 -0.009291 0.000000 0.022698 0.000000
# 3 -0.008319 -0.009291 0.010596 0.000000 -0.008280 0.000000
# 4 0.000000 0.000000 0.000000 0.042012 0.000000 -0.016175
# 5 -0.008342 0.022698 -0.008280 0.000000 0.052288 0.000000
# 6 0.000000 0.000000 0.000000 -0.016175 0.000000 0.066452
#
#
# Mechanical properties :
#
#
# Convention : Reuss Voigt Hill
#
# Bulk Modulus (GPa) = 14.41303 35.51605 24.96454
# Shear Modulus (GPa) = 14.57752 23.81950 19.19851
#
# Velocity S-wave (km/s) = 2.70504 3.45778 3.10431
# Velocity P-wave (km/s) = 4.12201 5.81112 5.03786
#
# Compressibility (1/GPa) = 0.06938165
#
# Stress axis : x y z
#
# Youngs Moduli (GPa) = 20.82739 17.97334 94.37479
#
# Poissons Ratio (x) = 0.08668 0.78510
# Poissons Ratio (y) = 0.10045 0.87684
# Poissons Ratio (z) = 0.17326 0.16699
#
# Static dielectric constant tensor:
#      x y z
#    x 1.752290 0.000000 0.002390 
#    y 0.000000 1.694750 0.000000 
#    z 0.002390 0.000000 1.764840 
# 
# From -- ./inp_files/227650.got.cif
#   From: 2010.05.17/outbox.cif.g08.bks.cpg/sg12_114_cif.got.tgz:227650.got - 2010.06.03 13:09:07.
