data_PCOD9176594
_publ_section_title
;
Structure prediction by ZEFSAII (Michael W. Deem and Ramdas Pophale) SiO2 
 PCOD9176594
Probable space group: C 2/M
;
_chemical_formula_sum "Si O2"
_cell_formula_units_Z 36
_cell_length_a 14.706150
_cell_length_b 14.950021
_cell_length_c 15.236669
_cell_angle_alpha 90.000000
_cell_angle_beta 30.236579
_cell_angle_gamma 90.000000
_cell_volume 1686.910618
_symmetry_space_group_name_H-M "C 2/M"
_symmetry_group_IT_number 12
_symmetry_cell_setting 'monoclinic'
loop_
_space_group_symop_operation_xyz
x,y,z
-x,y,-z
-x,-y,-z
x,-y,z
1/2+x,1/2+y,z
1/2-x,1/2+y,-z
1/2-x,1/2-y,-z
1/2+x,1/2-y,z
loop_
_atom_site_type_symbol
_atom_site_label
_atom_site_fract_x
_atom_site_fract_y
_atom_site_fract_z
Si Si1 0.161453 0.192842 0.708862
Si Si2 0.448741 0.500000 0.442101
Si Si3 0.538983 0.500000 0.864575
Si Si4 0.166238 0.696059 0.986869
Si Si5 0.047208 0.807255 0.600387
Si Si6 0.261734 0.000000 0.032836
O O1 0.095365 0.202048 0.662781
O O2 0.360109 0.233323 0.536864
O O3 0.143640 0.090470 0.751916
O O4 0.017549 0.252821 0.882071
O O5 0.500000 0.500000 0.500000
O O6 0.364513 0.403078 0.497003
O O7 0.613195 0.500000 0.234914
O O8 0.355121 0.500000 0.959341
O O9 0.500000 0.500000 0.000000
O O10 0.329091 0.694539 0.780102
O O11 0.134114 0.593260 0.042863
O O12 0.250000 0.750000 0.000000
#
# Coordination Sequence:
#
# PCOD9176594 Si02
#       6
#     8   4   4   8   8   4
#     4  10  19  37  58  84 107 153 190 230 282 337
#     4  10  18  35  58  84 114 146 174 238 300 326
#     4  12  22  38  58  81 121 158 189 239 290 339
#     4   9  16  32  60  82 109 149 187 230 286 333
#     4   9  18  34  60  83 113 141 187 233 282 340
#     4  10  18  37  56  80 118 144 190 238 284 348
#
# _framework density 21.340786000000001
#
# number of rings (size 3 to 8) (size 9 to 14) (size 15 to 20)
#    0.000    2.222    6.667    0.000    0.000    0.889 
#    8.000    7.778    0.000    6.667    0.000    0.000 
#    0.000    0.000    0.000    0.000    0.000    0.000 
#
# Total GULP energy -100321.634191 kJ/mol
# GULP energy per Si atom -5573.424122 kJ/mol
# Density = 2.129221 g / cm^3
# Si number density = 21.340786 Si / 1000 Ang^3
#
#
#
# Elastic Constant Matrix: (Units=GPa)
#
#
# Indices 1 2 3 4 5 6 
#
# 1 53.1647 9.7902 43.4450 -0.0013 13.0871 0.0043
# 2 9.7902 206.7962 78.8183 -0.0002 -21.0145 0.0033
# 3 43.4450 78.8183 111.0255 0.0019 -3.4950 0.0018
# 4 -0.0013 -0.0002 0.0019 40.0355 0.0001 -4.2733
# 5 13.0871 -21.0145 -3.4950 0.0001 24.7665 -0.0039
# 6 0.0043 0.0033 0.0018 -4.2733 -0.0039 -22.0615
#
#
#
# Elastic Compliance Matrix: (Units=1/GPa)
#
#
# Indices 1 2 3 4 5 6 
#
# 1 0.037130 0.002763 -0.017110 0.000003 -0.019691 0.000009
# 2 0.002763 0.007510 -0.006285 0.000000 0.004025 0.000000
# 3 -0.017110 -0.006285 0.020372 -0.000002 0.006583 -0.000003
# 4 0.000003 0.000000 -0.000002 0.024472 -0.000002 -0.004740
# 5 -0.019691 0.004025 0.006583 -0.000002 0.055126 -0.000012
# 6 0.000009 0.000000 -0.000003 -0.004740 -0.000012 -0.044410
#
#
# Mechanical properties :
#
#
# Convention : Reuss Voigt Hill
#
# Bulk Modulus (GPa) = 42.11411 70.56594 56.34003
# Shear Modulus (GPa) = 33.47143 24.47696 28.97419
#
# Velocity S-wave (km/s) = 3.96463 3.39035 3.68868
# Velocity P-wave (km/s) = 6.38237 6.96161 6.67827
#
# Compressibility (1/GPa) = 0.02374501
#
# Stress axis : x y z
#
# Youngs Moduli (GPa) = 26.93235 133.16364 49.08771
#
# Poissons Ratio (x) = -0.36789 0.83991
# Poissons Ratio (y) = -0.07440 0.30854
# Poissons Ratio (z) = 0.46082 0.83700
#
# Static dielectric constant tensor:
#      x y z
#    x 1.783580 0.000000 -0.025570 
#    y 0.000000 1.716760 0.000000 
#    z -0.025570 0.000000 1.801010 
# 
# From -- ./inp_files/225057.got.cif
#   From: 2010.05.17/outbox.cif.g08.bks.cpg/sg12_113_cif.got.tgz:225057.got - 2010.06.03 13:09:07.
