data_PCOD9176829
_publ_section_title
;
Structure prediction by ZEFSAII (Michael W. Deem and Ramdas Pophale) SiO2 
 PCOD9176829
Probable space group: C 2/M
;
_chemical_formula_sum "Si O2"
_cell_formula_units_Z 56
_cell_length_a 5.708995
_cell_length_b 27.878483
_cell_length_c 20.546960
_cell_angle_alpha 90.000000
_cell_angle_beta 127.363533
_cell_angle_gamma 90.000000
_cell_volume 2599.170687
_symmetry_space_group_name_H-M "C 2/M"
_symmetry_group_IT_number 12
_symmetry_cell_setting 'monoclinic'
loop_
_space_group_symop_operation_xyz
x,y,z
-x,y,-z
-x,-y,-z
x,-y,z
1/2+x,1/2+y,z
1/2-x,1/2+y,-z
1/2-x,1/2-y,-z
1/2+x,1/2-y,z
loop_
_atom_site_type_symbol
_atom_site_label
_atom_site_fract_x
_atom_site_fract_y
_atom_site_fract_z
Si Si1 0.328837 0.644973 0.077840
Si Si2 0.850289 0.353148 0.679532
Si Si3 0.853919 0.447090 0.297815
Si Si4 0.026328 0.232362 0.406740
Si Si5 0.764508 0.098059 0.204162
Si Si6 0.819645 0.052857 0.885086
Si Si7 0.732119 0.721810 0.192174
O O1 0.330416 0.631523 0.154410
O O2 0.459674 0.596777 0.067400
O O3 0.544896 0.689997 0.109121
O O4 0.000000 0.655146 0.000000
O O5 0.574445 0.322923 0.607278
O O6 0.807386 0.369296 0.746652
O O7 0.937562 0.401333 0.656178
O O8 0.117075 0.315601 0.731948
O O9 0.961713 0.500000 0.334014
O O10 0.534720 0.434885 0.272736
O O11 0.774707 0.447344 0.207248
O O12 0.250000 0.250000 0.500000
O O13 0.219170 0.240196 0.373605
O O14 0.492324 0.065226 0.135315
O O15 0.933991 0.000000 0.919321
O O16 0.495769 0.752908 0.194682
#
# Coordination Sequence:
#
# PCOD9176829 Si02
#       7
#     8   8   8   8   8   8   8
#     4  11  24  40  55  78 117 159 212 272 327 389
#     4  11  21  37  64  91 125 163 204 262 315 376
#     4   9  18  32  57  90 123 156 203 261 318 376
#     4  10  23  41  64 100 139 169 207 248 310 374
#     4  10  18  36  57  85 118 159 208 261 326 376
#     4   9  18  35  57  82 112 152 204 265 331 393
#     4  12  25  41  61  85 113 155 212 259 315 371
#
# _framework density 21.545334
#
# number of rings (size 3 to 8) (size 9 to 14) (size 15 to 20)
#    0.000    1.714    4.286    2.143    2.000    2.571 
#    0.000    0.714    0.000    0.000    0.000    4.000 
#    0.000    0.000    0.000    0.000    0.000    0.000 
#
# Total GULP energy -156104.518642 kJ/mol
# GULP energy per Si atom -5575.161380 kJ/mol
# Density = 2.149630 g / cm^3
# Si number density = 21.545334 Si / 1000 Ang^3
#
#
#
# Elastic Constant Matrix: (Units=GPa)
#
#
# Indices 1 2 3 4 5 6 
#
# 1 121.3291 62.4330 15.3287 0.0000 20.0038 0.0000
# 2 62.4330 163.3481 46.0655 0.0000 26.2766 0.0000
# 3 15.3287 46.0655 54.7146 0.0000 14.6433 0.0000
# 4 0.0000 0.0000 0.0000 -2.0343 0.0000 15.0194
# 5 20.0038 26.2766 14.6433 0.0000 26.3437 0.0000
# 6 0.0000 0.0000 0.0000 15.0194 0.0000 26.0191
#
#
#
# Elastic Compliance Matrix: (Units=1/GPa)
#
#
# Indices 1 2 3 4 5 6 
#
# 1 0.010846 -0.003710 0.001525 0.000000 -0.005383 0.000000
# 2 -0.003710 0.009898 -0.006350 0.000000 -0.003526 0.000000
# 3 0.001525 -0.006350 0.025622 0.000000 -0.009066 0.000000
# 4 0.000000 0.000000 0.000000 -0.093421 0.000000 0.053927
# 5 -0.005383 -0.003526 -0.009066 0.000000 0.050604 0.000000
# 6 0.000000 0.000000 0.000000 0.053927 0.000000 0.007304
#
#
# Mechanical properties :
#
#
# Convention : Reuss Voigt Hill
#
# Bulk Modulus (GPa) = 34.13336 65.22738 49.68037
# Shear Modulus (GPa) = 132.67202 24.43667 78.55435
#
# Velocity S-wave (km/s) = 7.85568 3.37144 6.04476
# Velocity P-wave (km/s) = 9.90754 6.74505 8.47511
#
# Compressibility (1/GPa) = 0.02929685
#
# Stress axis : x y z
#
# Youngs Moduli (GPa) = 92.20221 101.03354 39.02871
#
# Poissons Ratio (x) = 0.37478 -0.05953
# Poissons Ratio (y) = 0.34203 0.24784
# Poissons Ratio (z) = -0.14064 0.64159
#
# Static dielectric constant tensor:
#      x y z
#    x 1.821510 0.000000 0.123220 
#    y 0.000000 1.843600 0.000000 
#    z 0.123220 0.000000 1.708230 
# 
# From -- ./inp_files/298263.got.cif
#   From: 2010.05.17/outbox.cif.g08.bks.cpg/sg12_150_cif.got.tgz:298263.got - 2010.06.03 13:09:07.
