data_PCOD9176737
_publ_section_title
;
Structure prediction by ZEFSAII (Michael W. Deem and Ramdas Pophale) SiO2 
 PCOD9176737
Probable space group: C 2/M
;
_chemical_formula_sum "Si O2"
_cell_formula_units_Z 64
_cell_length_a 27.068262
_cell_length_b 18.040643
_cell_length_c 21.044602
_cell_angle_alpha 90.000000
_cell_angle_beta 19.175778
_cell_angle_gamma 90.000000
_cell_volume 3375.556219
_symmetry_space_group_name_H-M "C 2/M"
_symmetry_group_IT_number 12
_symmetry_cell_setting 'monoclinic'
loop_
_space_group_symop_operation_xyz
x,y,z
-x,y,-z
-x,-y,-z
x,-y,z
1/2+x,1/2+y,z
1/2-x,1/2+y,-z
1/2-x,1/2-y,-z
1/2+x,1/2-y,z
loop_
_atom_site_type_symbol
_atom_site_label
_atom_site_fract_x
_atom_site_fract_y
_atom_site_fract_z
Si Si1 0.092937 0.777018 0.445408
Si Si2 0.116533 0.087437 0.266827
Si Si3 0.226292 0.585365 0.496716
Si Si4 0.556294 0.083415 0.065954
Si Si5 0.761859 0.837459 0.004727
Si Si6 0.433981 0.814755 0.392583
Si Si7 0.980072 0.194501 0.223921
Si Si8 0.445388 0.772526 0.997778
O O1 0.082639 0.733904 0.524326
O O2 0.265654 0.775392 0.216599
O O3 0.000000 0.742123 0.500000
O O4 0.015750 0.857991 0.549087
O O5 0.080165 0.000000 0.314925
O O6 0.276369 0.099409 0.109296
O O7 0.151678 0.115165 0.152956
O O8 0.269928 0.500000 0.436607
O O9 0.194928 0.627475 0.468759
O O10 0.351395 0.632798 0.381348
O O11 0.067931 0.587596 0.727318
O O12 0.558196 0.000000 0.038909
O O13 0.508305 0.142727 0.072120
O O14 0.588747 0.859746 0.214710
O O15 0.750000 0.750000 0.000000
O O16 0.859006 0.838193 0.950297
O O17 0.443747 0.758537 0.320074
O O18 0.994470 0.228154 0.136195
O O19 0.500000 0.746256 0.000000
#
# Coordination Sequence:
#
# PCOD9176737 Si02
#       8
#     8   8   8   8   8   8   8   8
#     4  12  24  39  62  97 126 167 212 252 308 381
#     4  11  21  37  61  96 134 169 205 252 314 380
#     4  11  23  39  65  94 123 162 214 265 324 373
#     4  10  21  38  58  88 131 172 203 245 307 381
#     4  10  18  35  63  87 118 164 211 262 306 347
#     4  11  21  39  68  90 121 165 214 265 309 365
#     4  11  22  40  63  90 124 163 213 269 306 363
#     4  12  25  39  60  87 127 167 210 252 312 370
#
# _framework density 18.959838000000001
#
# number of rings (size 3 to 8) (size 9 to 14) (size 15 to 20)
#    0.000    1.000    6.250    2.625    1.750    1.500 
#    0.000    0.000    0.000    3.750    0.000    0.000 
#    0.000    0.000    0.000    0.000    0.000    0.000 
#
# Total GULP energy -178573.135881 kJ/mol
# GULP energy per Si atom -5580.410496 kJ/mol
# Density = 1.891668 g / cm^3
# Si number density = 18.959838 Si / 1000 Ang^3
#
#
#
# Elastic Constant Matrix: (Units=GPa)
#
#
# Indices 1 2 3 4 5 6 
#
# 1 94.6560 31.6049 7.6945 0.0009 5.5890 -0.0004
# 2 31.6049 64.3529 27.5643 -0.0005 -2.7371 -0.0004
# 3 7.6945 27.5643 63.2914 -0.0001 -6.2854 0.0002
# 4 0.0009 -0.0005 -0.0001 12.7766 -0.0008 0.3992
# 5 5.5890 -2.7371 -6.2854 -0.0008 39.8462 0.0001
# 6 -0.0004 -0.0004 0.0002 0.3992 0.0001 18.5144
#
#
#
# Elastic Compliance Matrix: (Units=1/GPa)
#
#
# Indices 1 2 3 4 5 6 
#
# 1 0.012913 -0.006969 0.001258 -0.000001 -0.002092 0.000000
# 2 -0.006969 0.022864 -0.008998 0.000001 0.001129 0.000000
# 3 0.001258 -0.008998 0.019797 0.000000 0.002328 0.000000
# 4 -0.000001 0.000001 0.000000 0.078321 0.000002 -0.001689
# 5 -0.002092 0.001129 0.002328 0.000002 0.025835 0.000000
# 6 0.000000 0.000000 0.000000 -0.001689 0.000000 0.054048
#
#
# Mechanical properties :
#
#
# Convention : Reuss Voigt Hill
#
# Bulk Modulus (GPa) = 38.23468 39.55863 38.89666
# Shear Modulus (GPa) = 19.84783 24.58989 22.21886
#
# Velocity S-wave (km/s) = 3.23899 3.60522 3.42700
# Velocity P-wave (km/s) = 5.84791 6.18384 6.01822
#
# Compressibility (1/GPa) = 0.02615427
#
# Stress axis : x y z
#
# Youngs Moduli (GPa) = 77.44213 43.73604 50.51224
#
# Poissons Ratio (x) = 0.30482 -0.06353
# Poissons Ratio (y) = 0.53973 0.45453
# Poissons Ratio (z) = -0.09740 0.39355
#
# Static dielectric constant tensor:
#      x y z
#    x 1.683180 0.000000 -0.002960 
#    y 0.000000 1.662850 0.000000 
#    z -0.002960 0.000000 1.706910 
# 
# From -- ./inp_files/328599.got.cif
#   From: 2010.05.17/outbox.cif.g08.bks.cpg/sg12_165_cif.got.tgz:328599.got - 2010.06.03 13:09:07.
