data_PCOD9176732
_publ_section_title
;
Structure prediction by ZEFSAII (Michael W. Deem and Ramdas Pophale) SiO2 
 PCOD9176732
Probable space group: C 2/M
;
_chemical_formula_sum "Si O2"
_cell_formula_units_Z 48
_cell_length_a 22.402779
_cell_length_b 8.429814
_cell_length_c 12.728414
_cell_angle_alpha 90.000000
_cell_angle_beta 100.395758
_cell_angle_gamma 90.000000
_cell_volume 2364.318622
_symmetry_space_group_name_H-M "C 2/M"
_symmetry_group_IT_number 12
_symmetry_cell_setting 'monoclinic'
loop_
_space_group_symop_operation_xyz
x,y,z
-x,y,-z
-x,-y,-z
x,-y,z
1/2+x,1/2+y,z
1/2-x,1/2+y,-z
1/2-x,1/2-y,-z
1/2+x,1/2-y,z
loop_
_atom_site_type_symbol
_atom_site_label
_atom_site_fract_x
_atom_site_fract_y
_atom_site_fract_z
Si Si1 0.645405 0.184010 0.192712
Si Si2 0.520018 0.685887 0.124865
Si Si3 0.428195 0.306890 0.467712
Si Si4 0.599244 0.687465 0.772794
Si Si5 0.313872 0.808599 0.569566
Si Si6 0.682765 0.688501 0.981145
O O1 0.573986 0.209301 0.186821
O O2 0.680781 0.244018 0.306482
O O3 0.660796 0.000000 0.184240
O O4 0.656288 0.267552 0.085531
O O5 0.539027 0.500000 0.125815
O O6 0.463870 0.696655 0.185339
O O7 0.500000 0.731096 0.000000
O O8 0.500000 0.260720 0.500000
O O9 0.428048 0.500000 0.472519
O O10 0.406536 0.248642 0.345886
O O11 0.375885 0.249013 0.531458
O O12 0.613209 0.500000 0.763502
O O13 0.647310 0.757664 0.869555
O O14 0.250000 0.750000 0.500000
O O15 0.313906 0.000000 0.567530
O O16 0.680298 0.500000 0.971342
O O17 0.750000 0.750000 0.000000
#
# Coordination Sequence:
#
# PCOD9176732 Si02
#       6
#     8   8   8   8   8   8
#     4  11  24  41  61  89 124 160 201 256 310 365
#     4  10  18  35  62  91 121 159 200 242 298 367
#     4  10  21  40  67  95 126 166 209 256 315 381
#     4   9  19  36  60  90 123 156 195 246 303 362
#     4  11  26  45  65  91 125 166 215 269 319 375
#     4  11  23  40  60  87 123 161 202 250 303 365
#
# _framework density 20.301832999999998
#
# number of rings (size 3 to 8) (size 9 to 14) (size 15 to 20)
#    0.000    1.667    1.667    2.500    2.333    4.667 
#    0.000    1.667    0.000    0.000    0.000    0.000 
#    0.000    0.000    0.000    0.000    0.000    0.000 
#
# Total GULP energy -133921.806888 kJ/mol
# GULP energy per Si atom -5580.075287 kJ/mol
# Density = 2.025563 g / cm^3
# Si number density = 20.301833 Si / 1000 Ang^3
#
#
#
# Elastic Constant Matrix: (Units=GPa)
#
#
# Indices 1 2 3 4 5 6 
#
# 1 93.0221 13.8629 42.7490 0.0000 22.2688 0.0000
# 2 13.8629 23.7827 17.5096 0.0000 4.4934 0.0000
# 3 42.7490 17.5096 130.7247 0.0000 20.3510 0.0000
# 4 0.0000 0.0000 0.0000 22.4970 0.0000 -3.1897
# 5 22.2688 4.4934 20.3510 0.0000 29.5685 0.0000
# 6 0.0000 0.0000 0.0000 -3.1897 0.0000 28.4982
#
#
#
# Elastic Compliance Matrix: (Units=1/GPa)
#
#
# Indices 1 2 3 4 5 6 
#
# 1 0.014826 -0.004932 -0.002874 0.000000 -0.008438 0.000000
# 2 -0.004932 0.048547 -0.004838 0.000000 -0.000334 0.000000
# 3 -0.002874 -0.004838 0.009840 0.000000 -0.003873 0.000000
# 4 0.000000 0.000000 0.000000 0.045167 0.000000 0.005055
# 5 -0.008438 -0.000334 -0.003873 0.000000 0.042891 0.000000
# 6 0.000000 0.000000 0.000000 0.005055 0.000000 0.035656
#
#
# Mechanical properties :
#
#
# Convention : Reuss Voigt Hill
#
# Bulk Modulus (GPa) = 20.86548 43.97473 32.42011
# Shear Modulus (GPa) = 20.99164 27.67329 24.33247
#
# Velocity S-wave (km/s) = 3.21904 3.69601 3.46574
# Velocity P-wave (km/s) = 4.91083 6.31835 5.65852
#
# Compressibility (1/GPa) = 0.04792604
#
# Stress axis : x y z
#
# Youngs Moduli (GPa) = 67.44927 20.59863 101.62103
#
# Poissons Ratio (x) = 0.10159 0.29207
# Poissons Ratio (y) = 0.33264 0.49162
# Poissons Ratio (z) = 0.19386 0.09965
#
# Static dielectric constant tensor:
#      x y z
#    x 1.853170 0.000000 -0.055890 
#    y 0.000000 1.711440 0.000000 
#    z -0.055890 0.000000 1.783400 
# 
# From -- ./inp_files/172418.got.cif
#   From: 2010.05.17/outbox.cif.g08.bks.cpg/sg12_87_cif.got.tgz:172418.got - 2010.06.03 13:09:07.
