data_PCOD9176246
_publ_section_title
;
Structure prediction by ZEFSAII (Michael W. Deem and Ramdas Pophale) SiO2 
 PCOD9176246
Probable space group: C 2/M
;
_chemical_formula_sum "Si O2"
_cell_formula_units_Z 56
_cell_length_a 16.230769
_cell_length_b 26.914038
_cell_length_c 14.926337
_cell_angle_alpha 90.000000
_cell_angle_beta 154.538808
_cell_angle_gamma 90.000000
_cell_volume 2803.098085
_symmetry_space_group_name_H-M "C 2/M"
_symmetry_group_IT_number 12
_symmetry_cell_setting 'monoclinic'
loop_
_space_group_symop_operation_xyz
x,y,z
-x,y,-z
-x,-y,-z
x,-y,z
1/2+x,1/2+y,z
1/2-x,1/2+y,-z
1/2-x,1/2-y,-z
1/2+x,1/2-y,z
loop_
_atom_site_type_symbol
_atom_site_label
_atom_site_fract_x
_atom_site_fract_y
_atom_site_fract_z
Si Si1 0.559736 0.338885 0.655849
Si Si2 0.327943 0.195339 0.060701
Si Si3 0.961246 0.445665 0.732805
Si Si4 0.877548 0.055645 0.215933
Si Si5 0.152688 0.557518 0.723254
Si Si6 0.739934 0.844123 0.483987
Si Si7 0.938495 0.883791 0.100605
O O1 0.500000 0.321053 0.500000
O O2 0.566925 0.398947 0.666313
O O3 0.397941 0.324244 0.569771
O O4 0.760704 0.320134 0.894400
O O5 0.552113 0.189526 0.301299
O O6 0.250000 0.250000 0.000000
O O7 0.216093 0.155865 0.013604
O O8 0.868538 0.500000 0.650733
O O9 0.835303 0.397527 0.625240
O O10 0.044535 0.441914 0.713245
O O11 0.147218 0.444338 0.978579
O O12 0.948399 0.072553 0.186080
O O13 0.937854 0.000000 0.298646
O O14 0.203104 0.500000 0.753038
O O15 0.000000 0.574726 0.500000
O O16 0.341200 0.590991 0.919890
O O17 0.856508 0.856592 0.690046
#
# Coordination Sequence:
#
# PCOD9176246 Si02
#       7
#     8   8   8   8   8   8   8
#     4  10  22  35  53  85 112 139 180 224 281 333
#     4  10  20  38  59  78 101 139 184 233 280 338
#     4   9  15  28  51  77 104 147 197 221 259 330
#     4   8  14  29  49  70 107 147 182 218 258 322
#     4   9  16  29  50  77 115 153 187 238 290 326
#     4  10  18  34  58  79 105 148 183 230 275 329
#     4   9  18  30  52  80 102 140 193 226 277 333
#
# _framework density 19.977896000000001
#
# number of rings (size 3 to 8) (size 9 to 14) (size 15 to 20)
#    0.000    3.000    4.286    1.286    0.000    6.000 
#    0.000    1.429    0.000    4.286    0.000    0.000 
#    0.000    0.000    0.000    0.000    0.000    0.000 
#
# Total GULP energy -155944.321956 kJ/mol
# GULP energy per Si atom -5569.440070 kJ/mol
# Density = 1.993243 g / cm^3
# Si number density = 19.977896 Si / 1000 Ang^3
#
#
#
# Elastic Constant Matrix: (Units=GPa)
#
#
# Indices 1 2 3 4 5 6 
#
# 1 19.9513 6.1268 33.8569 -0.0001 -2.7364 0.0000
# 2 6.1268 78.7044 33.3932 0.0001 -8.1247 0.0001
# 3 33.8569 33.3932 165.6500 -0.0003 -1.1484 0.0000
# 4 -0.0001 0.0001 -0.0003 22.8772 0.0000 2.0644
# 5 -2.7364 -8.1247 -1.1484 0.0000 24.9773 0.0000
# 6 0.0000 0.0001 0.0000 2.0644 0.0000 3.0836
#
#
#
# Elastic Compliance Matrix: (Units=1/GPa)
#
#
# Indices 1 2 3 4 5 6 
#
# 1 0.078439 0.001681 -0.016313 0.000000 0.008390 0.000000
# 2 0.001681 0.014429 -0.003220 0.000000 0.004730 0.000000
# 3 -0.016313 -0.003220 0.010004 0.000000 -0.002374 0.000000
# 4 0.000000 0.000000 0.000000 0.046522 0.000000 -0.031146
# 5 0.008390 0.004730 -0.002374 0.000000 0.042385 0.000000
# 6 0.000000 0.000000 0.000000 -0.031146 0.000000 0.345144
#
#
# Mechanical properties :
#
#
# Convention : Reuss Voigt Hill
#
# Bulk Modulus (GPa) = 14.88772 45.67327 30.28050
# Shear Modulus (GPa) = 8.40316 22.91621 15.65969
#
# Velocity S-wave (km/s) = 2.05313 3.39053 2.80277
# Velocity P-wave (km/s) = 3.61784 6.18378 5.06596
#
# Compressibility (1/GPa) = 0.06716944
#
# Stress axis : x y z
#
# Youngs Moduli (GPa) = 12.74879 69.30399 99.96475
#
# Poissons Ratio (x) = -0.11652 1.63070
# Poissons Ratio (y) = -0.02143 0.32185
# Poissons Ratio (z) = 0.20797 0.22313
#
# Static dielectric constant tensor:
#      x y z
#    x 1.721800 0.000000 0.027340 
#    y 0.000000 1.728470 0.000000 
#    z 0.027340 0.000000 1.763400 
# 
# From -- ./inp_files/286641.got.cif
#   From: 2010.05.17/outbox.cif.g08.bks.cpg/sg12_144_cif.got.tgz:286641.got - 2010.06.03 13:09:07.
