data_PCOD9176320
_publ_section_title
;
Structure prediction by ZEFSAII (Michael W. Deem and Ramdas Pophale) SiO2 
 PCOD9176320
Probable space group: C 2/M
;
_chemical_formula_sum "Si O2"
_cell_formula_units_Z 56
_cell_length_a 25.597036
_cell_length_b 13.039987
_cell_length_c 14.421919
_cell_angle_alpha 90.000000
_cell_angle_beta 142.401911
_cell_angle_gamma 90.000000
_cell_volume 2937.002073
_symmetry_space_group_name_H-M "C 2/M"
_symmetry_group_IT_number 12
_symmetry_cell_setting 'monoclinic'
loop_
_space_group_symop_operation_xyz
x,y,z
-x,y,-z
-x,-y,-z
x,-y,z
1/2+x,1/2+y,z
1/2-x,1/2+y,-z
1/2-x,1/2-y,-z
1/2+x,1/2-y,z
loop_
_atom_site_type_symbol
_atom_site_label
_atom_site_fract_x
_atom_site_fract_y
_atom_site_fract_z
Si Si1 0.353001 0.204984 0.535657
Si Si2 0.770084 0.379088 0.601851
Si Si3 0.664743 0.883036 0.695427
Si Si4 0.032702 0.386805 0.817170
Si Si5 0.866957 0.114394 0.020307
Si Si6 0.852132 0.734676 0.151618
Si Si7 0.085050 0.716032 0.063722
O O1 0.318427 0.320103 0.501657
O O2 0.300136 0.140082 0.538149
O O3 0.338203 0.161647 0.412012
O O4 0.453291 0.190076 0.695582
O O5 0.768384 0.500000 0.618737
O O6 0.839260 0.318348 0.762119
O O7 0.763976 0.890626 0.865451
O O8 0.624898 0.802127 0.712722
O O9 0.629293 0.000000 0.649731
O O10 0.001086 0.500000 0.750294
O O11 0.111024 0.355642 0.861557
O O12 0.064314 0.378288 0.966490
O O13 0.893695 0.191074 0.975843
O O14 0.901725 0.000000 0.059339
O O15 0.888256 0.164579 0.150316
O O16 0.750000 0.750000 0.000000
O O17 0.000000 0.741525 0.000000
#
# Coordination Sequence:
#
# PCOD9176320 Si02
#       7
#     8   8   8   8   8   8   8
#     4  11  23  38  58  91 126 160 205 254 307 370
#     4  11  23  41  61  86 126 172 206 246 307 368
#     4  10  18  34  59  83 115 156 198 248 303 356
#     4  11  22  37  62  93 123 158 203 263 314 355
#     4   9  19  36  57  84 119 158 198 247 303 358
#     4   9  20  37  57  84 121 154 198 249 302 372
#     4  11  21  37  60  91 124 154 209 258 299 363
#
# _framework density 19.067062
#
# number of rings (size 3 to 8) (size 9 to 14) (size 15 to 20)
#    0.000    1.714    2.857    2.143    0.000    2.000 
#    0.000    5.000    0.000    0.000    0.000    5.000 
#    0.000    0.000    0.000    0.000    0.000    0.000 
#
# Total GULP energy -156069.365624 kJ/mol
# GULP energy per Si atom -5573.905915 kJ/mol
# Density = 1.902366 g / cm^3
# Si number density = 19.067062 Si / 1000 Ang^3
#
#
#
# Elastic Constant Matrix: (Units=GPa)
#
#
# Indices 1 2 3 4 5 6 
#
# 1 101.5402 51.3247 34.3470 0.0000 -23.1121 0.0000
# 2 51.3247 142.4284 25.4562 0.0000 -13.0782 0.0000
# 3 34.3470 25.4562 56.4179 0.0000 -22.0979 0.0000
# 4 0.0000 0.0000 0.0000 15.8044 0.0000 -2.7239
# 5 -23.1121 -13.0782 -22.0979 0.0000 40.7035 0.0000
# 6 0.0000 0.0000 0.0000 -2.7239 0.0000 10.3199
#
#
#
# Elastic Compliance Matrix: (Units=1/GPa)
#
#
# Indices 1 2 3 4 5 6 
#
# 1 0.014620 -0.003905 -0.005561 0.000000 0.004028 0.000000
# 2 -0.003905 0.008697 -0.001678 0.000000 -0.000333 0.000000
# 3 -0.005561 -0.001678 0.025934 0.000000 0.010383 0.000000
# 4 0.000000 0.000000 0.000000 0.066289 0.000000 0.017497
# 5 0.004028 -0.000333 0.010383 0.000000 0.032385 0.000000
# 6 0.000000 0.000000 0.000000 0.017497 0.000000 0.101519
#
#
# Mechanical properties :
#
#
# Convention : Reuss Voigt Hill
#
# Bulk Modulus (GPa) = 37.08595 58.07137 47.57866
# Shear Modulus (GPa) = 17.81139 25.98278 21.89708
#
# Velocity S-wave (km/s) = 3.05969 3.69549 3.39252
# Velocity P-wave (km/s) = 5.65463 6.98078 6.35241
#
# Compressibility (1/GPa) = 0.02696439
#
# Stress axis : x y z
#
# Youngs Moduli (GPa) = 68.40053 114.97753 38.55889
#
# Poissons Ratio (x) = 0.44893 0.21443
# Poissons Ratio (y) = 0.26707 0.06470
# Poissons Ratio (z) = 0.38039 0.19292
#
# Static dielectric constant tensor:
#      x y z
#    x 1.671730 0.000000 -0.003080 
#    y 0.000000 1.686740 0.000000 
#    z -0.003080 0.000000 1.672980 
# 
# From -- ./inp_files/245685.got.cif
#   From: 2010.05.17/outbox.cif.g08.bks.cpg/sg12_123_cif.got.tgz:245685.got - 2010.06.03 13:09:07.
