data_PCOD9176936
_publ_section_title
;
Structure prediction by ZEFSAII (Michael W. Deem and Ramdas Pophale) SiO2 
 PCOD9176936
Probable space group: C 2/M
;
_chemical_formula_sum "Si O2"
_cell_formula_units_Z 48
_cell_length_a 22.188884
_cell_length_b 17.615475
_cell_length_c 8.356119
_cell_angle_alpha 90.000000
_cell_angle_beta 138.513611
_cell_angle_gamma 90.000000
_cell_volume 2163.626869
_symmetry_space_group_name_H-M "C 2/M"
_symmetry_group_IT_number 12
_symmetry_cell_setting 'monoclinic'
loop_
_space_group_symop_operation_xyz
x,y,z
-x,y,-z
-x,-y,-z
x,-y,z
1/2+x,1/2+y,z
1/2-x,1/2+y,-z
1/2-x,1/2-y,-z
1/2+x,1/2-y,z
loop_
_atom_site_type_symbol
_atom_site_label
_atom_site_fract_x
_atom_site_fract_y
_atom_site_fract_z
Si Si1 0.681586 0.416805 0.086798
Si Si2 0.545352 0.122427 0.858770
Si Si3 0.838276 0.229756 0.394547
Si Si4 0.308057 0.145658 0.067126
Si Si5 0.022403 0.196841 0.857035
Si Si6 0.857059 0.378996 0.616370
O O1 0.639902 0.500000 0.000475
O O2 0.736665 0.399379 0.033661
O O3 0.761043 0.413521 0.378634
O O4 0.606864 0.353380 0.972200
O O5 0.604930 0.101722 0.824938
O O6 0.540279 0.214613 0.854940
O O7 0.440960 0.097165 0.666821
O O8 0.602280 0.102034 0.130684
O O9 0.839840 0.284828 0.243212
O O10 0.842259 0.288344 0.551960
O O11 0.928085 0.179165 0.579006
O O12 0.747712 0.181012 0.193262
O O13 0.000000 0.187669 0.000000
#
# Coordination Sequence:
#
# PCOD9176936 Si02
#       6
#     8   8   8   8   8   8
#     4  11  26  43  55  81 125 176 211 233 284 364
#     4  10  18  36  63 102 117 139 192 264 332 351
#     4   9  18  35  56  95 116 152 188 250 315 349
#     4  10  21  35  61  87 125 155 196 247 301 364
#     4  11  21  36  64  94 124 152 195 257 305 362
#     4   9  19  36  61  92 123 147 193 260 306 369
#
# _framework density 22.184971999999998
#
# number of rings (size 3 to 8) (size 9 to 14) (size 15 to 20)
#    0.000    2.000    3.333    3.000    2.333   11.000 
#    0.000    5.833    0.000    0.000    0.000    0.000 
#    0.000    0.000    0.000    0.000    0.000    0.000 
#
# Total GULP energy -134064.530174 kJ/mol
# GULP energy per Si atom -5586.022091 kJ/mol
# Density = 2.213448 g / cm^3
# Si number density = 22.184972 Si / 1000 Ang^3
#
#
#
# Elastic Constant Matrix: (Units=GPa)
#
#
# Indices 1 2 3 4 5 6 
#
# 1 95.6559 13.8194 -0.2989 0.0000 17.0899 0.0000
# 2 13.8194 61.6922 4.8885 0.0000 13.5431 0.0000
# 3 -0.2989 4.8885 94.0635 0.0000 18.7918 0.0000
# 4 0.0000 0.0000 0.0000 -2.0328 0.0000 -1.3927
# 5 17.0899 13.5431 18.7918 0.0000 26.8842 0.0000
# 6 0.0000 0.0000 0.0000 -1.3927 0.0000 -5.3557
#
#
#
# Elastic Compliance Matrix: (Units=1/GPa)
#
#
# Indices 1 2 3 4 5 6 
#
# 1 0.012112 -0.001002 0.001776 0.000000 -0.008436 0.000000
# 2 -0.001002 0.018394 0.000889 0.000000 -0.009251 0.000000
# 3 0.001776 0.000889 0.012676 0.000000 -0.010437 0.000000
# 4 0.000000 0.000000 0.000000 -0.598583 0.000000 0.155658
# 5 -0.008436 -0.009251 -0.010437 0.000000 0.054514 0.000000
# 6 0.000000 0.000000 0.000000 0.155658 0.000000 -0.227195
#
#
# Mechanical properties :
#
#
# Convention : Reuss Voigt Hill
#
# Bulk Modulus (GPa) = 21.50206 32.02552 26.76379
# Shear Modulus (GPa) = -6.98417 19.43265 6.22424
#
# Velocity S-wave (km/s) = -1.77623 2.96284 1.67681
# Velocity P-wave (km/s) = 2.34661 5.11581 3.97983
#
# Compressibility (1/GPa) = 0.04650717
#
# Stress axis : x y z
#
# Youngs Moduli (GPa) = 82.56583 54.36475 78.89164
#
# Poissons Ratio (x) = 0.05447 -0.14010
# Poissons Ratio (y) = 0.08272 -0.07013
# Poissons Ratio (z) = -0.14662 -0.04833
#
# Static dielectric constant tensor:
#      x y z
#    x 1.839410 0.000000 -0.020600 
#    y 0.000000 1.845800 0.000000 
#    z -0.020600 0.000000 1.846600 
# 
# From -- ./inp_files/98949.got.cif
#   From: 2010.05.17/outbox.cif.g08.bks.cpg/sg12_50_cif.got.tgz:98949.got - 2010.06.03 13:09:07.
