data_PCOD9176605
_publ_section_title
;
Structure prediction by ZEFSAII (Michael W. Deem and Ramdas Pophale) SiO2 
 PCOD9176605
Probable space group: C 2/M
;
_chemical_formula_sum "Si O2"
_cell_formula_units_Z 52
_cell_length_a 15.079506
_cell_length_b 17.591474
_cell_length_c 15.391959
_cell_angle_alpha 90.000000
_cell_angle_beta 41.863184
_cell_angle_gamma 90.000000
_cell_volume 2724.831242
_symmetry_space_group_name_H-M "C 2/M"
_symmetry_group_IT_number 12
_symmetry_cell_setting 'monoclinic'
loop_
_space_group_symop_operation_xyz
x,y,z
-x,y,-z
-x,-y,-z
x,-y,z
1/2+x,1/2+y,z
1/2-x,1/2+y,-z
1/2-x,1/2-y,-z
1/2+x,1/2-y,z
loop_
_atom_site_type_symbol
_atom_site_label
_atom_site_fract_x
_atom_site_fract_y
_atom_site_fract_z
Si Si1 0.268351 0.663857 0.593140
Si Si2 0.461453 0.230147 0.361803
Si Si3 0.778662 0.652720 0.837385
Si Si4 0.975384 0.000000 0.231312
Si Si5 0.848179 0.000000 0.145680
Si Si6 0.101918 0.269403 0.861889
Si Si7 0.086941 0.166873 0.122549
Si Si8 0.600627 0.500000 0.510192
O O1 0.393269 0.720899 0.487614
O O2 0.160979 0.690501 0.599357
O O3 0.189710 0.677564 0.738655
O O4 0.316002 0.577847 0.553998
O O5 0.568168 0.164113 0.297793
O O6 0.547219 0.290037 0.240284
O O7 0.722384 0.573856 0.842264
O O8 0.701640 0.718363 0.843188
O O9 0.733205 0.665828 0.971337
O O10 0.049575 0.921267 0.157535
O O11 0.856742 0.000000 0.245077
O O12 0.953210 0.000000 0.351139
O O13 0.000000 0.000000 0.000000
O O14 0.012440 0.210488 0.871236
O O15 0.000000 0.310982 0.000000
O O16 0.500000 0.500000 0.500000
#
# Coordination Sequence:
#
# PCOD9176605 Si02
#       8
#     8   8   8   4   4   8   8   4
#     4  10  23  43  61  84 126 167 221 267 328 370
#     4  10  22  37  61  92 125 175 209 265 323 369
#     4  11  20  33  61  98 136 163 214 252 312 405
#     4  12  20  38  65  90 135 165 211 260 326 379
#     4  12  20  35  63 102 139 174 198 258 339 392
#     4   9  19  35  61  91 126 164 203 264 321 380
#     4  10  18  35  58  95 129 169 205 260 318 368
#     4  12  28  45  65  87 115 174 227 268 310 383
#
# _framework density 19.083750999999999
#
# number of rings (size 3 to 8) (size 9 to 14) (size 15 to 20)
#    0.000    1.538    4.615    0.923    2.154    0.615 
#    0.000    0.385    0.000    1.846    0.000    0.000 
#    0.000    0.000    0.000    0.000    0.000    0.000 
#
# Total GULP energy -144869.014017 kJ/mol
# GULP energy per Si atom -5571.885154 kJ/mol
# Density = 1.904032 g / cm^3
# Si number density = 19.083751 Si / 1000 Ang^3
#
#
#
# Elastic Constant Matrix: (Units=GPa)
#
#
# Indices 1 2 3 4 5 6 
#
# 1 26.5829 14.0157 40.5949 0.0000 -2.3205 -0.0001
# 2 14.0157 110.5679 53.1265 0.0000 -6.9066 0.0000
# 3 40.5949 53.1265 147.5627 0.0000 -1.9183 -0.0001
# 4 0.0000 0.0000 0.0000 17.4070 0.0000 -9.4903
# 5 -2.3205 -6.9066 -1.9183 0.0000 32.2967 0.0000
# 6 -0.0001 0.0000 -0.0001 -9.4903 0.0000 14.9564
#
#
#
# Elastic Compliance Matrix: (Units=1/GPa)
#
#
# Indices 1 2 3 4 5 6 
#
# 1 0.065336 0.000684 -0.018171 0.000000 0.003761 0.000000
# 2 0.000684 0.011088 -0.004152 0.000000 0.002174 0.000000
# 3 -0.018171 -0.004152 0.013252 0.000000 -0.001406 0.000000
# 4 0.000000 0.000000 0.000000 0.087834 0.000000 0.055733
# 5 0.003761 0.002174 -0.001406 0.000000 0.031614 0.000000
# 6 0.000000 0.000000 0.000000 0.055733 0.000000 0.102225
#
#
# Mechanical properties :
#
#
# Convention : Reuss Voigt Hill
#
# Bulk Modulus (GPa) = 21.55289 55.57642 38.56465
# Shear Modulus (GPa) = 13.51006 24.73044 19.12025
#
# Velocity S-wave (km/s) = 2.66359 3.60375 3.16873
# Velocity P-wave (km/s) = 4.55829 6.81921 5.79998
#
# Compressibility (1/GPa) = 0.04639748
#
# Stress axis : x y z
#
# Youngs Moduli (GPa) = 15.30560 90.18545 75.45848
#
# Poissons Ratio (x) = -0.06169 1.37118
# Poissons Ratio (y) = -0.01047 0.31330
# Poissons Ratio (z) = 0.27812 0.37445
#
# Static dielectric constant tensor:
#      x y z
#    x 1.712460 0.000000 0.033500 
#    y 0.000000 1.635050 0.000000 
#    z 0.033500 0.000000 1.727850 
# 
# From -- ./inp_files/216755.got.cif
#   From: 2010.05.17/outbox.cif.g08.bks.cpg/sg12_109_cif.got.tgz:216755.got - 2010.06.03 13:09:07.
