data_PCOD9176988
_publ_section_title
;
Structure prediction by ZEFSAII (Michael W. Deem and Ramdas Pophale) SiO2 
 PCOD9176988
Probable space group: C 2/M
;
_chemical_formula_sum "Si O2"
_cell_formula_units_Z 32
_cell_length_a 25.296715
_cell_length_b 11.447168
_cell_length_c 10.227473
_cell_angle_alpha 90.000000
_cell_angle_beta 147.501966
_cell_angle_gamma 90.000000
_cell_volume 1591.195925
_symmetry_space_group_name_H-M "C 2/M"
_symmetry_group_IT_number 12
_symmetry_cell_setting 'monoclinic'
loop_
_space_group_symop_operation_xyz
x,y,z
-x,y,-z
-x,-y,-z
x,-y,z
1/2+x,1/2+y,z
1/2-x,1/2+y,-z
1/2-x,1/2-y,-z
1/2+x,1/2-y,z
loop_
_atom_site_type_symbol
_atom_site_label
_atom_site_fract_x
_atom_site_fract_y
_atom_site_fract_z
Si Si1 0.123736 0.737986 0.127763
Si Si2 0.092580 0.637403 0.340231
Si Si3 0.920016 0.000000 0.943081
Si Si4 0.078935 0.000000 0.775980
Si Si5 0.732544 0.709999 0.111517
O O1 0.140355 0.673566 0.300236
O O2 0.187220 0.706571 0.131617
O O3 0.137169 0.877357 0.180540
O O4 0.008694 0.710130 0.858292
O O5 0.069198 0.500000 0.288033
O O6 0.167476 0.663320 0.613776
O O7 0.974064 0.000000 0.195198
O O8 0.000000 0.000000 0.000000
O O9 0.000000 0.000000 0.500000
O O10 0.150342 0.110410 0.924339
O O11 0.750000 0.750000 0.000000
#
# Coordination Sequence:
#
# PCOD9176988 Si02
#       5
#     8   8   4   4   8
#     4  10  22  40  68  93 125 171 207 263 320 369
#     4  11  22  43  65  94 130 162 210 266 319 374
#     4  10  18  36  66  96 115 153 221 258 301 364
#     4  10  24  42  62  86 127 164 202 263 311 361
#     4  11  25  42  62  94 127 165 212 259 310 382
#
# _framework density 20.110658999999998
#
# number of rings (size 3 to 8) (size 9 to 14) (size 15 to 20)
#    0.000    1.500    3.750    2.250    7.000    0.000 
#    4.500    1.250    0.000    0.000    0.000    0.000 
#    0.000    0.000    0.000    0.000    0.000    0.000 
#
# Total GULP energy -89241.669956 kJ/mol
# GULP energy per Si atom -5577.604372 kJ/mol
# Density = 2.006489 g / cm^3
# Si number density = 20.110659 Si / 1000 Ang^3
#
#
#
# Elastic Constant Matrix: (Units=GPa)
#
#
# Indices 1 2 3 4 5 6 
#
# 1 159.1402 31.7173 39.5297 0.0000 -29.4038 0.0000
# 2 31.7173 83.4349 31.5122 0.0000 -2.1392 0.0000
# 3 39.5297 31.5122 162.2151 0.0000 -12.0743 0.0000
# 4 0.0000 0.0000 0.0000 22.7704 0.0000 -6.3240
# 5 -29.4038 -2.1392 -12.0743 0.0000 33.9900 0.0000
# 6 0.0000 0.0000 0.0000 -6.3240 0.0000 15.8086
#
#
#
# Elastic Compliance Matrix: (Units=1/GPa)
#
#
# Indices 1 2 3 4 5 6 
#
# 1 0.008280 -0.002592 -0.001020 0.000000 0.006637 0.000000
# 2 -0.002592 0.013746 -0.002199 0.000000 -0.002159 0.000000
# 3 -0.001020 -0.002199 0.006948 0.000000 0.001447 0.000000
# 4 0.000000 0.000000 0.000000 0.049406 0.000000 0.019764
# 5 0.006637 -0.002159 0.001447 0.000000 0.035540 0.000000
# 6 0.000000 0.000000 0.000000 0.019764 0.000000 0.071163
#
#
# Mechanical properties :
#
#
# Convention : Reuss Voigt Hill
#
# Bulk Modulus (GPa) = 57.63303 67.81205 62.72254
# Shear Modulus (GPa) = 24.69252 34.64921 29.67086
#
# Velocity S-wave (km/s) = 3.50785 4.15532 3.84523
# Velocity P-wave (km/s) = 6.71765 7.53757 7.13939
#
# Compressibility (1/GPa) = 0.01735116
#
# Stress axis : x y z
#
# Youngs Moduli (GPa) = 120.77048 72.74784 143.92154
#
# Poissons Ratio (x) = 0.18858 0.14682
# Poissons Ratio (y) = 0.31306 0.31653
# Poissons Ratio (z) = 0.12321 0.16000
#
# Static dielectric constant tensor:
#      x y z
#    x 1.800420 0.000000 -0.027200 
#    y 0.000000 1.710160 0.000000 
#    z -0.027200 0.000000 1.721670 
# 
# From -- ./inp_files/94773.got.cif
#   From: 2010.05.17/outbox.cif.g08.bks.cpg/sg12_48_cif.got.tgz:94773.got - 2010.06.03 13:09:07.
