data_PCOD9176797
_publ_section_title
;
Structure prediction by ZEFSAII (Michael W. Deem and Ramdas Pophale) SiO2 
 PCOD9176797
Probable space group: C 2/M
;
_chemical_formula_sum "Si O2"
_cell_formula_units_Z 56
_cell_length_a 16.855714
_cell_length_b 16.516754
_cell_length_c 20.259297
_cell_angle_alpha 90.000000
_cell_angle_beta 151.602595
_cell_angle_gamma 90.000000
_cell_volume 2682.401584
_symmetry_space_group_name_H-M "C 2/M"
_symmetry_group_IT_number 12
_symmetry_cell_setting 'monoclinic'
loop_
_space_group_symop_operation_xyz
x,y,z
-x,y,-z
-x,-y,-z
x,-y,z
1/2+x,1/2+y,z
1/2-x,1/2+y,-z
1/2-x,1/2-y,-z
1/2+x,1/2-y,z
loop_
_atom_site_type_symbol
_atom_site_label
_atom_site_fract_x
_atom_site_fract_y
_atom_site_fract_z
Si Si1 0.450054 0.125226 0.891682
Si Si2 0.079867 0.911306 0.621108
Si Si3 0.021160 0.793421 0.691545
Si Si4 0.740520 0.654620 0.115587
Si Si5 0.264232 0.739679 0.608486
Si Si6 0.873107 0.814502 0.825042
Si Si7 0.524609 0.092484 0.229786
O O1 0.272822 0.086114 0.745960
O O2 0.416677 0.220985 0.874016
O O3 0.552325 0.106278 0.900235
O O4 0.500000 0.095115 0.000000
O O5 0.000000 0.865574 0.500000
O O6 0.065371 0.869811 0.680553
O O7 0.003195 0.000000 0.568582
O O8 0.909247 0.740726 0.557791
O O9 0.899512 0.807476 0.663268
O O10 0.184266 0.745693 0.833783
O O11 0.713015 0.644431 0.174499
O O12 0.881706 0.604770 0.180547
O O13 0.556705 0.646909 0.949716
O O14 0.264999 0.697862 0.680206
O O15 0.340987 0.832734 0.665376
O O16 0.587395 0.000000 0.281216
#
# Coordination Sequence:
#
# PCOD9176797 Si02
#       7
#     8   8   8   8   8   8   8
#     4  11  20  35  54  77 109 145 178 221 267 333
#     4  11  22  33  50  77 113 149 174 211 272 335
#     4  10  19  35  52  83 106 140 188 226 272 322
#     4  10  20  35  59  81 106 144 187 230 276 318
#     4   9  21  34  58  80 108 142 183 233 273 325
#     4  10  18  36  55  82 106 139 182 232 279 316
#     4  10  22  37  53  80 115 150 182 223 279 335
#
# _framework density 20.876815000000001
#
# number of rings (size 3 to 8) (size 9 to 14) (size 15 to 20)
#    0.000    1.857    2.857    2.143    0.000    9.143 
#    0.000    1.429    0.000    0.857    0.000    9.000 
#    0.000    0.000    0.000    0.000    0.000    0.000 
#
# Total GULP energy -156061.041779 kJ/mol
# GULP energy per Si atom -5573.608635 kJ/mol
# Density = 2.082930 g / cm^3
# Si number density = 20.876815 Si / 1000 Ang^3
#
#
#
# Elastic Constant Matrix: (Units=GPa)
#
#
# Indices 1 2 3 4 5 6 
#
# 1 117.7413 25.5594 23.8516 0.0002 -8.5617 0.0001
# 2 25.5594 45.5058 -14.5016 -0.0006 -3.0583 -0.0003
# 3 23.8516 -14.5016 67.3908 0.0099 -7.2679 0.0034
# 4 0.0002 -0.0006 0.0099 7.0620 0.0011 2.2221
# 5 -8.5617 -3.0583 -7.2679 0.0011 33.2957 -0.0006
# 6 0.0001 -0.0003 0.0034 2.2221 -0.0006 19.3039
#
#
#
# Elastic Compliance Matrix: (Units=1/GPa)
#
#
# Indices 1 2 3 4 5 6 
#
# 1 0.011513 -0.008233 -0.005744 0.000007 0.000950 0.000000
# 2 -0.008233 0.029852 0.009632 -0.000011 0.002727 0.000000
# 3 -0.005744 0.009632 0.019336 -0.000027 0.003628 0.000000
# 4 0.000007 -0.000011 -0.000027 0.146925 -0.000010 -0.016913
# 5 0.000950 0.002727 0.003628 -0.000010 0.031321 0.000002
# 6 0.000000 0.000000 0.000000 -0.016913 0.000002 0.053750
#
#
# Mechanical properties :
#
#
# Convention : Reuss Voigt Hill
#
# Bulk Modulus (GPa) = 19.22680 33.38407 26.30544
# Shear Modulus (GPa) = 15.68752 24.98088 20.33420
#
# Velocity S-wave (km/s) = 2.74420 3.46292 3.12430
# Velocity P-wave (km/s) = 4.38982 5.65816 5.06386
#
# Compressibility (1/GPa) = 0.05201072
#
# Stress axis : x y z
#
# Youngs Moduli (GPa) = 86.85678 33.49814 51.71753
#
# Poissons Ratio (x) = 0.27580 0.29707
# Poissons Ratio (y) = 0.71512 -0.49814
# Poissons Ratio (z) = 0.49891 -0.32265
#
# Static dielectric constant tensor:
#      x y z
#    x 1.822250 0.000000 0.002740 
#    y 0.000000 1.777480 0.000000 
#    z 0.002740 0.000000 1.778010 
# 
# From -- ./inp_files/317175.got.cif
#   From: 2010.05.17/outbox.cif.g08.bks.cpg/sg12_159_cif.got.tgz:317175.got - 2010.06.03 13:09:07.
