data_PCOD9176523
_publ_section_title
;
Structure prediction by ZEFSAII (Michael W. Deem and Ramdas Pophale) SiO2 
 PCOD9176523
Probable space group: C 2/M
;
_chemical_formula_sum "Si O2"
_cell_formula_units_Z 48
_cell_length_a 11.851229
_cell_length_b 24.778121
_cell_length_c 10.113428
_cell_angle_alpha 90.000000
_cell_angle_beta 63.601132
_cell_angle_gamma 90.000000
_cell_volume 2660.128903
_symmetry_space_group_name_H-M "C 2/M"
_symmetry_group_IT_number 12
_symmetry_cell_setting 'monoclinic'
loop_
_space_group_symop_operation_xyz
x,y,z
-x,y,-z
-x,-y,-z
x,-y,z
1/2+x,1/2+y,z
1/2-x,1/2+y,-z
1/2-x,1/2-y,-z
1/2+x,1/2-y,z
loop_
_atom_site_type_symbol
_atom_site_label
_atom_site_fract_x
_atom_site_fract_y
_atom_site_fract_z
Si Si1 0.901375 0.319856 0.748257
Si Si2 0.815906 0.888825 0.076578
Si Si3 0.997489 0.937430 0.206831
Si Si4 0.935697 0.222086 0.904033
Si Si5 0.940479 0.157504 0.397684
Si Si6 0.319521 0.806981 0.488068
O O1 0.830772 0.375002 0.828033
O O2 0.866365 0.269529 0.861009
O O3 0.852838 0.309528 0.625225
O O4 0.053212 0.318633 0.659000
O O5 0.889311 0.909954 0.169054
O O6 0.868063 0.830373 0.001534
O O7 0.869791 0.929298 0.938437
O O8 0.000113 0.900254 0.334012
O O9 0.970926 0.000000 0.239666
O O10 0.026098 0.195871 0.744352
O O11 0.000000 0.247670 0.000000
O O12 0.000000 0.181145 0.500000
O O13 0.791426 0.151713 0.488174
O O14 0.250000 0.750000 0.500000
#
# Coordination Sequence:
#
# PCOD9176523 Si02
#       6
#     8   8   8   8   8   8
#     4  11  22  33  54  81 119 161 190 232 281 340
#     4  10  18  35  54  82 112 142 193 240 286 334
#     4  10  20  37  63  84 107 146 197 254 297 331
#     4  11  19  34  52  81 117 155 190 232 271 339
#     4  11  21  38  58  84 118 151 195 241 283 347
#     4  11  21  35  53  79 120 165 197 218 280 355
#
# _framework density 18.044238
#
# number of rings (size 3 to 8) (size 9 to 14) (size 15 to 20)
#    0.000    1.333    6.667    2.500    0.000    0.333 
#    6.000    0.000    0.000    3.000    0.000    1.167 
#    0.000    0.000    0.000    0.000    0.000    0.000 
#
# Total GULP energy -133652.694282 kJ/mol
# GULP energy per Si atom -5568.862262 kJ/mol
# Density = 1.800317 g / cm^3
# Si number density = 18.044238 Si / 1000 Ang^3
#
#
#
# Elastic Constant Matrix: (Units=GPa)
#
#
# Indices 1 2 3 4 5 6 
#
# 1 71.5176 13.7519 41.5268 0.0000 -14.8777 0.0000
# 2 13.7519 68.4809 18.2385 0.0000 -8.1629 0.0000
# 3 41.5268 18.2385 76.0171 0.0000 -4.8373 0.0000
# 4 0.0000 0.0000 0.0000 12.2041 0.0000 -3.3776
# 5 -14.8777 -8.1629 -4.8373 0.0000 30.9573 0.0000
# 6 0.0000 0.0000 0.0000 -3.3776 0.0000 18.8056
#
#
#
# Elastic Compliance Matrix: (Units=1/GPa)
#
#
# Indices 1 2 3 4 5 6 
#
# 1 0.022762 -0.000362 -0.011775 0.000000 0.009004 0.000000
# 2 -0.000362 0.016004 -0.003419 0.000000 0.003512 0.000000
# 3 -0.011775 -0.003419 0.020191 0.000000 -0.003405 0.000000
# 4 0.000000 0.000000 0.000000 0.086226 0.000000 0.015487
# 5 0.009004 0.003512 -0.003405 0.000000 0.037024 0.000000
# 6 0.000000 0.000000 0.000000 0.015487 0.000000 0.055957
#
#
# Mechanical properties :
#
#
# Convention : Reuss Voigt Hill
#
# Bulk Modulus (GPa) = 35.91073 40.33888 38.12481
# Shear Modulus (GPa) = 17.94963 21.89330 19.92146
#
# Velocity S-wave (km/s) = 3.15740 3.48704 3.32631
# Velocity P-wave (km/s) = 5.76515 6.21423 5.99390
#
# Compressibility (1/GPa) = 0.02784683
#
# Stress axis : x y z
#
# Youngs Moduli (GPa) = 43.93229 62.48278 49.52726
#
# Poissons Ratio (x) = 0.02260 0.58318
# Poissons Ratio (y) = 0.01589 0.16932
# Poissons Ratio (z) = 0.51730 0.21362
#
# Static dielectric constant tensor:
#      x y z
#    x 1.672270 0.000000 -0.042910 
#    y 0.000000 1.621410 0.000000 
#    z -0.042910 0.000000 1.698750 
# 
# From -- ./inp_files/134726.got.cif
#   From: 2010.05.17/outbox.cif.g08.bks.cpg/sg12_68_cif.got.tgz:134726.got - 2010.06.03 13:09:07.
