data_PCOD9176156
_publ_section_title
;
Structure prediction by ZEFSAII (Michael W. Deem and Ramdas Pophale) SiO2 
 PCOD9176156
Probable space group: C 2/M
;
_chemical_formula_sum "Si O2"
_cell_formula_units_Z 60
_cell_length_a 15.473714
_cell_length_b 14.212861
_cell_length_c 26.946690
_cell_angle_alpha 90.000000
_cell_angle_beta 150.950732
_cell_angle_gamma 90.000000
_cell_volume 2877.569089
_symmetry_space_group_name_H-M "C 2/M"
_symmetry_group_IT_number 12
_symmetry_cell_setting 'monoclinic'
loop_
_space_group_symop_operation_xyz
x,y,z
-x,y,-z
-x,-y,-z
x,-y,z
1/2+x,1/2+y,z
1/2-x,1/2+y,-z
1/2-x,1/2-y,-z
1/2+x,1/2-y,z
loop_
_atom_site_type_symbol
_atom_site_label
_atom_site_fract_x
_atom_site_fract_y
_atom_site_fract_z
Si Si1 0.796901 0.287193 0.579789
Si Si2 0.669708 0.745594 0.242104
Si Si3 0.821777 0.388859 0.232496
Si Si4 0.500000 0.671767 0.000000
Si Si5 0.115721 0.695821 0.968745
Si Si6 0.052028 0.891388 0.600154
Si Si7 0.910684 0.101681 0.164522
Si Si8 0.956000 0.103363 0.667815
O O1 0.750000 0.250000 0.500000
O O2 0.638472 0.356069 0.515337
O O3 0.820842 0.184896 0.615743
O O4 0.985633 0.340656 0.681100
O O5 0.756032 0.669770 0.247707
O O6 0.559930 0.816732 0.151477
O O7 0.805151 0.810855 0.339888
O O8 0.533884 0.685559 0.206933
O O9 0.844120 0.500000 0.253374
O O10 0.668548 0.378749 0.112421
O O11 0.421490 0.736355 0.003865
O O12 0.250000 0.750000 0.000000
O O13 0.222600 0.608440 0.043194
O O14 0.030363 0.886312 0.649740
O O15 0.090376 0.000000 0.606325
O O16 0.891571 0.108866 0.214128
O O17 0.994288 0.000000 0.195468
O O18 0.872056 0.000000 0.627969
#
# Coordination Sequence:
#
# PCOD9176156 Si02
#       8
#     8   8   8   4   8   8   8   8
#     4  10  18  34  56  82 114 152 191 240 295 342
#     4  10  20  36  54  83 114 155 189 239 296 347
#     4  11  20  33  55  86 119 156 200 242 292 356
#     4  10  21  36  59  86 120 156 207 254 297 358
#     4   9  20  35  56  81 116 158 195 243 300 352
#     4  10  20  36  58  84 110 144 195 242 289 347
#     4  10  20  36  56  83 117 152 188 238 297 353
#     4   9  18  33  56  82 108 140 184 236 286 338
#
# _framework density 20.850933000000001
#
# number of rings (size 3 to 8) (size 9 to 14) (size 15 to 20)
#    0.000    2.133    2.667    1.800    1.867    1.067 
#    0.000    1.667    0.000    8.800    0.000    0.000 
#    0.000    0.000    0.000    0.000    0.000    0.000 
#
# Total GULP energy -167081.245848 kJ/mol
# GULP energy per Si atom -5569.374862 kJ/mol
# Density = 2.080348 g / cm^3
# Si number density = 20.850933 Si / 1000 Ang^3
#
#
#
# Elastic Constant Matrix: (Units=GPa)
#
#
# Indices 1 2 3 4 5 6 
#
# 1 49.9668 17.6084 22.3329 0.0000 -4.4762 0.0000
# 2 17.6084 127.0661 53.0359 0.0001 7.5190 0.0000
# 3 22.3329 53.0359 117.3771 0.0008 1.9230 0.0000
# 4 0.0000 0.0001 0.0008 24.5499 0.0000 1.0231
# 5 -4.4762 7.5190 1.9230 0.0000 28.9450 0.0000
# 6 0.0000 0.0000 0.0000 1.0231 0.0000 14.3805
#
#
#
# Elastic Compliance Matrix: (Units=1/GPa)
#
#
# Indices 1 2 3 4 5 6 
#
# 1 0.022638 -0.001924 -0.003507 0.000000 0.004234 0.000000
# 2 -0.001924 0.010009 -0.004113 0.000000 -0.002624 0.000000
# 3 -0.003507 -0.004113 0.011049 0.000000 -0.000208 0.000000
# 4 0.000000 0.000000 0.000000 0.040854 0.000000 -0.002907
# 5 0.004234 -0.002624 -0.000208 0.000000 0.035898 0.000000
# 6 0.000000 0.000000 0.000000 -0.002907 0.000000 0.069746
#
#
# Mechanical properties :
#
#
# Convention : Reuss Voigt Hill
#
# Bulk Modulus (GPa) = 40.63919 53.37380 47.00649
# Shear Modulus (GPa) = 22.99008 27.00394 24.99701
#
# Velocity S-wave (km/s) = 3.32413 3.60265 3.46619
# Velocity P-wave (km/s) = 5.85370 6.55430 6.21388
#
# Compressibility (1/GPa) = 0.02460679
#
# Stress axis : x y z
#
# Youngs Moduli (GPa) = 44.17326 99.91382 90.50702
#
# Poissons Ratio (x) = 0.19220 0.31745
# Poissons Ratio (y) = 0.08498 0.37228
# Poissons Ratio (z) = 0.15493 0.41098
#
# Static dielectric constant tensor:
#      x y z
#    x 1.758370 0.000000 -0.025240 
#    y 0.000000 1.751150 0.000000 
#    z -0.025240 0.000000 1.860490 
# 
# From -- ./inp_files/361562.got.cif
#   From: 2010.05.17/outbox.cif.g08.bks.cpg/sg12_181_cif.got.tgz:361562.got - 2010.06.03 13:09:07.
