data_PCOD9176402
_publ_section_title
;
Structure prediction by ZEFSAII (Michael W. Deem and Ramdas Pophale) SiO2 
 PCOD9176402
Probable space group: C 2/M
;
_chemical_formula_sum "Si O2"
_cell_formula_units_Z 64
_cell_length_a 17.836324
_cell_length_b 15.604933
_cell_length_c 17.373868
_cell_angle_alpha 90.000000
_cell_angle_beta 140.065381
_cell_angle_gamma 90.000000
_cell_volume 3104.130578
_symmetry_space_group_name_H-M "C 2/M"
_symmetry_group_IT_number 12
_symmetry_cell_setting 'monoclinic'
loop_
_space_group_symop_operation_xyz
x,y,z
-x,y,-z
-x,-y,-z
x,-y,z
1/2+x,1/2+y,z
1/2-x,1/2+y,-z
1/2-x,1/2-y,-z
1/2+x,1/2-y,z
loop_
_atom_site_type_symbol
_atom_site_label
_atom_site_fract_x
_atom_site_fract_y
_atom_site_fract_z
Si Si1 0.616643 0.221895 0.129864
Si Si2 0.219833 0.098976 0.170552
Si Si3 0.815159 0.898787 0.025800
Si Si4 0.219743 0.901382 0.830619
Si Si5 0.207299 0.401308 0.605196
Si Si6 0.875238 0.256192 0.558527
Si Si7 0.535831 0.408489 0.439480
Si Si8 0.945898 0.799909 0.768837
O O1 0.634303 0.321015 0.117893
O O2 0.721470 0.164603 0.181507
O O3 0.597095 0.228371 0.205131
O O4 0.500000 0.186793 0.000000
O O5 0.304679 0.107515 0.311327
O O6 0.173456 0.000000 0.139928
O O7 0.256843 0.109811 0.110480
O O8 0.758438 0.875146 0.063233
O O9 0.934664 0.845319 0.112218
O O10 0.844614 0.000000 0.056684
O O11 0.081509 0.902182 0.703966
O O12 0.260111 0.000000 0.851127
O O13 0.193677 0.500000 0.574343
O O14 0.121327 0.340456 0.490138
O O15 0.339426 0.369292 0.687595
O O16 0.750000 0.250000 0.500000
O O17 0.961618 0.242770 0.697925
O O18 0.887462 0.173496 0.515192
O O19 0.500000 0.409462 0.500000
O O20 0.593294 0.500000 0.466049
#
# Coordination Sequence:
#
# PCOD9176402 Si02
#       8
#     8   8   8   8   8   8   8   8
#     4  11  22  37  59  89 124 164 200 246 309 371
#     4   9  19  34  57  89 120 152 194 247 304 364
#     4  10  18  34  60  91 119 150 196 254 312 361
#     4  10  23  40  60  87 122 163 203 248 307 365
#     4   9  19  33  53  83 120 159 196 240 298 356
#     4  10  21  35  58  86 120 156 201 254 303 357
#     4  10  22  39  61  89 118 156 206 260 310 359
#     4  10  19  34  55  87 118 155 201 255 301 359
#
# _framework density 20.617688000000001
#
# number of rings (size 3 to 8) (size 9 to 14) (size 15 to 20)
#    0.000    2.125    2.500    0.375    5.250    3.500 
#    0.000    0.625    0.000    1.125    0.000    0.000 
#    0.000    0.000    0.000    0.000    0.000    0.000 
#
# Total GULP energy -178359.409760 kJ/mol
# GULP energy per Si atom -5573.731555 kJ/mol
# Density = 2.057076 g / cm^3
# Si number density = 20.617688 Si / 1000 Ang^3
#
#
#
# Elastic Constant Matrix: (Units=GPa)
#
#
# Indices 1 2 3 4 5 6 
#
# 1 71.3424 53.8979 22.9082 0.0000 -29.9435 0.0000
# 2 53.8979 115.5438 38.4305 0.0000 -16.4994 0.0000
# 3 22.9082 38.4305 49.3262 0.0000 -34.5371 0.0000
# 4 0.0000 0.0000 0.0000 28.6709 0.0000 6.2009
# 5 -29.9435 -16.4994 -34.5371 0.0000 36.6510 0.0000
# 6 0.0000 0.0000 0.0000 6.2009 0.0000 43.8260
#
#
#
# Elastic Compliance Matrix: (Units=1/GPa)
#
#
# Indices 1 2 3 4 5 6 
#
# 1 0.063811 -0.039538 0.074099 0.000000 0.104159 0.000000
# 2 -0.039538 0.037500 -0.063642 0.000000 -0.075392 0.000000
# 3 0.074099 -0.063642 0.169812 0.000000 0.191906 0.000000
# 4 0.000000 0.000000 0.000000 0.035980 0.000000 -0.005091
# 5 0.104159 -0.075392 0.191906 0.000000 0.259280 0.000000
# 6 0.000000 0.000000 0.000000 -0.005091 0.000000 0.023538
#
#
# Mechanical properties :
#
#
# Convention : Reuss Voigt Hill
#
# Bulk Modulus (GPa) = 4.69569 51.85395 28.27482
# Shear Modulus (GPa) = 6.95344 29.89462 18.42403
#
# Velocity S-wave (km/s) = 1.83845 3.81195 2.99256
# Velocity P-wave (km/s) = 2.60556 6.67679 5.06796
#
# Compressibility (1/GPa) = 0.21296137
#
# Stress axis : x y z
#
# Youngs Moduli (GPa) = 15.67132 26.66678 5.88887
#
# Poissons Ratio (x) = 1.05435 -0.43636
# Poissons Ratio (y) = 0.61961 0.37478
# Poissons Ratio (z) = -1.16123 1.69712
#
# Static dielectric constant tensor:
#      x y z
#    x 1.745450 0.000000 -0.054770 
#    y 0.000000 1.735080 0.000000 
#    z -0.054770 0.000000 1.758100 
# 
# From -- ./inp_files/278209.got.cif
#   From: 2010.05.17/outbox.cif.g08.bks.cpg/sg12_140_cif.got.tgz:278209.got - 2010.06.03 13:09:07.
