data_PCOD9176654
_publ_section_title
;
Structure prediction by ZEFSAII (Michael W. Deem and Ramdas Pophale) SiO2 
 PCOD9176654
Probable space group: C 2/M
;
_chemical_formula_sum "Si O2"
_cell_formula_units_Z 48
_cell_length_a 29.335682
_cell_length_b 8.510206
_cell_length_c 15.401849
_cell_angle_alpha 90.000000
_cell_angle_beta 140.442879
_cell_angle_gamma 90.000000
_cell_volume 2448.749441
_symmetry_space_group_name_H-M "C 2/M"
_symmetry_group_IT_number 12
_symmetry_cell_setting 'monoclinic'
loop_
_space_group_symop_operation_xyz
x,y,z
-x,y,-z
-x,-y,-z
x,-y,z
1/2+x,1/2+y,z
1/2-x,1/2+y,-z
1/2-x,1/2-y,-z
1/2+x,1/2-y,z
loop_
_atom_site_type_symbol
_atom_site_label
_atom_site_fract_x
_atom_site_fract_y
_atom_site_fract_z
Si Si1 0.426076 0.189740 0.762226
Si Si2 0.558613 0.685463 0.699680
Si Si3 0.150746 0.811837 0.188314
Si Si4 0.418304 0.188187 0.081877
Si Si5 0.596963 0.187452 0.576387
Si Si6 0.810600 0.308724 0.451195
O O1 0.408974 0.253030 0.832269
O O2 0.502471 0.237396 0.835367
O O3 0.362815 0.244609 0.604807
O O4 0.425478 0.000000 0.764558
O O5 0.546281 0.500000 0.681620
O O6 0.593213 0.739381 0.840386
O O7 0.481689 0.770797 0.576390
O O8 0.602398 0.732615 0.678077
O O9 0.228627 0.757440 0.336580
O O10 0.150060 0.000000 0.184203
O O11 0.135872 0.745501 0.071159
O O12 0.417236 0.000000 0.086725
O O13 0.654689 0.237989 0.589774
O O14 0.601072 0.000000 0.593207
O O15 0.811485 0.500000 0.454652
#
# Coordination Sequence:
#
# PCOD9176654 Si02
#       6
#     8   8   8   8   8   8
#     4  10  20  38  60  81 107 149 199 233 268 331
#     4  11  21  34  55  88 118 140 179 239 289 323
#     4  11  23  37  55  84 119 148 182 235 289 328
#     4  11  22  39  60  81 110 153 195 228 273 339
#     4  10  18  35  60  84 111 150 190 223 271 338
#     4   9  19  37  59  83 113 150 189 229 274 330
#
# _framework density 19.601842000000001
#
# number of rings (size 3 to 8) (size 9 to 14) (size 15 to 20)
#    0.000    1.667    1.667    5.000    0.000    3.333 
#    0.000    5.000    0.000    0.000    0.000    0.000 
#    0.000    0.000    0.000    0.000    0.000    0.000 
#
# Total GULP energy -134118.216882 kJ/mol
# GULP energy per Si atom -5588.259037 kJ/mol
# Density = 1.955723 g / cm^3
# Si number density = 19.601842 Si / 1000 Ang^3
#
#
#
# Elastic Constant Matrix: (Units=GPa)
#
#
# Indices 1 2 3 4 5 6 
#
# 1 51.6339 -0.1906 -6.8469 0.0000 -17.2213 0.0000
# 2 -0.1906 22.8382 -0.8220 0.0000 1.3388 0.0000
# 3 -6.8469 -0.8220 64.8726 0.0000 -12.1974 0.0000
# 4 0.0000 0.0000 0.0000 22.4852 0.0000 1.9437
# 5 -17.2213 1.3388 -12.1974 0.0000 31.3076 0.0000
# 6 0.0000 0.0000 0.0000 1.9437 0.0000 -14.1010
#
#
#
# Elastic Compliance Matrix: (Units=1/GPa)
#
#
# Indices 1 2 3 4 5 6 
#
# 1 0.025579 -0.000537 0.005765 0.000000 0.016339 0.000000
# 2 -0.000537 0.043910 0.000098 0.000000 -0.002135 0.000000
# 3 0.005765 0.000098 0.017934 0.000000 0.010154 0.000000
# 4 0.000000 0.000000 0.000000 0.043950 0.000000 0.006058
# 5 0.016339 -0.002135 0.010154 0.000000 0.044976 0.000000
# 6 0.000000 0.000000 0.000000 0.006058 0.000000 -0.070082
#
#
# Mechanical properties :
#
#
# Convention : Reuss Voigt Hill
#
# Bulk Modulus (GPa) = 10.19611 13.73619 11.96615
# Shear Modulus (GPa) = 38.96924 17.75199 28.36061
#
# Velocity S-wave (km/s) = 4.46358 3.01263 3.80785
# Velocity P-wave (km/s) = 5.63717 4.37311 5.04488
#
# Compressibility (1/GPa) = 0.09807665
#
# Stress axis : x y z
#
# Youngs Moduli (GPa) = 39.09425 22.77360 55.76098
#
# Poissons Ratio (x) = 0.01222 -0.32147
# Poissons Ratio (y) = 0.02099 -0.00548
# Poissons Ratio (z) = -0.22538 -0.00224
#
# Static dielectric constant tensor:
#      x y z
#    x 1.670040 0.000000 0.002940 
#    y 0.000000 1.663280 0.000000 
#    z 0.002940 0.000000 1.687230 
# 
# From -- ./inp_files/249372.got.cif
#   From: 2010.05.17/outbox.cif.g08.bks.cpg/sg12_125_cif.got.tgz:249372.got - 2010.06.03 13:09:07.
