data_PCOD9176941
_publ_section_title
;
Structure prediction by ZEFSAII (Michael W. Deem and Ramdas Pophale) SiO2 
 PCOD9176941
Probable space group: C 2/M
;
_chemical_formula_sum "Si O2"
_cell_formula_units_Z 48
_cell_length_a 10.664063
_cell_length_b 27.152238
_cell_length_c 14.407039
_cell_angle_alpha 90.000000
_cell_angle_beta 32.257566
_cell_angle_gamma 90.000000
_cell_volume 2226.494264
_symmetry_space_group_name_H-M "C 2/M"
_symmetry_group_IT_number 12
_symmetry_cell_setting 'monoclinic'
loop_
_space_group_symop_operation_xyz
x,y,z
-x,y,-z
-x,-y,-z
x,-y,z
1/2+x,1/2+y,z
1/2-x,1/2+y,-z
1/2-x,1/2-y,-z
1/2+x,1/2-y,z
loop_
_atom_site_type_symbol
_atom_site_label
_atom_site_fract_x
_atom_site_fract_y
_atom_site_fract_z
Si Si1 0.316694 0.856748 0.198772
Si Si2 0.947477 0.296929 0.629839
Si Si3 0.003970 0.134836 0.097440
Si Si4 0.335924 0.382648 0.400083
Si Si5 0.582946 0.210546 0.150201
Si Si6 0.230271 0.445763 0.635689
O O1 0.364925 0.806909 0.225520
O O2 0.361520 0.903178 0.238788
O O3 0.055777 0.860969 0.320589
O O4 0.500000 0.857741 0.000000
O O5 0.687555 0.320784 0.789824
O O6 0.977497 0.270865 0.709343
O O7 0.000000 0.271190 0.500000
O O8 0.130738 0.342578 0.519146
O O9 0.932924 0.106481 0.235749
O O10 0.000000 0.108080 0.000000
O O11 0.254620 0.161490 0.947606
O O12 0.236748 0.426671 0.525671
O O13 0.750000 0.250000 0.000000
O O14 0.500000 0.449978 0.500000
O O15 0.120626 0.500000 0.713371
#
# Coordination Sequence:
#
# PCOD9176941 Si02
#       6
#     8   8   8   8   8   8
#     4  11  21  35  62  89 125 158 193 251 313 355
#     4   9  19  37  62  81 111 160 210 240 291 355
#     4   9  19  36  58  82 111 161 205 238 290 362
#     4  10  18  36  63  87 117 155 201 245 305 348
#     4  11  22  38  61  86 120 163 200 245 304 356
#     4   9  19  35  60  93 122 152 195 248 311 370
#
# _framework density 21.558555999999999
#
# number of rings (size 3 to 8) (size 9 to 14) (size 15 to 20)
#    0.000    2.167    3.333    0.000    0.000    2.333 
#    0.000    3.333    7.333    5.000    0.000    0.000 
#    0.000    0.000    0.000    0.000    0.000    0.000 
#
# Total GULP energy -134000.399522 kJ/mol
# GULP energy per Si atom -5583.349980 kJ/mol
# Density = 2.150949 g / cm^3
# Si number density = 21.558556 Si / 1000 Ang^3
#
#
#
# Elastic Constant Matrix: (Units=GPa)
#
#
# Indices 1 2 3 4 5 6 
#
# 1 111.3004 40.4436 53.7115 0.0000 30.7547 0.0000
# 2 40.4436 71.5692 25.9371 0.0000 12.6224 0.0000
# 3 53.7115 25.9371 90.2887 0.0000 27.6089 0.0000
# 4 0.0000 0.0000 0.0000 16.5208 0.0000 -6.5003
# 5 30.7547 12.6224 27.6089 0.0000 72.0126 0.0000
# 6 0.0000 0.0000 0.0000 -6.5003 0.0000 4.7239
#
#
#
# Elastic Compliance Matrix: (Units=1/GPa)
#
#
# Indices 1 2 3 4 5 6 
#
# 1 0.014899 -0.005597 -0.006355 0.000000 -0.002946 0.000000
# 2 -0.005597 0.017783 -0.001764 0.000000 -0.000051 0.000000
# 3 -0.006355 -0.001764 0.016356 0.000000 -0.003248 0.000000
# 4 0.000000 0.000000 0.000000 0.131994 0.000000 0.181630
# 5 -0.002946 -0.000051 -0.003248 0.000000 0.016398 0.000000
# 6 0.000000 0.000000 0.000000 0.181630 0.000000 0.461623
#
#
# Mechanical properties :
#
#
# Convention : Reuss Voigt Hill
#
# Bulk Modulus (GPa) = 46.28007 57.03808 51.65908
# Shear Modulus (GPa) = 7.20787 28.85586 18.03186
#
# Velocity S-wave (km/s) = 1.83048 3.66250 2.89522
# Velocity P-wave (km/s) = 5.09718 6.66333 5.93217
#
# Compressibility (1/GPa) = 0.02160757
#
# Stress axis : x y z
#
# Youngs Moduli (GPa) = 67.11828 56.23231 61.14132
#
# Poissons Ratio (x) = 0.31473 0.38853
# Poissons Ratio (y) = 0.37566 0.10783
# Poissons Ratio (z) = 0.42652 0.09917
#
# Static dielectric constant tensor:
#      x y z
#    x 1.870590 0.000000 0.009890 
#    y 0.000000 1.781290 0.000000 
#    z 0.009890 0.000000 1.800260 
# 
# From -- ./inp_files/209776.got.cif
#   From: 2010.05.17/outbox.cif.g08.bks.cpg/sg12_105_cif.got.tgz:209776.got - 2010.06.03 13:09:07.
