data_PCOD9176539
_publ_section_title
;
Structure prediction by ZEFSAII (Michael W. Deem and Ramdas Pophale) SiO2 
 PCOD9176539
Probable space group: C 2/M
;
_chemical_formula_sum "Si O2"
_cell_formula_units_Z 56
_cell_length_a 10.136806
_cell_length_b 28.489887
_cell_length_c 12.787219
_cell_angle_alpha 90.000000
_cell_angle_beta 111.716743
_cell_angle_gamma 90.000000
_cell_volume 3430.797814
_symmetry_space_group_name_H-M "C 2/M"
_symmetry_group_IT_number 12
_symmetry_cell_setting 'monoclinic'
loop_
_space_group_symop_operation_xyz
x,y,z
-x,y,-z
-x,-y,-z
x,-y,z
1/2+x,1/2+y,z
1/2-x,1/2+y,-z
1/2-x,1/2-y,-z
1/2+x,1/2-y,z
loop_
_atom_site_type_symbol
_atom_site_label
_atom_site_fract_x
_atom_site_fract_y
_atom_site_fract_z
Si Si1 0.156081 0.703875 0.592446
Si Si2 0.679547 0.882635 0.733742
Si Si3 0.345250 0.104345 0.682130
Si Si4 0.169143 0.053727 0.053496
Si Si5 0.339377 0.311149 0.439762
Si Si6 0.671230 0.052862 0.536186
Si Si7 0.352909 0.055269 0.904042
O O1 0.193108 0.671448 0.701994
O O2 0.268385 0.695266 0.532876
O O3 0.152780 0.759615 0.610498
O O4 0.000000 0.690074 0.500000
O O5 0.513836 0.889197 0.714036
O O6 0.768424 0.906595 0.852075
O O7 0.718574 0.912044 0.640813
O O8 0.260565 0.152879 0.649929
O O9 0.296476 0.072796 0.569063
O O10 0.322400 0.080760 0.787026
O O11 0.211616 0.000000 0.099531
O O12 0.233150 0.060433 0.956827
O O13 0.000000 0.055706 0.000000
O O14 0.500000 0.328721 0.500000
O O15 0.500000 0.051281 0.500000
O O16 0.725480 0.000000 0.565706
O O17 0.371179 0.000000 0.886225
O O18 0.500000 0.071974 0.000000
#
# Coordination Sequence:
#
# PCOD9176539 Si02
#       7
#     8   8   8   8   8   8   8
#     4  10  18  35  55  81 110 143 181 221 269 332
#     4  11  18  32  58  80 105 142 185 227 267 325
#     4  11  19  33  55  81 110 142 182 226 269 326
#     4  10  22  38  56  81 111 147 187 227 270 320
#     4  10  21  33  53  81 115 142 176 224 276 329
#     4   9  17  27  46  80 109 133 168 219 272 317
#     4  10  20  35  56  81 107 143 189 226 262 318
#
# _framework density 16.322732999999999
#
# number of rings (size 3 to 8) (size 9 to 14) (size 15 to 20)
#    0.000    1.857    4.286    1.286    0.000    2.286 
#    0.000    0.000    0.000    2.571    0.000    0.000 
#    0.000    0.000    0.000    0.000    0.000    0.000 
#
# Total GULP energy -156110.160857 kJ/mol
# GULP energy per Si atom -5575.362888 kJ/mol
# Density = 1.628558 g / cm^3
# Si number density = 16.322733 Si / 1000 Ang^3
#
#
#
# Elastic Constant Matrix: (Units=GPa)
#
#
# Indices 1 2 3 4 5 6 
#
# 1 82.5583 21.4797 28.3435 0.0000 -0.3722 0.0000
# 2 21.4797 93.1788 54.4119 0.0000 -2.2427 0.0000
# 3 28.3435 54.4119 91.0446 0.0000 -11.0224 0.0000
# 4 0.0000 0.0000 0.0000 26.8683 0.0000 4.8601
# 5 -0.3722 -2.2427 -11.0224 0.0000 19.1217 0.0000
# 6 0.0000 0.0000 0.0000 4.8601 0.0000 18.4297
#
#
#
# Elastic Compliance Matrix: (Units=1/GPa)
#
#
# Indices 1 2 3 4 5 6 
#
# 1 0.013705 -0.000872 -0.004005 0.000000 -0.002144 0.000000
# 2 -0.000872 0.016834 -0.010269 0.000000 -0.003962 0.000000
# 3 -0.004005 -0.010269 0.019579 0.000000 0.010003 0.000000
# 4 0.000000 0.000000 0.000000 0.039083 0.000000 -0.010306
# 5 -0.002144 -0.003962 0.010003 0.000000 0.057556 0.000000
# 6 0.000000 0.000000 0.000000 -0.010306 0.000000 0.056978
#
#
# Mechanical properties :
#
#
# Convention : Reuss Voigt Hill
#
# Bulk Modulus (GPa) = 50.43956 52.80579 51.62268
# Shear Modulus (GPa) = 20.77828 23.72038 22.24933
#
# Velocity S-wave (km/s) = 3.57173 3.81624 3.69601
# Velocity P-wave (km/s) = 6.92663 7.19997 7.06462
#
# Compressibility (1/GPa) = 0.01982571
#
# Stress axis : x y z
#
# Youngs Moduli (GPa) = 72.96697 59.40221 51.07612
#
# Poissons Ratio (x) = 0.05181 0.20455
# Poissons Ratio (y) = 0.06365 0.52450
# Poissons Ratio (z) = 0.29222 0.61000
#
# Static dielectric constant tensor:
#      x y z
#    x 1.552190 0.000000 0.003420 
#    y 0.000000 1.570740 0.000000 
#    z 0.003420 0.000000 1.524270 
# 
# From -- ./inp_files/124329.got.cif
#   From: 2010.05.17/outbox.cif.g08.bks.cpg/sg12_63_cif.got.tgz:124329.got - 2010.06.03 13:09:07.
