data_PCOD9176200
_publ_section_title
;
Structure prediction by ZEFSAII (Michael W. Deem and Ramdas Pophale) SiO2 
 PCOD9176200
Probable space group: C 2/M
;
_chemical_formula_sum "Si O2"
_cell_formula_units_Z 56
_cell_length_a 28.521844
_cell_length_b 14.444101
_cell_length_c 12.031638
_cell_angle_alpha 90.000000
_cell_angle_beta 145.378703
_cell_angle_gamma 90.000000
_cell_volume 2816.149009
_symmetry_space_group_name_H-M "C 2/M"
_symmetry_group_IT_number 12
_symmetry_cell_setting 'monoclinic'
loop_
_space_group_symop_operation_xyz
x,y,z
-x,y,-z
-x,-y,-z
x,-y,z
1/2+x,1/2+y,z
1/2-x,1/2+y,-z
1/2-x,1/2-y,-z
1/2+x,1/2-y,z
loop_
_atom_site_type_symbol
_atom_site_label
_atom_site_fract_x
_atom_site_fract_y
_atom_site_fract_z
Si Si1 0.565821 0.770632 0.713348
Si Si2 0.820773 0.602891 0.183470
Si Si3 0.054932 0.000000 0.933803
Si Si4 0.662777 0.705547 0.362623
Si Si5 0.357219 0.604749 0.264246
Si Si6 0.115796 0.798404 0.026659
Si Si7 0.190305 0.744376 0.648399
Si Si8 0.879729 0.000000 0.686856
O O1 0.500000 0.813402 0.500000
O O2 0.643767 0.836262 0.847157
O O3 0.584530 0.671343 0.693599
O O4 0.556360 0.756363 0.825840
O O5 0.854904 0.500000 0.253446
O O6 0.835715 0.660019 0.324003
O O7 0.724087 0.598346 0.970178
O O8 0.955049 0.000000 0.745187
O O9 0.094395 0.093619 0.963038
O O10 0.081143 0.000000 0.113939
O O11 0.750000 0.750000 0.500000
O O12 0.607292 0.715136 0.143450
O O13 0.641498 0.753883 0.437119
O O14 0.669248 0.596775 0.408753
O O15 0.386460 0.500000 0.343700
O O16 0.331760 0.662854 0.324765
O O17 0.211197 0.771374 0.183392
#
# Coordination Sequence:
#
# PCOD9176200 Si02
#       8
#     8   8   4   8   8   8   8   4
#     4  11  22  36  54  81 115 145 184 230 279 341
#     4  10  20  37  60  78 103 150 193 234 283 321
#     4   9  20  30  57  78 110 164 170 211 286 330
#     4   9  20  34  57  82 110 146 183 226 277 320
#     4  10  20  35  57  80 108 146 183 233 292 320
#     4  10  19  36  51  80 116 141 186 221 271 341
#     4  10  18  34  57  81 109 139 185 238 274 329
#     4   9  18  38  50  80 122 143 187 214 266 353
#
# _framework density 19.88531
#
# number of rings (size 3 to 8) (size 9 to 14) (size 15 to 20)
#    0.000    2.143    2.857    0.857    3.000    2.857 
#    1.286    0.000    0.000    0.000    0.000    1.000 
#    0.000    0.000    0.000    0.000    0.000    0.000 
#
# Total GULP energy -155907.856927 kJ/mol
# GULP energy per Si atom -5568.137747 kJ/mol
# Density = 1.984005 g / cm^3
# Si number density = 19.885310 Si / 1000 Ang^3
#
#
#
# Elastic Constant Matrix: (Units=GPa)
#
#
# Indices 1 2 3 4 5 6 
#
# 1 66.4706 35.2261 31.0901 0.0000 -29.3942 0.0000
# 2 35.2261 112.4154 20.9438 0.0000 -10.1679 0.0000
# 3 31.0901 20.9438 71.1647 0.0000 -29.0450 0.0000
# 4 0.0000 0.0000 0.0000 12.4481 0.0000 -6.4070
# 5 -29.3942 -10.1679 -29.0450 0.0000 45.2741 0.0000
# 6 0.0000 0.0000 0.0000 -6.4070 0.0000 -44.4449
#
#
#
# Elastic Compliance Matrix: (Units=1/GPa)
#
#
# Indices 1 2 3 4 5 6 
#
# 1 0.025957 -0.006177 -0.004349 0.000000 0.012675 0.000000
# 2 -0.006177 0.010889 -0.001551 0.000000 -0.002560 0.000000
# 3 -0.004349 -0.001551 0.020475 0.000000 0.009964 0.000000
# 4 0.000000 0.000000 0.000000 0.074785 0.000000 -0.010781
# 5 0.012675 -0.002560 0.009964 0.000000 0.036134 0.000000
# 6 0.000000 0.000000 0.000000 -0.010781 0.000000 -0.020946
#
#
# Mechanical properties :
#
#
# Convention : Reuss Voigt Hill
#
# Bulk Modulus (GPa) = 30.15029 47.17451 38.66240
# Shear Modulus (GPa) = 27.39693 13.50819 20.45256
#
# Velocity S-wave (km/s) = 3.71583 2.60918 3.21054
# Velocity P-wave (km/s) = 5.79697 5.73165 5.76440
#
# Compressibility (1/GPa) = 0.03316718
#
# Stress axis : x y z
#
# Youngs Moduli (GPa) = 38.52516 91.83933 48.84100
#
# Poissons Ratio (x) = 0.56730 0.21240
# Poissons Ratio (y) = 0.23797 0.07574
# Poissons Ratio (z) = 0.16754 0.14241
#
# Static dielectric constant tensor:
#      x y z
#    x 1.741990 0.000000 0.021560 
#    y 0.000000 1.702450 0.000000 
#    z 0.021560 0.000000 1.781500 
# 
# From -- ./inp_files/183509.got.cif
#   From: 2010.05.17/outbox.cif.g08.bks.cpg/sg12_92_cif.got.tgz:183509.got - 2010.06.03 13:09:07.
