data_PCOD9176094
_publ_section_title
;
Structure prediction by ZEFSAII (Michael W. Deem and Ramdas Pophale) SiO2 
 PCOD9176094
Probable space group: C 2/M
;
_chemical_formula_sum "Si O2"
_cell_formula_units_Z 64
_cell_length_a 20.774143
_cell_length_b 8.593750
_cell_length_c 25.214324
_cell_angle_alpha 90.000000
_cell_angle_beta 53.696985
_cell_angle_gamma 90.000000
_cell_volume 3627.711734
_symmetry_space_group_name_H-M "C 2/M"
_symmetry_group_IT_number 12
_symmetry_cell_setting 'monoclinic'
loop_
_space_group_symop_operation_xyz
x,y,z
-x,y,-z
-x,-y,-z
x,-y,z
1/2+x,1/2+y,z
1/2-x,1/2+y,-z
1/2-x,1/2-y,-z
1/2+x,1/2-y,z
loop_
_atom_site_type_symbol
_atom_site_label
_atom_site_fract_x
_atom_site_fract_y
_atom_site_fract_z
Si Si1 0.045658 0.809873 0.425153
Si Si2 0.638316 0.685936 0.186443
Si Si3 0.272706 0.311442 0.681535
Si Si4 0.493610 0.312741 0.335225
Si Si5 0.472145 0.812585 0.846560
Si Si6 0.616870 0.813080 0.697225
Si Si7 0.539194 0.811697 0.925610
Si Si8 0.783106 0.184813 0.177515
O O1 0.138344 0.762048 0.377795
O O2 0.004013 0.760071 0.390569
O O3 0.000000 0.757047 0.500000
O O4 0.044910 0.000000 0.425749
O O5 0.645310 0.500000 0.185197
O O6 0.571583 0.735110 0.262839
O O7 0.601976 0.737976 0.148042
O O8 0.721723 0.760712 0.162097
O O9 0.271805 0.500000 0.684057
O O10 0.203812 0.260922 0.674202
O O11 0.249637 0.252142 0.750965
O O12 0.492066 0.500000 0.335513
O O13 0.416775 0.252383 0.341250
O O14 0.551781 0.769696 0.774129
O O15 0.487006 0.764875 0.899811
O O16 0.464472 0.000000 0.848085
O O17 0.617374 0.000000 0.693815
O O18 0.628374 0.748577 0.875583
O O19 0.543396 0.000000 0.923007
O O20 0.500000 0.761979 0.000000
O O21 0.784732 0.000000 0.179642
#
# Coordination Sequence:
#
# PCOD9176094 Si02
#       8
#     8   8   8   8   8   8   8   8
#     4   9  17  31  53  78 103 137 181 224 265 315
#     4  10  19  33  54  79 107 140 180 223 270 317
#     4  10  18  34  55  77 105 139 183 224 265 319
#     4   9  17  30  50  75 104 135 171 220 265 313
#     4   9  17  32  53  80 109 136 173 218 268 319
#     4   9  17  29  50  75 103 136 169 216 264 313
#     4  10  21  39  61  82 110 147 180 215 267 327
#     4  12  23  34  54  83 112 141 180 228 270 313
#
# _framework density 17.641974999999999
#
# number of rings (size 3 to 8) (size 9 to 14) (size 15 to 20)
#    0.000    2.250    2.500    1.500    0.000    1.750 
#    0.000    1.250    0.000    1.500    0.000    0.000 
#    0.000    0.000    0.000    0.000    0.000    0.000 
#
# Total GULP energy -178530.611447 kJ/mol
# GULP energy per Si atom -5579.081608 kJ/mol
# Density = 1.760182 g / cm^3
# Si number density = 17.641975 Si / 1000 Ang^3
#
#
#
# Elastic Constant Matrix: (Units=GPa)
#
#
# Indices 1 2 3 4 5 6 
#
# 1 146.8110 17.4782 52.7092 0.0001 15.7936 0.0004
# 2 17.4782 7.1017 13.4306 -0.0001 1.6928 0.0003
# 3 52.7092 13.4306 88.7259 0.0001 9.7408 0.0000
# 4 0.0001 -0.0001 0.0001 5.4711 0.0000 6.6047
# 5 15.7936 1.6928 9.7408 0.0000 26.2508 0.0000
# 6 0.0004 0.0003 0.0000 6.6047 0.0000 26.5325
#
#
#
# Elastic Compliance Matrix: (Units=1/GPa)
#
#
# Indices 1 2 3 4 5 6 
#
# 1 0.010634 -0.019756 -0.002882 -0.000001 -0.004055 0.000000
# 2 -0.019756 0.234064 -0.024334 0.000011 0.005821 -0.000005
# 3 -0.002882 -0.024334 0.016996 -0.000002 -0.003004 0.000001
# 4 -0.000001 0.000011 -0.000002 0.261303 0.000001 -0.065046
# 5 -0.004055 0.005821 -0.003004 0.000001 0.041273 0.000000
# 6 0.000000 -0.000005 0.000001 -0.065046 0.000000 0.053882
#
#
# Mechanical properties :
#
#
# Convention : Reuss Voigt Hill
#
# Bulk Modulus (GPa) = 5.96120 45.54161 25.75140
# Shear Modulus (GPa) = 6.51033 22.25226 14.38129
#
# Velocity S-wave (km/s) = 1.92309 3.55537 2.85822
# Velocity P-wave (km/s) = 2.88398 6.53640 5.05183
#
# Compressibility (1/GPa) = 0.16775159
#
# Stress axis : x y z
#
# Youngs Moduli (GPa) = 94.03536 4.27234 58.83770
#
# Poissons Ratio (x) = 0.08440 0.16956
# Poissons Ratio (y) = 1.85772 1.43174
# Poissons Ratio (z) = 0.27100 0.10396
#
# Static dielectric constant tensor:
#      x y z
#    x 1.604330 0.000000 0.009180 
#    y 0.000000 1.597460 0.000000 
#    z 0.009180 0.000000 1.581380 
# 
# From -- ./inp_files/345928.got.cif
#   From: 2010.05.17/outbox.cif.g08.bks.cpg/sg12_173_cif.got.tgz:345928.got - 2010.06.03 13:09:07.
