data_PCOD9176770
_publ_section_title
;
Structure prediction by ZEFSAII (Michael W. Deem and Ramdas Pophale) SiO2 
 PCOD9176770
Probable space group: C 2/M
;
_chemical_formula_sum "Si O2"
_cell_formula_units_Z 56
_cell_length_a 11.253929
_cell_length_b 31.418053
_cell_length_c 8.591512
_cell_angle_alpha 90.000000
_cell_angle_beta 59.463548
_cell_angle_gamma 90.000000
_cell_volume 2616.438651
_symmetry_space_group_name_H-M "C 2/M"
_symmetry_group_IT_number 12
_symmetry_cell_setting 'monoclinic'
loop_
_space_group_symop_operation_xyz
x,y,z
-x,y,-z
-x,-y,-z
x,-y,z
1/2+x,1/2+y,z
1/2-x,1/2+y,-z
1/2-x,1/2-y,-z
1/2+x,1/2-y,z
loop_
_atom_site_type_symbol
_atom_site_label
_atom_site_fract_x
_atom_site_fract_y
_atom_site_fract_z
Si Si1 0.288489 0.068988 0.184984
Si Si2 0.000000 0.915864 0.500000
Si Si3 0.276564 0.165732 0.092643
Si Si4 0.207890 0.772301 0.369103
Si Si5 0.450892 0.662119 0.314987
Si Si6 0.551346 0.953117 0.216265
Si Si7 0.000000 0.382329 0.500000
Si Si8 0.202324 0.681191 0.272342
O O1 0.301895 0.120231 0.155327
O O2 0.407441 0.051970 0.218698
O O3 0.135688 0.060023 0.349859
O O4 0.326025 0.051121 0.990489
O O5 0.048542 0.885361 0.611609
O O6 0.315638 0.203451 0.185337
O O7 0.111170 0.172381 0.181597
O O8 0.331495 0.167165 0.880945
O O9 0.250000 0.750000 0.500000
O O10 0.114823 0.809188 0.505140
O O11 0.157747 0.730586 0.309913
O O12 0.359600 0.672623 0.223252
O O13 0.552147 0.914305 0.333927
O O14 0.557768 0.000000 0.283839
O O15 0.122468 0.348943 0.448364
#
# Coordination Sequence:
#
# PCOD9176770 Si02
#       8
#     8   4   8   8   8   8   4   8
#     4  10  20  39  67  96 120 166 211 261 322 398
#     4  10  18  35  69  92 125 159 214 264 308 382
#     4  11  20  39  59  89 124 161 214 262 314 379
#     4  10  21  36  57  83 127 167 208 255 314 368
#     4  10  19  36  60  81 121 169 206 249 319 367
#     4  11  24  45  67  93 130 166 207 271 346 405
#     4  12  25  39  66  92 127 163 222 264 318 392
#     4  11  24  37  56  91 123 168 215 263 307 374
#
# _framework density 21.403137000000001
#
# number of rings (size 3 to 8) (size 9 to 14) (size 15 to 20)
#    0.000    1.429    4.286    2.786    4.000    0.000 
#    0.000    1.429    3.143    0.000    0.000    4.000 
#    0.000    0.000    0.000    0.000    0.000    0.000 
#
# Total GULP energy -156083.554578 kJ/mol
# GULP energy per Si atom -5574.412664 kJ/mol
# Density = 2.135442 g / cm^3
# Si number density = 21.403137 Si / 1000 Ang^3
#
#
#
# Elastic Constant Matrix: (Units=GPa)
#
#
# Indices 1 2 3 4 5 6 
#
# 1 34.1950 0.8831 11.1503 0.0000 -8.4001 0.0000
# 2 0.8831 115.5922 24.0794 0.0000 -4.9791 0.0000
# 3 11.1503 24.0794 88.7640 0.0000 -10.8984 0.0000
# 4 0.0000 0.0000 0.0000 -5.6907 0.0000 6.4286
# 5 -8.4001 -4.9791 -10.8984 0.0000 35.8709 0.0000
# 6 0.0000 0.0000 0.0000 6.4286 0.0000 22.0478
#
#
#
# Elastic Compliance Matrix: (Units=1/GPa)
#
#
# Indices 1 2 3 4 5 6 
#
# 1 0.031946 0.000749 -0.003412 0.000000 0.006548 0.000000
# 2 0.000749 0.009197 -0.002504 0.000000 0.000691 0.000000
# 3 -0.003412 -0.002504 0.012707 0.000000 0.002714 0.000000
# 4 0.000000 0.000000 0.000000 -0.132186 0.000000 0.038542
# 5 0.006548 0.000691 0.002714 0.000000 0.030332 0.000000
# 6 0.000000 0.000000 0.000000 0.038542 0.000000 0.034118
#
#
# Mechanical properties :
#
#
# Convention : Reuss Voigt Hill
#
# Bulk Modulus (GPa) = 22.98062 34.53075 28.75569
# Shear Modulus (GPa) = 456.48488 23.94150 240.21319
#
# Velocity S-wave (km/s) = 14.61993 3.34817 10.60549
# Velocity P-wave (km/s) = 17.19739 5.57813 12.78409
#
# Compressibility (1/GPa) = 0.04351493
#
# Stress axis : x y z
#
# Youngs Moduli (GPa) = 31.30288 108.73374 78.69700
#
# Poissons Ratio (x) = -0.08142 0.26852
# Poissons Ratio (y) = -0.02344 0.19706
# Poissons Ratio (z) = 0.10681 0.27228
#
# Static dielectric constant tensor:
#      x y z
#    x 1.830100 0.000000 -0.017000 
#    y 0.000000 1.818640 0.000000 
#    z -0.017000 0.000000 1.741720 
# 
# From -- ./inp_files/54632.got.cif
#   From: 2010.05.17/outbox.cif.g08.bks.cpg/sg12_28_cif.got.tgz:54632.got - 2010.06.03 13:09:07.
