data_PCOD9176885
_publ_section_title
;
Structure prediction by ZEFSAII (Michael W. Deem and Ramdas Pophale) SiO2 
 PCOD9176885
Probable space group: C 2/M
;
_chemical_formula_sum "Si O2"
_cell_formula_units_Z 44
_cell_length_a 16.339291
_cell_length_b 8.767476
_cell_length_c 14.623785
_cell_angle_alpha 90.000000
_cell_angle_beta 92.017883
_cell_angle_gamma 90.000000
_cell_volume 2093.621603
_symmetry_space_group_name_H-M "C 2/M"
_symmetry_group_IT_number 12
_symmetry_cell_setting 'monoclinic'
loop_
_space_group_symop_operation_xyz
x,y,z
-x,y,-z
-x,-y,-z
x,-y,z
1/2+x,1/2+y,z
1/2-x,1/2+y,-z
1/2-x,1/2-y,-z
1/2+x,1/2-y,z
loop_
_atom_site_type_symbol
_atom_site_label
_atom_site_fract_x
_atom_site_fract_y
_atom_site_fract_z
Si Si1 0.548995 0.175344 0.186573
Si Si2 0.879408 0.826858 0.978102
Si Si3 0.481496 0.500000 0.265543
Si Si4 0.202206 0.331854 0.871601
Si Si5 0.379767 0.500000 0.585424
Si Si6 0.170272 0.000000 0.619848
Si Si7 0.211754 0.745078 0.306494
O O1 0.567572 0.212045 0.080790
O O2 0.506119 0.335867 0.219573
O O3 0.636266 0.174936 0.244773
O O4 0.515594 0.000000 0.196543
O O5 0.789998 0.823602 0.926109
O O6 0.909846 0.000000 0.971946
O O7 0.859765 0.782413 0.081388
O O8 0.533051 0.500000 0.361976
O O9 0.388123 0.500000 0.293784
O O10 0.168722 0.500000 0.886677
O O11 0.226600 0.311468 0.767733
O O12 0.377633 0.500000 0.476895
O O13 0.331052 0.359727 0.626735
O O14 0.231852 0.139304 0.630784
#
# Coordination Sequence:
#
# PCOD9176885 Si02
#       7
#     8   8   4   8   4   4   8
#     4  10  18  36  60  85 117 161 200 236 290 351
#     4   9  16  25  48  82 116 151 195 241 279 337
#     4  10  23  40  61  86 121 159 199 244 295 362
#     4   9  16  27  45  79 118 150 186 242 294 333
#     4  10  21  42  64  81 114 158 195 244 304 366
#     4  12  23  38  59  91 117 148 196 253 311 350
#     4  10  20  35  59  85 115 150 194 245 298 355
#
# _framework density 21.016213
#
# number of rings (size 3 to 8) (size 9 to 14) (size 15 to 20)
#    0.000    2.182    2.727    1.364    1.273    2.182 
#    1.636    0.000    0.000    4.364    0.000    2.545 
#    0.000    0.000    0.000    0.000    0.000    0.000 
#
# Total GULP energy -122603.098777 kJ/mol
# GULP energy per Si atom -5572.868126 kJ/mol
# Density = 2.096838 g / cm^3
# Si number density = 21.016213 Si / 1000 Ang^3
#
#
#
# Elastic Constant Matrix: (Units=GPa)
#
#
# Indices 1 2 3 4 5 6 
#
# 1 77.2320 26.4855 18.0559 0.0000 2.8222 0.0000
# 2 26.4855 125.1546 30.4294 0.0000 -10.6901 0.0000
# 3 18.0559 30.4294 94.1600 0.0000 -9.0040 0.0000
# 4 0.0000 0.0000 0.0000 -268.6890 0.0000 32.3811
# 5 2.8222 -10.6901 -9.0040 0.0000 28.4318 0.0000
# 6 0.0000 0.0000 0.0000 32.3811 0.0000 -6.7917
#
#
#
# Elastic Compliance Matrix: (Units=1/GPa)
#
#
# Indices 1 2 3 4 5 6 
#
# 1 0.014542 -0.002820 -0.002183 0.000000 -0.003195 0.000000
# 2 -0.002820 0.009386 -0.002195 0.000000 0.003114 0.000000
# 3 -0.002183 -0.002195 0.012055 0.000000 0.003209 0.000000
# 4 0.000000 0.000000 0.000000 -0.008749 0.000000 -0.041711
# 5 -0.003195 0.003114 0.003209 0.000000 0.037676 0.000000
# 6 0.000000 0.000000 0.000000 -0.041711 0.000000 -0.346108
#
#
# Mechanical properties :
#
#
# Convention : Reuss Voigt Hill
#
# Bulk Modulus (GPa) = 46.32052 49.60980 47.96516
# Shear Modulus (GPa) = -19.25996 -34.63806 -26.94901
#
# Velocity S-wave (km/s) = -3.03055 -4.06416 -3.58480
# Velocity P-wave (km/s) = 3.13729 1.27811 2.39543
#
# Compressibility (1/GPa) = 0.02158870
#
# Stress axis : x y z
#
# Youngs Moduli (GPa) = 68.76635 106.53647 82.95314
#
# Poissons Ratio (x) = 0.30039 0.18107
# Poissons Ratio (y) = 0.19389 0.18208
# Poissons Ratio (z) = 0.15011 0.23384
#
# Static dielectric constant tensor:
#      x y z
#    x 1.759420 0.000000 0.022960 
#    y 0.000000 1.812610 0.000000 
#    z 0.022960 0.000000 1.714740 
# 
# From -- ./inp_files/220915.got.cif
#   From: 2010.05.17/outbox.cif.g08.bks.cpg/sg12_111_cif.got.tgz:220915.got - 2010.06.03 13:09:07.
