data_PCOD9176904
_publ_section_title
;
Structure prediction by ZEFSAII (Michael W. Deem and Ramdas Pophale) SiO2 
 PCOD9176904
Probable space group: C 2/M
;
_chemical_formula_sum "Si O2"
_cell_formula_units_Z 58
_cell_length_a 23.412785
_cell_length_b 16.059424
_cell_length_c 9.479511
_cell_angle_alpha 90.000000
_cell_angle_beta 113.299921
_cell_angle_gamma 90.000000
_cell_volume 3273.580625
_symmetry_space_group_name_H-M "C 2/M"
_symmetry_group_IT_number 12
_symmetry_cell_setting 'monoclinic'
loop_
_space_group_symop_operation_xyz
x,y,z
-x,y,-z
-x,-y,-z
x,-y,z
1/2+x,1/2+y,z
1/2-x,1/2+y,-z
1/2-x,1/2-y,-z
1/2+x,1/2-y,z
loop_
_atom_site_type_symbol
_atom_site_label
_atom_site_fract_x
_atom_site_fract_y
_atom_site_fract_z
Si Si1 0.658058 0.222490 0.654147
Si Si2 0.406698 0.344082 0.932180
Si Si3 0.755208 0.167278 0.103774
Si Si4 0.564008 0.200015 0.816653
Si Si5 0.870466 0.401708 0.890870
Si Si6 0.000000 0.000000 0.000000
Si Si7 0.421207 0.787532 0.700926
Si Si8 0.767386 0.094822 0.824999
O O1 0.689867 0.308766 0.736361
O O2 0.606960 0.198348 0.721404
O O3 0.625562 0.228398 0.472275
O O4 0.712359 0.152885 0.711633
O O5 0.447693 0.426470 0.978747
O O6 0.423752 0.289864 0.811501
O O7 0.334228 0.367331 0.852532
O O8 0.419176 0.283476 0.077622
O O9 0.693135 0.145901 0.128446
O O10 0.750000 0.250000 0.000000
O O11 0.764768 0.098188 0.993748
O O12 0.491046 0.198337 0.714897
O O13 0.582147 0.124684 0.938724
O O14 0.860861 0.500000 0.875411
O O15 0.897075 0.364180 0.772317
O O16 0.761282 0.000000 0.770769
#
# Coordination Sequence:
#
# PCOD9176904 Si02
#       8
#     8   8   8   8   8   2   8   8
#     4  11  22  38  60  87 119 158 201 244 294 373
#     4  11  21  38  67  90 116 157 198 252 297 360
#     4  10  18  36  61  83 111 148 199 247 297 345
#     4  11  20  40  62  85 115 164 207 239 293 357
#     4  11  22  38  62  89 119 154 203 257 290 350
#     4  12  20  40  68 102 118 144 210 252 294 360
#     4  11  24  38  58  87 124 160 198 242 308 356
#     4  11  21  35  61  90 114 152 201 251 299 342
#
# _framework density 17.717601999999999
#
# number of rings (size 3 to 8) (size 9 to 14) (size 15 to 20)
#    0.000    1.103    6.207    4.552    0.000    3.862 
#    0.000    0.000    3.034    3.310    0.000    0.000 
#    0.000    0.000    0.000    0.000    0.000    0.000 
#
# Total GULP energy -161610.455877 kJ/mol
# GULP energy per Si atom -5572.774341 kJ/mol
# Density = 1.767728 g / cm^3
# Si number density = 17.717602 Si / 1000 Ang^3
#
#
#
# Elastic Constant Matrix: (Units=GPa)
#
#
# Indices 1 2 3 4 5 6 
#
# 1 112.0896 22.3824 -12.9850 0.0000 14.7896 0.0000
# 2 22.3824 98.4837 10.5868 0.0000 -1.3487 0.0000
# 3 -12.9850 10.5868 28.0533 0.0000 6.5577 0.0000
# 4 0.0000 0.0000 0.0000 8.2395 0.0000 1.7749
# 5 14.7896 -1.3487 6.5577 0.0000 19.4329 0.0000
# 6 0.0000 0.0000 0.0000 1.7749 0.0000 26.4399
#
#
#
# Elastic Compliance Matrix: (Units=1/GPa)
#
#
# Indices 1 2 3 4 5 6 
#
# 1 0.012819 -0.004255 0.010735 0.000000 -0.013674 0.000000
# 2 -0.004255 0.012088 -0.008125 0.000000 0.006819 0.000000
# 3 0.010735 -0.008125 0.049639 0.000000 -0.025485 0.000000
# 4 0.000000 0.000000 0.000000 0.123147 0.000000 -0.008267
# 5 -0.013674 0.006819 -0.025485 0.000000 0.070939 0.000000
# 6 0.000000 0.000000 0.000000 -0.008267 0.000000 0.038377
#
#
# Mechanical properties :
#
#
# Convention : Reuss Voigt Hill
#
# Bulk Modulus (GPa) = 14.03363 30.95502 22.49432
# Shear Modulus (GPa) = 14.96785 25.39862 20.18324
#
# Velocity S-wave (km/s) = 2.90970 3.79030 3.37881
# Velocity P-wave (km/s) = 4.38479 6.05512 5.28634
#
# Compressibility (1/GPa) = 0.07125742
#
# Stress axis : x y z
#
# Youngs Moduli (GPa) = 78.01014 82.72866 20.14538
#
# Poissons Ratio (x) = 0.35198 -0.21627
# Poissons Ratio (y) = 0.33190 0.16368
# Poissons Ratio (z) = -0.83747 0.67217
#
# Static dielectric constant tensor:
#      x y z
#    x 1.623190 0.000000 0.003230 
#    y 0.000000 1.601850 0.000000 
#    z 0.003230 0.000000 1.595600 
# 
# From -- ./inp_files/88037.got.cif
#   From: 2010.05.17/outbox.cif.g08.bks.cpg/sg12_45_cif.got.tgz:88037.got - 2010.06.03 13:09:07.
