data_PCOD9176021
_publ_section_title
;
Structure prediction by ZEFSAII (Michael W. Deem and Ramdas Pophale) SiO2 
 PCOD9176021
Probable space group: C 2/M
;
_chemical_formula_sum "Si O2"
_cell_formula_units_Z 56
_cell_length_a 31.386112
_cell_length_b 23.054330
_cell_length_c 9.373471
_cell_angle_alpha 90.000000
_cell_angle_beta 154.156733
_cell_angle_gamma 90.000000
_cell_volume 2956.569871
_symmetry_space_group_name_H-M "C 2/M"
_symmetry_group_IT_number 12
_symmetry_cell_setting 'monoclinic'
loop_
_space_group_symop_operation_xyz
x,y,z
-x,y,-z
-x,-y,-z
x,-y,z
1/2+x,1/2+y,z
1/2-x,1/2+y,-z
1/2-x,1/2-y,-z
1/2+x,1/2-y,z
loop_
_atom_site_type_symbol
_atom_site_label
_atom_site_fract_x
_atom_site_fract_y
_atom_site_fract_z
Si Si1 0.252281 0.568131 0.261983
Si Si2 0.337841 0.259060 0.158618
Si Si3 0.103676 0.334181 0.892754
Si Si4 0.969297 0.261277 0.067740
Si Si5 0.915416 0.869415 0.924096
Si Si6 0.386318 0.627896 0.154936
Si Si7 0.384287 0.434254 0.419410
O O1 0.235220 0.500000 0.233218
O O2 0.353595 0.590156 0.635216
O O3 0.280098 0.578424 0.179280
O O4 0.167424 0.607883 0.070150
O O5 0.343009 0.213876 0.044520
O O6 0.435978 0.253230 0.549059
O O7 0.329031 0.321620 0.060421
O O8 0.250000 0.250000 0.000000
O O9 0.087788 0.307573 0.003689
O O10 0.000000 0.343203 0.500000
O O11 0.914687 0.199028 0.886598
O O12 0.000000 0.280362 0.000000
O O13 0.865541 0.878513 0.927712
O O14 0.027469 0.891420 0.270456
O O15 0.500000 0.647684 0.500000
O O16 0.377847 0.572422 0.229590
O O17 0.411104 0.500000 0.539449
#
# Coordination Sequence:
#
# PCOD9176021 Si02
#       7
#     8   8   8   8   8   8   8
#     4  11  24  40  59  87 115 151 203 246 290 346
#     4  11  20  35  57  85 118 157 194 237 284 346
#     4  10  23  42  61  83 115 155 201 244 293 347
#     4  11  22  37  58  88 124 152 189 242 300 351
#     4  11  21  34  58  83 127 153 186 235 295 351
#     4  10  18  34  51  78 118 157 190 226 275 350
#     4  10  20  34  55  84 119 158 193 228 282 352
#
# _framework density 18.940868999999999
#
# number of rings (size 3 to 8) (size 9 to 14) (size 15 to 20)
#    0.000    1.429    4.286    3.000    2.000    6.286 
#    0.000    0.000    0.000    0.429    0.000    0.000 
#    0.000    0.000    0.000    0.000    0.000    0.000 
#
# Total GULP energy -156190.692615 kJ/mol
# GULP energy per Si atom -5578.239022 kJ/mol
# Density = 1.889776 g / cm^3
# Si number density = 18.940869 Si / 1000 Ang^3
#
#
#
# Elastic Constant Matrix: (Units=GPa)
#
#
# Indices 1 2 3 4 5 6 
#
# 1 154.9820 58.9347 21.9354 0.0000 -3.2359 0.0000
# 2 58.9347 116.4674 22.9219 0.0000 12.8559 0.0000
# 3 21.9354 22.9219 12.2412 0.0000 2.3275 0.0000
# 4 0.0000 0.0000 0.0000 17.7030 0.0000 9.3396
# 5 -3.2359 12.8559 2.3275 0.0000 27.2939 0.0000
# 6 0.0000 0.0000 0.0000 9.3396 0.0000 32.5120
#
#
#
# Elastic Compliance Matrix: (Units=1/GPa)
#
#
# Indices 1 2 3 4 5 6 
#
# 1 0.009270 -0.002643 -0.012307 0.000000 0.003394 0.000000
# 2 -0.002643 0.014867 -0.022068 0.000000 -0.005434 0.000000
# 3 -0.012307 -0.022068 0.145732 0.000000 -0.003492 0.000000
# 4 0.000000 0.000000 0.000000 0.066578 0.000000 -0.019126
# 5 0.003394 -0.005434 -0.003492 0.000000 0.039898 0.000000
# 6 0.000000 0.000000 0.000000 -0.019126 0.000000 0.036252
#
#
# Mechanical properties :
#
#
# Convention : Reuss Voigt Hill
#
# Bulk Modulus (GPa) = 10.43499 54.58606 32.51052
# Shear Modulus (GPa) = 11.94517 27.49500 19.72008
#
# Velocity S-wave (km/s) = 2.51401 3.81415 3.23017
# Velocity P-wave (km/s) = 3.73473 6.94829 5.57795
#
# Compressibility (1/GPa) = 0.09583146
#
# Stress axis : x y z
#
# Youngs Moduli (GPa) = 107.87119 67.26399 6.86189
#
# Poissons Ratio (x) = 0.17780 0.08445
# Poissons Ratio (y) = 0.28514 0.15143
# Poissons Ratio (z) = 1.32760 1.48441
#
# Static dielectric constant tensor:
#      x y z
#    x 1.735970 0.000000 -0.027110 
#    y 0.000000 1.659330 0.000000 
#    z -0.027110 0.000000 1.673830 
# 
# From -- ./inp_files/113412.got.cif
#   From: 2010.05.17/outbox.cif.g08.bks.cpg/sg12_57_cif.got.tgz:113412.got - 2010.06.03 13:09:07.
