data_PCOD9176817
_publ_section_title
;
Structure prediction by ZEFSAII (Michael W. Deem and Ramdas Pophale) SiO2 
 PCOD9176817
Probable space group: C 2/M
;
_chemical_formula_sum "Si O2"
_cell_formula_units_Z 40
_cell_length_a 20.892182
_cell_length_b 17.791949
_cell_length_c 14.838409
_cell_angle_alpha 90.000000
_cell_angle_beta 24.852294
_cell_angle_gamma 90.000000
_cell_volume 2318.108929
_symmetry_space_group_name_H-M "C 2/M"
_symmetry_group_IT_number 12
_symmetry_cell_setting 'monoclinic'
loop_
_space_group_symop_operation_xyz
x,y,z
-x,y,-z
-x,-y,-z
x,-y,z
1/2+x,1/2+y,z
1/2-x,1/2+y,-z
1/2-x,1/2-y,-z
1/2+x,1/2-y,z
loop_
_atom_site_type_symbol
_atom_site_label
_atom_site_fract_x
_atom_site_fract_y
_atom_site_fract_z
Si Si1 0.387424 0.790226 0.380262
Si Si2 0.562566 0.293981 0.021938
Si Si3 0.636046 0.727897 0.395809
Si Si4 0.817024 0.414252 0.229373
Si Si5 0.318547 0.413785 0.394292
O O1 0.250000 0.750000 0.500000
O O2 0.418008 0.749837 0.434831
O O3 0.320263 0.872814 0.480450
O O4 0.521938 0.775831 0.139092
O O5 0.743594 0.292915 0.785099
O O6 0.500000 0.282835 0.000000
O O7 0.471214 0.365439 0.178938
O O8 0.500000 0.721404 0.500000
O O9 0.730472 0.650343 0.285263
O O10 0.796287 0.500000 0.222060
O O11 0.740377 0.410936 0.426975
O O12 0.000000 0.401260 0.000000
O O13 0.340547 0.500000 0.340770
#
# Coordination Sequence:
#
# PCOD9176817 Si02
#       5
#     8   8   8   8   8
#     4  10  18  36  57  81 112 143 190 237 271 330
#     4  11  19  36  61  80 111 147 193 236 272 335
#     4  12  23  35  56  88 117 151 185 232 294 334
#     4  10  20  37  61  87 115 147 186 233 283 340
#     4  10  19  33  60  88 107 140 195 241 276 322
#
# _framework density 17.255444000000001
#
# number of rings (size 3 to 8) (size 9 to 14) (size 15 to 20)
#    0.000    1.400    8.000    1.800    0.000    1.600 
#    0.000    0.000    0.000    2.400    0.000    0.000 
#    0.000    0.000    0.000    0.000    0.000    0.000 
#
# Total GULP energy -111355.664698 kJ/mol
# GULP energy per Si atom -5567.783235 kJ/mol
# Density = 1.721617 g / cm^3
# Si number density = 17.255444 Si / 1000 Ang^3
#
#
#
# Elastic Constant Matrix: (Units=GPa)
#
#
# Indices 1 2 3 4 5 6 
#
# 1 111.7200 44.6326 56.5766 0.0008 -8.1310 -0.0005
# 2 44.6326 128.4476 43.7255 0.0004 -3.3617 -0.0004
# 3 56.5766 43.7255 99.4823 0.0012 9.6159 -0.0012
# 4 0.0008 0.0004 0.0012 28.2911 -0.0009 4.0561
# 5 -8.1310 -3.3617 9.6159 -0.0009 25.2154 0.0007
# 6 -0.0005 -0.0004 -0.0012 4.0561 0.0007 9.6188
#
#
#
# Elastic Compliance Matrix: (Units=1/GPa)
#
#
# Indices 1 2 3 4 5 6 
#
# 1 0.014352 -0.002084 -0.007960 0.000000 0.007386 -0.000001
# 2 -0.002084 0.009661 -0.003240 0.000000 0.001852 0.000000
# 3 -0.007960 -0.003240 0.016917 -0.000001 -0.009450 0.000003
# 4 0.000000 0.000000 -0.000001 0.037621 0.000002 -0.015864
# 5 0.007386 0.001852 -0.009450 0.000002 0.045890 -0.000005
# 6 -0.000001 0.000000 0.000003 -0.015864 -0.000005 0.110653
#
#
# Mechanical properties :
#
#
# Convention : Reuss Voigt Hill
#
# Bulk Modulus (GPa) = 69.63181 69.94660 69.78920
# Shear Modulus (GPa) = 18.76528 25.60608 22.18568
#
# Velocity S-wave (km/s) = 3.30130 3.85638 3.58958
# Velocity P-wave (km/s) = 7.41435 7.77514 7.59689
#
# Compressibility (1/GPa) = 0.01436125
#
# Stress axis : x y z
#
# Youngs Moduli (GPa) = 69.67574 103.51091 59.11366
#
# Poissons Ratio (x) = 0.21572 0.47055
# Poissons Ratio (y) = 0.14520 0.19153
# Poissons Ratio (z) = 0.55463 0.33537
#
# Static dielectric constant tensor:
#      x y z
#    x 1.565880 0.000000 0.034200 
#    y 0.000000 1.664040 0.000000 
#    z 0.034200 0.000000 1.678770 
# 
# From -- ./inp_files/234590.got.cif
#   From: 2010.05.17/outbox.cif.g08.bks.cpg/sg12_118_cif.got.tgz:234590.got - 2010.06.03 13:09:07.
