data_PCOD9176282
_publ_section_title
;
Structure prediction by ZEFSAII (Michael W. Deem and Ramdas Pophale) SiO2 
 PCOD9176282
Probable space group: C 2/M
;
_chemical_formula_sum "Si O2"
_cell_formula_units_Z 56
_cell_length_a 9.138181
_cell_length_b 14.996903
_cell_length_c 30.699354
_cell_angle_alpha 90.000000
_cell_angle_beta 39.512439
_cell_angle_gamma 90.000000
_cell_volume 2676.797101
_symmetry_space_group_name_H-M "C 2/M"
_symmetry_group_IT_number 12
_symmetry_cell_setting 'monoclinic'
loop_
_space_group_symop_operation_xyz
x,y,z
-x,y,-z
-x,-y,-z
x,-y,z
1/2+x,1/2+y,z
1/2-x,1/2+y,-z
1/2-x,1/2-y,-z
1/2+x,1/2-y,z
loop_
_atom_site_type_symbol
_atom_site_label
_atom_site_fract_x
_atom_site_fract_y
_atom_site_fract_z
Si Si1 0.142347 0.095083 0.118348
Si Si2 0.239369 0.347795 0.815516
Si Si3 0.506480 0.214902 0.451473
Si Si4 0.741933 0.722029 0.951740
Si Si5 0.367036 0.849519 0.764094
Si Si6 0.474549 0.791398 0.364356
Si Si7 0.660128 0.403475 0.304728
O O1 0.171976 0.099938 0.163335
O O2 0.259109 0.184520 0.074063
O O3 0.872591 0.104614 0.169975
O O4 0.229295 0.000000 0.081691
O O5 0.466291 0.169150 0.884494
O O6 0.354603 0.249463 0.787756
O O7 0.299455 0.392179 0.756057
O O8 0.500000 0.165766 0.500000
O O9 0.250000 0.250000 0.500000
O O10 0.557392 0.172228 0.392335
O O11 0.701019 0.290781 0.416014
O O12 0.500000 0.673460 0.000000
O O13 0.750000 0.750000 0.000000
O O14 0.394391 0.835681 0.705949
O O15 0.589685 0.897919 0.730802
O O16 0.529380 0.685028 0.350853
O O17 0.553168 0.500000 0.338869
#
# Coordination Sequence:
#
# PCOD9176282 Si02
#       7
#     8   8   8   8   8   8   8
#     4  11  23  38  57  85 115 143 181 237 290 330
#     4  10  21  38  59  81 111 146 188 230 277 337
#     4   9  18  32  56  88 111 141 194 242 261 306
#     4  11  22  40  62  82 105 150 194 229 273 339
#     4  10  20  35  58  82 113 148 187 228 279 339
#     4  10  18  34  58  86 108 149 192 229 273 334
#     4  11  22  35  55  86 119 145 177 234 290 331
#
# _framework density 20.920525000000001
#
# number of rings (size 3 to 8) (size 9 to 14) (size 15 to 20)
#    0.000    1.714    2.857    3.429    4.000    0.286 
#    0.000    0.000    0.000    6.429    0.000    0.000 
#    0.000    0.000    0.000    0.000    0.000    0.000 
#
# Total GULP energy -156190.622071 kJ/mol
# GULP energy per Si atom -5578.236503 kJ/mol
# Density = 2.087291 g / cm^3
# Si number density = 20.920525 Si / 1000 Ang^3
#
#
#
# Elastic Constant Matrix: (Units=GPa)
#
#
# Indices 1 2 3 4 5 6 
#
# 1 93.1160 6.0962 13.9659 0.0068 9.3050 0.0210
# 2 6.0962 70.0507 -2.2430 0.0027 0.7254 0.0063
# 3 13.9659 -2.2430 63.3029 0.0078 3.7046 0.0296
# 4 0.0068 0.0027 0.0078 -4.5702 -0.0051 -13.6200
# 5 9.3050 0.7254 3.7046 -0.0051 47.5486 -0.0191
# 6 0.0210 0.0063 0.0296 -13.6200 -0.0191 -69.8429
#
#
#
# Elastic Compliance Matrix: (Units=1/GPa)
#
#
# Indices 1 2 3 4 5 6 
#
# 1 0.011374 -0.001047 -0.002428 0.000014 -0.002021 0.000000
# 2 -0.001047 0.014391 0.000745 0.000011 -0.000073 -0.000001
# 3 -0.002428 0.000745 0.016407 0.000015 -0.000814 0.000004
# 4 0.000014 0.000011 0.000015 -0.522419 -0.000019 0.101877
# 5 -0.002021 -0.000073 -0.000814 -0.000019 0.021491 -0.000003
# 6 0.000000 -0.000001 0.000004 0.101877 -0.000003 -0.034185
#
#
# Mechanical properties :
#
#
# Convention : Reuss Voigt Hill
#
# Bulk Modulus (GPa) = 27.23878 29.12311 28.18094
# Shear Modulus (GPa) = -10.52091 8.53712 -0.99190
#
# Velocity S-wave (km/s) = -2.24497 2.02228 -0.68931
# Velocity P-wave (km/s) = 2.51565 4.40498 3.58695
#
# Compressibility (1/GPa) = 0.03671237
#
# Stress axis : x y z
#
# Youngs Moduli (GPa) = 87.92047 69.48756 60.95024
#
# Poissons Ratio (x) = 0.07273 0.14800
# Poissons Ratio (y) = 0.09202 -0.04541
# Poissons Ratio (z) = 0.21348 -0.05177
#
# Static dielectric constant tensor:
#      x y z
#    x 1.771180 -0.000020 0.006650 
#    y -0.000020 4.157540 0.000010 
#    z 0.006650 0.000010 1.794740 
# 
# From -- ./inp_files/372351.got.cif
#   From: 2010.05.17/outbox.cif.g08.bks.cpg/sg12_187_cif.got.tgz:372351.got - 2010.06.03 13:09:07.
