data_PCOD9176000
_publ_section_title
;
Structure prediction by ZEFSAII (Michael W. Deem and Ramdas Pophale) SiO2 
 PCOD9176000
Probable space group: C 2/M
;
_chemical_formula_sum "Si O2"
_cell_formula_units_Z 40
_cell_length_a 12.262062
_cell_length_b 23.632267
_cell_length_c 7.525295
_cell_angle_alpha 90.000000
_cell_angle_beta 124.146769
_cell_angle_gamma 90.000000
_cell_volume 1804.738055
_symmetry_space_group_name_H-M "C 2/M"
_symmetry_group_IT_number 12
_symmetry_cell_setting 'monoclinic'
loop_
_space_group_symop_operation_xyz
x,y,z
-x,y,-z
-x,-y,-z
x,-y,z
1/2+x,1/2+y,z
1/2-x,1/2+y,-z
1/2-x,1/2-y,-z
1/2+x,1/2-y,z
loop_
_atom_site_type_symbol
_atom_site_label
_atom_site_fract_x
_atom_site_fract_y
_atom_site_fract_z
Si Si1 0.894613 0.000000 0.249026
Si Si2 0.355668 0.822145 0.724162
Si Si3 0.111139 0.500000 0.958382
Si Si4 0.607572 0.621189 0.945856
Si Si5 0.605012 0.124756 0.843566
Si Si6 0.561026 0.713241 0.381069
O O1 0.899860 0.057842 0.140867
O O2 0.000000 0.000000 0.500000
O O3 0.747672 0.000000 0.190878
O O4 0.454027 0.855869 0.681177
O O5 0.412256 0.758488 0.750183
O O6 0.201863 0.817000 0.538081
O O7 0.366878 0.850241 0.929941
O O8 0.102642 0.557091 0.840718
O O9 0.000000 0.500000 0.000000
O O10 0.550584 0.667284 0.758965
O O11 0.500000 0.623345 0.000000
O O12 0.758017 0.638391 0.131814
O O13 0.500000 0.743635 0.500000
#
# Coordination Sequence:
#
# PCOD9176000 Si02
#       6
#     4   8   4   8   8   8
#     4  10  23  39  66  91 122 160 203 257 309 367
#     4  10  22  37  61  87 125 160 207 259 297 375
#     4  10  18  33  64  93 116 153 197 256 296 378
#     4  11  24  40  63  91 125 161 206 256 309 369
#     4  10  21  39  62  94 124 158 209 252 323 362
#     4  11  23  40  59  89 124 164 211 253 309 365
#
# _framework density 22.163879999999999
#
# number of rings (size 3 to 8) (size 9 to 14) (size 15 to 20)
#    0.000    1.600    4.000    0.900    5.600    4.000 
#    0.000    0.000    0.000    0.000    0.000    9.800 
#    0.000    0.000    0.000    0.000    0.000    0.000 
#
# Total GULP energy -111469.750576 kJ/mol
# GULP energy per Si atom -5573.487529 kJ/mol
# Density = 2.211343 g / cm^3
# Si number density = 22.163880 Si / 1000 Ang^3
#
#
#
# Elastic Constant Matrix: (Units=GPa)
#
#
# Indices 1 2 3 4 5 6 
#
# 1 190.6869 14.4898 30.2279 0.0000 34.1181 0.0000
# 2 14.4898 101.1293 12.8866 0.0000 9.4765 0.0000
# 3 30.2279 12.8866 43.8349 0.0000 22.5754 0.0000
# 4 0.0000 0.0000 0.0000 16.3095 0.0000 9.5067
# 5 34.1181 9.4765 22.5754 0.0000 44.2672 0.0000
# 6 0.0000 0.0000 0.0000 9.5067 0.0000 34.4339
#
#
#
# Elastic Compliance Matrix: (Units=1/GPa)
#
#
# Indices 1 2 3 4 5 6 
#
# 1 0.006284 -0.000258 -0.002430 0.000000 -0.003549 0.000000
# 2 -0.000258 0.010310 -0.002466 0.000000 -0.000750 0.000000
# 3 -0.002430 -0.002466 0.032518 0.000000 -0.014183 0.000000
# 4 0.000000 0.000000 0.000000 0.073074 0.000000 -0.020175
# 5 -0.003549 -0.000750 -0.014183 0.000000 0.032719 0.000000
# 6 0.000000 0.000000 0.000000 -0.020175 0.000000 0.034611
#
#
# Mechanical properties :
#
#
# Convention : Reuss Voigt Hill
#
# Bulk Modulus (GPa) = 25.77132 50.09551 37.93342
# Shear Modulus (GPa) = 23.50082 37.53856 30.51969
#
# Velocity S-wave (km/s) = 3.25979 4.11990 3.71482
# Velocity P-wave (km/s) = 5.08145 6.72925 5.96255
#
# Compressibility (1/GPa) = 0.03880282
#
# Stress axis : x y z
#
# Youngs Moduli (GPa) = 159.13562 96.99392 30.75245
#
# Poissons Ratio (x) = 0.02504 0.07472
# Poissons Ratio (y) = 0.04109 0.07585
# Poissons Ratio (z) = 0.38665 0.23923
#
# Static dielectric constant tensor:
#      x y z
#    x 1.877300 0.000000 -0.064490 
#    y 0.000000 1.690820 0.000000 
#    z -0.064490 0.000000 1.895010 
# 
# From -- ./inp_files/51008.got.cif
#   From: 2010.05.17/outbox.cif.g08.bks.cpg/sg12_26_cif.got.tgz:51008.got - 2010.06.03 13:09:07.
