data_PCOD9176999
_publ_section_title
;
Structure prediction by ZEFSAII (Michael W. Deem and Ramdas Pophale) SiO2 
 PCOD9176999
Probable space group: C 2/M
;
_chemical_formula_sum "Si O2"
_cell_formula_units_Z 50
_cell_length_a 5.121263
_cell_length_b 32.074622
_cell_length_c 16.239582
_cell_angle_alpha 90.000000
_cell_angle_beta 121.929449
_cell_angle_gamma 90.000000
_cell_volume 2263.954313
_symmetry_space_group_name_H-M "C 2/M"
_symmetry_group_IT_number 12
_symmetry_cell_setting 'monoclinic'
loop_
_space_group_symop_operation_xyz
x,y,z
-x,y,-z
-x,-y,-z
x,-y,z
1/2+x,1/2+y,z
1/2-x,1/2+y,-z
1/2-x,1/2-y,-z
1/2+x,1/2-y,z
loop_
_atom_site_type_symbol
_atom_site_label
_atom_site_fract_x
_atom_site_fract_y
_atom_site_fract_z
Si Si1 0.000000 0.000000 0.500000
Si Si2 0.277536 0.352780 0.270906
Si Si3 0.263454 0.559394 0.318606
Si Si4 0.076935 0.862801 0.149697
Si Si5 0.271858 0.274889 0.387186
Si Si6 0.965414 0.953599 0.818039
Si Si7 0.065141 0.229845 0.893792
O O1 0.061094 0.964809 0.581715
O O2 0.325655 0.391839 0.338176
O O3 0.525215 0.355531 0.239162
O O4 0.265783 0.311202 0.320160
O O5 0.929809 0.360407 0.178737
O O6 0.367819 0.548596 0.242757
O O7 0.899432 0.549942 0.261676
O O8 0.960613 0.910697 0.118974
O O9 0.926566 0.819807 0.092575
O O10 0.500000 0.286808 0.500000
O O11 0.444435 0.235979 0.372638
O O12 0.026052 0.000000 0.864393
O O13 0.235093 0.248379 0.843287
O O14 0.250000 0.250000 0.000000
#
# Coordination Sequence:
#
# PCOD9176999 Si02
#       7
#     2   8   8   8   8   8   8
#     4  12  20  34  52  74  96 146 188 222 300 330
#     4  10  21  36  50  77 104 135 179 231 265 318
#     4  10  22  31  51  72 101 134 181 228 278 321
#     4  10  21  34  56  80 105 139 179 212 269 324
#     4  10  21  35  50  65  92 132 175 220 270 311
#     4  10  18  37  49  73 106 137 175 230 264 314
#     4  10  21  37  57  86 118 144 169 210 269 332
#
# _framework density 22.085253999999999
#
# number of rings (size 3 to 8) (size 9 to 14) (size 15 to 20)
#    0.000    1.920    1.600    1.920    1.120    5.120 
#    0.000    0.000    0.000    0.000    0.000    4.480 
#    0.000    0.000    0.000    0.000    0.000    0.000 
#
# Total GULP energy -139183.489378 kJ/mol
# GULP energy per Si atom -5567.339575 kJ/mol
# Density = 2.203499 g / cm^3
# Si number density = 22.085254 Si / 1000 Ang^3
#
#
#
# Elastic Constant Matrix: (Units=GPa)
#
#
# Indices 1 2 3 4 5 6 
#
# 1 122.1047 -7.4554 -7.0500 0.0000 -0.3363 0.0000
# 2 -7.4554 193.0399 33.1145 0.0000 2.3217 0.0000
# 3 -7.0500 33.1145 28.4669 0.0000 -3.5333 0.0000
# 4 0.0000 0.0000 0.0000 35.4845 0.0000 -11.5096
# 5 -0.3363 2.3217 -3.5333 0.0000 7.4646 0.0000
# 6 0.0000 0.0000 0.0000 -11.5096 0.0000 18.9584
#
#
#
# Elastic Compliance Matrix: (Units=1/GPa)
#
#
# Indices 1 2 3 4 5 6 
#
# 1 0.008325 -0.000104 0.002372 0.000000 0.001530 0.000000
# 2 -0.000104 0.006729 -0.008621 0.000000 -0.006178 0.000000
# 3 0.002372 -0.008621 0.048967 0.000000 0.025966 0.000000
# 4 0.000000 0.000000 0.000000 0.035091 0.000000 0.021304
# 5 0.001530 -0.006178 0.025966 0.000000 0.148247 0.000000
# 6 0.000000 0.000000 0.000000 0.021304 0.000000 0.065681
#
#
# Mechanical properties :
#
#
# Convention : Reuss Voigt Hill
#
# Bulk Modulus (GPa) = 19.48686 42.31441 30.90064
# Shear Modulus (GPa) = 14.58365 34.04832 24.31598
#
# Velocity S-wave (km/s) = 2.57248 3.93068 3.32174
# Velocity P-wave (km/s) = 4.20312 6.30884 5.36040
#
# Compressibility (1/GPa) = 0.05131663
#
# Stress axis : x y z
#
# Youngs Moduli (GPa) = 120.12674 148.60269 20.42200
#
# Poissons Ratio (x) = 0.01543 -0.04845
# Poissons Ratio (y) = 0.01248 0.17605
# Poissons Ratio (z) = -0.28498 1.28104
#
# Static dielectric constant tensor:
#      x y z
#    x 2.034190 0.000000 0.023760 
#    y 0.000000 1.874110 0.000000 
#    z 0.023760 0.000000 1.609350 
# 
# From -- ./inp_files/253576.got.cif
#   From: 2010.05.17/outbox.cif.g08.bks.cpg/sg12_127_cif.got.tgz:253576.got - 2010.06.03 13:09:07.
