data_PCOD9176945
_publ_section_title
;
Structure prediction by ZEFSAII (Michael W. Deem and Ramdas Pophale) SiO2 
 PCOD9176945
Probable space group: C 2/M
;
_chemical_formula_sum "Si O2"
_cell_formula_units_Z 56
_cell_length_a 15.953077
_cell_length_b 9.615005
_cell_length_c 25.208711
_cell_angle_alpha 90.000000
_cell_angle_beta 43.721634
_cell_angle_gamma 90.000000
_cell_volume 2672.515821
_symmetry_space_group_name_H-M "C 2/M"
_symmetry_group_IT_number 12
_symmetry_cell_setting 'monoclinic'
loop_
_space_group_symop_operation_xyz
x,y,z
-x,y,-z
-x,-y,-z
x,-y,z
1/2+x,1/2+y,z
1/2-x,1/2+y,-z
1/2-x,1/2-y,-z
1/2+x,1/2-y,z
loop_
_atom_site_type_symbol
_atom_site_label
_atom_site_fract_x
_atom_site_fract_y
_atom_site_fract_z
Si Si1 0.057481 0.656726 0.896810
Si Si2 0.331637 0.664514 0.803579
Si Si3 0.500774 0.262791 0.812204
Si Si4 0.591706 0.342837 0.349385
Si Si5 0.816577 0.162409 0.514772
Si Si6 0.247853 0.661749 0.352207
Si Si7 0.857086 0.848474 0.971746
O O1 0.034078 0.500000 0.924777
O O2 0.192208 0.698385 0.853150
O O3 0.050068 0.657145 0.834918
O O4 0.949017 0.757595 0.965073
O O5 0.334928 0.500000 0.818467
O O6 0.393199 0.762930 0.819275
O O7 0.407370 0.673045 0.714358
O O8 0.611919 0.320054 0.727553
O O9 0.439306 0.365915 0.881872
O O10 0.640302 0.500000 0.338129
O O11 0.458944 0.335489 0.435579
O O12 0.672288 0.222670 0.337707
O O13 0.750000 0.250000 0.500000
O O14 0.788052 0.240471 0.582403
O O15 0.778894 0.000000 0.533540
O O16 0.222078 0.500000 0.374829
O O17 0.819098 0.000000 0.008976
O O18 0.750000 0.750000 0.000000
#
# Coordination Sequence:
#
# PCOD9176945 Si02
#       7
#     8   8   8   8   8   8   8
#     4   9  20  37  61  88 119 154 199 248 298 354
#     4  10  18  36  63  89 116 158 207 248 295 364
#     4  10  22  37  63  89 121 156 205 249 302 356
#     4  10  21  39  60  83 115 158 204 250 304 365
#     4  11  24  40  59  84 117 157 205 256 310 367
#     4  12  23  38  60  87 121 158 202 253 308 363
#     4  10  20  37  63  89 124 161 200 245 303 363
#
# _framework density 20.954038000000001
#
# number of rings (size 3 to 8) (size 9 to 14) (size 15 to 20)
#    0.857    0.857    1.429    3.857    0.000    4.571 
#    0.000    2.143    0.000    3.429    0.000    0.000 
#    0.000    0.000    0.000    0.000    0.000    0.000 
#
# Total GULP energy -156016.140591 kJ/mol
# GULP energy per Si atom -5572.005021 kJ/mol
# Density = 2.090635 g / cm^3
# Si number density = 20.954038 Si / 1000 Ang^3
#
#
#
# Elastic Constant Matrix: (Units=GPa)
#
#
# Indices 1 2 3 4 5 6 
#
# 1 125.4084 39.7130 19.5975 0.0000 -8.1007 0.0000
# 2 39.7130 122.8507 31.9544 0.0000 -12.0799 0.0001
# 3 19.5975 31.9544 64.8297 0.0000 -7.7486 0.0000
# 4 0.0000 0.0000 0.0000 -2.0764 0.0000 10.1234
# 5 -8.1007 -12.0799 -7.7486 0.0000 33.8146 0.0000
# 6 0.0000 0.0001 0.0000 10.1234 0.0000 13.5284
#
#
#
# Elastic Compliance Matrix: (Units=1/GPa)
#
#
# Indices 1 2 3 4 5 6 
#
# 1 0.009035 -0.002461 -0.001403 0.000000 0.000964 0.000000
# 2 -0.002461 0.010192 -0.004025 0.000000 0.002129 0.000000
# 3 -0.001403 -0.004025 0.018117 0.000000 0.002378 0.000000
# 4 0.000000 0.000000 0.000000 -0.103608 0.000000 0.077531
# 5 0.000964 0.002129 0.002378 0.000000 0.031109 0.000000
# 6 0.000000 0.000000 0.000000 0.077531 0.000000 0.015902
#
#
# Mechanical properties :
#
#
# Convention : Reuss Voigt Hill
#
# Bulk Modulus (GPa) = 46.36969 55.06874 50.71921
# Shear Modulus (GPa) = 1346.37987 23.84158 685.11073
#
# Velocity S-wave (km/s) = 25.37586 3.37679 18.10162
# Velocity P-wave (km/s) = 29.67754 6.44526 21.47438
#
# Compressibility (1/GPa) = 0.02156581
#
# Stress axis : x y z
#
# Youngs Moduli (GPa) = 110.68392 98.11821 55.19590
#
# Poissons Ratio (x) = 0.24146 0.07744
# Poissons Ratio (y) = 0.27238 0.22217
# Poissons Ratio (z) = 0.15529 0.39494
#
# Static dielectric constant tensor:
#      x y z
#    x 1.823910 0.000000 0.037520 
#    y 0.000000 1.742910 0.000000 
#    z 0.037520 0.000000 1.811580 
# 
# From -- ./inp_files/377670.got.cif
#   From: 2010.05.17/outbox.cif.g08.bks.cpg/sg12_189_cif.got.tgz:377670.got - 2010.06.03 13:09:07.
