data_PCOD9176357
_publ_section_title
;
Structure prediction by ZEFSAII (Michael W. Deem and Ramdas Pophale) SiO2 
 PCOD9176357
Probable space group: C 2/M
;
_chemical_formula_sum "Si O2"
_cell_formula_units_Z 44
_cell_length_a 18.540464
_cell_length_b 21.836173
_cell_length_c 16.180780
_cell_angle_alpha 90.000000
_cell_angle_beta 161.693524
_cell_angle_gamma 90.000000
_cell_volume 2057.615344
_symmetry_space_group_name_H-M "C 2/M"
_symmetry_group_IT_number 12
_symmetry_cell_setting 'monoclinic'
loop_
_space_group_symop_operation_xyz
x,y,z
-x,y,-z
-x,-y,-z
x,-y,z
1/2+x,1/2+y,z
1/2-x,1/2+y,-z
1/2-x,1/2-y,-z
1/2+x,1/2-y,z
loop_
_atom_site_type_symbol
_atom_site_label
_atom_site_fract_x
_atom_site_fract_y
_atom_site_fract_z
Si Si1 0.500000 0.365198 0.500000
Si Si2 0.764971 0.216735 0.386517
Si Si3 0.740941 0.929029 0.536515
Si Si4 0.103362 0.376748 0.961453
Si Si5 0.460682 0.837839 0.552509
Si Si6 0.392370 0.665884 0.118113
O O1 0.606892 0.322207 0.545224
O O2 0.713317 0.401083 0.772770
O O3 0.525825 0.182635 0.142183
O O4 0.768184 0.286443 0.360731
O O5 0.915728 0.210201 0.634659
O O6 0.593535 0.919515 0.291552
O O7 0.605749 0.896295 0.464513
O O8 0.973244 0.890820 0.775835
O O9 0.779117 0.000000 0.593366
O O10 0.249457 0.356846 0.041280
O O11 0.500000 0.851693 0.500000
O O12 0.700794 0.809536 0.847640
#
# Coordination Sequence:
#
# PCOD9176357 Si02
#       6
#     4   8   8   8   8   8
#     4  10  18  34  59  98 135 160 184 248 316 384
#     4  10  19  36  60  93 130 163 192 246 314 387
#     4  10  23  43  63  85 120 170 222 262 296 350
#     4   9  20  37  64  92 124 163 204 249 314 372
#     4  11  23  39  60  96 125 161 205 254 312 371
#     4   9  21  38  59  86 124 163 209 252 313 364
#
# _framework density 21.383977999999999
#
# number of rings (size 3 to 8) (size 9 to 14) (size 15 to 20)
#    0.000    2.182    0.909    1.091    0.000   13.455 
#    3.273    1.364    0.000   14.182    0.000    0.000 
#    0.000    0.000    0.000    0.000    0.000    0.000 
#
# Total GULP energy -122876.614000 kJ/mol
# GULP energy per Si atom -5585.300636 kJ/mol
# Density = 2.133531 g / cm^3
# Si number density = 21.383978 Si / 1000 Ang^3
#
#
#
# Elastic Constant Matrix: (Units=GPa)
#
#
# Indices 1 2 3 4 5 6 
#
# 1 117.8125 49.5194 40.1658 -0.0005 2.9835 -0.0001
# 2 49.5194 84.7009 -10.4598 -0.0001 15.8655 0.0001
# 3 40.1658 -10.4598 74.7030 -0.0008 1.7000 -0.0002
# 4 -0.0005 -0.0001 -0.0008 5.5853 -0.0005 2.4208
# 5 2.9835 15.8655 1.7000 -0.0005 36.2876 -0.0001
# 6 -0.0001 0.0001 -0.0002 2.4208 -0.0001 18.9121
#
#
#
# Elastic Compliance Matrix: (Units=1/GPa)
#
#
# Indices 1 2 3 4 5 6 
#
# 1 0.017406 -0.012405 -0.011198 0.000000 0.004517 0.000000
# 2 -0.012405 0.021985 0.009954 0.000000 -0.009058 0.000000
# 3 -0.011198 0.009954 0.020901 0.000002 -0.004411 0.000000
# 4 0.000000 0.000000 0.000002 0.189560 0.000003 -0.024264
# 5 0.004517 -0.009058 -0.004411 0.000003 0.031353 0.000000
# 6 0.000000 0.000000 0.000000 -0.024264 0.000000 0.055982
#
#
# Mechanical properties :
#
#
# Convention : Reuss Voigt Hill
#
# Bulk Modulus (GPa) = 30.30874 48.40747 39.35811
# Shear Modulus (GPa) = 13.31619 25.35638 19.33629
#
# Velocity S-wave (km/s) = 2.49814 3.44723 3.01032
# Velocity P-wave (km/s) = 4.74608 6.20733 5.52522
#
# Compressibility (1/GPa) = 0.03299378
#
# Stress axis : x y z
#
# Youngs Moduli (GPa) = 57.45274 45.48614 47.84349
#
# Poissons Ratio (x) = 0.56426 0.53576
# Poissons Ratio (y) = 0.71270 -0.47625
# Poissons Ratio (z) = 0.64337 -0.45278
#
# Static dielectric constant tensor:
#      x y z
#    x 1.766040 0.000000 -0.021420 
#    y 0.000000 1.743690 0.000000 
#    z -0.021420 0.000000 1.843980 
# 
# From -- ./inp_files/228213.got.cif
#   From: 2010.05.17/outbox.cif.g08.bks.cpg/sg12_115_cif.got.tgz:228213.got - 2010.06.03 13:09:07.
