data_PCOD9176130
_publ_section_title
;
Structure prediction by ZEFSAII (Michael W. Deem and Ramdas Pophale) SiO2 
 PCOD9176130
Probable space group: C 2/M
;
_chemical_formula_sum "Si O2"
_cell_formula_units_Z 64
_cell_length_a 23.980512
_cell_length_b 7.454048
_cell_length_c 20.016777
_cell_angle_alpha 90.000000
_cell_angle_beta 129.581561
_cell_angle_gamma 90.000000
_cell_volume 2757.658481
_symmetry_space_group_name_H-M "C 2/M"
_symmetry_group_IT_number 12
_symmetry_cell_setting 'monoclinic'
loop_
_space_group_symop_operation_xyz
x,y,z
-x,y,-z
-x,-y,-z
x,-y,z
1/2+x,1/2+y,z
1/2-x,1/2+y,-z
1/2-x,1/2-y,-z
1/2+x,1/2-y,z
loop_
_atom_site_type_symbol
_atom_site_label
_atom_site_fract_x
_atom_site_fract_y
_atom_site_fract_z
Si Si1 0.781181 0.286110 0.343790
Si Si2 0.976858 0.719169 0.686339
Si Si3 0.384133 0.290463 0.023965
Si Si4 0.467848 0.203213 0.908017
Si Si5 0.369119 0.215080 0.719745
Si Si6 0.138388 0.284136 0.847256
Si Si7 0.240515 0.219537 0.165447
Si Si8 0.939712 0.719451 0.507638
O O1 0.788543 0.500000 0.342472
O O2 0.715765 0.252721 0.344921
O O3 0.756622 0.217155 0.252332
O O4 0.859528 0.219233 0.425885
O O5 0.977034 0.500000 0.687011
O O6 0.916142 0.778936 0.692948
O O7 0.959277 0.775253 0.597550
O O8 0.057167 0.778238 0.768500
O O9 0.398017 0.500000 0.024786
O O10 0.461855 0.197791 0.086115
O O11 0.343889 0.268820 0.063523
O O12 0.334938 0.223469 0.925501
O O13 0.404270 0.287329 0.815784
O O14 0.446311 0.000000 0.909209
O O15 0.500000 0.288371 0.000000
O O16 0.378258 0.000000 0.729180
O O17 0.138168 0.500000 0.844668
O O18 0.195819 0.223507 0.836175
O O19 0.239179 0.000000 0.164734
O O20 0.939593 0.500000 0.507328
O O21 0.000000 0.775409 0.500000
#
# Coordination Sequence:
#
# PCOD9176130 Si02
#       8
#     8   8   8   8   8   8   8   8
#     4  10  20  35  55  81 108 135 174 218 263 313
#     4   9  17  31  53  77 103 136 175 218 262 308
#     4  11  21  32  48  76 110 138 172 219 272 316
#     4  10  20  35  54  74  99 141 192 225 251 307
#     4  10  20  35  52  75 106 141 177 214 260 312
#     4  10  18  34  56  74 101 142 181 216 259 314
#     4   9  19  33  51  76 106 139 174 217 268 316
#     4   9  17  31  55  85 108 130 170 220 263 311
#
# _framework density 23.208096000000001
#
# number of rings (size 3 to 8) (size 9 to 14) (size 15 to 20)
#    0.000    2.250    1.250    2.250    0.000    4.250 
#    0.000    1.875    0.000    1.125    0.000    0.000 
#    0.000    0.000    0.000    0.000    0.000    0.000 
#
# Total GULP energy -178916.131668 kJ/mol
# GULP energy per Si atom -5591.129115 kJ/mol
# Density = 2.315527 g / cm^3
# Si number density = 23.208096 Si / 1000 Ang^3
#
#
#
# Elastic Constant Matrix: (Units=GPa)
#
#
# Indices 1 2 3 4 5 6 
#
# 1 111.5042 7.0952 39.9489 0.0000 11.1585 0.0000
# 2 7.0952 75.9247 9.2996 -0.0001 0.8825 -0.0002
# 3 39.9489 9.2996 133.1686 0.0000 4.9366 0.0000
# 4 0.0000 -0.0001 0.0000 -2.1297 0.0000 2.6239
# 5 11.1585 0.8825 4.9366 0.0000 43.2637 0.0000
# 6 0.0000 -0.0002 0.0000 2.6239 0.0000 14.4624
#
#
#
# Elastic Compliance Matrix: (Units=1/GPa)
#
#
# Indices 1 2 3 4 5 6 
#
# 1 0.010297 -0.000572 -0.002964 0.000000 -0.002306 0.000000
# 2 -0.000572 0.013318 -0.000757 0.000000 -0.000038 0.000000
# 3 -0.002964 -0.000757 0.008458 0.000000 -0.000185 0.000000
# 4 0.000000 0.000000 0.000000 -0.383760 0.000000 0.069626
# 5 -0.002306 -0.000038 -0.000185 0.000000 0.023731 0.000000
# 6 0.000000 0.000000 0.000000 0.069626 0.000000 0.056513
#
#
# Mechanical properties :
#
#
# Convention : Reuss Voigt Hill
#
# Bulk Modulus (GPa) = 42.57680 48.14278 45.35979
# Shear Modulus (GPa) = -19.60567 28.73619 4.56526
#
# Velocity S-wave (km/s) = -2.90966 3.52262 1.40405
# Velocity P-wave (km/s) = 2.66408 6.11017 4.71336
#
# Compressibility (1/GPa) = 0.02348697
#
# Stress axis : x y z
#
# Youngs Moduli (GPa) = 97.11346 75.08871 118.23078
#
# Poissons Ratio (x) = 0.04299 0.35039
# Poissons Ratio (y) = 0.05560 0.08949
# Poissons Ratio (z) = 0.28780 0.05683
#
# Static dielectric constant tensor:
#      x y z
#    x 1.862660 0.000000 -0.005820 
#    y 0.000000 1.890300 0.000000 
#    z -0.005820 0.000000 1.839590 
# 
# From -- ./inp_files/324315.got.cif
#   From: 2010.05.17/outbox.cif.g08.bks.cpg/sg12_163_cif.got.tgz:324315.got - 2010.06.03 13:09:07.
