data_PCOD9176129
_publ_section_title
;
Structure prediction by ZEFSAII (Michael W. Deem and Ramdas Pophale) SiO2 
 PCOD9176129
Probable space group: C 2/M
;
_chemical_formula_sum "Si O2"
_cell_formula_units_Z 44
_cell_length_a 26.843111
_cell_length_b 13.679885
_cell_length_c 17.241288
_cell_angle_alpha 90.000000
_cell_angle_beta 17.930598
_cell_angle_gamma 90.000000
_cell_volume 1949.148730
_symmetry_space_group_name_H-M "C 2/M"
_symmetry_group_IT_number 12
_symmetry_cell_setting 'monoclinic'
loop_
_space_group_symop_operation_xyz
x,y,z
-x,y,-z
-x,-y,-z
x,-y,z
1/2+x,1/2+y,z
1/2-x,1/2+y,-z
1/2-x,1/2-y,-z
1/2+x,1/2-y,z
loop_
_atom_site_type_symbol
_atom_site_label
_atom_site_fract_x
_atom_site_fract_y
_atom_site_fract_z
Si Si1 0.387506 0.390789 0.048440
Si Si2 0.344804 0.887451 0.860899
Si Si3 0.000000 0.748186 0.500000
Si Si4 0.750513 0.390421 0.577515
Si Si5 0.546513 0.388093 0.562002
Si Si6 0.509039 0.751183 0.223500
O O1 0.356174 0.500000 0.063818
O O2 0.282326 0.377649 0.281413
O O3 0.574930 0.385981 0.798176
O O4 0.371016 0.310181 0.007882
O O5 0.406712 0.823627 0.696913
O O6 0.408271 0.829058 0.841831
O O7 0.402391 0.000000 0.773479
O O8 0.150281 0.889334 0.148916
O O9 0.094082 0.823975 0.417323
O O10 0.813183 0.500000 0.472034
O O11 0.880771 0.310532 0.362160
O O12 0.604125 0.500000 0.475194
O O13 0.582854 0.328882 0.586623
#
# Coordination Sequence:
#
# PCOD9176129 Si02
#       6
#     8   8   4   8   8   8
#     4   9  19  36  55  77 106 136 168 212 261 309
#     4  10  22  37  52  76 108 138 173 215 257 301
#     4  10  18  34  56  72  94 136 178 212 250 298
#     4   9  19  35  55  79 105 134 171 213 258 307
#     4  10  22  37  51  74 108 141 173 212 257 305
#     4  11  19  31  55  82 102 134 176 215 254 304
#
# _framework density 22.573957
#
# number of rings (size 3 to 8) (size 9 to 14) (size 15 to 20)
#    0.000    2.182    0.000    5.455    0.000    5.818 
#    0.000    3.636    0.000    3.273    0.000   12.727 
#    0.000    0.000    0.000    0.000    0.000    0.000 
#
# Total GULP energy -123048.586675 kJ/mol
# GULP energy per Si atom -5593.117576 kJ/mol
# Density = 2.252258 g / cm^3
# Si number density = 22.573957 Si / 1000 Ang^3
#
#
#
# Elastic Constant Matrix: (Units=GPa)
#
#
# Indices 1 2 3 4 5 6 
#
# 1 52.7398 41.9354 4.1022 -0.0010 6.9829 -0.0011
# 2 41.9354 199.8762 31.0861 -0.0002 9.5426 -0.0007
# 3 4.1022 31.0861 37.6495 0.0005 -1.3676 0.0021
# 4 -0.0010 -0.0002 0.0005 32.6852 0.0010 2.9410
# 5 6.9829 9.5426 -1.3676 0.0010 24.9912 0.0003
# 6 -0.0011 -0.0007 0.0021 2.9410 0.0003 30.0417
#
#
#
# Elastic Compliance Matrix: (Units=1/GPa)
#
#
# Indices 1 2 3 4 5 6 
#
# 1 0.023350 -0.004886 0.001323 0.000001 -0.004586 0.000001
# 2 -0.004886 0.006917 -0.005236 0.000000 -0.001563 0.000000
# 3 0.001323 -0.005236 0.030860 0.000000 0.003318 -0.000002
# 4 0.000001 0.000000 0.000000 0.030867 -0.000001 -0.003022
# 5 -0.004586 -0.001563 0.003318 -0.000001 0.042074 -0.000001
# 6 0.000001 0.000000 -0.000002 -0.003022 -0.000001 0.033583
#
#
# Mechanical properties :
#
#
# Convention : Reuss Voigt Hill
#
# Bulk Modulus (GPa) = 22.97211 49.39033 36.18122
# Shear Modulus (GPa) = 25.03032 31.75306 28.39169
#
# Velocity S-wave (km/s) = 3.33350 3.75457 3.55028
# Velocity P-wave (km/s) = 5.00147 6.38142 5.73312
#
# Compressibility (1/GPa) = 0.04353105
#
# Stress axis : x y z
#
# Youngs Moduli (GPa) = 42.82598 144.56985 32.40434
#
# Poissons Ratio (x) = 0.70635 -0.04288
# Poissons Ratio (y) = 0.20924 0.16966
# Poissons Ratio (z) = -0.05667 0.75691
#
# Static dielectric constant tensor:
#      x y z
#    x 1.848020 0.000000 -0.020480 
#    y 0.000000 1.829720 0.000000 
#    z -0.020480 0.000000 1.839280 
# 
# From -- ./inp_files/293581.got.cif
#   From: 2010.05.17/outbox.cif.g08.bks.cpg/sg12_147_cif.got.tgz:293581.got - 2010.06.03 13:09:07.
