data_PCOD9176830
_publ_section_title
;
Structure prediction by ZEFSAII (Michael W. Deem and Ramdas Pophale) SiO2 
 PCOD9176830
Probable space group: C 2/M
;
_chemical_formula_sum "Si O2"
_cell_formula_units_Z 56
_cell_length_a 12.303153
_cell_length_b 27.013336
_cell_length_c 8.383250
_cell_angle_alpha 90.000000
_cell_angle_beta 124.150129
_cell_angle_gamma 90.000000
_cell_volume 2305.746417
_symmetry_space_group_name_H-M "C 2/M"
_symmetry_group_IT_number 12
_symmetry_cell_setting 'monoclinic'
loop_
_space_group_symop_operation_xyz
x,y,z
-x,y,-z
-x,-y,-z
x,-y,z
1/2+x,1/2+y,z
1/2-x,1/2+y,-z
1/2-x,1/2-y,-z
1/2+x,1/2-y,z
loop_
_atom_site_type_symbol
_atom_site_label
_atom_site_fract_x
_atom_site_fract_y
_atom_site_fract_z
Si Si1 0.266821 0.117025 0.637148
Si Si2 0.420965 0.056932 0.579682
Si Si3 0.316926 0.941700 0.009911
Si Si4 0.327957 0.266837 0.721855
Si Si5 0.378479 0.697899 0.311211
Si Si6 0.505031 0.815414 0.820558
Si Si7 0.716795 0.651031 0.081826
O O1 0.278605 0.076553 0.510839
O O2 0.296152 0.086872 0.825341
O O3 0.150046 0.153105 0.586128
O O4 0.380591 0.153457 0.660019
O O5 0.500000 0.081514 0.500000
O O6 0.401529 0.000000 0.522168
O O7 0.529138 0.059747 0.811491
O O8 0.281325 0.000000 0.973717
O O9 0.235795 0.907879 0.070503
O O10 0.250000 0.250000 0.500000
O O11 0.249493 0.233441 0.787958
O O12 0.469191 0.242358 0.802884
O O13 0.325586 0.322022 0.789311
O O14 0.500000 0.724101 0.500000
O O15 0.375075 0.671752 0.137019
O O16 0.636583 0.828568 0.839558
O O17 0.500000 0.832146 0.000000
#
# Coordination Sequence:
#
# PCOD9176830 Si02
#       7
#     8   8   8   8   8   8   8
#     4  10  18  36  57  85 123 162 204 257 309 376
#     4  10  19  29  49  86 124 156 197 260 322 372
#     4  10  19  33  60  91 120 163 216 256 318 381
#     4  11  26  38  60  92 120 172 212 254 320 396
#     4  10  23  40  60  86 122 167 213 259 318 386
#     4  11  19  37  60  88 118 165 208 247 323 383
#     4  11  22  42  63  87 133 172 198 281 321 367
#
# _framework density 24.287147000000001
#
# number of rings (size 3 to 8) (size 9 to 14) (size 15 to 20)
#    0.000    1.571    5.714    1.286    2.000    3.429 
#    0.000    0.000    0.000   10.714    0.000    0.000 
#    0.000   23.429    0.000    0.857    0.000    0.000 
#
# Total GULP energy -156153.651254 kJ/mol
# GULP energy per Si atom -5576.916116 kJ/mol
# Density = 2.423187 g / cm^3
# Si number density = 24.287147 Si / 1000 Ang^3
#
#
#
# Elastic Constant Matrix: (Units=GPa)
#
#
# Indices 1 2 3 4 5 6 
#
# 1 69.4686 36.5352 12.4114 0.0000 -6.0996 0.0000
# 2 36.5352 150.8331 6.4720 0.0000 -8.6442 0.0000
# 3 12.4114 6.4720 63.2403 0.0000 -9.3192 0.0000
# 4 0.0000 0.0000 0.0000 22.9362 0.0000 -4.8921
# 5 -6.0996 -8.6442 -9.3192 0.0000 36.7743 0.0000
# 6 0.0000 0.0000 0.0000 -4.8921 0.0000 42.8857
#
#
#
# Elastic Compliance Matrix: (Units=1/GPa)
#
#
# Indices 1 2 3 4 5 6 
#
# 1 0.017071 -0.003947 -0.002769 0.000000 0.001202 0.000000
# 2 -0.003947 0.007647 0.000167 0.000000 0.001185 0.000000
# 3 -0.002769 0.000167 0.016909 0.000000 0.003865 0.000000
# 4 0.000000 0.000000 0.000000 0.044686 0.000000 0.005098
# 5 0.001202 0.001185 0.003865 0.000000 0.028650 0.000000
# 6 0.000000 0.000000 0.000000 0.005098 0.000000 0.023899
#
#
# Mechanical properties :
#
#
# Convention : Reuss Voigt Hill
#
# Bulk Modulus (GPa) = 35.05462 43.81992 39.43727
# Shear Modulus (GPa) = 30.96525 35.72747 33.34636
#
# Velocity S-wave (km/s) = 3.57454 3.83958 3.70943
# Velocity P-wave (km/s) = 5.61259 6.14313 5.88385
#
# Compressibility (1/GPa) = 0.02852691
#
# Stress axis : x y z
#
# Youngs Moduli (GPa) = 58.57790 130.77478 59.14133
#
# Poissons Ratio (x) = 0.51621 0.16378
# Poissons Ratio (y) = 0.23123 -0.00986
# Poissons Ratio (z) = 0.16222 -0.02181
#
# Static dielectric constant tensor:
#      x y z
#    x 2.003580 0.000000 0.010930 
#    y 0.000000 2.061150 0.000000 
#    z 0.010930 0.000000 2.065150 
# 
# From -- ./inp_files/54823.got.cif
#   From: 2010.05.17/outbox.cif.g08.bks.cpg/sg12_28_cif.got.tgz:54823.got - 2010.06.03 13:09:07.
