data_PCOD9176661
_publ_section_title
;
Structure prediction by ZEFSAII (Michael W. Deem and Ramdas Pophale) SiO2 
 PCOD9176661
Probable space group: C 2/M
;
_chemical_formula_sum "Si O2"
_cell_formula_units_Z 64
_cell_length_a 15.482269
_cell_length_b 7.804081
_cell_length_c 31.312238
_cell_angle_alpha 90.000000
_cell_angle_beta 130.969771
_cell_angle_gamma 90.000000
_cell_volume 2856.599953
_symmetry_space_group_name_H-M "C 2/M"
_symmetry_group_IT_number 12
_symmetry_cell_setting 'monoclinic'
loop_
_space_group_symop_operation_xyz
x,y,z
-x,y,-z
-x,-y,-z
x,-y,z
1/2+x,1/2+y,z
1/2-x,1/2+y,-z
1/2-x,1/2-y,-z
1/2+x,1/2-y,z
loop_
_atom_site_type_symbol
_atom_site_label
_atom_site_fract_x
_atom_site_fract_y
_atom_site_fract_z
Si Si1 0.366472 0.292526 0.111482
Si Si2 0.867950 0.796510 0.560813
Si Si3 0.329942 0.289350 0.644004
Si Si4 0.194873 0.300118 0.742195
Si Si5 0.377604 0.790279 0.943103
Si Si6 0.884151 0.296058 0.375677
Si Si7 0.408173 0.202047 0.857080
Si Si8 0.464655 0.699772 0.233014
O O1 0.365417 0.500000 0.111162
O O2 0.234535 0.235690 0.067066
O O3 0.457650 0.234887 0.106060
O O4 0.417087 0.228269 0.173390
O O5 0.750000 0.750000 0.500000
O O6 0.865900 0.728697 0.608811
O O7 0.982484 0.736073 0.574592
O O8 0.874990 0.000000 0.565355
O O9 0.334559 0.500000 0.644544
O O10 0.203215 0.234188 0.616571
O O11 0.419551 0.228839 0.708835
O O12 0.163845 0.500000 0.733771
O O13 0.154842 0.228652 0.683587
O O14 0.329941 0.284040 0.794969
O O15 0.129605 0.212370 0.760244
O O16 0.368260 0.736050 0.890658
O O17 0.378814 0.000000 0.943603
O O18 0.500000 0.732361 0.000000
O O19 0.867321 0.500000 0.368295
O O20 0.387754 0.000000 0.848398
O O21 0.486798 0.500000 0.231527
#
# Coordination Sequence:
#
# PCOD9176661 Si02
#       8
#     8   8   8   8   8   8   8   8
#     4  10  20  36  59  85 115 151 189 236 288 342
#     4  11  23  40  61  84 113 151 194 240 283 332
#     4   9  19  36  60  83 111 150 189 224 274 345
#     4  11  21  34  58  89 120 149 184 235 290 342
#     4   9  19  37  59  81 110 153 199 239 285 341
#     4  10  21  39  61  86 114 148 189 232 279 337
#     4  11  22  37  58  85 116 152 192 236 286 347
#     4  10  18  35  60  85 115 153 192 227 282 351
#
# _framework density 22.404257000000001
#
# number of rings (size 3 to 8) (size 9 to 14) (size 15 to 20)
#    0.000    1.875    2.500    1.875    0.000    4.000 
#    0.000    4.375    0.000    2.625    0.000    0.000 
#    0.000    0.000    0.000    0.000    0.000    0.000 
#
# Total GULP energy -178807.115643 kJ/mol
# GULP energy per Si atom -5587.722364 kJ/mol
# Density = 2.235326 g / cm^3
# Si number density = 22.404257 Si / 1000 Ang^3
#
#
#
# Elastic Constant Matrix: (Units=GPa)
#
#
# Indices 1 2 3 4 5 6 
#
# 1 111.8168 -5.0490 0.8292 0.0000 37.0436 0.0000
# 2 -5.0490 25.9116 -2.6052 0.0000 -4.5633 0.0000
# 3 0.8292 -2.6052 52.4601 0.0000 32.9497 0.0000
# 4 0.0000 0.0000 0.0000 10.2505 0.0000 6.3882
# 5 37.0436 -4.5633 32.9497 0.0000 34.0785 0.0000
# 6 0.0000 0.0000 0.0000 6.3882 0.0000 22.9055
#
#
#
# Elastic Compliance Matrix: (Units=1/GPa)
#
#
# Indices 1 2 3 4 5 6 
#
# 1 0.084902 -0.010063 0.145070 0.000000 -0.233901 0.000000
# 2 -0.010063 0.040967 -0.020683 0.000000 0.036422 0.000000
# 3 0.145070 -0.020683 0.296723 0.000000 -0.447356 0.000000
# 4 0.000000 0.000000 0.000000 0.118078 0.000000 -0.032931
# 5 -0.233901 0.036422 -0.447356 0.000000 0.721013 0.000000
# 6 0.000000 0.000000 0.000000 -0.032931 0.000000 0.052842
#
#
# Mechanical properties :
#
#
# Convention : Reuss Voigt Hill
#
# Bulk Modulus (GPa) = 1.53553 19.61538 10.57546
# Shear Modulus (GPa) = 3.83743 26.58116 15.20929
#
# Velocity S-wave (km/s) = 1.31016 3.44820 2.60832
# Velocity P-wave (km/s) = 1.72498 4.96263 3.71505
#
# Compressibility (1/GPa) = 0.65123917
#
# Stress axis : x y z
#
# Youngs Moduli (GPa) = 11.77831 24.41013 3.37015
#
# Poissons Ratio (x) = 0.24564 -0.48891
# Poissons Ratio (y) = 0.11852 0.06970
# Poissons Ratio (z) = -1.70868 0.50487
#
# Static dielectric constant tensor:
#      x y z
#    x 1.813270 0.000000 -0.000320 
#    y 0.000000 1.828230 0.000000 
#    z -0.000320 0.000000 1.815630 
# 
# From -- ./inp_files/375588.got.cif
#   From: 2010.05.17/outbox.cif.g08.bks.cpg/sg12_188_cif.got.tgz:375588.got - 2010.06.03 13:09:07.
