data_PCOD9176705
_publ_section_title
;
Structure prediction by ZEFSAII (Michael W. Deem and Ramdas Pophale) SiO2 
 PCOD9176705
Probable space group: C 2/M
;
_chemical_formula_sum "Si O2"
_cell_formula_units_Z 64
_cell_length_a 21.553532
_cell_length_b 16.847139
_cell_length_c 27.695526
_cell_angle_alpha 90.000000
_cell_angle_beta 160.344812
_cell_angle_gamma 90.000000
_cell_volume 3382.649811
_symmetry_space_group_name_H-M "C 2/M"
_symmetry_group_IT_number 12
_symmetry_cell_setting 'monoclinic'
loop_
_space_group_symop_operation_xyz
x,y,z
-x,y,-z
-x,-y,-z
x,-y,z
1/2+x,1/2+y,z
1/2-x,1/2+y,-z
1/2-x,1/2-y,-z
1/2+x,1/2-y,z
loop_
_atom_site_type_symbol
_atom_site_label
_atom_site_fract_x
_atom_site_fract_y
_atom_site_fract_z
Si Si1 0.033576 0.906223 0.948820
Si Si2 0.716801 0.157245 0.158916
Si Si3 0.248159 0.902919 0.011382
Si Si4 0.275274 0.156873 0.212694
Si Si5 0.846254 0.596051 0.535796
Si Si6 0.009405 0.904070 0.562412
Si Si7 0.422956 0.404066 0.214703
Si Si8 0.367346 0.903409 0.663094
O O1 0.848444 0.865004 0.831830
O O2 0.000376 0.000000 0.921687
O O3 0.112676 0.878371 0.955557
O O4 0.186971 0.891205 0.102773
O O5 0.743666 0.251541 0.178132
O O6 0.815422 0.124893 0.279208
O O7 0.821491 0.123386 0.188813
O O8 0.500000 0.137715 0.000000
O O9 0.453940 0.876959 0.176293
O O10 0.248239 0.000000 0.011347
O O11 0.181106 0.876527 0.909825
O O12 0.488749 0.134408 0.373480
O O13 0.858725 0.500000 0.541177
O O14 0.637696 0.620289 0.370491
O O15 0.879109 0.619183 0.615770
O O16 0.000000 0.878164 0.500000
O O17 0.824711 0.876981 0.454631
O O18 0.011762 0.000000 0.564620
O O19 0.422311 0.500000 0.214888
O O20 0.366443 0.000000 0.663287
#
# Coordination Sequence:
#
# PCOD9176705 Si02
#       8
#     8   8   8   8   8   8   8   8
#     4  10  18  35  61  89 114 150 203 254 294 342
#     4  12  25  40  57  84 127 162 195 239 302 365
#     4   9  18  33  59  90 116 143 190 251 299 342
#     4  11  21  36  59  85 120 155 194 246 297 361
#     4  10  18  35  62  87 112 148 198 247 294 349
#     4  10  22  40  61  85 112 153 209 253 287 343
#     4  10  22  39  58  86 121 155 195 244 299 359
#     4   9  16  31  55  83 109 138 186 244 281 326
#
# _framework density 18.920079000000001
#
# number of rings (size 3 to 8) (size 9 to 14) (size 15 to 20)
#    0.000    1.875    3.750    1.875    1.750    1.500 
#    0.000    2.500    0.000    3.000    0.000    0.000 
#    0.000    0.000    0.000    0.000    0.000    0.000 
#
# Total GULP energy -178652.821071 kJ/mol
# GULP energy per Si atom -5582.900658 kJ/mol
# Density = 1.887702 g / cm^3
# Si number density = 18.920079 Si / 1000 Ang^3
#
#
#
# Elastic Constant Matrix: (Units=GPa)
#
#
# Indices 1 2 3 4 5 6 
#
# 1 77.5261 12.0597 61.2364 0.0113 1.0359 0.0040
# 2 12.0597 11.8198 18.3057 -0.0036 3.4355 0.0006
# 3 61.2364 18.3057 168.3767 -0.0331 6.7012 -0.0087
# 4 0.0113 -0.0036 -0.0331 23.6202 0.0083 10.9731
# 5 1.0359 3.4355 6.7012 0.0083 38.0722 -0.0018
# 6 0.0040 0.0006 -0.0087 10.9731 -0.0018 -8.1282
#
#
#
# Elastic Compliance Matrix: (Units=1/GPa)
#
#
# Indices 1 2 3 4 5 6 
#
# 1 0.019208 -0.010969 -0.005853 -0.000016 0.001497 -0.000007
# 2 -0.010969 0.110044 -0.007645 0.000005 -0.008286 0.000020
# 3 -0.005853 -0.007645 0.008928 0.000013 -0.000722 0.000004
# 4 -0.000016 0.000005 0.000013 0.026019 -0.000006 0.035125
# 5 0.001497 -0.008286 -0.000722 -0.000006 0.027100 -0.000013
# 6 -0.000007 0.000020 0.000004 0.035125 -0.000013 -0.075609
#
#
# Mechanical properties :
#
#
# Convention : Reuss Voigt Hill
#
# Bulk Modulus (GPa) = 11.20493 48.99182 30.09837
# Shear Modulus (GPa) = 25.72397 21.78755 23.75576
#
# Velocity S-wave (km/s) = 3.69129 3.39714 3.54727
# Velocity P-wave (km/s) = 4.90944 6.42944 5.72016
#
# Compressibility (1/GPa) = 0.08924642
#
# Stress axis : x y z
#
# Youngs Moduli (GPa) = 52.06104 9.08729 112.01269
#
# Poissons Ratio (x) = 0.09968 0.65559
# Poissons Ratio (y) = 0.57105 0.85632
# Poissons Ratio (z) = 0.30471 0.06947
#
# Static dielectric constant tensor:
#      x y z
#    x 1.644270 0.000000 0.006390 
#    y 0.000000 1.652310 -0.000020 
#    z 0.006390 -0.000020 1.656910 
# 
# From -- ./inp_files/366834.got.cif
#   From: 2010.05.17/outbox.cif.g08.bks.cpg/sg12_184_cif.got.tgz:366834.got - 2010.06.03 13:09:07.
