data_PCOD9176831
_publ_section_title
;
Structure prediction by ZEFSAII (Michael W. Deem and Ramdas Pophale) SiO2 
 PCOD9176831
Probable space group: C 2/M
;
_chemical_formula_sum "Si O2"
_cell_formula_units_Z 40
_cell_length_a 8.594255
_cell_length_b 19.471681
_cell_length_c 14.028858
_cell_angle_alpha 90.000000
_cell_angle_beta 132.262859
_cell_angle_gamma 90.000000
_cell_volume 1737.421383
_symmetry_space_group_name_H-M "C 2/M"
_symmetry_group_IT_number 12
_symmetry_cell_setting 'monoclinic'
loop_
_space_group_symop_operation_xyz
x,y,z
-x,y,-z
-x,-y,-z
x,-y,z
1/2+x,1/2+y,z
1/2-x,1/2+y,-z
1/2-x,1/2-y,-z
1/2+x,1/2-y,z
loop_
_atom_site_type_symbol
_atom_site_label
_atom_site_fract_x
_atom_site_fract_y
_atom_site_fract_z
Si Si1 0.284985 0.149948 0.852291
Si Si2 0.734191 0.706232 0.624253
Si Si3 0.639688 0.000000 0.155343
Si Si4 0.411932 0.148731 0.373956
Si Si5 0.991874 0.139249 0.104703
Si Si6 0.290639 0.500000 0.975561
O O1 0.294020 0.189256 0.757104
O O2 0.113543 0.181673 0.853665
O O3 0.239572 0.071444 0.797215
O O4 0.500000 0.152340 0.000000
O O5 0.500000 0.678596 0.500000
O O6 0.699124 0.788084 0.614683
O O7 0.909865 0.677827 0.624373
O O8 0.500000 0.000000 0.000000
O O9 0.451662 0.000000 0.155807
O O10 0.500000 0.105438 0.500000
O O11 0.224985 0.117665 0.233022
O O12 0.833368 0.073963 0.040118
O O13 0.000000 0.166837 0.000000
O O14 0.500000 0.500000 0.000000
#
# Coordination Sequence:
#
# PCOD9176831 Si02
#       6
#     8   8   4   8   8   4
#     4  11  20  36  61  89 119 152 196 237 288 342
#     4  11  23  41  62  84 114 156 193 239 293 349
#     4  10  18  36  57  86 119 158 186 234 290 347
#     4  11  23  41  61  84 116 154 195 237 294 347
#     4  11  21  36  59  91 118 154 193 241 285 343
#     4  10  20  34  59  84 123 154 192 230 293 341
#
# _framework density 23.022625999999999
#
# number of rings (size 3 to 8) (size 9 to 14) (size 15 to 20)
#    0.000    1.200    4.000    6.000    2.800    0.800 
#    0.000    5.000    0.000    0.000    0.000    0.000 
#    0.000    0.000    0.000    0.000    0.000    0.000 
#
# Total GULP energy -111392.584193 kJ/mol
# GULP energy per Si atom -5569.629210 kJ/mol
# Density = 2.297022 g / cm^3
# Si number density = 23.022626 Si / 1000 Ang^3
#
#
#
# Elastic Constant Matrix: (Units=GPa)
#
#
# Indices 1 2 3 4 5 6 
#
# 1 186.8838 -8.9842 56.2869 0.0000 -9.6172 0.0000
# 2 -8.9842 23.7699 -5.1393 0.0000 -4.8794 0.0000
# 3 56.2869 -5.1393 141.9854 -0.0001 -15.0054 0.0000
# 4 0.0000 0.0000 -0.0001 -55.0947 -0.0001 8.5456
# 5 -9.6172 -4.8794 -15.0054 -0.0001 45.4556 0.0000
# 6 0.0000 0.0000 0.0000 8.5456 0.0000 25.1244
#
#
#
# Elastic Compliance Matrix: (Units=1/GPa)
#
#
# Indices 1 2 3 4 5 6 
#
# 1 0.006178 0.001995 -0.002296 0.000000 0.000763 0.000000
# 2 0.001995 0.044287 0.001408 0.000000 0.005641 0.000000
# 3 -0.002296 0.001408 0.008257 0.000000 0.002391 0.000000
# 4 0.000000 0.000000 0.000000 -0.017241 0.000000 0.005864
# 5 0.000763 0.005641 0.002391 0.000000 0.023556 0.000000
# 6 0.000000 0.000000 0.000000 0.005864 0.000000 0.037807
#
#
# Mechanical properties :
#
#
# Convention : Reuss Voigt Hill
#
# Bulk Modulus (GPa) = 16.41076 48.55176 32.48126
# Shear Modulus (GPa) = 41.34260 23.79543 32.56902
#
# Velocity S-wave (km/s) = 4.24221 3.21840 3.76527
# Velocity P-wave (km/s) = 5.58021 5.91146 5.74822
#
# Compressibility (1/GPa) = 0.06093563
#
# Stress axis : x y z
#
# Youngs Moduli (GPa) = 161.87326 22.58022 121.11098
#
# Poissons Ratio (x) = -0.04505 0.27809
# Poissons Ratio (y) = -0.32297 -0.17055
# Poissons Ratio (z) = 0.37168 -0.03180
#
# Static dielectric constant tensor:
#      x y z
#    x 2.013910 0.000000 -0.039170 
#    y 0.000000 2.069170 0.000000 
#    z -0.039170 0.000000 1.967550 
# 
# From -- ./inp_files/197337.got.cif
#   From: 2010.05.17/outbox.cif.g08.bks.cpg/sg12_99_cif.got.tgz:197337.got - 2010.06.03 13:09:07.
