data_PCOD9176310
_publ_section_title
;
Structure prediction by ZEFSAII (Michael W. Deem and Ramdas Pophale) SiO2 
 PCOD9176310
Probable space group: C 2/M
;
_chemical_formula_sum "Si O2"
_cell_formula_units_Z 58
_cell_length_a 21.449918
_cell_length_b 7.603477
_cell_length_c 17.517213
_cell_angle_alpha 90.000000
_cell_angle_beta 103.376403
_cell_angle_gamma 90.000000
_cell_volume 2779.446050
_symmetry_space_group_name_H-M "C 2/M"
_symmetry_group_IT_number 12
_symmetry_cell_setting 'monoclinic'
loop_
_space_group_symop_operation_xyz
x,y,z
-x,y,-z
-x,-y,-z
x,-y,z
1/2+x,1/2+y,z
1/2-x,1/2+y,-z
1/2-x,1/2-y,-z
1/2+x,1/2-y,z
loop_
_atom_site_type_symbol
_atom_site_label
_atom_site_fract_x
_atom_site_fract_y
_atom_site_fract_z
Si Si1 0.903432 0.802090 0.974463
Si Si2 0.419212 0.711076 0.750547
Si Si3 0.089046 0.211580 0.584908
Si Si4 0.062418 0.711680 0.846323
Si Si5 0.694683 0.712142 0.172433
Si Si6 0.445906 0.714865 0.589723
Si Si7 0.000000 0.500000 0.000000
Si Si8 0.835157 0.708296 0.248678
O O1 0.911558 0.791592 0.067634
O O2 0.950885 0.654673 0.957543
O O3 0.920302 0.000000 0.953051
O O4 0.833610 0.760827 0.920363
O O5 0.413039 0.500000 0.745916
O O6 0.489288 0.747328 0.805080
O O7 0.360103 0.776608 0.784695
O O8 0.419704 0.776853 0.663328
O O9 0.091204 0.270536 0.497487
O O10 0.144413 0.266118 0.658131
O O11 0.020074 0.269605 0.599192
O O12 0.087773 0.000000 0.583705
O O13 0.065446 0.500000 0.859920
O O14 0.107902 0.772934 0.790214
O O15 0.698555 0.500000 0.183533
O O16 0.765474 0.782162 0.208528
O O17 0.445770 0.500000 0.590680
O O18 0.833467 0.500000 0.233608
#
# Coordination Sequence:
#
# PCOD9176310 Si02
#       8
#     8   8   8   8   8   8   2   8
#     4  11  23  40  62  89 123 166 202 249 307 357
#     4  10  18  34  59  82 108 148 198 246 298 358
#     4   9  16  31  53  82 111 144 192 244 295 358
#     4  11  22  36  57  86 118 151 199 260 299 351
#     4   9  21  39  58  81 115 160 200 240 297 367
#     4   8  15  28  53  83 112 140 187 249 297 353
#     4  12  22  40  64  94 128 148 204 256 300 354
#     4  10  21  38  56  81 119 157 196 245 302 357
#
# _framework density 20.867469
#
# number of rings (size 3 to 8) (size 9 to 14) (size 15 to 20)
#    0.000    2.207    2.069    2.276    0.000    2.207 
#    1.241    2.759    0.000    0.000    0.000    0.000 
#    0.000    0.000    0.000    0.000    0.000    0.000 
#
# Total GULP energy -161628.198015 kJ/mol
# GULP energy per Si atom -5573.386138 kJ/mol
# Density = 2.081997 g / cm^3
# Si number density = 20.867469 Si / 1000 Ang^3
#
#
#
# Elastic Constant Matrix: (Units=GPa)
#
#
# Indices 1 2 3 4 5 6 
#
# 1 93.9974 2.8834 50.9414 0.0000 18.4211 0.0000
# 2 2.8834 69.9778 -0.4511 0.0000 6.3801 0.0000
# 3 50.9414 -0.4511 127.2044 0.0000 3.8505 0.0000
# 4 0.0000 0.0000 0.0000 17.2776 0.0000 6.0527
# 5 18.4211 6.3801 3.8505 0.0000 35.5626 0.0000
# 6 0.0000 0.0000 0.0000 6.0527 0.0000 15.0389
#
#
#
# Elastic Compliance Matrix: (Units=1/GPa)
#
#
# Indices 1 2 3 4 5 6 
#
# 1 0.015253 -0.000004 -0.005889 0.000000 -0.007263 0.000000
# 2 -0.000004 0.014530 0.000133 0.000000 -0.002619 0.000000
# 3 -0.005889 0.000133 0.010162 0.000000 0.001926 0.000000
# 4 0.000000 0.000000 0.000000 0.067378 0.000000 -0.027118
# 5 -0.007263 -0.002619 0.001926 0.000000 0.032143 0.000000
# 6 0.000000 0.000000 0.000000 -0.027118 0.000000 0.077408
#
#
# Mechanical properties :
#
#
# Convention : Reuss Voigt Hill
#
# Bulk Modulus (GPa) = 35.18119 44.21411 39.69765
# Shear Modulus (GPa) = 21.01989 29.42954 25.22472
#
# Velocity S-wave (km/s) = 3.17725 3.75948 3.48056
# Velocity P-wave (km/s) = 5.50961 6.33080 5.93443
#
# Compressibility (1/GPa) = 0.02842428
#
# Stress axis : x y z
#
# Youngs Moduli (GPa) = 65.55933 68.82291 98.40829
#
# Poissons Ratio (x) = 0.00030 0.57949
# Poissons Ratio (y) = 0.00028 -0.01304
# Poissons Ratio (z) = 0.38606 -0.00912
#
# Static dielectric constant tensor:
#      x y z
#    x 1.764540 0.000000 -0.039780 
#    y 0.000000 1.784690 0.000000 
#    z -0.039780 0.000000 1.786400 
# 
# From -- ./inp_files/281564.got.cif
#   From: 2010.05.17/outbox.cif.g08.bks.cpg/sg12_141_cif.got.tgz:281564.got - 2010.06.03 13:09:07.
