data_PCOD9176728
_publ_section_title
;
Structure prediction by ZEFSAII (Michael W. Deem and Ramdas Pophale) SiO2 
 PCOD9176728
Probable space group: C 2/M
;
_chemical_formula_sum "Si O2"
_cell_formula_units_Z 50
_cell_length_a 20.336437
_cell_length_b 7.417992
_cell_length_c 16.819906
_cell_angle_alpha 90.000000
_cell_angle_beta 61.646398
_cell_angle_gamma 90.000000
_cell_volume 2232.975549
_symmetry_space_group_name_H-M "C 2/M"
_symmetry_group_IT_number 12
_symmetry_cell_setting 'monoclinic'
loop_
_space_group_symop_operation_xyz
x,y,z
-x,y,-z
-x,-y,-z
x,-y,z
1/2+x,1/2+y,z
1/2-x,1/2+y,-z
1/2-x,1/2-y,-z
1/2+x,1/2-y,z
loop_
_atom_site_type_symbol
_atom_site_label
_atom_site_fract_x
_atom_site_fract_y
_atom_site_fract_z
Si Si1 0.186592 0.284984 0.472423
Si Si2 0.111395 0.279653 0.229935
Si Si3 0.837107 0.714797 0.966872
Si Si4 0.500000 0.500000 0.000000
Si Si5 0.520428 0.780128 0.578572
Si Si6 0.255583 0.218016 0.731172
Si Si7 0.397019 0.791674 0.102678
O O1 0.178762 0.500000 0.468021
O O2 0.250000 0.250000 0.500000
O O3 0.104984 0.218989 0.545036
O O4 0.212197 0.217614 0.371404
O O5 0.110640 0.500000 0.229379
O O6 0.117118 0.218482 0.135728
O O7 0.187075 0.225723 0.232563
O O8 0.040656 0.219837 0.322329
O O9 0.845927 0.500000 0.966247
O O10 0.750000 0.750000 0.000000
O O11 0.863993 0.782682 0.036989
O O12 0.535031 0.659280 0.921631
O O13 0.500000 0.728236 0.500000
O O14 0.518032 0.000000 0.581841
O O15 0.172043 0.279600 0.797355
O O16 0.254681 0.000000 0.731382
O O17 0.419231 0.000000 0.084256
#
# Coordination Sequence:
#
# PCOD9176728 Si02
#       7
#     8   8   8   2   8   8   8
#     4  10  21  36  58  87 122 164 213 261 316 383
#     4   9  16  29  55  87 121 157 203 264 325 379
#     4  10  20  33  57  90 124 157 205 266 323 381
#     4  12  26  48  68  82 132 182 220 262 320 382
#     4   9  15  29  54  86 113 147 204 264 305 364
#     4  10  18  35  62  89 119 164 215 258 319 393
#     4  11  24  42  65  96 126 170 222 267 316 386
#
# _framework density 22.391646999999999
#
# number of rings (size 3 to 8) (size 9 to 14) (size 15 to 20)
#    0.000    2.080    4.000    0.240    1.120    0.640 
#    2.880    0.000    0.000    2.400    0.000    0.000 
#    0.000    0.000    0.000    0.000    0.000    0.000 
#
# Total GULP energy -139476.272342 kJ/mol
# GULP energy per Si atom -5579.050894 kJ/mol
# Density = 2.234068 g / cm^3
# Si number density = 22.391647 Si / 1000 Ang^3
#
#
#
# Elastic Constant Matrix: (Units=GPa)
#
#
# Indices 1 2 3 4 5 6 
#
# 1 51.7239 -3.4975 8.5162 0.0000 -18.5998 0.0000
# 2 -3.4975 107.5513 6.7925 -0.0001 -8.9501 0.0002
# 3 8.5162 6.7925 132.8379 0.0000 -28.8223 0.0000
# 4 0.0000 -0.0001 0.0000 -0.5086 0.0000 11.8223
# 5 -18.5998 -8.9501 -28.8223 0.0000 46.6387 0.0000
# 6 0.0000 0.0002 0.0000 11.8223 0.0000 -5.9243
#
#
#
# Elastic Compliance Matrix: (Units=1/GPa)
#
#
# Indices 1 2 3 4 5 6 
#
# 1 0.022851 0.001519 0.000575 0.000000 0.009760 0.000000
# 2 0.001519 0.009551 -0.000065 0.000000 0.002398 0.000000
# 3 0.000575 -0.000065 0.008709 0.000000 0.005599 0.000000
# 4 0.000000 0.000000 0.000000 0.043321 0.000000 0.086450
# 5 0.009760 0.002398 0.005599 0.000000 0.029254 0.000000
# 6 0.000000 0.000000 0.000000 0.086450 0.000000 0.003719
#
#
# Mechanical properties :
#
#
# Convention : Reuss Voigt Hill
#
# Bulk Modulus (GPa) = 22.13926 35.08173 28.61049
# Shear Modulus (GPa) = 38.93948 26.72796 32.83372
#
# Velocity S-wave (km/s) = 4.17468 3.45868 3.83343
# Velocity P-wave (km/s) = 5.75726 5.62595 5.69198
#
# Compressibility (1/GPa) = 0.04516863
#
# Stress axis : x y z
#
# Youngs Moduli (GPa) = 43.76145 104.70119 114.81988
#
# Poissons Ratio (x) = -0.15904 -0.06602
# Poissons Ratio (y) = -0.06647 0.00751
# Poissons Ratio (z) = -0.02516 0.00685
#
# Static dielectric constant tensor:
#      x y z
#    x 1.907290 0.000000 0.006840 
#    y 0.000000 1.852280 0.000000 
#    z 0.006840 0.000000 1.827330 
# 
# From -- ./inp_files/274930.got.cif
#   From: 2010.05.17/outbox.cif.g08.bks.cpg/sg12_138_cif.got.tgz:274930.got - 2010.06.03 13:09:07.
