data_PCOD9176778
_publ_section_title
;
Structure prediction by ZEFSAII (Michael W. Deem and Ramdas Pophale) SiO2 
 PCOD9176778
Probable space group: C 2/M
;
_chemical_formula_sum "Si O2"
_cell_formula_units_Z 48
_cell_length_a 19.394851
_cell_length_b 19.618990
_cell_length_c 8.246830
_cell_angle_alpha 90.000000
_cell_angle_beta 40.286723
_cell_angle_gamma 90.000000
_cell_volume 2029.058592
_symmetry_space_group_name_H-M "C 2/M"
_symmetry_group_IT_number 12
_symmetry_cell_setting 'monoclinic'
loop_
_space_group_symop_operation_xyz
x,y,z
-x,y,-z
-x,-y,-z
x,-y,z
1/2+x,1/2+y,z
1/2-x,1/2+y,-z
1/2-x,1/2-y,-z
1/2+x,1/2-y,z
loop_
_atom_site_type_symbol
_atom_site_label
_atom_site_fract_x
_atom_site_fract_y
_atom_site_fract_z
Si Si1 0.834358 0.919078 0.857699
Si Si2 0.709532 0.358191 0.546270
Si Si3 0.293291 0.770398 0.667525
Si Si4 0.136105 0.680194 0.152316
Si Si5 0.584360 0.920917 0.993725
Si Si6 0.025446 0.079178 0.723450
O O1 0.897159 0.913049 0.574185
O O2 0.913953 0.892848 0.855558
O O3 0.810893 0.000000 0.922255
O O4 0.730271 0.873243 0.031568
O O5 0.677397 0.288256 0.512233
O O6 0.762777 0.335977 0.617982
O O7 0.800320 0.399201 0.284848
O O8 0.598794 0.397611 0.740686
O O9 0.383382 0.783416 0.641044
O O10 0.190504 0.737668 0.942043
O O11 0.060393 0.632444 0.180718
O O12 0.586546 0.000000 0.042609
O O13 0.500000 0.914285 0.000000
O O14 0.005367 0.000000 0.780331
#
# Coordination Sequence:
#
# PCOD9176778 Si02
#       6
#     8   8   8   8   8   8
#     4   9  16  28  51  79 100 126 163 199 244 300
#     4  10  18  36  53  73 107 131 169 209 254 295
#     4   9  20  33  53  76 100 140 169 204 246 311
#     4  10  18  36  53  73 107 131 169 209 254 295
#     4  10  20  35  56  75  95 133 178 218 262 303
#     4   9  16  28  51  79 100 126 163 199 244 300
#
# _framework density 23.656289999999998
#
# number of rings (size 3 to 8) (size 9 to 14) (size 15 to 20)
#    0.000    2.500    3.333    2.000    0.000    0.000 
#    0.000   21.667    0.000    4.000    0.000    0.000 
#    0.000    0.000    0.000    0.000    0.000    0.000 
#
# Total GULP energy -134030.942251 kJ/mol
# GULP energy per Si atom -5584.622594 kJ/mol
# Density = 2.360245 g / cm^3
# Si number density = 23.656290 Si / 1000 Ang^3
#
#
#
# Elastic Constant Matrix: (Units=GPa)
#
#
# Indices 1 2 3 4 5 6 
#
# 1 126.8423 25.5319 -2.3794 0.0000 10.8098 0.0000
# 2 25.5319 67.5468 4.1385 0.0000 1.0202 0.0000
# 3 -2.3794 4.1385 32.9938 0.0000 -4.2807 0.0000
# 4 0.0000 0.0000 0.0000 15.4586 0.0000 4.9608
# 5 10.8098 1.0202 -4.2807 0.0000 37.0479 0.0000
# 6 0.0000 0.0000 0.0000 4.9608 0.0000 50.9240
#
#
#
# Elastic Compliance Matrix: (Units=1/GPa)
#
#
# Indices 1 2 3 4 5 6 
#
# 1 0.008770 -0.003324 0.000740 0.000000 -0.002382 0.000000
# 2 -0.003324 0.016194 -0.002237 0.000000 0.000266 0.000000
# 3 0.000740 -0.002237 0.031089 0.000000 0.003438 0.000000
# 4 0.000000 0.000000 0.000000 0.066776 0.000000 -0.006505
# 5 -0.002382 0.000266 0.003438 0.000000 0.028077 0.000000
# 6 0.000000 0.000000 0.000000 -0.006505 0.000000 0.020271
#
#
# Mechanical properties :
#
#
# Convention : Reuss Voigt Hill
#
# Bulk Modulus (GPa) = 21.54624 31.32941 26.43783
# Shear Modulus (GPa) = 25.47275 34.02556 29.74916
#
# Velocity S-wave (km/s) = 3.28500 3.79665 3.55005
# Velocity P-wave (km/s) = 4.84934 5.70015 5.29187
#
# Compressibility (1/GPa) = 0.04641180
#
# Stress axis : x y z
#
# Youngs Moduli (GPa) = 114.02753 61.75082 32.16601
#
# Poissons Ratio (x) = 0.20528 -0.02382
# Poissons Ratio (y) = 0.37906 0.07194
# Poissons Ratio (z) = -0.08443 0.13811
#
# Static dielectric constant tensor:
#      x y z
#    x 1.988210 0.000000 0.039070 
#    y 0.000000 1.872790 0.000000 
#    z 0.039070 0.000000 1.976800 
# 
# From -- ./inp_files/77265.got.cif
#   From: 2010.05.17/outbox.cif.g08.bks.cpg/sg12_39_cif.got.tgz:77265.got - 2010.06.03 13:09:07.
