data_PCOD9176567
_publ_section_title
;
Structure prediction by ZEFSAII (Michael W. Deem and Ramdas Pophale) SiO2 
 PCOD9176567
Probable space group: C 2/M
;
_chemical_formula_sum "Si O2"
_cell_formula_units_Z 64
_cell_length_a 28.652543
_cell_length_b 16.017511
_cell_length_c 9.359024
_cell_angle_alpha 90.000000
_cell_angle_beta 125.198264
_cell_angle_gamma 90.000000
_cell_volume 3509.919214
_symmetry_space_group_name_H-M "C 2/M"
_symmetry_group_IT_number 12
_symmetry_cell_setting 'monoclinic'
loop_
_space_group_symop_operation_xyz
x,y,z
-x,y,-z
-x,-y,-z
x,-y,z
1/2+x,1/2+y,z
1/2-x,1/2+y,-z
1/2-x,1/2-y,-z
1/2+x,1/2-y,z
loop_
_atom_site_type_symbol
_atom_site_label
_atom_site_fract_x
_atom_site_fract_y
_atom_site_fract_z
Si Si1 0.342524 0.801357 0.696524
Si Si2 0.291979 0.285771 0.879923
Si Si3 0.649913 0.376367 0.443442
Si Si4 0.834104 0.216527 0.267995
Si Si5 0.020602 0.905829 0.198371
Si Si6 0.755332 0.088955 0.605759
Si Si7 0.963881 0.259682 0.582040
Si Si8 0.451175 0.097225 0.794324
O O1 0.321552 0.776398 0.817899
O O2 0.355579 0.716284 0.635432
O O3 0.290040 0.843556 0.523290
O O4 0.395286 0.863431 0.771511
O O5 0.225600 0.261334 0.792198
O O6 0.289117 0.375489 0.799904
O O7 0.327377 0.289914 0.087231
O O8 0.665493 0.367477 0.636887
O O9 0.588667 0.414606 0.313778
O O10 0.700339 0.416057 0.444572
O O11 0.896405 0.253545 0.418670
O O12 0.014780 0.825187 0.295098
O O13 0.997547 0.000000 0.196935
O O14 0.000000 0.886130 0.000000
O O15 0.728120 0.000000 0.586860
O O16 0.967572 0.339541 0.694290
O O17 0.000000 0.268106 0.500000
O O18 0.557673 0.000000 0.265471
O O19 0.500000 0.098441 0.000000
#
# Coordination Sequence:
#
# PCOD9176567 Si02
#       8
#     8   8   8   8   8   8   8   8
#     4  11  19  36  62  87 112 151 200 245 296 355
#     4  10  20  34  61  83 115 152 193 246 291 364
#     4  10  18  35  57  84 113 151 192 237 293 353
#     4  10  19  37  57  84 114 152 197 235 300 359
#     4  10  21  38  61  88 118 155 202 250 298 356
#     4  11  20  33  54  86 117 150 192 239 293 349
#     4  11  24  39  62  88 120 167 202 248 309 366
#     4  11  24  41  63  90 121 157 207 259 301 357
#
# _framework density 18.234038000000002
#
# number of rings (size 3 to 8) (size 9 to 14) (size 15 to 20)
#    0.000    1.500    5.000    1.875    1.750    1.500 
#    0.000    3.125    0.000    0.000    0.000    0.000 
#    0.000    0.000    0.000    0.000    0.000    0.000 
#
# Total GULP energy -178165.934664 kJ/mol
# GULP energy per Si atom -5567.685458 kJ/mol
# Density = 1.819254 g / cm^3
# Si number density = 18.234038 Si / 1000 Ang^3
#
#
#
# Elastic Constant Matrix: (Units=GPa)
#
#
# Indices 1 2 3 4 5 6 
#
# 1 92.1808 37.9007 38.4731 0.0000 -19.2471 0.0000
# 2 37.9007 132.6434 53.8517 0.0000 -18.2862 0.0000
# 3 38.4731 53.8517 136.2038 0.0000 -25.5730 0.0000
# 4 0.0000 0.0000 0.0000 179.2754 0.0000 -47.9376
# 5 -19.2471 -18.2862 -25.5730 0.0000 28.2693 0.0000
# 6 0.0000 0.0000 0.0000 -47.9376 0.0000 25.7663
#
#
#
# Elastic Compliance Matrix: (Units=1/GPa)
#
#
# Indices 1 2 3 4 5 6 
#
# 1 0.013889 -0.002368 -0.001806 0.000000 0.006291 0.000000
# 2 -0.002368 0.009620 -0.002733 0.000000 0.002138 0.000000
# 3 -0.001806 -0.002733 0.010082 0.000000 0.006123 0.000000
# 4 0.000000 0.000000 0.000000 0.011100 0.000000 0.020652
# 5 0.006291 0.002138 0.006123 0.000000 0.046579 0.000000
# 6 0.000000 0.000000 0.000000 0.020652 0.000000 0.077232
#
#
# Mechanical properties :
#
#
# Convention : Reuss Voigt Hill
#
# Bulk Modulus (GPa) = 50.56312 69.05321 59.80816
# Shear Modulus (GPa) = 26.46761 62.04904 44.25833
#
# Velocity S-wave (km/s) = 3.81405 5.83979 4.93204
# Velocity P-wave (km/s) = 6.86923 9.13365 8.08114
#
# Compressibility (1/GPa) = 0.01977726
#
# Stress axis : x y z
#
# Youngs Moduli (GPa) = 71.99866 103.94937 99.18369
#
# Poissons Ratio (x) = 0.24618 0.17910
# Poissons Ratio (y) = 0.17051 0.27109
# Poissons Ratio (z) = 0.13001 0.28411
#
# Static dielectric constant tensor:
#      x y z
#    x 1.643140 0.000000 -0.001760 
#    y 0.000000 1.658440 0.000000 
#    z -0.001760 0.000000 1.623830 
# 
# From -- ./inp_files/112030.got.cif
#   From: 2010.05.17/outbox.cif.g08.bks.cpg/sg12_57_cif.got.tgz:112030.got - 2010.06.03 13:09:07.
