data_PCOD9176159
_publ_section_title
;
Structure prediction by ZEFSAII (Michael W. Deem and Ramdas Pophale) SiO2 
 PCOD9176159
Probable space group: C 2/M
;
_chemical_formula_sum "Si O2"
_cell_formula_units_Z 56
_cell_length_a 15.108668
_cell_length_b 18.781345
_cell_length_c 18.499780
_cell_angle_alpha 90.000000
_cell_angle_beta 27.806252
_cell_angle_gamma 90.000000
_cell_volume 2448.811769
_symmetry_space_group_name_H-M "C 2/M"
_symmetry_group_IT_number 12
_symmetry_cell_setting 'monoclinic'
loop_
_space_group_symop_operation_xyz
x,y,z
-x,y,-z
-x,-y,-z
x,-y,z
1/2+x,1/2+y,z
1/2-x,1/2+y,-z
1/2-x,1/2-y,-z
1/2+x,1/2-y,z
loop_
_atom_site_type_symbol
_atom_site_label
_atom_site_fract_x
_atom_site_fract_y
_atom_site_fract_z
Si Si1 0.251192 0.689277 0.252528
Si Si2 0.233148 0.916229 0.628187
Si Si3 0.191183 0.788632 0.944277
Si Si4 0.580645 0.919185 0.821176
Si Si5 0.588199 0.338833 0.360929
Si Si6 0.246287 0.584902 0.543789
Si Si7 0.688572 0.359901 0.096539
O O1 0.214100 0.631115 0.340566
O O2 0.268198 0.666158 0.156825
O O3 0.105340 0.754337 0.355486
O O4 0.463135 0.720943 0.115168
O O5 0.334568 0.898629 0.478055
O O6 0.256317 0.000000 0.626518
O O7 0.011757 0.897756 0.771782
O O8 0.247538 0.828843 0.975529
O O9 0.295704 0.712100 0.866447
O O10 0.702306 0.871173 0.787541
O O11 0.626482 0.900445 0.703255
O O12 0.358332 0.911140 0.996066
O O13 0.643266 0.000000 0.785811
O O14 0.500000 0.366386 0.500000
O O15 0.440308 0.370500 0.411480
O O16 0.286242 0.500000 0.514314
#
# Coordination Sequence:
#
# PCOD9176159 Si02
#       7
#     8   8   8   8   8   8   8
#     4  10  19  36  54  78 107 146 181 227 275 325
#     4  10  21  37  57  80 109 148 191 230 272 327
#     4   9  19  33  56  78 108 141 177 224 285 317
#     4  10  19  33  55  84 115 143 176 224 280 335
#     4  10  19  34  53  81 109 143 183 221 273 334
#     4   9  19  36  56  80 114 150 180 222 279 330
#     4  10  18  34  56  83 108 139 182 229 269 329
#
# _framework density 22.868234999999999
#
# number of rings (size 3 to 8) (size 9 to 14) (size 15 to 20)
#    0.000    2.286    1.429    1.714    0.000    1.714 
#    2.571    7.857    0.000    3.857    0.000    0.000 
#    0.000    0.000    0.000    0.000    0.000    0.000 
#
# Total GULP energy -156272.541138 kJ/mol
# GULP energy per Si atom -5581.162184 kJ/mol
# Density = 2.281619 g / cm^3
# Si number density = 22.868235 Si / 1000 Ang^3
#
#
#
# Elastic Constant Matrix: (Units=GPa)
#
#
# Indices 1 2 3 4 5 6 
#
# 1 104.2825 52.5851 28.5409 -0.0016 38.2098 0.0058
# 2 52.5851 77.6115 22.2293 -0.0512 12.6637 0.0189
# 3 28.5409 22.2293 56.4641 -0.0615 -1.8487 0.0173
# 4 -0.0016 -0.0512 -0.0615 17.6077 0.0094 5.0486
# 5 38.2098 12.6637 -1.8487 0.0094 39.4411 0.0030
# 6 0.0058 0.0189 0.0173 5.0486 0.0030 28.3527
#
#
#
# Elastic Compliance Matrix: (Units=1/GPa)
#
#
# Indices 1 2 3 4 5 6 
#
# 1 0.025825 -0.011260 -0.009336 -0.000057 -0.021841 0.000020
# 2 -0.011260 0.020460 -0.002225 0.000054 0.004235 -0.000020
# 3 -0.009336 -0.002225 0.023661 0.000077 0.010868 -0.000026
# 4 -0.000057 0.000054 0.000077 0.059849 0.000028 -0.010657
# 5 -0.021841 0.004235 0.010868 0.000028 0.045663 -0.000015
# 6 0.000020 -0.000020 -0.000026 -0.010657 -0.000015 0.037168
#
#
# Mechanical properties :
#
#
# Convention : Reuss Voigt Hill
#
# Bulk Modulus (GPa) = 41.14363 49.45208 45.29785
# Shear Modulus (GPa) = 18.77091 26.08048 22.42570
#
# Velocity S-wave (km/s) = 2.86812 3.38074 3.13493
# Velocity P-wave (km/s) = 5.38505 6.07544 5.74064
#
# Compressibility (1/GPa) = 0.02430510
#
# Stress axis : x y z
#
# Youngs Moduli (GPa) = 38.72198 48.87597 42.26322
#
# Poissons Ratio (x) = 0.55034 0.39457
# Poissons Ratio (y) = 0.43600 0.09402
# Poissons Ratio (z) = 0.36151 0.10873
#
# Static dielectric constant tensor:
#      x y z
#    x 1.875610 0.000000 0.040990 
#    y 0.000000 1.786490 0.000010 
#    z 0.040990 0.000010 1.926470 
# 
# From -- ./inp_files/317151.got.cif
#   From: 2010.05.17/outbox.cif.g08.bks.cpg/sg12_159_cif.got.tgz:317151.got - 2010.06.03 13:09:07.
