data_PCOD9176104
_publ_section_title
;
Structure prediction by ZEFSAII (Michael W. Deem and Ramdas Pophale) SiO2 
 PCOD9176104
Probable space group: C 2/M
;
_chemical_formula_sum "Si O2"
_cell_formula_units_Z 56
_cell_length_a 8.899641
_cell_length_b 19.413515
_cell_length_c 24.654866
_cell_angle_alpha 90.000000
_cell_angle_beta 47.744570
_cell_angle_gamma 90.000000
_cell_volume 3152.837862
_symmetry_space_group_name_H-M "C 2/M"
_symmetry_group_IT_number 12
_symmetry_cell_setting 'monoclinic'
loop_
_space_group_symop_operation_xyz
x,y,z
-x,y,-z
-x,-y,-z
x,-y,z
1/2+x,1/2+y,z
1/2-x,1/2+y,-z
1/2-x,1/2-y,-z
1/2+x,1/2-y,z
loop_
_atom_site_type_symbol
_atom_site_label
_atom_site_fract_x
_atom_site_fract_y
_atom_site_fract_z
Si Si1 0.448804 0.077269 0.753171
Si Si2 0.613023 0.800625 0.650147
Si Si3 0.661954 0.419669 0.009663
Si Si4 0.562590 0.332756 0.850992
Si Si5 0.920670 0.577671 0.153793
Si Si6 0.025683 0.717078 0.552025
Si Si7 0.346846 0.288117 0.795984
O O1 0.599349 0.130512 0.688443
O O2 0.225102 0.107641 0.799095
O O3 0.489344 0.077469 0.807463
O O4 0.469063 0.000000 0.727786
O O5 0.519349 0.816206 0.613365
O O6 0.475018 0.743373 0.714649
O O7 0.842143 0.772121 0.593540
O O8 0.639933 0.500000 0.032140
O O9 0.607789 0.367208 0.070516
O O10 0.500000 0.409316 0.000000
O O11 0.888755 0.410286 0.932179
O O12 0.486367 0.300335 0.813861
O O13 0.683771 0.270918 0.850398
O O14 0.839487 0.500000 0.162764
O O15 0.761844 0.639536 0.189211
O O16 0.250000 0.750000 0.500000
O O17 0.000000 0.678389 0.500000
#
# Coordination Sequence:
#
# PCOD9176104 Si02
#       7
#     8   8   8   8   8   8   8
#     4  10  19  34  57  81 107 146 187 222 274 334
#     4  10  18  34  55  80 114 139 172 223 267 316
#     4  10  20  37  58  74 100 146 191 234 283 331
#     4  11  22  36  54  77 108 142 188 235 280 332
#     4  10  21  37  55  77 107 143 188 235 279 331
#     4   9  18  32  56  84 107 138 175 212 256 315
#     4  11  23  37  54  83 111 142 178 231 285 323
#
# _framework density 17.761775
#
# number of rings (size 3 to 8) (size 9 to 14) (size 15 to 20)
#    0.000    1.857    1.429    4.714    0.000    2.286 
#    0.000    1.429    0.000    4.286    0.000    4.000 
#    0.000    0.000    0.000    0.000    0.000    0.000 
#
# Total GULP energy -156094.411685 kJ/mol
# GULP energy per Si atom -5574.800417 kJ/mol
# Density = 1.772135 g / cm^3
# Si number density = 17.761775 Si / 1000 Ang^3
#
#
#
# Elastic Constant Matrix: (Units=GPa)
#
#
# Indices 1 2 3 4 5 6 
#
# 1 45.8268 13.9176 10.6977 -0.0007 -8.0960 0.0017
# 2 13.9176 92.3063 40.4815 0.0004 -20.6603 0.0003
# 3 10.6977 40.4815 77.4983 -0.0007 -0.0455 0.0022
# 4 -0.0007 0.0004 -0.0007 3.4716 0.0001 5.4041
# 5 -8.0960 -20.6603 -0.0455 0.0001 22.3416 0.0000
# 6 0.0017 0.0003 0.0022 5.4041 0.0000 20.3997
#
#
#
# Elastic Compliance Matrix: (Units=1/GPa)
#
#
# Indices 1 2 3 4 5 6 
#
# 1 0.024151 -0.000397 -0.003121 0.000011 0.008378 -0.000005
# 2 -0.000397 0.019201 -0.009964 -0.000010 0.017592 0.000003
# 3 -0.003121 -0.009964 0.018533 0.000012 -0.010308 -0.000005
# 4 0.000011 -0.000010 0.000012 0.490188 -0.000007 -0.129856
# 5 0.008378 0.017592 -0.010308 -0.000007 0.064042 0.000002
# 6 -0.000005 0.000003 -0.000005 -0.129856 0.000002 0.083421
#
#
# Mechanical properties :
#
#
# Convention : Reuss Voigt Hill
#
# Bulk Modulus (GPa) = 28.63798 38.42499 33.53149
# Shear Modulus (GPa) = 6.77378 19.27822 13.02600
#
# Velocity S-wave (km/s) = 1.95498 3.29808 2.71102
# Velocity P-wave (km/s) = 4.61024 6.01528 5.35901
#
# Compressibility (1/GPa) = 0.03491867
#
# Stress axis : x y z
#
# Youngs Moduli (GPa) = 41.40675 52.08125 53.95710
#
# Poissons Ratio (x) = 0.02070 0.16841
# Poissons Ratio (y) = 0.01645 0.53765
# Poissons Ratio (z) = 0.12924 0.51896
#
# Static dielectric constant tensor:
#      x y z
#    x 1.624950 0.000000 0.014100 
#    y 0.000000 1.591810 0.000000 
#    z 0.014100 0.000000 1.645920 
# 
# From -- ./inp_files/256984.got.cif
#   From: 2010.05.17/outbox.cif.g08.bks.cpg/sg12_129_cif.got.tgz:256984.got - 2010.06.03 13:09:07.
