data_PCOD9176279
_publ_section_title
;
Structure prediction by ZEFSAII (Michael W. Deem and Ramdas Pophale) SiO2 
 PCOD9176279
Probable space group: C 2/M
;
_chemical_formula_sum "Si O2"
_cell_formula_units_Z 64
_cell_length_a 17.809612
_cell_length_b 22.884435
_cell_length_c 15.815956
_cell_angle_alpha 90.000000
_cell_angle_beta 150.700571
_cell_angle_gamma 90.000000
_cell_volume 3154.501806
_symmetry_space_group_name_H-M "C 2/M"
_symmetry_group_IT_number 12
_symmetry_cell_setting 'monoclinic'
loop_
_space_group_symop_operation_xyz
x,y,z
-x,y,-z
-x,-y,-z
x,-y,z
1/2+x,1/2+y,z
1/2-x,1/2+y,-z
1/2-x,1/2-y,-z
1/2+x,1/2-y,z
loop_
_atom_site_type_symbol
_atom_site_label
_atom_site_fract_x
_atom_site_fract_y
_atom_site_fract_z
Si Si1 0.679501 0.429977 0.188029
Si Si2 0.265863 0.568367 0.943757
Si Si3 0.109360 0.109181 0.290203
Si Si4 0.122619 0.342206 0.939986
Si Si5 0.928754 0.765833 0.680495
Si Si6 0.080612 0.435550 0.168692
Si Si7 0.577271 0.324905 0.666620
Si Si8 0.897786 0.933264 0.538002
O O1 0.684953 0.500000 0.201761
O O2 0.768297 0.415939 0.188495
O O3 0.717390 0.402680 0.316222
O O4 0.500000 0.412683 0.000000
O O5 0.222164 0.500000 0.916918
O O6 0.203030 0.616832 0.947121
O O7 0.451602 0.572179 0.129906
O O8 0.062426 0.176725 0.251693
O O9 0.174677 0.088837 0.444584
O O10 0.995895 0.384071 0.855520
O O11 0.036979 0.286135 0.818039
O O12 0.244234 0.321429 0.131473
O O13 0.750000 0.750000 0.500000
O O14 0.987949 0.785816 0.647197
O O15 0.062314 0.500000 0.191555
O O16 0.261999 0.426663 0.337377
O O17 0.000000 0.437221 0.000000
O O18 0.500000 0.312587 0.500000
O O19 0.534796 0.391662 0.647887
O O20 0.945077 0.000000 0.590983
#
# Coordination Sequence:
#
# PCOD9176279 Si02
#       8
#     8   8   8   8   8   8   8   8
#     4   8  15  29  52  86 125 152 189 245 299 370
#     4  10  19  33  58  95 128 156 197 253 317 376
#     4  10  18  34  58  85 121 161 207 249 306 364
#     4  12  22  39  68  87 127 162 207 256 319 368
#     4  11  25  45  62  84 121 169 218 260 299 377
#     4  10  22  39  59  88 122 161 206 249 303 375
#     4  11  24  41  61  91 125 156 202 263 318 362
#     4  10  19  34  59  87 123 163 203 248 310 378
#
# _framework density 20.288464000000001
#
# number of rings (size 3 to 8) (size 9 to 14) (size 15 to 20)
#    0.000    1.750    2.500    4.875    0.000    0.750 
#    2.250    3.125    0.000    0.000    0.000    5.250 
#    0.000    0.000    0.000    0.000    0.000    0.000 
#
# Total GULP energy -178463.114278 kJ/mol
# GULP energy per Si atom -5576.972321 kJ/mol
# Density = 2.024229 g / cm^3
# Si number density = 20.288464 Si / 1000 Ang^3
#
#
#
# Elastic Constant Matrix: (Units=GPa)
#
#
# Indices 1 2 3 4 5 6 
#
# 1 42.9213 32.3956 22.3028 0.0000 -15.6170 0.0000
# 2 32.3956 106.3147 42.6125 0.0000 -1.5863 0.0000
# 3 22.3028 42.6125 93.0403 0.0000 -7.6579 0.0000
# 4 0.0000 0.0000 0.0000 24.7485 0.0000 6.1063
# 5 -15.6170 -1.5863 -7.6579 0.0000 29.0345 0.0000
# 6 0.0000 0.0000 0.0000 6.1063 0.0000 19.4519
#
#
#
# Elastic Compliance Matrix: (Units=1/GPa)
#
#
# Indices 1 2 3 4 5 6 
#
# 1 0.040445 -0.010786 -0.003080 0.000000 0.020353 0.000000
# 2 -0.010786 0.014415 -0.004527 0.000000 -0.006208 0.000000
# 3 -0.003080 -0.004527 0.013701 0.000000 0.001710 0.000000
# 4 0.000000 0.000000 0.000000 0.043799 0.000000 -0.013749
# 5 0.020353 -0.006208 0.001710 0.000000 0.045501 0.000000
# 6 0.000000 0.000000 0.000000 -0.013749 0.000000 0.055725
#
#
# Mechanical properties :
#
#
# Convention : Reuss Voigt Hill
#
# Bulk Modulus (GPa) = 31.47248 48.54424 40.00836
# Shear Modulus (GPa) = 19.15975 24.31134 21.73555
#
# Velocity S-wave (km/s) = 3.07639 3.46538 3.27666
# Velocity P-wave (km/s) = 5.30708 6.32382 5.83763
#
# Compressibility (1/GPa) = 0.03177379
#
# Stress axis : x y z
#
# Youngs Moduli (GPa) = 24.72469 69.37353 72.98957
#
# Poissons Ratio (x) = 0.74827 0.22481
# Poissons Ratio (y) = 0.26668 0.33045
# Poissons Ratio (z) = 0.07615 0.31408
#
# Static dielectric constant tensor:
#      x y z
#    x 1.770540 0.000000 -0.046550 
#    y 0.000000 1.720860 0.000000 
#    z -0.046550 0.000000 1.786400 
# 
# From -- ./inp_files/228166.got.cif
#   From: 2010.05.17/outbox.cif.g08.bks.cpg/sg12_115_cif.got.tgz:228166.got - 2010.06.03 13:09:07.
