data_PCOD9176547
_publ_section_title
;
Structure prediction by ZEFSAII (Michael W. Deem and Ramdas Pophale) SiO2 
 PCOD9176547
Probable space group: C 2/M
;
_chemical_formula_sum "Si O2"
_cell_formula_units_Z 48
_cell_length_a 16.892880
_cell_length_b 30.077730
_cell_length_c 15.914059
_cell_angle_alpha 90.000000
_cell_angle_beta 162.432037
_cell_angle_gamma 90.000000
_cell_volume 2440.630308
_symmetry_space_group_name_H-M "C 2/M"
_symmetry_group_IT_number 12
_symmetry_cell_setting 'monoclinic'
loop_
_space_group_symop_operation_xyz
x,y,z
-x,y,-z
-x,-y,-z
x,-y,z
1/2+x,1/2+y,z
1/2-x,1/2+y,-z
1/2-x,1/2-y,-z
1/2+x,1/2-y,z
loop_
_atom_site_type_symbol
_atom_site_label
_atom_site_fract_x
_atom_site_fract_y
_atom_site_fract_z
Si Si1 0.088271 0.141556 0.493578
Si Si2 0.676744 0.181603 0.866320
Si Si3 0.057434 0.389597 0.868678
Si Si4 0.422187 0.602011 0.017520
Si Si5 0.943385 0.767744 0.623407
Si Si6 0.063211 0.447606 0.400128
O O1 0.000000 0.138250 0.500000
O O2 0.349268 0.115263 0.731976
O O3 0.147477 0.193438 0.530758
O O4 0.848153 0.121611 0.195324
O O5 0.489890 0.148203 0.729360
O O6 0.541371 0.222022 0.679966
O O7 0.858173 0.149510 0.995102
O O8 0.833388 0.207017 0.097730
O O9 0.032622 0.434547 0.790720
O O10 0.659180 0.576116 0.302276
O O11 0.500000 0.607418 0.000000
O O12 0.157640 0.573309 0.762406
O O13 0.750000 0.750000 0.500000
O O14 0.085260 0.500000 0.434144
#
# Coordination Sequence:
#
# PCOD9176547 Si02
#       6
#     8   8   8   8   8   8
#     4  11  22  37  58  89 120 154 197 248 302 349
#     4   9  20  35  55  80 113 162 202 238 287 345
#     4  10  20  39  61  81 116 153 198 245 295 358
#     4  11  24  40  58  91 130 160 195 247 311 358
#     4  10  18  35  56  80 114 158 206 248 278 339
#     4  11  23  41  67  91 113 156 208 246 297 374
#
# _framework density 19.66705
#
# number of rings (size 3 to 8) (size 9 to 14) (size 15 to 20)
#    0.000    1.667    1.667    4.500    2.333    2.000 
#    3.000    0.000    0.000    3.000    0.000    0.000 
#    0.000    0.000    0.000    0.000    0.000    0.000 
#
# Total GULP energy -133861.446495 kJ/mol
# GULP energy per Si atom -5577.560271 kJ/mol
# Density = 1.962229 g / cm^3
# Si number density = 19.667050 Si / 1000 Ang^3
#
#
#
# Elastic Constant Matrix: (Units=GPa)
#
#
# Indices 1 2 3 4 5 6 
#
# 1 91.3930 29.3681 -0.3781 0.0011 22.1422 0.0008
# 2 29.3681 114.2867 25.3758 0.0005 9.3457 0.0001
# 3 -0.3781 25.3758 63.6488 0.0041 19.7903 0.0048
# 4 0.0011 0.0005 0.0041 20.5919 0.0017 1.7878
# 5 22.1422 9.3457 19.7903 0.0017 32.8410 0.0006
# 6 0.0008 0.0001 0.0048 1.7878 0.0006 13.9066
#
#
#
# Elastic Compliance Matrix: (Units=1/GPa)
#
#
# Indices 1 2 3 4 5 6 
#
# 1 0.015355 -0.004175 0.005667 -0.000001 -0.012579 -0.000002
# 2 -0.004175 0.010742 -0.005208 0.000001 0.002897 0.000002
# 3 0.005667 -0.005208 0.022825 -0.000003 -0.016093 -0.000007
# 4 -0.000001 0.000001 -0.000003 0.049111 0.000000 -0.006314
# 5 -0.012579 0.002897 -0.016093 0.000000 0.047805 0.000004
# 6 -0.000002 0.000002 -0.000007 -0.006314 0.000004 0.072720
#
#
# Mechanical properties :
#
#
# Convention : Reuss Voigt Hill
#
# Bulk Modulus (GPa) = 24.10260 42.00666 33.05463
# Shear Modulus (GPa) = 20.84893 27.79876 24.32384
#
# Velocity S-wave (km/s) = 3.25944 3.76369 3.52061
# Velocity P-wave (km/s) = 5.14268 6.34763 5.77666
#
# Compressibility (1/GPa) = 0.04148930
#
# Stress axis : x y z
#
# Youngs Moduli (GPa) = 65.12745 93.08917 43.81109
#
# Poissons Ratio (x) = 0.38867 -0.24828
# Poissons Ratio (y) = 0.27192 0.22818
# Poissons Ratio (z) = -0.36908 0.48483
#
# Static dielectric constant tensor:
#      x y z
#    x 1.691180 0.000000 0.000700 
#    y 0.000000 1.754120 0.000020 
#    z 0.000700 0.000020 1.765390 
# 
# From -- ./inp_files/219605.got.cif
#   From: 2010.05.17/outbox.cif.g08.bks.cpg/sg12_110_cif.got.tgz:219605.got - 2010.06.03 13:09:07.
