data_PCOD9176590
_publ_section_title
;
Structure prediction by ZEFSAII (Michael W. Deem and Ramdas Pophale) SiO2 
 PCOD9176590
Probable space group: C 2/M
;
_chemical_formula_sum "Si O2"
_cell_formula_units_Z 64
_cell_length_a 26.197588
_cell_length_b 18.602773
_cell_length_c 17.915788
_cell_angle_alpha 90.000000
_cell_angle_beta 21.712177
_cell_angle_gamma 90.000000
_cell_volume 3230.064176
_symmetry_space_group_name_H-M "C 2/M"
_symmetry_group_IT_number 12
_symmetry_cell_setting 'monoclinic'
loop_
_space_group_symop_operation_xyz
x,y,z
-x,y,-z
-x,-y,-z
x,-y,z
1/2+x,1/2+y,z
1/2-x,1/2+y,-z
1/2-x,1/2-y,-z
1/2+x,1/2-y,z
loop_
_atom_site_type_symbol
_atom_site_label
_atom_site_fract_x
_atom_site_fract_y
_atom_site_fract_z
Si Si1 0.695150 0.416641 0.986986
Si Si2 0.820331 0.851838 0.831243
Si Si3 0.113828 0.131495 0.625940
Si Si4 0.117737 0.189393 0.466249
Si Si5 0.236948 0.284780 0.191304
Si Si6 0.414087 0.115059 0.191001
Si Si7 0.030484 0.218071 0.874467
Si Si8 0.187460 0.579457 0.873506
O O1 0.732707 0.500000 0.937459
O O2 0.772883 0.365909 0.822552
O O3 0.722708 0.377289 0.028470
O O4 0.530370 0.410322 0.190902
O O5 0.777976 0.773275 0.855887
O O6 0.762298 0.906764 0.849741
O O7 0.985506 0.850515 0.612498
O O8 0.104458 0.192283 0.572983
O O9 0.257362 0.090478 0.415017
O O10 0.118717 0.166313 0.701313
O O11 0.134079 0.261657 0.397015
O O12 0.249197 0.140188 0.266827
O O13 0.387830 0.275604 0.022657
O O14 0.408599 0.202016 0.200010
O O15 0.500000 0.092527 0.000000
O O16 0.523795 0.090557 0.104004
O O17 0.000000 0.191606 0.000000
O O18 0.217570 0.500000 0.804300
#
# Coordination Sequence:
#
# PCOD9176590 Si02
#       8
#     8   8   8   8   8   8   8   8
#     4  10  22  37  58  85 116 155 199 248 295 349
#     4  10  20  36  57  82 115 151 195 247 293 343
#     4  10  21  35  57  87 115 153 195 243 291 349
#     4  10  19  36  56  83 116 147 193 241 292 347
#     4  10  18  35  58  83 116 150 195 245 294 347
#     4  11  19  35  50  76 120 154 188 233 284 357
#     4  10  19  34  60  85 117 144 193 249 295 338
#     4  11  21  32  51  78 116 161 187 227 295 356
#
# _framework density 19.813848
#
# number of rings (size 3 to 8) (size 9 to 14) (size 15 to 20)
#    0.000    1.750    3.750    3.375    0.000    3.750 
#    0.000    0.000    2.750    7.500    0.000    4.375 
#    0.000    0.000    0.000    0.000    0.000    0.000 
#
# Total GULP energy -178386.078280 kJ/mol
# GULP energy per Si atom -5574.564946 kJ/mol
# Density = 1.976875 g / cm^3
# Si number density = 19.813848 Si / 1000 Ang^3
#
#
#
# Elastic Constant Matrix: (Units=GPa)
#
#
# Indices 1 2 3 4 5 6 
#
# 1 87.3082 27.9918 36.8856 0.0004 3.1377 -0.0002
# 2 27.9918 87.8556 20.8062 0.0004 18.6196 -0.0002
# 3 36.8856 20.8062 51.8219 0.0007 5.9046 -0.0004
# 4 0.0004 0.0004 0.0007 5.7816 -0.0004 -0.6717
# 5 3.1377 18.6196 5.9046 -0.0004 34.2551 0.0003
# 6 -0.0002 -0.0002 -0.0004 -0.6717 0.0003 9.6531
#
#
#
# Elastic Compliance Matrix: (Units=1/GPa)
#
#
# Indices 1 2 3 4 5 6 
#
# 1 0.017123 -0.003274 -0.011116 0.000001 0.002127 0.000000
# 2 -0.003274 0.014585 -0.002709 -0.000001 -0.007161 0.000000
# 3 -0.011116 -0.002709 0.028574 -0.000003 -0.002434 0.000001
# 4 0.000001 -0.000001 -0.000003 0.174373 0.000003 0.012133
# 5 0.002127 -0.007161 -0.002434 0.000003 0.033310 -0.000001
# 6 0.000000 0.000000 0.000001 0.012133 -0.000001 0.104438
#
#
# Mechanical properties :
#
#
# Convention : Reuss Voigt Hill
#
# Bulk Modulus (GPa) = 38.33842 44.26143 41.29992
# Shear Modulus (GPa) = 12.03963 19.35810 15.69886
#
# Velocity S-wave (km/s) = 2.46770 3.12909 2.81787
# Velocity P-wave (km/s) = 5.24507 5.95332 5.61038
#
# Compressibility (1/GPa) = 0.02608350
#
# Stress axis : x y z
#
# Youngs Moduli (GPa) = 58.40109 68.56516 34.99693
#
# Poissons Ratio (x) = 0.22448 0.38901
# Poissons Ratio (y) = 0.19120 0.09482
# Poissons Ratio (z) = 0.64917 0.18577
#
# Static dielectric constant tensor:
#      x y z
#    x 1.755600 0.000000 -0.002860 
#    y 0.000000 1.683740 0.000000 
#    z -0.002860 0.000000 1.740100 
# 
# From -- ./inp_files/294129.got.cif
#   From: 2010.05.17/outbox.cif.g08.bks.cpg/sg12_148_cif.got.tgz:294129.got - 2010.06.03 13:09:07.
