data_PCOD9176635
_publ_section_title
;
Structure prediction by ZEFSAII (Michael W. Deem and Ramdas Pophale) SiO2 
 PCOD9176635
Probable space group: C 2/M
;
_chemical_formula_sum "Si O2"
_cell_formula_units_Z 48
_cell_length_a 18.999214
_cell_length_b 17.177542
_cell_length_c 15.855004
_cell_angle_alpha 90.000000
_cell_angle_beta 156.730003
_cell_angle_gamma 90.000000
_cell_volume 2044.235938
_symmetry_space_group_name_H-M "C 2/M"
_symmetry_group_IT_number 12
_symmetry_cell_setting 'monoclinic'
loop_
_space_group_symop_operation_xyz
x,y,z
-x,y,-z
-x,-y,-z
x,-y,z
1/2+x,1/2+y,z
1/2-x,1/2+y,-z
1/2-x,1/2-y,-z
1/2+x,1/2-y,z
loop_
_atom_site_type_symbol
_atom_site_label
_atom_site_fract_x
_atom_site_fract_y
_atom_site_fract_z
Si Si1 0.973636 0.410108 0.840308
Si Si2 0.416866 0.409373 0.101540
Si Si3 0.708202 0.354938 0.203140
Si Si4 0.192973 0.355988 0.513274
Si Si5 0.192591 0.796084 0.609904
Si Si6 0.627068 0.410114 0.752441
O O1 0.927491 0.500000 0.808991
O O2 0.925252 0.393845 0.688880
O O3 0.856994 0.349677 0.764007
O O4 0.183758 0.399385 0.083468
O O5 0.462849 0.500000 0.141837
O O6 0.602311 0.364090 0.292246
O O7 0.279789 0.386918 0.877118
O O8 0.346524 0.398327 0.117955
O O9 0.811492 0.392143 0.396578
O O10 0.761169 0.264273 0.265079
O O11 0.500000 0.361500 0.000000
O O12 0.154580 0.265612 0.491743
O O13 0.027065 0.851527 0.441290
O O14 0.570519 0.500000 0.678169
#
# Coordination Sequence:
#
# PCOD9176635 Si02
#       6
#     8   8   8   8   8   8
#     4  11  21  35  58  88 117 152 198 246 294 346
#     4  10  18  35  59  87 126 157 187 240 293 356
#     4   8  19  34  56  83 116 157 198 226 286 359
#     4   9  19  32  54  86 116 153 194 232 291 354
#     4  10  20  38  57  84 120 155 194 250 287 346
#     4  10  22  36  60  91 116 153 198 241 299 352
#
# _framework density 23.480656
#
# number of rings (size 3 to 8) (size 9 to 14) (size 15 to 20)
#    1.000    1.333    1.667    1.500    0.000    4.333 
#    0.000    0.833    7.333    5.000    0.000    2.333 
#    0.000    0.000    0.000    0.000    0.000    0.000 
#
# Total GULP energy -134155.647746 kJ/mol
# GULP energy per Si atom -5589.818656 kJ/mol
# Density = 2.342721 g / cm^3
# Si number density = 23.480656 Si / 1000 Ang^3
#
#
#
# Elastic Constant Matrix: (Units=GPa)
#
#
# Indices 1 2 3 4 5 6 
#
# 1 83.5357 26.7984 23.3887 -0.0001 -23.4997 0.0002
# 2 26.7984 49.9004 6.0235 -0.0001 0.1883 0.0001
# 3 23.3887 6.0235 63.6853 0.0004 -0.5353 0.0002
# 4 -0.0001 -0.0001 0.0004 38.3627 0.0000 -30.8130
# 5 -23.4997 0.1883 -0.5353 0.0000 26.2049 0.0002
# 6 0.0002 0.0001 0.0002 -30.8130 0.0002 50.2955
#
#
#
# Elastic Compliance Matrix: (Units=1/GPa)
#
#
# Indices 1 2 3 4 5 6 
#
# 1 0.023950 -0.012040 -0.007477 0.000000 0.021412 0.000000
# 2 -0.012040 0.026325 0.001840 0.000000 -0.010949 0.000000
# 3 -0.007477 0.001840 0.018221 0.000000 -0.006346 0.000000
# 4 0.000000 0.000000 0.000000 0.051320 0.000000 0.031441
# 5 0.021412 -0.010949 -0.006346 0.000000 0.057311 0.000000
# 6 0.000000 0.000000 0.000000 0.031441 0.000000 0.039144
#
#
# Mechanical properties :
#
#
# Convention : Reuss Voigt Hill
#
# Bulk Modulus (GPa) = 30.17379 34.39363 32.28371
# Shear Modulus (GPa) = 19.03498 32.36669 25.70083
#
# Velocity S-wave (km/s) = 2.85031 3.71676 3.31199
# Velocity P-wave (km/s) = 4.86937 5.75313 5.32960
#
# Compressibility (1/GPa) = 0.03314134
#
# Stress axis : x y z
#
# Youngs Moduli (GPa) = 41.75297 37.98627 54.88226
#
# Poissons Ratio (x) = 0.45737 0.41036
# Poissons Ratio (y) = 0.50273 -0.10098
# Poissons Ratio (z) = 0.31219 -0.06989
#
# Static dielectric constant tensor:
#      x y z
#    x 1.956020 0.000000 -0.064870 
#    y 0.000000 1.843450 0.000000 
#    z -0.064870 0.000000 1.887040 
# 
# From -- ./inp_files/285442.got.cif
#   From: 2010.05.17/outbox.cif.g08.bks.cpg/sg12_143_cif.got.tgz:285442.got - 2010.06.03 13:09:07.
