data_PCOD9176818
_publ_section_title
;
Structure prediction by ZEFSAII (Michael W. Deem and Ramdas Pophale) SiO2 
 PCOD9176818
Probable space group: C 2/M
;
_chemical_formula_sum "Si O2"
_cell_formula_units_Z 56
_cell_length_a 28.478673
_cell_length_b 15.035117
_cell_length_c 11.408769
_cell_angle_alpha 90.000000
_cell_angle_beta 40.388792
_cell_angle_gamma 90.000000
_cell_volume 3165.343623
_symmetry_space_group_name_H-M "C 2/M"
_symmetry_group_IT_number 12
_symmetry_cell_setting 'monoclinic'
loop_
_space_group_symop_operation_xyz
x,y,z
-x,y,-z
-x,-y,-z
x,-y,z
1/2+x,1/2+y,z
1/2-x,1/2+y,-z
1/2-x,1/2-y,-z
1/2+x,1/2-y,z
loop_
_atom_site_type_symbol
_atom_site_label
_atom_site_fract_x
_atom_site_fract_y
_atom_site_fract_z
Si Si1 0.130190 0.101313 0.958018
Si Si2 0.793374 0.600274 0.689655
Si Si3 0.688637 0.272625 0.213617
Si Si4 0.812616 0.103006 0.559626
Si Si5 0.798634 0.659701 0.413139
Si Si6 0.413673 0.294295 0.184165
Si Si7 0.421889 0.399150 0.704274
O O1 0.207276 0.111645 0.875632
O O2 0.121576 0.161577 0.863265
O O3 0.125223 0.000000 0.926023
O O4 0.072044 0.118574 0.168816
O O5 0.815227 0.500000 0.678789
O O6 0.831983 0.678959 0.686090
O O7 0.796158 0.614453 0.544530
O O8 0.707002 0.338402 0.288313
O O9 0.625753 0.324748 0.266423
O O10 0.750000 0.250000 0.000000
O O11 0.741862 0.103880 0.609473
O O12 0.878661 0.152260 0.362279
O O13 0.831582 0.000000 0.550079
O O14 0.750000 0.750000 0.500000
O O15 0.880587 0.695030 0.245807
O O16 0.500000 0.299119 0.000000
O O17 0.500000 0.400030 0.500000
O O18 0.390536 0.500000 0.752357
#
# Coordination Sequence:
#
# PCOD9176818 Si02
#       7
#     8   8   8   8   8   8   8
#     4  10  19  33  53  81 116 152 187 227 286 352
#     4  11  20  36  60  83 109 147 197 245 287 335
#     4  12  23  37  58  85 116 153 197 243 283 340
#     4  11  22  37  60  89 119 148 188 243 293 342
#     4  10  18  36  57  81 112 150 190 230 287 338
#     4  11  22  34  56  90 123 154 185 232 293 356
#     4  10  23  39  56  83 121 160 190 228 289 354
#
# _framework density 17.691602
#
# number of rings (size 3 to 8) (size 9 to 14) (size 15 to 20)
#    0.000    1.286    7.143    1.286    2.000    1.714 
#    0.000    0.000    0.000    2.143    0.000    0.000 
#    0.000    0.000    0.000    0.000    0.000    0.000 
#
# Total GULP energy -155976.287131 kJ/mol
# GULP energy per Si atom -5570.581683 kJ/mol
# Density = 1.765133 g / cm^3
# Si number density = 17.691602 Si / 1000 Ang^3
#
#
#
# Elastic Constant Matrix: (Units=GPa)
#
#
# Indices 1 2 3 4 5 6 
#
# 1 42.5219 36.4092 29.8476 0.0000 4.3059 0.0000
# 2 36.4092 98.0625 39.1461 0.0000 2.4565 0.0000
# 3 29.8476 39.1461 105.5107 0.0000 8.5723 0.0000
# 4 0.0000 0.0000 0.0000 24.2480 0.0000 0.5645
# 5 4.3059 2.4565 8.5723 0.0000 25.2658 0.0000
# 6 0.0000 0.0000 0.0000 0.5645 0.0000 14.5649
#
#
#
# Elastic Compliance Matrix: (Units=1/GPa)
#
#
# Indices 1 2 3 4 5 6 
#
# 1 0.038146 -0.011597 -0.006223 0.000000 -0.003262 0.000000
# 2 -0.011597 0.015499 -0.002579 0.000000 0.001345 0.000000
# 3 -0.006223 -0.002579 0.012431 0.000000 -0.002906 0.000000
# 4 0.000000 0.000000 0.000000 0.041278 0.000000 -0.001600
# 5 -0.003262 0.001345 -0.002906 0.000000 0.040990 0.000000
# 6 0.000000 0.000000 0.000000 -0.001600 0.000000 0.068720
#
#
# Mechanical properties :
#
#
# Convention : Reuss Voigt Hill
#
# Bulk Modulus (GPa) = 39.56068 50.76674 45.16371
# Shear Modulus (GPa) = 18.77660 22.19524 20.48592
#
# Velocity S-wave (km/s) = 3.26134 3.54582 3.40655
# Velocity P-wave (km/s) = 6.04910 6.74696 6.40754
#
# Compressibility (1/GPa) = 0.02527762
#
# Stress axis : x y z
#
# Youngs Moduli (GPa) = 26.21522 64.51929 80.44280
#
# Poissons Ratio (x) = 0.74823 0.50062
# Poissons Ratio (y) = 0.30402 0.20747
# Poissons Ratio (z) = 0.16314 0.16640
#
# Static dielectric constant tensor:
#      x y z
#    x 1.614630 0.000000 -0.002350 
#    y 0.000000 1.581680 0.000000 
#    z -0.002350 0.000000 1.665870 
# 
# From -- ./inp_files/189167.got.cif
#   From: 2010.05.17/outbox.cif.g08.bks.cpg/sg12_95_cif.got.tgz:189167.got - 2010.06.03 13:09:07.
