data_PCOD9176521
_publ_section_title
;
Structure prediction by ZEFSAII (Michael W. Deem and Ramdas Pophale) SiO2 
 PCOD9176521
Probable space group: C 2/M
;
_chemical_formula_sum "Si O2"
_cell_formula_units_Z 56
_cell_length_a 23.226159
_cell_length_b 24.787340
_cell_length_c 11.564003
_cell_angle_alpha 90.000000
_cell_angle_beta 27.294277
_cell_angle_gamma 90.000000
_cell_volume 3052.898979
_symmetry_space_group_name_H-M "C 2/M"
_symmetry_group_IT_number 12
_symmetry_cell_setting 'monoclinic'
loop_
_space_group_symop_operation_xyz
x,y,z
-x,y,-z
-x,-y,-z
x,-y,z
1/2+x,1/2+y,z
1/2-x,1/2+y,-z
1/2-x,1/2-y,-z
1/2+x,1/2-y,z
loop_
_atom_site_type_symbol
_atom_site_label
_atom_site_fract_x
_atom_site_fract_y
_atom_site_fract_z
Si Si1 0.134697 0.206539 0.080141
Si Si2 0.557769 0.175539 0.130989
Si Si3 0.231890 0.821587 0.416741
Si Si4 0.358933 0.853299 0.790926
Si Si5 0.830438 0.063150 0.883138
Si Si6 0.060102 0.881596 0.544299
Si Si7 0.775154 0.306287 0.601199
O O1 0.092787 0.267130 0.128633
O O2 0.017656 0.173707 0.339072
O O3 0.258054 0.193023 0.936501
O O4 0.175834 0.184688 0.880024
O O5 0.623575 0.136266 0.104049
O O6 0.409991 0.168355 0.387541
O O7 0.626770 0.173387 0.885219
O O8 0.148253 0.863631 0.493060
O O9 0.198194 0.758656 0.451173
O O10 0.227092 0.825855 0.562905
O O11 0.500000 0.840407 0.500000
O O12 0.295524 0.906818 0.851689
O O13 0.869980 0.093645 0.692466
O O14 0.945268 0.076321 0.765330
O O15 0.817767 0.000000 0.887406
#
# Coordination Sequence:
#
# PCOD9176521 Si02
#       7
#     8   8   8   8   8   8   8
#     4  10  21  32  50  80 115 155 180 221 265 331
#     4  11  19  34  49  76 114 155 190 219 263 321
#     4  10  20  32  51  77 106 158 187 228 245 323
#     4  11  21  35  55  81 114 140 183 226 289 340
#     4  10  22  39  61  84 106 136 184 246 294 338
#     4  10  18  35  54  80 107 137 182 223 287 327
#     4  10  20  33  48  74 118 151 196 210 259 303
#
# _framework density 18.343221
#
# number of rings (size 3 to 8) (size 9 to 14) (size 15 to 20)
#    0.000    1.714    4.286    1.714    0.000    0.857 
#    5.143    0.000    0.000    0.000    0.000   22.000 
#    0.000    0.000    0.000    0.000    0.000    0.000 
#
# Total GULP energy -155908.696681 kJ/mol
# GULP energy per Si atom -5568.167739 kJ/mol
# Density = 1.830147 g / cm^3
# Si number density = 18.343221 Si / 1000 Ang^3
#
#
#
# Elastic Constant Matrix: (Units=GPa)
#
#
# Indices 1 2 3 4 5 6 
#
# 1 93.6803 26.7646 15.5334 -0.0012 1.9022 0.0001
# 2 26.7646 63.9573 21.4684 -0.0002 -9.0311 0.0001
# 3 15.5334 21.4684 53.8377 0.0002 -12.9275 0.0003
# 4 -0.0012 -0.0002 0.0002 12.2327 -0.0005 -0.2879
# 5 1.9022 -9.0311 -12.9275 -0.0005 30.1992 0.0002
# 6 0.0001 0.0001 0.0003 -0.2879 0.0002 15.1286
#
#
#
# Elastic Compliance Matrix: (Units=1/GPa)
#
#
# Indices 1 2 3 4 5 6 
#
# 1 0.012548 -0.004891 -0.002464 0.000001 -0.003308 0.000000
# 2 -0.004891 0.020141 -0.005684 0.000000 0.003898 0.000000
# 3 -0.002464 -0.005684 0.023608 0.000000 0.008561 -0.000001
# 4 0.000001 0.000000 0.000000 0.081784 0.000001 0.001556
# 5 -0.003308 0.003898 0.008561 0.000001 0.038152 -0.000001
# 6 0.000000 0.000000 -0.000001 0.001556 -0.000001 0.066130
#
#
# Mechanical properties :
#
#
# Convention : Reuss Voigt Hill
#
# Bulk Modulus (GPa) = 33.09362 37.66755 35.38059
# Shear Modulus (GPa) = 17.95244 21.35936 19.65590
#
# Velocity S-wave (km/s) = 3.13181 3.41607 3.27702
# Velocity P-wave (km/s) = 5.58195 6.01156 5.80073
#
# Compressibility (1/GPa) = 0.03021730
#
# Stress axis : x y z
#
# Youngs Moduli (GPa) = 79.69596 49.65116 42.35902
#
# Poissons Ratio (x) = 0.24283 0.10439
# Poissons Ratio (y) = 0.38978 0.24078
# Poissons Ratio (z) = 0.19640 0.28223
#
# Static dielectric constant tensor:
#      x y z
#    x 1.667160 0.000000 0.006200 
#    y 0.000000 1.624420 0.000000 
#    z 0.006200 0.000000 1.703370 
# 
# From -- ./inp_files/134825.got.cif
#   From: 2010.05.17/outbox.cif.g08.bks.cpg/sg12_68_cif.got.tgz:134825.got - 2010.06.03 13:09:07.
