data_PCOD9176500
_publ_section_title
;
Structure prediction by ZEFSAII (Michael W. Deem and Ramdas Pophale) SiO2 
 PCOD9176500
Probable space group: C 2/M
;
_chemical_formula_sum "Si O2"
_cell_formula_units_Z 56
_cell_length_a 15.112362
_cell_length_b 18.282904
_cell_length_c 14.356874
_cell_angle_alpha 90.000000
_cell_angle_beta 127.124467
_cell_angle_gamma 90.000000
_cell_volume 3162.812804
_symmetry_space_group_name_H-M "C 2/M"
_symmetry_group_IT_number 12
_symmetry_cell_setting 'monoclinic'
loop_
_space_group_symop_operation_xyz
x,y,z
-x,y,-z
-x,-y,-z
x,-y,z
1/2+x,1/2+y,z
1/2-x,1/2+y,-z
1/2-x,1/2-y,-z
1/2+x,1/2-y,z
loop_
_atom_site_type_symbol
_atom_site_label
_atom_site_fract_x
_atom_site_fract_y
_atom_site_fract_z
Si Si1 0.721417 0.081104 0.821618
Si Si2 0.847272 0.280633 0.625877
Si Si3 0.919049 0.214187 0.221760
Si Si4 0.396166 0.816426 0.026911
Si Si5 0.314452 0.417195 0.083725
Si Si6 0.286656 0.264810 0.795237
Si Si7 0.477504 0.913905 0.763626
O O1 0.762276 0.148837 0.787322
O O2 0.594399 0.090831 0.779530
O O3 0.727588 0.000000 0.783099
O O4 0.799209 0.082095 0.962794
O O5 0.750000 0.250000 0.500000
O O6 0.818959 0.258005 0.713192
O O7 0.882196 0.366642 0.651997
O O8 0.961476 0.240591 0.671550
O O9 0.884240 0.263325 0.109413
O O10 0.915242 0.131239 0.184076
O O11 0.827965 0.228530 0.242546
O O12 0.496092 0.870423 0.122592
O O13 0.294187 0.872786 0.953338
O O14 0.380073 0.764123 0.927457
O O15 0.315195 0.500000 0.117466
O O16 0.454457 0.000000 0.762114
#
# Coordination Sequence:
#
# PCOD9176500 Si02
#       7
#     8   8   8   8   8   8   8
#     4   9  15  29  56  88 116 142 172 219 286 341
#     4  11  25  39  54  78 105 151 201 234 270 322
#     4  10  18  35  52  78 111 138 181 220 274 333
#     4   9  15  29  54  88 110 140 170 217 285 347
#     4   9  14  25  50  81 113 142 162 205 271 342
#     4  11  18  34  58  82 113 147 179 226 281 342
#     4   9  18  36  59  85 117 143 176 242 293 324
#
# _framework density 17.705757999999999
#
# number of rings (size 3 to 8) (size 9 to 14) (size 15 to 20)
#    0.000    2.286    5.714    2.143    0.000    2.857 
#    0.000    6.429    0.000    3.429    0.000    5.000 
#    0.000    0.000    0.000    0.000    0.000    0.000 
#
# Total GULP energy -155873.378831 kJ/mol
# GULP energy per Si atom -5566.906387 kJ/mol
# Density = 1.766546 g / cm^3
# Si number density = 17.705758 Si / 1000 Ang^3
#
#
#
# Elastic Constant Matrix: (Units=GPa)
#
#
# Indices 1 2 3 4 5 6 
#
# 1 43.2358 17.0014 12.1137 0.0000 14.4185 0.0000
# 2 17.0014 159.6677 31.3152 0.0000 11.9771 0.0000
# 3 12.1137 31.3152 58.4785 0.0000 25.9700 0.0000
# 4 0.0000 0.0000 0.0000 14.6930 0.0000 4.7805
# 5 14.4185 11.9771 25.9700 0.0000 20.1566 0.0000
# 6 0.0000 0.0000 0.0000 4.7805 0.0000 19.8514
#
#
#
# Elastic Compliance Matrix: (Units=1/GPa)
#
#
# Indices 1 2 3 4 5 6 
#
# 1 0.033169 -0.002919 0.010422 0.000000 -0.035420 0.000000
# 2 -0.002919 0.007276 -0.005374 0.000000 0.004688 0.000000
# 3 0.010422 -0.005374 0.046074 0.000000 -0.063625 0.000000
# 4 0.000000 0.000000 0.000000 0.073845 0.000000 -0.017783
# 5 -0.035420 0.004688 -0.063625 0.000000 0.154138 0.000000
# 6 0.000000 0.000000 0.000000 -0.017783 0.000000 0.054657
#
#
# Mechanical properties :
#
#
# Convention : Reuss Voigt Hill
#
# Bulk Modulus (GPa) = 11.01583 42.47141 26.74362
# Shear Modulus (GPa) = 12.65310 24.33697 18.49504
#
# Velocity S-wave (km/s) = 2.67616 3.71148 3.23550
# Velocity P-wave (km/s) = 3.97294 6.51200 5.39400
#
# Compressibility (1/GPa) = 0.09077845
#
# Stress axis : x y z
#
# Youngs Moduli (GPa) = 30.14884 137.43693 21.70399
#
# Poissons Ratio (x) = 0.40117 -0.22620
# Poissons Ratio (y) = 0.08800 0.11663
# Poissons Ratio (z) = -0.31421 0.73852
#
# Static dielectric constant tensor:
#      x y z
#    x 1.656500 0.000000 0.023650 
#    y 0.000000 1.645080 0.000000 
#    z 0.023650 0.000000 1.610760 
# 
# From -- ./inp_files/216442.got.cif
#   From: 2010.05.17/outbox.cif.g08.bks.cpg/sg12_109_cif.got.tgz:216442.got - 2010.06.03 13:09:07.
