data_PCOD9176626
_publ_section_title
;
Structure prediction by ZEFSAII (Michael W. Deem and Ramdas Pophale) SiO2 
 PCOD9176626
Probable space group: C 2/M
;
_chemical_formula_sum "Si O2"
_cell_formula_units_Z 52
_cell_length_a 13.218418
_cell_length_b 20.264323
_cell_length_c 14.099442
_cell_angle_alpha 90.000000
_cell_angle_beta 147.981224
_cell_angle_gamma 90.000000
_cell_volume 2002.400244
_symmetry_space_group_name_H-M "C 2/M"
_symmetry_group_IT_number 12
_symmetry_cell_setting 'monoclinic'
loop_
_space_group_symop_operation_xyz
x,y,z
-x,y,-z
-x,-y,-z
x,-y,z
1/2+x,1/2+y,z
1/2-x,1/2+y,-z
1/2-x,1/2-y,-z
1/2+x,1/2-y,z
loop_
_atom_site_type_symbol
_atom_site_label
_atom_site_fract_x
_atom_site_fract_y
_atom_site_fract_z
Si Si1 0.905302 0.500000 0.624054
Si Si2 0.134284 0.619762 0.301787
Si Si3 0.720654 0.000000 0.726985
Si Si4 0.674938 0.427264 0.716173
Si Si5 0.191545 0.000000 0.984107
Si Si6 0.943592 0.881161 0.806054
Si Si7 0.966325 0.191972 0.636619
Si Si8 0.794905 0.303870 0.116381
O O1 0.793739 0.564959 0.564583
O O2 0.001834 0.500000 0.597035
O O3 0.081204 0.500000 0.839625
O O4 0.144670 0.589116 0.206629
O O5 0.283113 0.679912 0.425383
O O6 0.932443 0.642615 0.178649
O O7 0.826476 0.000000 0.914043
O O8 0.787487 0.929935 0.731579
O O9 0.500000 0.431555 0.500000
O O10 0.693987 0.500000 0.775253
O O11 0.622698 0.363061 0.733909
O O12 0.076497 0.936499 0.862402
O O13 0.892313 0.827496 0.684017
O O14 0.101535 0.839982 0.992926
O O15 0.070090 0.261897 0.706967
O O16 0.750000 0.250000 0.000000
#
# Coordination Sequence:
#
# PCOD9176626 Si02
#       8
#     4   8   4   8   4   8   8   8
#     4  10  20  35  62  91 113 155 202 243 303 362
#     4  11  20  40  62  86 122 158 199 249 305 360
#     4   9  20  35  59  91 117 156 197 252 302 360
#     4   9  19  36  59  88 120 155 196 241 303 359
#     4   9  18  33  56  85 116 148 193 238 299 344
#     4  10  18  35  59  84 119 157 194 245 302 359
#     4  10  23  36  60  91 119 157 198 250 303 360
#     4  10  21  39  59  81 116 159 201 237 296 362
#
# _framework density 25.968834000000001
#
# number of rings (size 3 to 8) (size 9 to 14) (size 15 to 20)
#    0.462    1.692    2.308    1.385    3.231    0.000 
#    0.000   15.385    0.000    4.615    0.000    0.000 
#    0.000    0.000    0.000    0.000    0.000    0.000 
#
# Total GULP energy -145043.153496 kJ/mol
# GULP energy per Si atom -5578.582827 kJ/mol
# Density = 2.590973 g / cm^3
# Si number density = 25.968834 Si / 1000 Ang^3
#
#
#
# Elastic Constant Matrix: (Units=GPa)
#
#
# Indices 1 2 3 4 5 6 
#
# 1 127.8555 41.1966 4.4831 0.0000 25.1439 0.0000
# 2 41.1966 145.7423 21.5238 0.0000 16.4320 0.0000
# 3 4.4831 21.5238 55.2600 0.0000 13.5039 0.0000
# 4 0.0000 0.0000 0.0000 46.6149 0.0000 6.5062
# 5 25.1439 16.4320 13.5039 0.0000 22.8901 0.0000
# 6 0.0000 0.0000 0.0000 6.5062 0.0000 22.4475
#
#
#
# Elastic Compliance Matrix: (Units=1/GPa)
#
#
# Indices 1 2 3 4 5 6 
#
# 1 0.010763 -0.002115 0.002884 0.000000 -0.012006 0.000000
# 2 -0.002115 0.008050 -0.002476 0.000000 -0.001995 0.000000
# 3 0.002884 -0.002476 0.022395 0.000000 -0.014603 0.000000
# 4 0.000000 0.000000 0.000000 0.022357 0.000000 -0.006480
# 5 -0.012006 -0.001995 -0.014603 0.000000 0.066922 0.000000
# 6 0.000000 0.000000 0.000000 -0.006480 0.000000 0.046426
#
#
# Mechanical properties :
#
#
# Convention : Reuss Voigt Hill
#
# Bulk Modulus (GPa) = 26.45880 51.47388 38.96634
# Shear Modulus (GPa) = 25.91690 35.83413 30.87551
#
# Velocity S-wave (km/s) = 3.16254 3.71872 3.45185
# Velocity P-wave (km/s) = 4.85246 6.18893 5.56099
#
# Compressibility (1/GPa) = 0.03779461
#
# Stress axis : x y z
#
# Youngs Moduli (GPa) = 92.91421 124.22680 44.65231
#
# Poissons Ratio (x) = 0.26269 -0.12879
# Poissons Ratio (y) = 0.19647 0.11057
# Poissons Ratio (z) = -0.26800 0.30763
#
# Static dielectric constant tensor:
#      x y z
#    x 2.071120 0.000000 -0.070420 
#    y 0.000000 2.386610 0.000000 
#    z -0.070420 0.000000 2.161850 
# 
# From -- ./inp_files/272263.got.cif
#   From: 2010.05.17/outbox.cif.g08.bks.cpg/sg12_137_cif.got.tgz:272263.got - 2010.06.03 13:09:07.
