data_PCOD9176242
_publ_section_title
;
Structure prediction by ZEFSAII (Michael W. Deem and Ramdas Pophale) SiO2 
 PCOD9176242
Probable space group: C 2/M
;
_chemical_formula_sum "Si O2"
_cell_formula_units_Z 56
_cell_length_a 22.579941
_cell_length_b 17.294732
_cell_length_c 9.408561
_cell_angle_alpha 90.000000
_cell_angle_beta 62.670171
_cell_angle_gamma 90.000000
_cell_volume 3264.057510
_symmetry_space_group_name_H-M "C 2/M"
_symmetry_group_IT_number 12
_symmetry_cell_setting 'monoclinic'
loop_
_space_group_symop_operation_xyz
x,y,z
-x,y,-z
-x,-y,-z
x,-y,z
1/2+x,1/2+y,z
1/2-x,1/2+y,-z
1/2-x,1/2-y,-z
1/2+x,1/2-y,z
loop_
_atom_site_type_symbol
_atom_site_label
_atom_site_fract_x
_atom_site_fract_y
_atom_site_fract_z
Si Si1 0.912343 0.186380 0.864979
Si Si2 0.794228 0.409368 0.287355
Si Si3 0.826441 0.801921 0.683483
Si Si4 0.075748 0.684884 0.903938
Si Si5 0.740408 0.823413 0.403831
Si Si6 0.372410 0.589451 0.161929
Si Si7 0.063308 0.814766 0.679517
O O1 0.857220 0.192629 0.804984
O O2 0.986584 0.186024 0.718550
O O3 0.911659 0.257015 0.978374
O O4 0.899544 0.112061 0.977744
O O5 0.785854 0.500000 0.272159
O O6 0.735565 0.359882 0.275635
O O7 0.866200 0.377694 0.161714
O O8 0.788952 0.388705 0.461111
O O9 0.802631 0.714772 0.673071
O O10 0.884091 0.820853 0.505011
O O11 0.077968 0.738017 0.758753
O O12 0.000000 0.654945 0.000000
O O13 0.750000 0.750000 0.500000
O O14 0.808678 0.856721 0.266746
O O15 0.355547 0.500000 0.192101
O O16 0.425502 0.615246 0.222347
#
# Coordination Sequence:
#
# PCOD9176242 Si02
#       7
#     8   8   8   8   8   8   8
#     4  10  22  34  54  82 112 143 181 223 267 310
#     4  11  21  34  56  82 109 140 177 224 272 320
#     4  11  20  35  57  83 108 139 183 227 265 313
#     4   9  19  37  58  82 105 138 184 224 264 321
#     4  10  18  34  58  76 100 136 185 227 261 306
#     4  11  21  35  54  80 112 145 180 218 265 323
#     4  10  18  36  57  78 106 146 189 221 253 313
#
# _framework density 17.156559999999999
#
# number of rings (size 3 to 8) (size 9 to 14) (size 15 to 20)
#    0.000    1.714    4.286    4.714    0.000    4.286 
#    0.000    0.000    0.000    3.429    0.000    2.000 
#    0.000    0.000    0.000    0.000    0.000    0.000 
#
# Total GULP energy -156154.922176 kJ/mol
# GULP energy per Si atom -5576.961506 kJ/mol
# Density = 1.711751 g / cm^3
# Si number density = 17.156560 Si / 1000 Ang^3
#
#
#
# Elastic Constant Matrix: (Units=GPa)
#
#
# Indices 1 2 3 4 5 6 
#
# 1 111.1419 47.2775 32.0965 0.0000 -7.5466 0.0000
# 2 47.2775 62.2102 9.8876 0.0000 -6.6542 0.0000
# 3 32.0965 9.8876 41.7791 0.0000 -12.8381 0.0000
# 4 0.0000 0.0000 0.0000 15.1770 0.0000 -4.7111
# 5 -7.5466 -6.6542 -12.8381 0.0000 33.7124 0.0000
# 6 0.0000 0.0000 0.0000 -4.7111 0.0000 8.1489
#
#
#
# Elastic Compliance Matrix: (Units=1/GPa)
#
#
# Indices 1 2 3 4 5 6 
#
# 1 0.016826 -0.011314 -0.011073 0.000000 -0.002684 0.000000
# 2 -0.011314 0.024434 0.004092 0.000000 0.003848 0.000000
# 3 -0.011073 0.004092 0.035064 0.000000 0.011682 0.000000
# 4 0.000000 0.000000 0.000000 0.080300 0.000000 0.046423
# 5 -0.002684 0.003848 0.011682 0.000000 0.034270 0.000000
# 6 0.000000 0.000000 0.000000 0.046423 0.000000 0.149554
#
#
# Mechanical properties :
#
#
# Convention : Reuss Voigt Hill
#
# Bulk Modulus (GPa) = 25.16833 43.73937 34.45385
# Shear Modulus (GPa) = 12.81122 19.79897 16.30510
#
# Velocity S-wave (km/s) = 2.73559 3.40077 3.08615
# Velocity P-wave (km/s) = 4.96786 6.40077 5.72929
#
# Compressibility (1/GPa) = 0.03973248
#
# Stress axis : x y z
#
# Youngs Moduli (GPa) = 59.43177 40.92628 28.51954
#
# Poissons Ratio (x) = 0.46305 0.31581
# Poissons Ratio (y) = 0.67242 -0.11670
# Poissons Ratio (z) = 0.65812 -0.16747
#
# Static dielectric constant tensor:
#      x y z
#    x 1.598420 0.000000 -0.015460 
#    y 0.000000 1.566740 0.000000 
#    z -0.015460 0.000000 1.599550 
# 
# From -- ./inp_files/97628.got.cif
#   From: 2010.05.17/outbox.cif.g08.bks.cpg/sg12_49_cif.got.tgz:97628.got - 2010.06.03 13:09:07.
