data_PCOD9176240
_publ_section_title
;
Structure prediction by ZEFSAII (Michael W. Deem and Ramdas Pophale) SiO2 
 PCOD9176240
Probable space group: C 2/M
;
_chemical_formula_sum "Si O2"
_cell_formula_units_Z 64
_cell_length_a 15.166787
_cell_length_b 7.719149
_cell_length_c 27.545763
_cell_angle_alpha 90.000000
_cell_angle_beta 104.432171
_cell_angle_gamma 90.000000
_cell_volume 3123.144290
_symmetry_space_group_name_H-M "C 2/M"
_symmetry_group_IT_number 12
_symmetry_cell_setting 'monoclinic'
loop_
_space_group_symop_operation_xyz
x,y,z
-x,y,-z
-x,-y,-z
x,-y,z
1/2+x,1/2+y,z
1/2-x,1/2+y,-z
1/2-x,1/2-y,-z
1/2+x,1/2-y,z
loop_
_atom_site_type_symbol
_atom_site_label
_atom_site_fract_x
_atom_site_fract_y
_atom_site_fract_z
Si Si1 0.844166 0.210799 0.709419
Si Si2 0.783191 0.293212 0.558192
Si Si3 0.162881 0.794409 0.631500
Si Si4 0.609701 0.287037 0.893298
Si Si5 0.572042 0.697929 0.179303
Si Si6 0.463793 0.295614 0.634883
Si Si7 0.800423 0.699000 0.886222
Si Si8 0.893266 0.795726 0.996975
O O1 0.741928 0.268939 0.682399
O O2 0.880160 0.272109 0.766523
O O3 0.914373 0.272200 0.677057
O O4 0.841777 0.000000 0.708143
O O5 0.787627 0.500000 0.564246
O O6 0.750000 0.250000 0.500000
O O7 0.711215 0.225263 0.588853
O O8 0.884581 0.225547 0.583838
O O9 0.063084 0.724493 0.632989
O O10 0.150313 0.000000 0.622132
O O11 0.605306 0.500000 0.895649
O O12 0.519659 0.221105 0.854638
O O13 0.697575 0.239086 0.874949
O O14 0.620477 0.228434 0.950456
O O15 0.548335 0.500000 0.189407
O O16 0.639407 0.697059 0.143002
O O17 0.477475 0.500000 0.645373
O O18 0.802852 0.500000 0.870442
O O19 0.838740 0.708390 0.946151
O O20 0.869773 0.000000 0.992537
O O21 0.000000 0.779866 0.000000
#
# Coordination Sequence:
#
# PCOD9176240 Si02
#       8
#     8   8   8   8   8   8   8   8
#     4   9  19  34  56  79 100 131 175 221 258 302
#     4  10  20  34  52  79 113 148 179 218 262 306
#     4   9  19  35  56  79 107 140 175 216 267 313
#     4   9  19  35  54  75 101 135 170 203 251 313
#     4  10  20  38  56  73 102 139 173 205 252 318
#     4   9  18  35  56  79 104 139 181 219 261 312
#     4  11  22  34  52  80 106 129 165 216 259 298
#     4  10  18  34  58  75  96 137 172 199 249 316
#
# _framework density 20.492169000000001
#
# number of rings (size 3 to 8) (size 9 to 14) (size 15 to 20)
#    0.000    2.375    1.250    1.125    0.000    3.250 
#    0.000    6.875    0.000    0.000    0.000    0.000 
#    0.000    0.000    0.000    0.000    0.000    0.000 
#
# Total GULP energy -178522.551286 kJ/mol
# GULP energy per Si atom -5578.829728 kJ/mol
# Density = 2.044553 g / cm^3
# Si number density = 20.492169 Si / 1000 Ang^3
#
#
#
# Elastic Constant Matrix: (Units=GPa)
#
#
# Indices 1 2 3 4 5 6 
#
# 1 166.6737 5.2553 65.3993 0.0000 18.5156 0.0000
# 2 5.2553 27.8541 -12.6012 0.0000 -9.2215 0.0000
# 3 65.3993 -12.6012 154.1493 0.0000 -6.6947 0.0000
# 4 0.0000 0.0000 0.0000 12.6181 0.0000 1.7109
# 5 18.5156 -9.2215 -6.6947 0.0000 39.5646 0.0000
# 6 0.0000 0.0000 0.0000 1.7109 0.0000 6.9506
#
#
#
# Elastic Compliance Matrix: (Units=1/GPa)
#
#
# Indices 1 2 3 4 5 6 
#
# 1 0.008552 -0.005579 -0.004346 0.000000 -0.006038 0.000000
# 2 -0.005579 0.044633 0.006629 0.000000 0.014135 0.000000
# 3 -0.004346 0.006629 0.009095 0.000000 0.005118 0.000000
# 4 0.000000 0.000000 0.000000 0.081987 0.000000 -0.020181
# 5 -0.006038 0.014135 0.005118 0.000000 0.032261 0.000000
# 6 0.000000 0.000000 0.000000 -0.020181 0.000000 0.148840
#
#
# Mechanical properties :
#
#
# Convention : Reuss Voigt Hill
#
# Bulk Modulus (GPa) = 17.95715 51.64266 34.79991
# Shear Modulus (GPa) = 14.26439 31.20158 22.73298
#
# Velocity S-wave (km/s) = 2.64121 3.90630 3.33430
# Velocity P-wave (km/s) = 4.25245 6.75288 5.64290
#
# Compressibility (1/GPa) = 0.05568814
#
# Stress axis : x y z
#
# Youngs Moduli (GPa) = 116.93354 22.40510 109.94488
#
# Poissons Ratio (x) = 0.12499 0.47787
# Poissons Ratio (y) = 0.65235 -0.72886
# Poissons Ratio (z) = 0.50825 -0.14853
#
# Static dielectric constant tensor:
#      x y z
#    x 1.723830 0.000000 -0.005380 
#    y 0.000000 1.798940 0.000000 
#    z -0.005380 0.000000 1.713230 
# 
# From -- ./inp_files/359901.got.cif
#   From: 2010.05.17/outbox.cif.g08.bks.cpg/sg12_180_cif.got.tgz:359901.got - 2010.06.03 13:09:07.
