data_PCOD9176376
_publ_section_title
;
Structure prediction by ZEFSAII (Michael W. Deem and Ramdas Pophale) SiO2 
 PCOD9176376
Probable space group: C 2/M
;
_chemical_formula_sum "Si O2"
_cell_formula_units_Z 64
_cell_length_a 26.025875
_cell_length_b 14.597669
_cell_length_c 20.288460
_cell_angle_alpha 90.000000
_cell_angle_beta 26.912326
_cell_angle_gamma 90.000000
_cell_volume 3488.815155
_symmetry_space_group_name_H-M "C 2/M"
_symmetry_group_IT_number 12
_symmetry_cell_setting 'monoclinic'
loop_
_space_group_symop_operation_xyz
x,y,z
-x,y,-z
-x,-y,-z
x,-y,z
1/2+x,1/2+y,z
1/2-x,1/2+y,-z
1/2-x,1/2-y,-z
1/2+x,1/2-y,z
loop_
_atom_site_type_symbol
_atom_site_label
_atom_site_fract_x
_atom_site_fract_y
_atom_site_fract_z
Si Si1 0.632273 0.897586 0.437500
Si Si2 0.027775 0.107404 0.126445
Si Si3 0.013153 0.103927 0.295573
Si Si4 0.786862 0.782159 0.165164
Si Si5 0.758818 0.860077 0.422817
Si Si6 0.750752 0.859136 0.578466
Si Si7 0.552880 0.259599 0.369919
Si Si8 0.635069 0.898063 0.846562
O O1 0.732892 0.852096 0.279706
O O2 0.682051 0.901168 0.453891
O O3 0.525290 0.829332 0.555174
O O4 0.604938 0.000000 0.445750
O O5 0.047305 0.130423 0.181622
O O6 0.893237 0.117910 0.265337
O O7 0.056912 0.000000 0.083603
O O8 0.104224 0.172674 0.993861
O O9 0.876651 0.105786 0.448974
O O10 0.045955 0.171259 0.316899
O O11 0.052330 0.000000 0.262969
O O12 0.683048 0.765976 0.233811
O O13 0.815039 0.686222 0.168787
O O14 0.718391 0.888510 0.541854
O O15 0.746769 0.750922 0.427715
O O16 0.674369 0.889006 0.726141
O O17 0.500000 0.296925 0.500000
O O18 0.668143 0.000000 0.833228
O O19 0.500000 0.891116 0.000000
#
# Coordination Sequence:
#
# PCOD9176376 Si02
#       8
#     8   8   8   8   8   8   8   8
#     4  11  22  37  58  87 118 150 195 238 280 337
#     4  10  22  37  58  88 116 149 189 232 289 341
#     4  10  20  37  61  87 113 145 190 238 283 338
#     4  11  23  39  60  81 116 157 191 234 286 335
#     4  10  19  34  59  88 117 146 185 239 285 338
#     4  10  18  34  60  84 116 151 183 229 294 344
#     4  10  22  39  57  84 114 150 194 234 284 333
#     4  11  23  39  59  85 117 152 191 234 290 350
#
# _framework density 18.344336999999999
#
# number of rings (size 3 to 8) (size 9 to 14) (size 15 to 20)
#    0.000    1.625    2.500    2.625    0.000    5.500 
#    0.000    1.250    0.000    0.000    0.000    0.000 
#    0.000    0.000    0.000    0.000    0.000    0.000 
#
# Total GULP energy -178603.771206 kJ/mol
# GULP energy per Si atom -5581.367850 kJ/mol
# Density = 1.830258 g / cm^3
# Si number density = 18.344337 Si / 1000 Ang^3
#
#
#
# Elastic Constant Matrix: (Units=GPa)
#
#
# Indices 1 2 3 4 5 6 
#
# 1 112.0892 53.0591 41.2974 0.0000 10.2499 0.0000
# 2 53.0591 135.6826 44.8300 0.0000 12.2660 0.0000
# 3 41.2974 44.8300 102.9263 0.0000 11.5390 0.0000
# 4 0.0000 0.0000 0.0000 36.2044 0.0000 5.9212
# 5 10.2499 12.2660 11.5390 0.0000 17.8453 0.0000
# 6 0.0000 0.0000 0.0000 5.9212 0.0000 5.3634
#
#
#
# Elastic Compliance Matrix: (Units=1/GPa)
#
#
# Indices 1 2 3 4 5 6 
#
# 1 0.011877 -0.003428 -0.002988 0.000000 -0.002533 0.000000
# 2 -0.003428 0.009840 -0.002558 0.000000 -0.003140 0.000000
# 3 -0.002988 -0.002558 0.012549 0.000000 -0.004640 0.000000
# 4 0.000000 0.000000 0.000000 0.033707 0.000000 -0.037213
# 5 -0.002533 -0.003140 -0.004640 0.000000 0.062651 0.000000
# 6 0.000000 0.000000 0.000000 -0.037213 0.000000 0.227533
#
#
# Mechanical properties :
#
#
# Convention : Reuss Voigt Hill
#
# Bulk Modulus (GPa) = 61.28776 69.89679 65.59227
# Shear Modulus (GPa) = 13.10464 25.98341 19.54402
#
# Velocity S-wave (km/s) = 2.67567 3.76763 3.26758
# Velocity P-wave (km/s) = 6.55956 7.55725 7.07601
#
# Compressibility (1/GPa) = 0.01631647
#
# Stress axis : x y z
#
# Youngs Moduli (GPa) = 84.19754 101.62742 79.68720
#
# Poissons Ratio (x) = 0.34839 0.23812
# Poissons Ratio (y) = 0.28864 0.20386
# Poissons Ratio (z) = 0.25160 0.25999
#
# Static dielectric constant tensor:
#      x y z
#    x 1.638180 0.000000 0.027940 
#    y 0.000000 1.672340 0.000000 
#    z 0.027940 0.000000 1.616120 
# 
# From -- ./inp_files/290084.got.cif
#   From: 2010.05.17/outbox.cif.g08.bks.cpg/sg12_146_cif.got.tgz:290084.got - 2010.06.03 13:09:07.
