data_PCOD9176781
_publ_section_title
;
Structure prediction by ZEFSAII (Michael W. Deem and Ramdas Pophale) SiO2 
 PCOD9176781
Probable space group: C 2/M
;
_chemical_formula_sum "Si O2"
_cell_formula_units_Z 64
_cell_length_a 23.596569
_cell_length_b 17.640257
_cell_length_c 15.165043
_cell_angle_alpha 90.000000
_cell_angle_beta 30.072756
_cell_angle_gamma 90.000000
_cell_volume 3163.160385
_symmetry_space_group_name_H-M "C 2/M"
_symmetry_group_IT_number 12
_symmetry_cell_setting 'monoclinic'
loop_
_space_group_symop_operation_xyz
x,y,z
-x,y,-z
-x,-y,-z
x,-y,z
1/2+x,1/2+y,z
1/2-x,1/2+y,-z
1/2-x,1/2-y,-z
1/2+x,1/2-y,z
loop_
_atom_site_type_symbol
_atom_site_label
_atom_site_fract_x
_atom_site_fract_y
_atom_site_fract_z
Si Si1 0.528597 0.742445 0.338205
Si Si2 0.197691 0.629453 0.883461
Si Si3 0.878997 0.917039 0.778498
Si Si4 0.953202 0.649968 0.161726
Si Si5 0.226125 0.915657 0.413680
Si Si6 0.809996 0.709884 0.737920
Si Si7 0.136943 0.913703 0.987306
Si Si8 0.050305 0.800838 0.737365
O O1 0.541263 0.654253 0.349335
O O2 0.634993 0.784309 0.238495
O O3 0.414793 0.776525 0.531620
O O4 0.522241 0.739611 0.242408
O O5 0.265740 0.595855 0.874364
O O6 0.248643 0.595495 0.724133
O O7 0.225751 0.719223 0.841247
O O8 0.062833 0.619141 0.065928
O O9 0.926939 0.000000 0.693536
O O10 0.859002 0.914211 0.910696
O O11 0.846790 0.594641 0.299118
O O12 0.912386 0.731578 0.252304
O O13 0.000000 0.661200 0.000000
O O14 0.145378 0.849963 0.559606
O O15 0.178471 0.000000 0.492699
O O16 0.746442 0.631867 0.808478
O O17 0.129772 0.000000 0.966760
O O18 0.029452 0.861992 0.107788
#
# Coordination Sequence:
#
# PCOD9176781 Si02
#       8
#     8   8   8   8   8   8   8   8
#     4   9  20  32  57  83 111 154 186 223 266 333
#     4  10  19  35  56  83 112 156 181 224 284 335
#     4   9  19  33  52  86 121 147 183 225 276 335
#     4  10  23  38  60  85 107 149 196 238 279 335
#     4  11  23  38  57  85 117 146 187 238 289 333
#     4  10  18  36  53  85 118 144 188 222 268 341
#     4  10  21  35  58  86 114 147 185 232 281 334
#     4  11  20  38  62  83 110 150 192 230 283 334
#
# _framework density 20.23293
#
# number of rings (size 3 to 8) (size 9 to 14) (size 15 to 20)
#    0.000    2.000    2.500    1.125    1.750    4.750 
#    0.000    3.125    0.000    3.750    0.000    0.000 
#    0.000    0.000    0.000    0.000    0.000    0.000 
#
# Total GULP energy -178684.804178 kJ/mol
# GULP energy per Si atom -5583.900131 kJ/mol
# Density = 2.018688 g / cm^3
# Si number density = 20.232930 Si / 1000 Ang^3
#
#
#
# Elastic Constant Matrix: (Units=GPa)
#
#
# Indices 1 2 3 4 5 6 
#
# 1 31.7982 -1.0624 -2.8091 0.0000 -11.8761 0.0000
# 2 -1.0624 81.2555 11.6353 0.0000 8.7146 0.0000
# 3 -2.8091 11.6353 43.9009 0.0000 -8.4001 0.0000
# 4 0.0000 0.0000 0.0000 27.0971 0.0000 2.2681
# 5 -11.8761 8.7146 -8.4001 0.0000 17.4835 0.0000
# 6 0.0000 0.0000 0.0000 2.2681 0.0000 15.8940
#
#
#
# Elastic Compliance Matrix: (Units=1/GPa)
#
#
# Indices 1 2 3 4 5 6 
#
# 1 0.047729 -0.005566 0.012404 0.000000 0.041155 0.000000
# 2 -0.005566 0.014807 -0.007066 0.000000 -0.014556 0.000000
# 3 0.012404 -0.007066 0.030538 0.000000 0.026620 0.000000
# 4 0.000000 0.000000 0.000000 0.037350 0.000000 -0.005330
# 5 0.041155 -0.014556 0.026620 0.000000 0.105197 0.000000
# 6 0.000000 0.000000 0.000000 -0.005330 0.000000 0.063678
#
#
# Mechanical properties :
#
#
# Convention : Reuss Voigt Hill
#
# Bulk Modulus (GPa) = 10.79696 19.16469 14.98082
# Shear Modulus (GPa) = 15.12272 22.04096 18.58184
#
# Velocity S-wave (km/s) = 2.73688 3.30413 3.03379
# Velocity P-wave (km/s) = 3.91603 4.90397 4.43758
#
# Compressibility (1/GPa) = 0.09261868
#
# Stress axis : x y z
#
# Youngs Moduli (GPa) = 20.95168 67.53571 32.74564
#
# Poissons Ratio (x) = 0.37590 -0.40617
# Poissons Ratio (y) = 0.11662 0.23137
# Poissons Ratio (z) = -0.25988 0.47719
#
# Static dielectric constant tensor:
#      x y z
#    x 1.752380 0.000000 -0.016390 
#    y 0.000000 1.709870 0.000000 
#    z -0.016390 0.000000 1.723290 
# 
# From -- ./inp_files/241476.got.cif
#   From: 2010.05.17/outbox.cif.g08.bks.cpg/sg12_121_cif.got.tgz:241476.got - 2010.06.03 13:09:07.
