data_PCOD9176515
_publ_section_title
;
Structure prediction by ZEFSAII (Michael W. Deem and Ramdas Pophale) SiO2 
 PCOD9176515
Probable space group: C 2/M
;
_chemical_formula_sum "Si O2"
_cell_formula_units_Z 56
_cell_length_a 17.355461
_cell_length_b 13.931774
_cell_length_c 14.802443
_cell_angle_alpha 90.000000
_cell_angle_beta 125.264857
_cell_angle_gamma 90.000000
_cell_volume 2922.320455
_symmetry_space_group_name_H-M "C 2/M"
_symmetry_group_IT_number 12
_symmetry_cell_setting 'monoclinic'
loop_
_space_group_symop_operation_xyz
x,y,z
-x,y,-z
-x,-y,-z
x,-y,z
1/2+x,1/2+y,z
1/2-x,1/2+y,-z
1/2-x,1/2-y,-z
1/2+x,1/2-y,z
loop_
_atom_site_type_symbol
_atom_site_label
_atom_site_fract_x
_atom_site_fract_y
_atom_site_fract_z
Si Si1 0.022560 0.211099 0.412126
Si Si2 0.718454 0.389787 0.530929
Si Si3 0.664782 0.702749 0.827408
Si Si4 0.365405 0.889372 0.465874
Si Si5 0.748280 0.105505 0.946297
Si Si6 0.267614 0.251323 0.722436
Si Si7 0.399879 0.392498 0.886294
O O1 0.116673 0.156899 0.444216
O O2 0.049030 0.324148 0.439809
O O3 0.000000 0.178852 0.500000
O O4 0.936084 0.191684 0.287637
O O5 0.707813 0.500000 0.552726
O O6 0.785074 0.387891 0.488852
O O7 0.763760 0.324179 0.639365
O O8 0.692423 0.627983 0.923352
O O9 0.741259 0.700202 0.798220
O O10 0.676174 0.807735 0.880904
O O11 0.316404 0.829375 0.351953
O O12 0.387261 0.000000 0.459318
O O13 0.704700 0.000000 0.921051
O O14 0.821549 0.106885 0.912464
O O15 0.363729 0.311127 0.794449
O O16 0.402315 0.500000 0.847387
O O17 0.500000 0.373085 0.000000
#
# Coordination Sequence:
#
# PCOD9176515 Si02
#       7
#     8   8   8   8   8   8   8
#     4  11  20  36  55  86 112 140 184 231 277 327
#     4  10  22  37  53  78 114 151 185 222 272 334
#     4  10  20  35  53  79 108 138 185 224 273 332
#     4  10  21  36  54  80 112 147 182 221 281 337
#     4   9  20  36  53  75 108 144 176 224 276 319
#     4  10  18  35  54  75 106 145 180 227 278 328
#     4   9  18  32  54  82 104 132 181 230 277 325
#
# _framework density 19.162852999999998
#
# number of rings (size 3 to 8) (size 9 to 14) (size 15 to 20)
#    0.000    2.143    2.857    2.143    0.000    5.143 
#    0.000    2.857    0.000    0.429    0.000    0.000 
#    0.000    0.000    0.000    0.000    0.000    0.000 
#
# Total GULP energy -156283.495155 kJ/mol
# GULP energy per Si atom -5581.553398 kJ/mol
# Density = 1.911924 g / cm^3
# Si number density = 19.162853 Si / 1000 Ang^3
#
#
#
# Elastic Constant Matrix: (Units=GPa)
#
#
# Indices 1 2 3 4 5 6 
#
# 1 36.4131 5.3200 8.6015 0.0000 7.0090 0.0000
# 2 5.3200 85.0662 20.5552 0.0000 3.3477 0.0000
# 3 8.6015 20.5552 83.6764 0.0000 10.5358 0.0000
# 4 0.0000 0.0000 0.0000 13.7372 0.0000 -5.3829
# 5 7.0090 3.3477 10.5358 0.0000 28.0300 0.0000
# 6 0.0000 0.0000 0.0000 -5.3829 0.0000 15.9319
#
#
#
# Elastic Compliance Matrix: (Units=1/GPa)
#
#
# Indices 1 2 3 4 5 6 
#
# 1 0.029327 -0.001114 -0.001926 0.000000 -0.006476 0.000000
# 2 -0.001114 0.012543 -0.002953 0.000000 -0.000110 0.000000
# 3 -0.001926 -0.002953 0.013403 0.000000 -0.004204 0.000000
# 4 0.000000 0.000000 0.000000 0.083903 0.000000 0.028349
# 5 -0.006476 -0.000110 -0.004204 0.000000 0.038889 0.000000
# 6 0.000000 0.000000 0.000000 0.028349 0.000000 0.072345
#
#
# Mechanical properties :
#
#
# Convention : Reuss Voigt Hill
#
# Bulk Modulus (GPa) = 23.10079 30.45658 26.77868
# Shear Modulus (GPa) = 18.06193 22.91841 20.49017
#
# Velocity S-wave (km/s) = 3.07343 3.46205 3.27351
# Velocity P-wave (km/s) = 4.96747 5.64881 5.31906
#
# Compressibility (1/GPa) = 0.04328857
#
# Stress axis : x y z
#
# Youngs Moduli (GPa) = 34.09841 79.72535 74.60773
#
# Poissons Ratio (x) = 0.08881 0.14366
# Poissons Ratio (y) = 0.03798 0.22031
# Poissons Ratio (z) = 0.06566 0.23542
#
# Static dielectric constant tensor:
#      x y z
#    x 1.669060 0.000000 -0.009120 
#    y 0.000000 1.688180 0.000000 
#    z -0.009120 0.000000 1.669640 
# 
# From -- ./inp_files/156765.got.cif
#   From: 2010.05.17/outbox.cif.g08.bks.cpg/sg12_79_cif.got.tgz:156765.got - 2010.06.03 13:09:07.
