data_PCOD9176864
_publ_section_title
;
Structure prediction by ZEFSAII (Michael W. Deem and Ramdas Pophale) SiO2 
 PCOD9176864
Probable space group: C 2/M
;
_chemical_formula_sum "Si O2"
_cell_formula_units_Z 64
_cell_length_a 14.275902
_cell_length_b 12.462781
_cell_length_c 24.848495
_cell_angle_alpha 90.000000
_cell_angle_beta 42.261615
_cell_angle_gamma 90.000000
_cell_volume 2973.183965
_symmetry_space_group_name_H-M "C 2/M"
_symmetry_group_IT_number 12
_symmetry_cell_setting 'monoclinic'
loop_
_space_group_symop_operation_xyz
x,y,z
-x,y,-z
-x,-y,-z
x,-y,z
1/2+x,1/2+y,z
1/2-x,1/2+y,-z
1/2-x,1/2-y,-z
1/2+x,1/2-y,z
loop_
_atom_site_type_symbol
_atom_site_label
_atom_site_fract_x
_atom_site_fract_y
_atom_site_fract_z
Si Si1 0.334414 0.667847 0.912810
Si Si2 0.714190 0.624401 0.497478
Si Si3 0.332332 0.837716 0.330770
Si Si4 0.229136 0.218548 0.793386
Si Si5 0.041849 0.732853 0.042570
Si Si6 0.895764 0.118017 0.664007
Si Si7 0.603750 0.616751 0.739475
Si Si8 0.860397 0.384484 0.838862
O O1 0.399896 0.670508 0.944507
O O2 0.440669 0.614765 0.825911
O O3 0.344784 0.791182 0.888501
O O4 0.169342 0.648078 0.983789
O O5 0.752744 0.500000 0.503280
O O6 0.750000 0.750000 0.500000
O O7 0.776697 0.623292 0.411065
O O8 0.547261 0.625630 0.573582
O O9 0.220062 0.867158 0.332971
O O10 0.356702 0.709111 0.318945
O O11 0.481333 0.882666 0.249628
O O12 0.361522 0.289677 0.721235
O O13 0.180899 0.151381 0.762056
O O14 0.265756 0.144284 0.827896
O O15 0.101178 0.295517 0.865790
O O16 0.000000 0.763210 0.000000
O O17 0.881534 0.000000 0.694833
O O18 0.647239 0.500000 0.702573
O O19 0.825405 0.500000 0.876173
#
# Coordination Sequence:
#
# PCOD9176864 Si02
#       8
#     8   8   8   8   8   8   8   8
#     4   9  20  35  55  83 112 158 198 244 309 371
#     4  11  23  40  63  92 125 161 204 256 309 367
#     4  10  21  36  59  88 117 156 199 245 300 361
#     4  10  20  35  58  87 116 152 196 247 308 364
#     4  10  18  36  59  77 119 154 192 257 309 363
#     4  10  21  39  62  87 119 157 199 243 294 366
#     4   9  19  37  59  83 118 159 201 249 308 373
#     4  11  20  34  57  84 115 149 194 245 297 359
#
# _framework density 21.525746999999999
#
# number of rings (size 3 to 8) (size 9 to 14) (size 15 to 20)
#    0.000    2.000    1.250    3.375    0.000    1.500 
#    0.000   13.750    0.000    6.375    0.000    0.000 
#    0.000    0.000    0.000    0.000    0.000    0.000 
#
# Total GULP energy -178287.784243 kJ/mol
# GULP energy per Si atom -5571.493258 kJ/mol
# Density = 2.147675 g / cm^3
# Si number density = 21.525747 Si / 1000 Ang^3
#
#
#
# Elastic Constant Matrix: (Units=GPa)
#
#
# Indices 1 2 3 4 5 6 
#
# 1 67.8040 8.8443 5.9670 0.0000 -6.9281 0.0000
# 2 8.8443 142.6732 11.9665 0.0000 0.5920 0.0000
# 3 5.9670 11.9665 91.8246 0.0000 -13.2527 0.0000
# 4 0.0000 0.0000 0.0000 -14.5780 0.0000 -6.8162
# 5 -6.9281 0.5920 -13.2527 0.0000 32.4395 0.0000
# 6 0.0000 0.0000 0.0000 -6.8162 0.0000 4.4182
#
#
#
# Elastic Compliance Matrix: (Units=1/GPa)
#
#
# Indices 1 2 3 4 5 6 
#
# 1 0.015222 -0.000921 -0.000422 0.000000 0.003095 0.000000
# 2 -0.000921 0.007151 -0.000977 0.000000 -0.000726 0.000000
# 3 -0.000422 -0.000977 0.011726 0.000000 0.004718 0.000000
# 4 0.000000 0.000000 0.000000 -0.039851 0.000000 -0.061480
# 5 0.003095 -0.000726 0.004718 0.000000 0.033428 0.000000
# 6 0.000000 0.000000 0.000000 -0.061480 0.000000 0.131490
#
#
# Mechanical properties :
#
#
# Convention : Reuss Voigt Hill
#
# Bulk Modulus (GPa) = 33.94617 39.53970 36.74293
# Shear Modulus (GPa) = 28.79743 22.82420 25.81081
#
# Velocity S-wave (km/s) = 3.66158 3.25979 3.46651
# Velocity P-wave (km/s) = 5.80349 5.70760 5.75575
#
# Compressibility (1/GPa) = 0.02945841
#
# Stress axis : x y z
#
# Youngs Moduli (GPa) = 65.69454 139.83922 85.28033
#
# Poissons Ratio (x) = 0.12879 0.03602
# Poissons Ratio (y) = 0.06051 0.08331
# Poissons Ratio (z) = 0.02775 0.13661
#
# Static dielectric constant tensor:
#      x y z
#    x 1.802010 0.000000 -0.015300 
#    y 0.000000 1.821890 0.000000 
#    z -0.015300 0.000000 1.767700 
# 
# From -- ./inp_files/361039.got.cif
#   From: 2010.05.17/outbox.cif.g08.bks.cpg/sg12_181_cif.got.tgz:361039.got - 2010.06.03 13:09:07.
