data_PCOD9176123
_publ_section_title
;
Structure prediction by ZEFSAII (Michael W. Deem and Ramdas Pophale) SiO2 
 PCOD9176123
Probable space group: C 2/M
;
_chemical_formula_sum "Si O2"
_cell_formula_units_Z 56
_cell_length_a 9.557680
_cell_length_b 22.312184
_cell_length_c 16.889956
_cell_angle_alpha 90.000000
_cell_angle_beta 60.259656
_cell_angle_gamma 90.000000
_cell_volume 3127.404806
_symmetry_space_group_name_H-M "C 2/M"
_symmetry_group_IT_number 12
_symmetry_cell_setting 'monoclinic'
loop_
_space_group_symop_operation_xyz
x,y,z
-x,y,-z
-x,-y,-z
x,-y,z
1/2+x,1/2+y,z
1/2-x,1/2+y,-z
1/2-x,1/2-y,-z
1/2+x,1/2-y,z
loop_
_atom_site_type_symbol
_atom_site_label
_atom_site_fract_x
_atom_site_fract_y
_atom_site_fract_z
Si Si1 0.869385 0.567494 0.237739
Si Si2 0.434564 0.739357 0.805095
Si Si3 0.685934 0.712701 0.424614
Si Si4 0.691957 0.659995 0.654510
Si Si5 0.501383 0.151926 0.333430
Si Si6 0.409456 0.176886 0.107578
Si Si7 0.050798 0.891529 0.392521
O O1 0.922831 0.500000 0.204415
O O2 0.882724 0.614364 0.161836
O O3 0.685068 0.565017 0.321543
O O4 0.968220 0.598385 0.281758
O O5 0.562087 0.685591 0.753919
O O6 0.446647 0.788220 0.730040
O O7 0.487129 0.778333 0.865872
O O8 0.260066 0.710159 0.859035
O O9 0.500000 0.720667 0.500000
O O10 0.758608 0.777804 0.401198
O O11 0.648422 0.672693 0.357214
O O12 0.828999 0.671169 0.420270
O O13 0.855199 0.636772 0.647809
O O14 0.603473 0.615726 0.619175
O O15 0.500000 0.166591 0.000000
O O16 0.000000 0.899846 0.500000
#
# Coordination Sequence:
#
# PCOD9176123 Si02
#       7
#     8   8   8   8   8   8   8
#     4  10  22  41  58  76 112 155 198 242 282 335
#     4  10  18  34  55  88 122 146 179 228 288 349
#     4   9  18  29  44  76 114 145 180 222 280 342
#     4  11  18  31  54  77 115 151 182 232 290 348
#     4   9  19  32  55  78 108 157 185 230 288 342
#     4  11  21  35  61  92 120 151 185 231 289 349
#     4  10  21  35  53  79 108 150 200 242 283 332
#
# _framework density 17.906220000000001
#
# number of rings (size 3 to 8) (size 9 to 14) (size 15 to 20)
#    0.000    2.000    2.857    3.000    0.000    6.857 
#    0.000    0.714    0.000    0.857    0.000    1.000 
#    0.000    0.000    0.000    0.000    0.000    0.000 
#
# Total GULP energy -155898.543166 kJ/mol
# GULP energy per Si atom -5567.805113 kJ/mol
# Density = 1.786546 g / cm^3
# Si number density = 17.906220 Si / 1000 Ang^3
#
#
#
# Elastic Constant Matrix: (Units=GPa)
#
#
# Indices 1 2 3 4 5 6 
#
# 1 164.2466 46.6701 45.6102 0.0000 -2.9957 0.0000
# 2 46.6701 98.4258 44.4964 0.0000 -4.4313 0.0000
# 3 45.6102 44.4964 100.3260 0.0000 3.3832 0.0000
# 4 0.0000 0.0000 0.0000 9.7022 0.0000 -1.4496
# 5 -2.9957 -4.4313 3.3832 0.0000 20.6399 0.0000
# 6 0.0000 0.0000 0.0000 -1.4496 0.0000 26.1394
#
#
#
# Elastic Compliance Matrix: (Units=1/GPa)
#
#
# Indices 1 2 3 4 5 6 
#
# 1 0.007446 -0.002431 -0.002339 0.000000 0.000942 0.000000
# 2 -0.002431 0.013785 -0.005125 0.000000 0.003447 0.000000
# 3 -0.002339 -0.005125 0.013426 0.000000 -0.003641 0.000000
# 4 0.000000 0.000000 0.000000 0.103930 0.000000 0.005764
# 5 0.000942 0.003447 -0.003641 0.000000 0.049923 0.000000
# 6 0.000000 0.000000 0.000000 0.005764 0.000000 0.038576
#
#
# Mechanical properties :
#
#
# Convention : Reuss Voigt Hill
#
# Bulk Modulus (GPa) = 67.25801 70.72799 68.99300
# Shear Modulus (GPa) = 19.85457 26.37775 23.11616
#
# Velocity S-wave (km/s) = 3.33349 3.84227 3.59689
# Velocity P-wave (km/s) = 7.24286 7.69863 7.47422
#
# Compressibility (1/GPa) = 0.01486812
#
# Stress axis : x y z
#
# Youngs Moduli (GPa) = 134.30522 72.54478 74.48003
#
# Poissons Ratio (x) = 0.17635 0.17418
# Poissons Ratio (y) = 0.32648 0.38170
# Poissons Ratio (z) = 0.31409 0.37178
#
# Static dielectric constant tensor:
#      x y z
#    x 1.645810 0.000000 0.012760 
#    y 0.000000 1.618570 0.000000 
#    z 0.012760 0.000000 1.685820 
# 
# From -- ./inp_files/258861.got.cif
#   From: 2010.05.17/outbox.cif.g08.bks.cpg/sg12_130_cif.got.tgz:258861.got - 2010.06.03 13:09:07.
