data_PCOD9176600
_publ_section_title
;
Structure prediction by ZEFSAII (Michael W. Deem and Ramdas Pophale) SiO2 
 PCOD9176600
Probable space group: C 2/M
;
_chemical_formula_sum "Si O2"
_cell_formula_units_Z 64
_cell_length_a 23.834311
_cell_length_b 15.473595
_cell_length_c 14.299558
_cell_angle_alpha 90.000000
_cell_angle_beta 138.573423
_cell_angle_gamma 90.000000
_cell_volume 3489.403157
_symmetry_space_group_name_H-M "C 2/M"
_symmetry_group_IT_number 12
_symmetry_cell_setting 'monoclinic'
loop_
_space_group_symop_operation_xyz
x,y,z
-x,y,-z
-x,-y,-z
x,-y,z
1/2+x,1/2+y,z
1/2-x,1/2+y,-z
1/2-x,1/2-y,-z
1/2+x,1/2-y,z
loop_
_atom_site_type_symbol
_atom_site_label
_atom_site_fract_x
_atom_site_fract_y
_atom_site_fract_z
Si Si1 0.082529 0.320236 0.665686
Si Si2 0.774128 0.600137 0.281224
Si Si3 0.012437 0.711896 0.775264
Si Si4 0.314045 0.759318 0.491841
Si Si5 0.424205 0.096251 0.977257
Si Si6 0.161313 0.825378 0.987422
Si Si7 0.289936 0.334184 0.149178
Si Si8 0.759449 0.901983 0.307724
O O1 0.149025 0.382948 0.697015
O O2 0.131471 0.229359 0.732811
O O3 0.000000 0.313835 0.500000
O O4 0.049143 0.335693 0.728604
O O5 0.772638 0.500000 0.307011
O O6 0.786896 0.664845 0.384762
O O7 0.690725 0.626914 0.117522
O O8 0.911444 0.722791 0.642678
O O9 0.042679 0.656878 0.900650
O O10 0.063103 0.802610 0.850425
O O11 0.250000 0.750000 0.500000
O O12 0.309281 0.669539 0.428232
O O13 0.404372 0.000000 0.989619
O O14 0.500000 0.090226 0.000000
O O15 0.339575 0.125091 0.817752
O O16 0.209986 0.731918 0.048789
O O17 0.197531 0.870662 0.938983
O O18 0.283270 0.396882 0.227962
O O19 0.768281 0.000000 0.353624
#
# Coordination Sequence:
#
# PCOD9176600 Si02
#       8
#     8   8   8   8   8   8   8   8
#     4  10  18  35  58  87 124 156 187 239 298 365
#     4  11  23  39  61  91 128 161 193 241 306 373
#     4  11  20  36  63  86 115 160 200 248 291 358
#     4  12  25  42  61  84 119 162 206 251 300 349
#     4  10  21  35  53  82 117 149 192 246 292 346
#     4   9  18  34  59  85 117 150 193 231 289 354
#     4   9  16  32  57  85 115 151 189 234 285 350
#     4  11  21  38  61  83 113 153 200 242 292 350
#
# _framework density 18.341246000000002
#
# number of rings (size 3 to 8) (size 9 to 14) (size 15 to 20)
#    0.000    1.625    5.000    1.500    0.000    2.250 
#    0.000    0.625    0.000    7.875    0.000    0.000 
#    0.000    0.000    0.000    0.000    0.000    0.000 
#
# Total GULP energy -178373.588315 kJ/mol
# GULP energy per Si atom -5574.174635 kJ/mol
# Density = 1.829950 g / cm^3
# Si number density = 18.341246 Si / 1000 Ang^3
#
#
#
# Elastic Constant Matrix: (Units=GPa)
#
#
# Indices 1 2 3 4 5 6 
#
# 1 89.6474 24.4982 13.2436 0.0000 -5.9222 0.0000
# 2 24.4982 71.3106 26.4156 0.0000 -8.3501 0.0000
# 3 13.2436 26.4156 64.3300 0.0000 -1.3047 0.0000
# 4 0.0000 0.0000 0.0000 7.9165 0.0000 2.2362
# 5 -5.9222 -8.3501 -1.3047 0.0000 18.7288 0.0000
# 6 0.0000 0.0000 0.0000 2.2362 0.0000 12.3373
#
#
#
# Elastic Compliance Matrix: (Units=1/GPa)
#
#
# Indices 1 2 3 4 5 6 
#
# 1 0.012448 -0.003634 -0.001025 0.000000 0.002245 0.000000
# 2 -0.003634 0.018544 -0.006732 0.000000 0.006650 0.000000
# 3 -0.001025 -0.006732 0.018479 0.000000 -0.002038 0.000000
# 4 0.000000 0.000000 0.000000 0.133136 0.000000 -0.024132
# 5 0.002245 0.006650 -0.002038 0.000000 0.056926 0.000000
# 6 0.000000 0.000000 0.000000 -0.024132 0.000000 0.085429
#
#
# Mechanical properties :
#
#
# Convention : Reuss Voigt Hill
#
# Bulk Modulus (GPa) = 37.46812 39.28921 38.37866
# Shear Modulus (GPa) = 14.01982 18.53855 16.27918
#
# Velocity S-wave (km/s) = 2.76776 3.18269 2.98245
# Velocity P-wave (km/s) = 5.53955 5.91386 5.72976
#
# Compressibility (1/GPa) = 0.02668936
#
# Stress axis : x y z
#
# Youngs Moduli (GPa) = 80.33739 53.92645 54.11632
#
# Poissons Ratio (x) = 0.19596 0.05546
# Poissons Ratio (y) = 0.29193 0.36429
# Poissons Ratio (z) = 0.08234 0.36301
#
# Static dielectric constant tensor:
#      x y z
#    x 1.688480 0.000000 0.002470 
#    y 0.000000 1.659040 0.000000 
#    z 0.002470 0.000000 1.638330 
# 
# From -- ./inp_files/240719.got.cif
#   From: 2010.05.17/outbox.cif.g08.bks.cpg/sg12_121_cif.got.tgz:240719.got - 2010.06.03 13:09:07.
