data_PCOD9176984
_publ_section_title
;
Structure prediction by ZEFSAII (Michael W. Deem and Ramdas Pophale) SiO2 
 PCOD9176984
Probable space group: C 2/M
;
_chemical_formula_sum "Si O2"
_cell_formula_units_Z 32
_cell_length_a 17.237140
_cell_length_b 9.929701
_cell_length_c 16.168338
_cell_angle_alpha 90.000000
_cell_angle_beta 144.269306
_cell_angle_gamma 90.000000
_cell_volume 1616.076389
_symmetry_space_group_name_H-M "C 2/M"
_symmetry_group_IT_number 12
_symmetry_cell_setting 'monoclinic'
loop_
_space_group_symop_operation_xyz
x,y,z
-x,y,-z
-x,-y,-z
x,-y,z
1/2+x,1/2+y,z
1/2-x,1/2+y,-z
1/2-x,1/2-y,-z
1/2+x,1/2-y,z
loop_
_atom_site_type_symbol
_atom_site_label
_atom_site_fract_x
_atom_site_fract_y
_atom_site_fract_z
Si Si1 0.204056 0.000000 0.817611
Si Si2 0.525010 0.500000 0.244408
Si Si3 0.992472 0.500000 0.866899
Si Si4 0.730147 0.500000 0.561290
Si Si5 0.074513 0.198429 0.145339
Si Si6 0.847731 0.781704 0.370175
O O1 0.182618 0.873505 0.737208
O O2 0.348110 0.000000 0.987041
O O3 0.091797 0.000000 0.790065
O O4 0.661994 0.500000 0.414038
O O5 0.519988 0.628788 0.180143
O O6 0.891379 0.500000 0.700465
O O7 0.947420 0.359969 0.869397
O O8 0.676321 0.374263 0.569113
O O9 0.231329 0.173265 0.273407
O O10 0.000000 0.149913 0.000000
O O11 0.000000 0.737782 0.500000
#
# Coordination Sequence:
#
# PCOD9176984 Si02
#       6
#     4   4   4   4   8   8
#     4  11  19  39  63  93 119 156 209 249 294 352
#     4  12  25  39  59  93 135 154 188 256 322 356
#     4  10  21  38  68  86 116 157 214 250 278 362
#     4   9  19  35  59  94 117 155 196 254 304 344
#     4  11  23  41  63  89 123 166 201 243 306 363
#     4  10  18  36  66  88 115 157 216 243 284 364
#
# _framework density 19.801044999999998
#
# number of rings (size 3 to 8) (size 9 to 14) (size 15 to 20)
#    0.000    1.500    5.000    2.250    0.000    5.000 
#    0.000    0.625    0.000    0.000    0.000    0.000 
#    0.000    0.000    0.000    0.000    0.000    0.000 
#
# Total GULP energy -89196.101711 kJ/mol
# GULP energy per Si atom -5574.756357 kJ/mol
# Density = 1.975598 g / cm^3
# Si number density = 19.801045 Si / 1000 Ang^3
#
#
#
# Elastic Constant Matrix: (Units=GPa)
#
#
# Indices 1 2 3 4 5 6 
#
# 1 99.0240 24.9386 44.4665 0.0000 -4.7139 0.0000
# 2 24.9386 69.2974 15.6540 0.0000 -5.9012 0.0000
# 3 44.4665 15.6540 153.0987 0.0000 4.5087 0.0000
# 4 0.0000 0.0000 0.0000 -16.5254 0.0000 -5.9791
# 5 -4.7139 -5.9012 4.5087 0.0000 49.2085 0.0000
# 6 0.0000 0.0000 0.0000 -5.9791 0.0000 9.3820
#
#
#
# Elastic Compliance Matrix: (Units=1/GPa)
#
#
# Indices 1 2 3 4 5 6 
#
# 1 0.012560 -0.003683 -0.003303 0.000000 0.001064 0.000000
# 2 -0.003683 0.016034 -0.000618 0.000000 0.001627 0.000000
# 3 -0.003303 -0.000618 0.007586 0.000000 -0.001086 0.000000
# 4 0.000000 0.000000 0.000000 -0.049174 0.000000 -0.031339
# 5 0.001064 0.001627 -0.001086 0.000000 0.020718 0.000000
# 6 0.000000 0.000000 0.000000 -0.031339 0.000000 0.086615
#
#
# Mechanical properties :
#
#
# Convention : Reuss Voigt Hill
#
# Bulk Modulus (GPa) = 47.68039 54.61535 51.14787
# Shear Modulus (GPa) = 42.90461 24.17042 33.53751
#
# Velocity S-wave (km/s) = 4.65992 3.49759 4.11995
# Velocity P-wave (km/s) = 7.28596 6.62969 6.96556
#
# Compressibility (1/GPa) = 0.02097298
#
# Stress axis : x y z
#
# Youngs Moduli (GPa) = 79.61852 62.36697 131.82041
#
# Poissons Ratio (x) = 0.22972 0.43536
# Poissons Ratio (y) = 0.29326 0.08141
# Poissons Ratio (z) = 0.26295 0.03851
#
# Static dielectric constant tensor:
#      x y z
#    x 1.656110 0.000000 0.026970 
#    y 0.000000 1.724800 0.000000 
#    z 0.026970 0.000000 1.743330 
# 
# From -- ./inp_files/213148.got.cif
#   From: 2010.05.17/outbox.cif.g08.bks.cpg/sg12_107_cif.got.tgz:213148.got - 2010.06.03 13:09:07.
