data_PCOD9176723
_publ_section_title
;
Structure prediction by ZEFSAII (Michael W. Deem and Ramdas Pophale) SiO2 
 PCOD9176723
Probable space group: C 2/M
;
_chemical_formula_sum "Si O2"
_cell_formula_units_Z 48
_cell_length_a 15.227354
_cell_length_b 15.068168
_cell_length_c 28.911608
_cell_angle_alpha 90.000000
_cell_angle_beta 19.516650
_cell_angle_gamma 90.000000
_cell_volume 2216.198355
_symmetry_space_group_name_H-M "C 2/M"
_symmetry_group_IT_number 12
_symmetry_cell_setting 'monoclinic'
loop_
_space_group_symop_operation_xyz
x,y,z
-x,y,-z
-x,-y,-z
x,-y,z
1/2+x,1/2+y,z
1/2-x,1/2+y,-z
1/2-x,1/2-y,-z
1/2+x,1/2-y,z
loop_
_atom_site_type_symbol
_atom_site_label
_atom_site_fract_x
_atom_site_fract_y
_atom_site_fract_z
Si Si1 0.055197 0.108739 0.134916
Si Si2 0.116624 0.158471 0.580797
Si Si3 0.547048 0.891922 0.831176
Si Si4 0.392764 0.099757 0.711030
Si Si5 0.693457 0.107631 0.146592
Si Si6 0.692079 0.607445 0.646193
O O1 0.832849 0.141327 0.209012
O O2 0.973802 0.136518 0.226730
O O3 0.045033 0.000000 0.140549
O O4 0.338232 0.134064 0.974534
O O5 0.250000 0.250000 0.500000
O O6 0.340107 0.093787 0.449997
O O7 0.094439 0.146413 0.646511
O O8 0.836213 0.143347 0.697192
O O9 0.434523 0.860629 0.837508
O O10 0.559799 0.000000 0.824959
O O11 0.435938 0.137987 0.740810
O O12 0.291760 0.000000 0.770144
O O13 0.674760 0.000000 0.152250
O O14 0.000000 0.130369 0.000000
O O15 0.675994 0.500000 0.650990
O O16 0.000000 0.629840 0.500000
#
# Coordination Sequence:
#
# PCOD9176723 Si02
#       6
#     8   8   8   8   8   8
#     4   9  17  32  64  98 117 147 202 267 318 356
#     4  12  26  41  54  83 128 169 202 250 314 371
#     4  10  20  37  62  95 127 156 202 262 311 362
#     4  10  18  35  62  88 116 155 205 252 304 370
#     4   9  16  30  59  93 121 150 190 243 303 364
#     4  10  19  37  68  94 113 155 214 264 310 364
#
# _framework density 21.658712000000001
#
# number of rings (size 3 to 8) (size 9 to 14) (size 15 to 20)
#    0.000    2.000    3.333    1.500    0.000    1.333 
#    3.000    5.833    3.667    0.000    0.000    0.000 
#    0.000    0.000    0.000    0.000    0.000    0.167 
#
# Total GULP energy -134021.582984 kJ/mol
# GULP energy per Si atom -5584.232624 kJ/mol
# Density = 2.160942 g / cm^3
# Si number density = 21.658712 Si / 1000 Ang^3
#
#
#
# Elastic Constant Matrix: (Units=GPa)
#
#
# Indices 1 2 3 4 5 6 
#
# 1 180.0851 10.9822 80.8513 -0.0026 5.5884 0.0745
# 2 10.9822 42.7336 12.7287 -0.0066 0.7107 -0.0318
# 3 80.8513 12.7287 150.2494 0.1117 -4.9483 0.0342
# 4 -0.0026 -0.0066 0.1117 12.0206 -0.0280 9.1576
# 5 5.5884 0.7107 -4.9483 -0.0280 44.4983 -0.0113
# 6 0.0745 -0.0318 0.0342 9.1576 -0.0113 -34.3503
#
#
#
# Elastic Compliance Matrix: (Units=1/GPa)
#
#
# Indices 1 2 3 4 5 6 
#
# 1 0.007425 -0.000700 -0.003981 0.000021 -0.001364 0.000019
# 2 -0.000700 0.024089 -0.001680 0.000039 -0.000484 -0.000015
# 3 -0.003981 -0.001680 0.008991 -0.000069 0.001527 -0.000017
# 4 0.000021 0.000039 -0.000069 0.069147 0.000037 0.018434
# 5 -0.001364 -0.000484 0.001527 0.000037 0.022822 0.000001
# 6 0.000019 -0.000015 -0.000017 0.018434 0.000001 -0.024197
#
#
# Mechanical properties :
#
#
# Convention : Reuss Voigt Hill
#
# Bulk Modulus (GPa) = 35.99362 64.68806 50.34084
# Shear Modulus (GPa) = 38.38462 22.33411 30.35937
#
# Velocity S-wave (km/s) = 4.21438 3.21469 3.74801
# Velocity P-wave (km/s) = 6.35106 6.61141 6.48254
#
# Compressibility (1/GPa) = 0.02778270
#
# Stress axis : x y z
#
# Youngs Moduli (GPa) = 134.67268 41.51252 111.22581
#
# Poissons Ratio (x) = 0.02904 0.44283
# Poissons Ratio (y) = 0.09423 0.18688
# Poissons Ratio (z) = 0.53618 0.06975
#
# Static dielectric constant tensor:
#      x y z
#    x 1.783120 0.000070 0.023600 
#    y 0.000070 1.865790 -0.000080 
#    z 0.023600 -0.000080 1.745760 
# 
# From -- ./inp_files/376575.got.cif
#   From: 2010.05.17/outbox.cif.g08.bks.cpg/sg12_189_cif.got.tgz:376575.got - 2010.06.03 13:09:07.
