data_PCOD9176120
_publ_section_title
;
Structure prediction by ZEFSAII (Michael W. Deem and Ramdas Pophale) SiO2 
 PCOD9176120
Probable space group: C 2/M
;
_chemical_formula_sum "Si O2"
_cell_formula_units_Z 56
_cell_length_a 32.107168
_cell_length_b 16.585326
_cell_length_c 9.475745
_cell_angle_alpha 90.000000
_cell_angle_beta 140.771881
_cell_angle_gamma 90.000000
_cell_volume 3191.080751
_symmetry_space_group_name_H-M "C 2/M"
_symmetry_group_IT_number 12
_symmetry_cell_setting 'monoclinic'
loop_
_space_group_symop_operation_xyz
x,y,z
-x,y,-z
-x,-y,-z
x,-y,z
1/2+x,1/2+y,z
1/2-x,1/2+y,-z
1/2-x,1/2-y,-z
1/2+x,1/2-y,z
loop_
_atom_site_type_symbol
_atom_site_label
_atom_site_fract_x
_atom_site_fract_y
_atom_site_fract_z
Si Si1 0.705824 0.688936 0.794761
Si Si2 0.514003 0.903153 0.373312
Si Si3 0.635666 0.157194 0.521218
Si Si4 0.717054 0.406159 0.085785
Si Si5 0.763376 0.407626 0.694546
Si Si6 0.310480 0.689751 0.705052
Si Si7 0.891623 0.660126 0.875825
O O1 0.652309 0.747594 0.583444
O O2 0.751610 0.648273 0.798026
O O3 0.750000 0.750000 0.000000
O O4 0.684626 0.622335 0.853330
O O5 0.500000 0.882737 0.500000
O O6 0.583639 0.870775 0.500509
O O7 0.512681 0.000000 0.356985
O O8 0.457792 0.865888 0.126224
O O9 0.704040 0.108454 0.717773
O O10 0.609640 0.142882 0.294340
O O11 0.704294 0.500000 0.082693
O O12 0.695789 0.345464 0.154916
O O13 0.763096 0.500000 0.735475
O O14 0.702871 0.385374 0.432255
O O15 0.831065 0.387477 0.791225
O O16 0.250000 0.750000 0.500000
O O17 0.373748 0.745489 0.850640
#
# Coordination Sequence:
#
# PCOD9176120 Si02
#       7
#     8   8   8   8   8   8   8
#     4  10  21  35  54  82 114 151 185 229 279 336
#     4  11  27  41  55  82 112 147 191 232 272 324
#     4  11  21  39  58  77 113 155 190 225 271 334
#     4  11  21  33  56  88 119 148 183 230 286 330
#     4  11  20  33  57  87 117 144 180 231 284 329
#     4  10  18  34  55  83 113 147 185 229 275 336
#     4  11  21  38  57  80 112 154 189 224 271 334
#
# _framework density 17.548912000000001
#
# number of rings (size 3 to 8) (size 9 to 14) (size 15 to 20)
#    0.000    1.286    4.286    4.714    6.000    2.286 
#    0.000    0.000    0.000    0.000    0.000    6.000 
#    0.000    0.000    0.000    0.000    0.000    0.000 
#
# Total GULP energy -156212.727864 kJ/mol
# GULP energy per Si atom -5579.025995 kJ/mol
# Density = 1.750897 g / cm^3
# Si number density = 17.548912 Si / 1000 Ang^3
#
#
#
# Elastic Constant Matrix: (Units=GPa)
#
#
# Indices 1 2 3 4 5 6 
#
# 1 90.6880 15.5366 10.4978 0.0000 -20.6654 0.0000
# 2 15.5366 59.6423 4.4896 0.0000 -1.8320 0.0000
# 3 10.4978 4.4896 47.8902 0.0000 -14.2227 0.0000
# 4 0.0000 0.0000 0.0000 24.2719 0.0000 -5.7949
# 5 -20.6654 -1.8320 -14.2227 0.0000 28.9464 0.0000
# 6 0.0000 0.0000 0.0000 -5.7949 0.0000 24.8391
#
#
#
# Elastic Compliance Matrix: (Units=1/GPa)
#
#
# Indices 1 2 3 4 5 6 
#
# 1 0.013788 -0.003306 0.000174 0.000000 0.009720 0.000000
# 2 -0.003306 0.017681 -0.001524 0.000000 -0.001990 0.000000
# 3 0.000174 -0.001524 0.024581 0.000000 0.012106 0.000000
# 4 0.000000 0.000000 0.000000 0.043630 0.000000 0.010179
# 5 0.009720 -0.001990 0.012106 0.000000 0.047308 0.000000
# 6 0.000000 0.000000 0.000000 0.010179 0.000000 0.042634
#
#
# Mechanical properties :
#
#
# Convention : Reuss Voigt Hill
#
# Bulk Modulus (GPa) = 21.39558 28.80760 25.10159
# Shear Modulus (GPa) = 23.30852 26.79124 25.04988
#
# Velocity S-wave (km/s) = 3.64841 3.91149 3.78224
# Velocity P-wave (km/s) = 5.47414 6.07050 5.78002
#
# Compressibility (1/GPa) = 0.04673863
#
# Stress axis : x y z
#
# Youngs Moduli (GPa) = 72.52691 56.55632 40.68185
#
# Poissons Ratio (x) = 0.18699 -0.00709
# Poissons Ratio (y) = 0.23979 0.06199
# Poissons Ratio (z) = -0.01264 0.08619
#
# Static dielectric constant tensor:
#      x y z
#    x 1.616970 0.000000 -0.029260 
#    y 0.000000 1.634280 0.000000 
#    z -0.029260 0.000000 1.612530 
# 
# From -- ./inp_files/97654.got.cif
#   From: 2010.05.17/outbox.cif.g08.bks.cpg/sg12_49_cif.got.tgz:97654.got - 2010.06.03 13:09:07.
