data_PCOD9176360
_publ_section_title
;
Structure prediction by ZEFSAII (Michael W. Deem and Ramdas Pophale) SiO2 
 PCOD9176360
Probable space group: C 2/M
;
_chemical_formula_sum "Si O2"
_cell_formula_units_Z 44
_cell_length_a 14.527551
_cell_length_b 15.532709
_cell_length_c 21.164893
_cell_angle_alpha 90.000000
_cell_angle_beta 152.719525
_cell_angle_gamma 90.000000
_cell_volume 2189.020401
_symmetry_space_group_name_H-M "C 2/M"
_symmetry_group_IT_number 12
_symmetry_cell_setting 'monoclinic'
loop_
_space_group_symop_operation_xyz
x,y,z
-x,y,-z
-x,-y,-z
x,-y,z
1/2+x,1/2+y,z
1/2-x,1/2+y,-z
1/2-x,1/2-y,-z
1/2+x,1/2-y,z
loop_
_atom_site_type_symbol
_atom_site_label
_atom_site_fract_x
_atom_site_fract_y
_atom_site_fract_z
Si Si1 0.605441 0.306241 0.319740
Si Si2 0.664814 0.194582 0.008974
Si Si3 0.085892 0.500000 0.779294
Si Si4 0.361409 0.000000 0.048051
Si Si5 0.194401 0.185353 0.225523
Si Si6 0.099296 0.343698 0.408137
Si Si7 0.508319 0.500000 0.093369
O O1 0.363487 0.309009 0.173397
O O2 0.674284 0.307584 0.289245
O O3 0.725843 0.373077 0.437204
O O4 0.669984 0.219792 0.395696
O O5 0.466688 0.249350 0.903923
O O6 0.605397 0.094559 0.961217
O O7 0.750000 0.250000 0.000000
O O8 0.023956 0.500000 0.814917
O O9 0.327441 0.500000 0.932332
O O10 0.004118 0.419347 0.693003
O O11 0.124674 0.000000 0.922733
O O12 0.419748 0.198664 0.339526
O O13 0.128819 0.088253 0.167939
#
# Coordination Sequence:
#
# PCOD9176360 Si02
#       7
#     8   8   4   4   8   8   4
#     4  10  21  38  52  79 115 154 181 220 280 340
#     4  10  18  34  60  80 107 148 188 227 276 319
#     4  10  19  34  51  85 116 137 176 237 284 332
#     4  10  18  35  58  85 111 146 192 233 274 337
#     4  11  21  37  59  86 110 149 189 235 276 330
#     4  11  23  34  56  84 117 147 183 227 288 338
#     4  10  19  33  60  86 115 140 187 234 287 332
#
# _framework density 20.100314999999998
#
# number of rings (size 3 to 8) (size 9 to 14) (size 15 to 20)
#    0.545    1.091    3.636    4.364    0.000    5.091 
#    0.000    1.818    0.000    7.636    0.000   15.273 
#    0.000    0.000    0.000    0.000    0.000    0.000 
#
# Total GULP energy -122537.385567 kJ/mol
# GULP energy per Si atom -5569.881162 kJ/mol
# Density = 2.005457 g / cm^3
# Si number density = 20.100315 Si / 1000 Ang^3
#
#
#
# Elastic Constant Matrix: (Units=GPa)
#
#
# Indices 1 2 3 4 5 6 
#
# 1 57.5458 35.8202 46.6193 0.0031 -21.0934 -0.0009
# 2 35.8202 116.6179 43.5219 0.0047 -1.2454 -0.0046
# 3 46.6193 43.5219 160.5657 0.0080 -21.1045 -0.0125
# 4 0.0031 0.0047 0.0080 11.3976 -0.0004 13.8401
# 5 -21.0934 -1.2454 -21.1045 -0.0004 36.6834 0.0001
# 6 -0.0009 -0.0046 -0.0125 13.8401 0.0001 -27.6262
#
#
#
# Elastic Compliance Matrix: (Units=1/GPa)
#
#
# Indices 1 2 3 4 5 6 
#
# 1 0.031916 -0.007704 -0.005193 -0.000003 0.015103 0.000001
# 2 -0.007704 0.011454 -0.001513 0.000000 -0.004912 -0.000001
# 3 -0.005193 -0.001513 0.008381 0.000000 0.001784 -0.000003
# 4 -0.000003 0.000000 0.000000 0.054552 -0.000001 0.027329
# 5 0.015103 -0.004912 0.001784 -0.000001 0.036804 -0.000001
# 6 0.000001 -0.000001 -0.000003 0.027329 -0.000001 -0.022506
#
#
# Mechanical properties :
#
#
# Convention : Reuss Voigt Hill
#
# Bulk Modulus (GPa) = 43.61287 65.18359 54.39823
# Shear Modulus (GPa) = 31.83414 18.00882 24.92148
#
# Velocity S-wave (km/s) = 3.98397 2.99648 3.52498
# Velocity P-wave (km/s) = 6.55037 6.66869 6.60980
#
# Compressibility (1/GPa) = 0.02292901
#
# Stress axis : x y z
#
# Youngs Moduli (GPa) = 31.33219 87.30839 119.32437
#
# Poissons Ratio (x) = 0.67261 0.61970
# Poissons Ratio (y) = 0.24138 0.18058
# Poissons Ratio (z) = 0.16272 0.13213
#
# Static dielectric constant tensor:
#      x y z
#    x 1.772550 -0.000010 0.002150 
#    y -0.000010 1.894620 -0.000010 
#    z 0.002150 -0.000010 1.765310 
# 
# From -- ./inp_files/224451.got.cif
#   From: 2010.05.17/outbox.cif.g08.bks.cpg/sg12_113_cif.got.tgz:224451.got - 2010.06.03 13:09:07.
