data_PCOD9176292
_publ_section_title
;
Structure prediction by ZEFSAII (Michael W. Deem and Ramdas Pophale) SiO2 
 PCOD9176292
Probable space group: C 2/M
;
_chemical_formula_sum "Si O2"
_cell_formula_units_Z 24
_cell_length_a 13.731518
_cell_length_b 13.068584
_cell_length_c 14.336407
_cell_angle_alpha 90.000000
_cell_angle_beta 149.811958
_cell_angle_gamma 90.000000
_cell_volume 1293.650141
_symmetry_space_group_name_H-M "C 2/M"
_symmetry_group_IT_number 12
_symmetry_cell_setting 'monoclinic'
loop_
_space_group_symop_operation_xyz
x,y,z
-x,y,-z
-x,-y,-z
x,-y,z
1/2+x,1/2+y,z
1/2-x,1/2+y,-z
1/2-x,1/2-y,-z
1/2+x,1/2-y,z
loop_
_atom_site_type_symbol
_atom_site_label
_atom_site_fract_x
_atom_site_fract_y
_atom_site_fract_z
Si Si1 0.604962 0.000000 0.986541
Si Si2 0.124895 0.231570 0.509459
Si Si3 0.464859 0.500000 0.581776
Si Si4 0.035729 0.296032 0.814747
O O1 0.548270 0.902102 0.879756
O O2 0.500000 0.000000 0.000000
O O3 0.832522 0.000000 0.196547
O O4 0.350063 0.261655 0.707048
O O5 0.000000 0.237351 0.500000
O O6 0.128824 0.111491 0.479332
O O7 0.022941 0.294958 0.342812
O O8 0.500000 0.500000 0.500000
O O9 0.250000 0.250000 0.000000
#
# Coordination Sequence:
#
# PCOD9176292 Si02
#       4
#     4   8   4   8
#     4  12  22  38  63  92 122 159 207 257 300 364
#     4  10  21  39  60  88 126 163 200 254 308 359
#     4  10  18  34  58  89 119 154 198 247 303 349
#     4  11  23  37  60  94 123 158 207 252 305 365
#
# _framework density 18.552156
#
# number of rings (size 3 to 8) (size 9 to 14) (size 15 to 20)
#    0.000    1.333    3.333    5.000    0.000    0.000 
#    0.000    0.833    0.000    2.000    0.000    0.000 
#    0.000    0.000    0.000    0.000    0.000    0.000 
#
# Total GULP energy -66870.740618 kJ/mol
# GULP energy per Si atom -5572.561718 kJ/mol
# Density = 1.850993 g / cm^3
# Si number density = 18.552156 Si / 1000 Ang^3
#
#
#
# Elastic Constant Matrix: (Units=GPa)
#
#
# Indices 1 2 3 4 5 6 
#
# 1 147.6198 52.8574 68.7739 0.0003 6.3861 0.0001
# 2 52.8574 75.6767 42.5406 0.0005 -20.6134 0.0004
# 3 68.7739 42.5406 177.5774 0.0010 20.2401 0.0007
# 4 0.0003 0.0005 0.0010 32.2976 0.0005 -5.8505
# 5 6.3861 -20.6134 20.2401 0.0005 41.7438 0.0003
# 6 0.0001 0.0004 0.0007 -5.8505 0.0003 26.7448
#
#
#
# Elastic Compliance Matrix: (Units=1/GPa)
#
#
# Indices 1 2 3 4 5 6 
#
# 1 0.010491 -0.007582 -0.001733 0.000000 -0.004509 0.000000
# 2 -0.007582 0.025868 -0.005132 -0.000001 0.016422 -0.000001
# 3 -0.001733 -0.005132 0.008246 0.000000 -0.006268 0.000000
# 4 0.000000 -0.000001 0.000000 0.032240 -0.000001 0.007052
# 5 -0.004509 0.016422 -0.006268 -0.000001 0.035794 -0.000001
# 6 0.000000 -0.000001 0.000000 0.007052 -0.000001 0.038933
#
#
# Mechanical properties :
#
#
# Convention : Reuss Voigt Hill
#
# Bulk Modulus (GPa) = 63.64781 81.02419 72.33600
# Shear Modulus (GPa) = 26.92460 35.93739 31.43099
#
# Velocity S-wave (km/s) = 3.81372 4.40602 4.12053
# Velocity P-wave (km/s) = 7.33311 8.34581 7.85580
#
# Compressibility (1/GPa) = 0.01571146
#
# Stress axis : x y z
#
# Youngs Moduli (GPa) = 95.31676 38.65778 121.26425
#
# Poissons Ratio (x) = 0.29309 0.21015
# Poissons Ratio (y) = 0.72266 0.62238
# Poissons Ratio (z) = 0.16519 0.19841
#
# Static dielectric constant tensor:
#      x y z
#    x 1.660090 0.000000 0.052400 
#    y 0.000000 1.686940 0.000000 
#    z 0.052400 0.000000 1.683730 
# 
# From -- ./inp_files/82608.got.cif
#   From: 2010.05.17/outbox.cif.g08.bks.cpg/sg12_42_cif.got.tgz:82608.got - 2010.06.03 13:09:07.
