data_PCOD9176355
_publ_section_title
;
Structure prediction by ZEFSAII (Michael W. Deem and Ramdas Pophale) SiO2 
 PCOD9176355
Probable space group: C 2/M
;
_chemical_formula_sum "Si O2"
_cell_formula_units_Z 48
_cell_length_a 21.312208
_cell_length_b 17.278126
_cell_length_c 16.328435
_cell_angle_alpha 90.000000
_cell_angle_beta 22.223957
_cell_angle_gamma 90.000000
_cell_volume 2274.171385
_symmetry_space_group_name_H-M "C 2/M"
_symmetry_group_IT_number 12
_symmetry_cell_setting 'monoclinic'
loop_
_space_group_symop_operation_xyz
x,y,z
-x,y,-z
-x,-y,-z
x,-y,z
1/2+x,1/2+y,z
1/2-x,1/2+y,-z
1/2-x,1/2-y,-z
1/2+x,1/2-y,z
loop_
_atom_site_type_symbol
_atom_site_label
_atom_site_fract_x
_atom_site_fract_y
_atom_site_fract_z
Si Si1 0.217415 0.334070 0.999676
Si Si2 0.835376 0.305049 0.648164
Si Si3 0.390328 0.088988 0.433294
Si Si4 0.556422 0.626731 0.520002
Si Si5 0.517111 0.738063 0.126347
Si Si6 0.763896 0.150265 0.548460
O O1 0.127709 0.309340 0.024800
O O2 0.084093 0.387410 0.204294
O O3 0.250000 0.250000 0.000000
O O4 0.386903 0.374433 0.775467
O O5 0.812374 0.354965 0.594566
O O6 0.886293 0.216006 0.565981
O O7 0.000000 0.332807 0.500000
O O8 0.658842 0.309453 0.908517
O O9 0.317810 0.106883 0.430394
O O10 0.364585 0.000000 0.483472
O O11 0.500000 0.593726 0.500000
O O12 0.689741 0.600814 0.427266
O O13 0.363767 0.781987 0.269443
O O14 0.425139 0.692450 0.311823
#
# Coordination Sequence:
#
# PCOD9176355 Si02
#       6
#     8   8   8   8   8   8
#     4  11  17  36  64  91 126 160 215 263 312 377
#     4  11  20  35  63 101 132 153 206 270 325 370
#     4  11  25  42  59  88 136 183 207 245 319 396
#     4  11  20  34  62 101 118 145 206 289 327 354
#     4  10  18  34  59  93 125 160 199 269 314 363
#     4  10  22  36  58  86 127 169 212 250 317 376
#
# _framework density 21.106589
#
# number of rings (size 3 to 8) (size 9 to 14) (size 15 to 20)
#    0.000    1.333    6.667    2.000    0.000    3.000 
#    0.000    2.500    0.000    3.000    0.000    0.000 
#    0.000    0.000    0.000    0.000    0.000    0.000 
#
# Total GULP energy -133622.513596 kJ/mol
# GULP energy per Si atom -5567.604733 kJ/mol
# Density = 2.105855 g / cm^3
# Si number density = 21.106589 Si / 1000 Ang^3
#
#
#
# Elastic Constant Matrix: (Units=GPa)
#
#
# Indices 1 2 3 4 5 6 
#
# 1 129.6534 18.6741 37.6050 0.0020 -6.7288 -0.0014
# 2 18.6741 59.1272 13.6713 0.0004 -0.8035 0.0000
# 3 37.6050 13.6713 135.8942 -0.0008 -5.7840 0.0001
# 4 0.0020 0.0004 -0.0008 7.4746 -0.0017 -2.8009
# 5 -6.7288 -0.8035 -5.7840 -0.0017 20.3478 0.0013
# 6 -0.0014 0.0000 0.0001 -2.8009 0.0013 4.0319
#
#
#
# Elastic Compliance Matrix: (Units=1/GPa)
#
#
# Indices 1 2 3 4 5 6 
#
# 1 0.008762 -0.002251 -0.002104 -0.000001 0.002211 0.000001
# 2 -0.002251 0.017894 -0.001193 -0.000001 -0.000377 -0.000001
# 3 -0.002104 -0.001193 0.008128 0.000002 0.001567 0.000000
# 4 -0.000001 -0.000001 0.000002 0.180869 0.000007 0.125646
# 5 0.002211 -0.000377 0.001567 0.000007 0.050307 -0.000010
# 6 0.000001 -0.000001 0.000000 0.125646 -0.000010 0.335308
#
#
# Mechanical properties :
#
#
# Convention : Reuss Voigt Hill
#
# Bulk Modulus (GPa) = 42.21638 51.61951 46.91794
# Shear Modulus (GPa) = 8.06112 23.35247 15.70679
#
# Velocity S-wave (km/s) = 1.95641 3.32988 2.73090
# Velocity P-wave (km/s) = 5.01481 6.26848 5.67636
#
# Compressibility (1/GPa) = 0.02368749
#
# Stress axis : x y z
#
# Youngs Moduli (GPa) = 114.12829 55.88347 123.03596
#
# Poissons Ratio (x) = 0.12578 0.25889
# Poissons Ratio (y) = 0.25688 0.14683
# Poissons Ratio (z) = 0.24014 0.06669
#
# Static dielectric constant tensor:
#      x y z
#    x 1.817230 0.000000 0.028190 
#    y 0.000000 1.744840 0.000000 
#    z 0.028190 0.000000 1.772640 
# 
# From -- ./inp_files/272119.got.cif
#   From: 2010.05.17/outbox.cif.g08.bks.cpg/sg12_137_cif.got.tgz:272119.got - 2010.06.03 13:09:07.
