data_PCOD9176228
_publ_section_title
;
Structure prediction by ZEFSAII (Michael W. Deem and Ramdas Pophale) SiO2 
 PCOD9176228
Probable space group: C 2/M
;
_chemical_formula_sum "Si O2"
_cell_formula_units_Z 48
_cell_length_a 9.204015
_cell_length_b 27.679343
_cell_length_c 16.064674
_cell_angle_alpha 90.000000
_cell_angle_beta 144.568811
_cell_angle_gamma 90.000000
_cell_volume 2372.612930
_symmetry_space_group_name_H-M "C 2/M"
_symmetry_group_IT_number 12
_symmetry_cell_setting 'monoclinic'
loop_
_space_group_symop_operation_xyz
x,y,z
-x,y,-z
-x,-y,-z
x,-y,z
1/2+x,1/2+y,z
1/2-x,1/2+y,-z
1/2-x,1/2-y,-z
1/2+x,1/2-y,z
loop_
_atom_site_type_symbol
_atom_site_label
_atom_site_fract_x
_atom_site_fract_y
_atom_site_fract_z
Si Si1 0.392345 0.905573 0.688537
Si Si2 0.145775 0.295673 0.654964
Si Si3 0.905820 0.118577 0.870124
Si Si4 0.777380 0.057285 0.100116
Si Si5 0.798286 0.297559 0.651510
Si Si6 0.509210 0.555545 0.382880
O O1 0.670302 0.915236 0.786063
O O2 0.390812 0.850492 0.721098
O O3 0.257302 0.938203 0.694253
O O4 0.206032 0.910313 0.521853
O O5 0.303712 0.341458 0.758978
O O6 0.316957 0.248319 0.720695
O O7 0.000000 0.304594 0.500000
O O8 0.943677 0.286806 0.633696
O O9 0.123451 0.087721 0.930207
O O10 0.000000 0.141801 0.000000
O O11 0.963355 0.065614 0.265123
O O12 0.774998 0.000000 0.081314
O O13 0.500000 0.071194 0.000000
O O14 0.500000 0.302576 0.500000
O O15 0.591894 0.500000 0.431810
#
# Coordination Sequence:
#
# PCOD9176228 Si02
#       6
#     8   8   8   8   8   8
#     4  10  20  35  61  88 124 158 204 244 306 361
#     4  10  22  36  61  88 118 155 206 251 301 359
#     4  11  25  41  59  88 124 162 203 253 308 364
#     4  10  23  41  63  88 120 163 207 246 304 371
#     4  10  18  34  57  89 116 156 202 249 296 354
#     4  10  20  36  61  93 124 157 200 254 302 361
#
# _framework density 20.230858999999999
#
# number of rings (size 3 to 8) (size 9 to 14) (size 15 to 20)
#    0.000    1.833    1.667    4.000    4.667    3.000 
#    0.000    5.000    0.000    2.000    0.000    0.000 
#    0.000    0.000    0.000    0.000    0.000    0.000 
#
# Total GULP energy -133947.150388 kJ/mol
# GULP energy per Si atom -5581.131266 kJ/mol
# Density = 2.018481 g / cm^3
# Si number density = 20.230859 Si / 1000 Ang^3
#
#
#
# Elastic Constant Matrix: (Units=GPa)
#
#
# Indices 1 2 3 4 5 6 
#
# 1 115.2712 39.7674 17.6797 0.0000 10.4595 0.0000
# 2 39.7674 62.5415 30.3879 0.0000 -6.5700 0.0000
# 3 17.6797 30.3879 51.8967 0.0000 -3.1662 0.0000
# 4 0.0000 0.0000 0.0000 -16.1677 0.0000 57.6111
# 5 10.4595 -6.5700 -3.1662 0.0000 33.5951 0.0000
# 6 0.0000 0.0000 0.0000 57.6111 0.0000 -85.1978
#
#
#
# Elastic Compliance Matrix: (Units=1/GPa)
#
#
# Indices 1 2 3 4 5 6 
#
# 1 0.011990 -0.008444 0.000534 0.000000 -0.005334 0.000000
# 2 -0.008444 0.028632 -0.013464 0.000000 0.006959 0.000000
# 3 0.000534 -0.013464 0.026955 0.000000 -0.000259 0.000000
# 4 0.000000 0.000000 0.000000 0.043880 0.000000 0.029672
# 5 -0.005334 0.006959 -0.000259 0.000000 0.032764 0.000000
# 6 0.000000 0.000000 0.000000 0.029672 0.000000 0.008327
#
#
# Mechanical properties :
#
#
# Convention : Reuss Voigt Hill
#
# Bulk Modulus (GPa) = 40.27478 45.04216 42.65847
# Shear Modulus (GPa) = 24.56136 -4.09577 10.23279
#
# Velocity S-wave (km/s) = 3.48811 -1.42440 2.25144
# Velocity P-wave (km/s) = 6.01443 4.42800 5.28112
#
# Compressibility (1/GPa) = 0.02482944
#
# Stress axis : x y z
#
# Youngs Moduli (GPa) = 83.40011 34.92649 37.09889
#
# Poissons Ratio (x) = 0.29492 -0.01982
# Poissons Ratio (y) = 0.70424 0.49949
# Poissons Ratio (z) = -0.04455 0.47025
#
# Static dielectric constant tensor:
#      x y z
#    x 1.714460 0.000000 0.002920 
#    y 0.000000 1.717220 0.000000 
#    z 0.002920 0.000000 1.752210 
# 
# From -- ./inp_files/200237.got.cif
#   From: 2010.05.17/outbox.cif.g08.bks.cpg/sg12_101_cif.got.tgz:200237.got - 2010.06.03 13:09:07.
