data_PCOD9176869
_publ_section_title
;
Structure prediction by ZEFSAII (Michael W. Deem and Ramdas Pophale) SiO2 
 PCOD9176869
Probable space group: C 2/M
;
_chemical_formula_sum "Si O2"
_cell_formula_units_Z 52
_cell_length_a 27.902595
_cell_length_b 8.280044
_cell_length_c 10.840613
_cell_angle_alpha 90.000000
_cell_angle_beta 100.178426
_cell_angle_gamma 90.000000
_cell_volume 2465.141739
_symmetry_space_group_name_H-M "C 2/M"
_symmetry_group_IT_number 12
_symmetry_cell_setting 'monoclinic'
loop_
_space_group_symop_operation_xyz
x,y,z
-x,y,-z
-x,-y,-z
x,-y,z
1/2+x,1/2+y,z
1/2-x,1/2+y,-z
1/2-x,1/2-y,-z
1/2+x,1/2-y,z
loop_
_atom_site_type_symbol
_atom_site_label
_atom_site_fract_x
_atom_site_fract_y
_atom_site_fract_z
Si Si1 0.915557 0.500000 0.523623
Si Si2 0.532789 0.000000 0.187107
Si Si3 0.914553 0.814813 0.880327
Si Si4 0.859763 0.679939 0.079120
Si Si5 0.226206 0.185023 0.808362
Si Si6 0.320484 0.821445 0.448076
Si Si7 0.186450 0.812311 0.295423
Si Si8 0.930812 0.500000 0.262655
O O1 0.941927 0.500000 0.665768
O O2 0.878253 0.348454 0.493716
O O3 0.946049 0.500000 0.411358
O O4 0.549027 0.835008 0.125610
O O5 0.475598 0.000000 0.189819
O O6 0.869459 0.786697 0.766680
O O7 0.933061 0.000000 0.874179
O O8 0.887827 0.796364 0.999860
O O9 0.856813 0.500000 0.018895
O O10 0.807421 0.731616 0.104654
O O11 0.895180 0.648826 0.212662
O O12 0.196288 0.202084 0.665585
O O13 0.278029 0.262963 0.799352
O O14 0.232947 0.000000 0.844183
O O15 0.301091 0.783799 0.575154
O O16 0.303338 0.000000 0.398230
O O17 0.192112 0.000000 0.324621
#
# Coordination Sequence:
#
# PCOD9176869 Si02
#       8
#     4   4   8   8   8   8   8   4
#     4  10  19  38  72  90 128 162 208 258 341 386
#     4  12  22  44  75  95 130 168 206 279 329 388
#     4  11  24  42  65  95 129 172 220 265 319 380
#     4  10  21  42  64  85 128 167 211 263 316 376
#     4  12  23  35  58  89 126 170 218 263 319 378
#     4  10  18  36  59  82 120 166 204 263 323 379
#     4  11  23  37  57  88 125 167 217 267 317 380
#     4  10  22  42  73  99 120 168 216 257 345 390
#
# _framework density 21.094121000000001
#
# number of rings (size 3 to 8) (size 9 to 14) (size 15 to 20)
#    0.923    0.308    3.846    3.462    1.077    1.846 
#    0.000    2.308    0.000    0.923    0.000    0.000 
#    0.000    0.000    0.000    0.000    0.000    0.000 
#
# Total GULP energy -145095.880227 kJ/mol
# GULP energy per Si atom -5580.610778 kJ/mol
# Density = 2.104611 g / cm^3
# Si number density = 21.094121 Si / 1000 Ang^3
#
#
#
# Elastic Constant Matrix: (Units=GPa)
#
#
# Indices 1 2 3 4 5 6 
#
# 1 79.3456 29.6542 -4.3446 0.0000 -28.6540 0.0000
# 2 29.6542 96.1633 6.8478 0.0000 -17.8015 0.0000
# 3 -4.3446 6.8478 72.7159 0.0000 -14.3113 0.0000
# 4 0.0000 0.0000 0.0000 27.6771 0.0000 -10.0170
# 5 -28.6540 -17.8015 -14.3113 0.0000 38.8829 0.0000
# 6 0.0000 0.0000 0.0000 -10.0170 0.0000 12.5115
#
#
#
# Elastic Compliance Matrix: (Units=1/GPa)
#
#
# Indices 1 2 3 4 5 6 
#
# 1 0.019301 -0.003641 0.004277 0.000000 0.014131 0.000000
# 2 -0.003641 0.012049 -0.000857 0.000000 0.002518 0.000000
# 3 0.004277 -0.000857 0.015774 0.000000 0.008566 0.000000
# 4 0.000000 0.000000 0.000000 0.050872 0.000000 0.040730
# 5 0.014131 0.002518 0.008566 0.000000 0.040437 0.000000
# 6 0.000000 0.000000 0.000000 0.040730 0.000000 0.112536
#
#
# Mechanical properties :
#
#
# Convention : Reuss Voigt Hill
#
# Bulk Modulus (GPa) = 21.42061 34.72662 28.07362
# Shear Modulus (GPa) = 18.72866 30.21878 24.47372
#
# Velocity S-wave (km/s) = 2.98293 3.78904 3.40989
# Velocity P-wave (km/s) = 4.69475 5.96999 5.37036
#
# Compressibility (1/GPa) = 0.04668400
#
# Stress axis : x y z
#
# Youngs Moduli (GPa) = 51.81070 82.99598 63.39465
#
# Poissons Ratio (x) = 0.30216 -0.27115
# Poissons Ratio (y) = 0.18862 0.05430
# Poissons Ratio (z) = -0.22160 0.07109
#
# Static dielectric constant tensor:
#      x y z
#    x 1.770330 0.000000 0.017490 
#    y 0.000000 1.729620 0.000000 
#    z 0.017490 0.000000 1.799670 
# 
# From -- ./inp_files/180040.got.cif
#   From: 2010.05.17/outbox.cif.g08.bks.cpg/sg12_91_cif.got.tgz:180040.got - 2010.06.03 13:09:07.
