data_PCOD9176039
_publ_section_title
;
Structure prediction by ZEFSAII (Michael W. Deem and Ramdas Pophale) SiO2 
 PCOD9176039
Probable space group: C 2/M
;
_chemical_formula_sum "Si O2"
_cell_formula_units_Z 40
_cell_length_a 7.885198
_cell_length_b 22.096709
_cell_length_c 14.853083
_cell_angle_alpha 90.000000
_cell_angle_beta 54.112171
_cell_angle_gamma 90.000000
_cell_volume 2096.674040
_symmetry_space_group_name_H-M "C 2/M"
_symmetry_group_IT_number 12
_symmetry_cell_setting 'monoclinic'
loop_
_space_group_symop_operation_xyz
x,y,z
-x,y,-z
-x,-y,-z
x,-y,z
1/2+x,1/2+y,z
1/2-x,1/2+y,-z
1/2-x,1/2-y,-z
1/2+x,1/2-y,z
loop_
_atom_site_type_symbol
_atom_site_label
_atom_site_fract_x
_atom_site_fract_y
_atom_site_fract_z
Si Si1 0.549250 0.747918 0.741048
Si Si2 0.964231 0.676534 0.616441
Si Si3 0.682027 0.628819 0.156182
Si Si4 0.743604 0.428914 0.769296
Si Si5 0.111763 0.361726 0.101300
O O1 0.753457 0.712256 0.710553
O O2 0.621851 0.787977 0.632378
O O3 0.396999 0.690717 0.773426
O O4 0.443661 0.795672 0.841501
O O5 0.920408 0.607780 0.658612
O O6 0.000000 0.681265 0.500000
O O7 0.481937 0.585665 0.205524
O O8 0.887003 0.607649 0.146979
O O9 0.762056 0.643449 0.030491
O O10 0.777682 0.500000 0.762021
O O11 0.763372 0.399477 0.862610
#
# Coordination Sequence:
#
# PCOD9176039 Si02
#       5
#     8   8   8   8   8
#     4  10  18  34  52  82 116 134 174 224 272 334
#     4  10  20  34  57  80 103 142 180 228 282 321
#     4  10  20  34  55  82 113 148 178 215 270 329
#     4  10  23  39  54  77 111 147 191 233 262 311
#     4  10  20  34  55  82 113 148 178 215 270 329
#
# _framework density 19.077835
#
# number of rings (size 3 to 8) (size 9 to 14) (size 15 to 20)
#    0.000    2.000    2.000    1.800    0.000    2.800 
#    0.000    2.000    0.000    0.000    0.000    5.600 
#    0.000    0.000    0.000    0.000    0.000    0.000 
#
# Total GULP energy -111417.811963 kJ/mol
# GULP energy per Si atom -5570.890598 kJ/mol
# Density = 1.903441 g / cm^3
# Si number density = 19.077835 Si / 1000 Ang^3
#
#
#
# Elastic Constant Matrix: (Units=GPa)
#
#
# Indices 1 2 3 4 5 6 
#
# 1 46.4013 6.6824 -10.0247 0.0000 -2.0974 0.0000
# 2 6.6824 107.1865 11.3863 0.0000 -3.4629 0.0000
# 3 -10.0247 11.3863 43.6737 0.0000 15.2042 0.0000
# 4 0.0000 0.0000 0.0000 6.8519 0.0000 0.0858
# 5 -2.0974 -3.4629 15.2042 0.0000 19.3466 0.0000
# 6 0.0000 0.0000 0.0000 0.0858 0.0000 23.0172
#
#
#
# Elastic Compliance Matrix: (Units=1/GPa)
#
#
# Indices 1 2 3 4 5 6 
#
# 1 0.023278 -0.002328 0.007182 0.000000 -0.003537 0.000000
# 2 -0.002328 0.010204 -0.005152 0.000000 0.005623 0.000000
# 3 0.007182 -0.005152 0.035708 0.000000 -0.028206 0.000000
# 4 0.000000 0.000000 0.000000 0.145953 0.000000 -0.000544
# 5 -0.003537 0.005623 -0.028206 0.000000 0.074478 0.000000
# 6 0.000000 0.000000 0.000000 -0.000544 0.000000 0.043448
#
#
# Mechanical properties :
#
#
# Convention : Reuss Voigt Hill
#
# Bulk Modulus (GPa) = 14.57902 23.70550 19.14226
# Shear Modulus (GPa) = 14.02405 22.45764 18.24084
#
# Velocity S-wave (km/s) = 2.71421 3.43470 3.09549
# Velocity P-wave (km/s) = 4.18103 5.30869 4.77824
#
# Compressibility (1/GPa) = 0.06859172
#
# Stress axis : x y z
#
# Youngs Moduli (GPa) = 42.95890 98.00401 28.00484
#
# Poissons Ratio (x) = 0.22819 -0.20112
# Poissons Ratio (y) = 0.10003 0.14429
# Poissons Ratio (z) = -0.30851 0.50494
#
# Static dielectric constant tensor:
#      x y z
#    x 1.816810 0.000000 -0.000030 
#    y 0.000000 1.648790 0.000000 
#    z -0.000030 0.000000 1.651260 
# 
# From -- ./inp_files/119054.got.cif
#   From: 2010.05.17/outbox.cif.g08.bks.cpg/sg12_60_cif.got.tgz:119054.got - 2010.06.03 13:09:07.
