data_PCOD9176116
_publ_section_title
;
Structure prediction by ZEFSAII (Michael W. Deem and Ramdas Pophale) SiO2 
 PCOD9176116
Probable space group: C 2/M
;
_chemical_formula_sum "Si O2"
_cell_formula_units_Z 64
_cell_length_a 22.282573
_cell_length_b 26.464432
_cell_length_c 12.400449
_cell_angle_alpha 90.000000
_cell_angle_beta 150.833943
_cell_angle_gamma 90.000000
_cell_volume 3563.687049
_symmetry_space_group_name_H-M "C 2/M"
_symmetry_group_IT_number 12
_symmetry_cell_setting 'monoclinic'
loop_
_space_group_symop_operation_xyz
x,y,z
-x,y,-z
-x,-y,-z
x,-y,z
1/2+x,1/2+y,z
1/2-x,1/2+y,-z
1/2-x,1/2-y,-z
1/2+x,1/2-y,z
loop_
_atom_site_type_symbol
_atom_site_label
_atom_site_fract_x
_atom_site_fract_y
_atom_site_fract_z
Si Si1 0.556622 0.086714 0.924627
Si Si2 0.338751 0.193818 0.858905
Si Si3 0.941671 0.442504 0.527154
Si Si4 0.914286 0.237762 0.467511
Si Si5 0.964496 0.205446 0.118311
Si Si6 0.214863 0.157962 0.447323
Si Si7 0.788362 0.342045 0.318481
Si Si8 0.695519 0.057113 0.346760
O O1 0.540985 0.067911 0.778359
O O2 0.427839 0.072837 0.780998
O O3 0.586758 0.146169 0.978233
O O4 0.659414 0.062184 0.163930
O O5 0.213274 0.205939 0.728128
O O6 0.297278 0.181572 0.672029
O O7 0.416957 0.244288 0.986102
O O8 0.894222 0.500000 0.468656
O O9 0.843285 0.397282 0.383315
O O10 0.000000 0.439759 0.500000
O O11 0.874343 0.296695 0.410256
O O12 0.000000 0.228316 0.500000
O O13 0.988867 0.222212 0.690991
O O14 0.081001 0.182023 0.241426
O O15 0.848511 0.167691 0.941808
O O16 0.275908 0.165165 0.427628
O O17 0.207084 0.098853 0.465370
O O18 0.728054 0.000000 0.423240
#
# Coordination Sequence:
#
# PCOD9176116 Si02
#       8
#     8   8   8   8   8   8   8   8
#     4  10  18  34  55  83 106 135 175 222 274 317
#     4   9  21  36  55  83 110 139 176 221 267 322
#     4  11  23  37  54  78 109 143 182 227 271 317
#     4  10  22  39  55  76 106 143 183 223 262 310
#     4  10  22  37  54  78 112 146 177 213 268 324
#     4  10  21  36  52  83 111 139 176 218 270 323
#     4  11  22  36  55  79 107 144 181 221 262 325
#     4  10  19  33  57  82 107 137 175 225 272 316
#
# _framework density 17.958929999999999
#
# number of rings (size 3 to 8) (size 9 to 14) (size 15 to 20)
#    0.000    1.875    1.250    3.000    0.000    8.500 
#   11.250    0.625    0.000    1.500    0.000    0.000 
#    0.000   15.000    0.000    0.000    0.000    0.000 
#
# Total GULP energy -178717.468021 kJ/mol
# GULP energy per Si atom -5584.920876 kJ/mol
# Density = 1.791805 g / cm^3
# Si number density = 17.958930 Si / 1000 Ang^3
#
#
#
# Elastic Constant Matrix: (Units=GPa)
#
#
# Indices 1 2 3 4 5 6 
#
# 1 96.8724 41.3150 32.4748 0.0000 -2.0344 0.0000
# 2 41.3150 134.0367 40.8954 0.0000 9.7013 0.0000
# 3 32.4748 40.8954 57.8737 0.0000 -3.3941 0.0000
# 4 0.0000 0.0000 0.0000 12.4632 0.0000 4.3272
# 5 -2.0344 9.7013 -3.3941 0.0000 17.3792 0.0000
# 6 0.0000 0.0000 0.0000 4.3272 0.0000 19.2204
#
#
#
# Elastic Compliance Matrix: (Units=1/GPa)
#
#
# Indices 1 2 3 4 5 6 
#
# 1 0.013312 -0.002543 -0.005562 0.000000 0.001892 0.000000
# 2 -0.002543 0.010836 -0.006679 0.000000 -0.007651 0.000000
# 3 -0.005562 -0.006679 0.025593 0.000000 0.008075 0.000000
# 4 0.000000 0.000000 0.000000 0.087040 0.000000 -0.019596
# 5 0.001892 -0.007651 0.008075 0.000000 0.063609 0.000000
# 6 0.000000 0.000000 0.000000 -0.019596 0.000000 0.056440
#
#
# Mechanical properties :
#
#
# Convention : Reuss Voigt Hill
#
# Bulk Modulus (GPa) = 49.56993 57.57257 53.57125
# Shear Modulus (GPa) = 17.05781 21.41906 19.23844
#
# Velocity S-wave (km/s) = 3.08526 3.45725 3.27654
# Velocity P-wave (km/s) = 6.35244 6.93284 6.64898
#
# Compressibility (1/GPa) = 0.02017352
#
# Stress axis : x y z
#
# Youngs Moduli (GPa) = 75.12221 92.28498 39.07353
#
# Poissons Ratio (x) = 0.23470 0.21731
# Poissons Ratio (y) = 0.19105 0.26096
# Poissons Ratio (z) = 0.41780 0.61634
#
# Static dielectric constant tensor:
#      x y z
#    x 1.611320 0.000000 -0.012250 
#    y 0.000000 1.629870 0.000000 
#    z -0.012250 0.000000 1.622410 
# 
# From -- ./inp_files/170605.got.cif
#   From: 2010.05.17/outbox.cif.g08.bks.cpg/sg12_86_cif.got.tgz:170605.got - 2010.06.03 13:09:07.
