data_PCOD9176261
_publ_section_title
;
Structure prediction by ZEFSAII (Michael W. Deem and Ramdas Pophale) SiO2 
 PCOD9176261
Probable space group: C 2/M
;
_chemical_formula_sum "Si O2"
_cell_formula_units_Z 48
_cell_length_a 7.558421
_cell_length_b 34.300291
_cell_length_c 18.636805
_cell_angle_alpha 90.000000
_cell_angle_beta 146.976295
_cell_angle_gamma 90.000000
_cell_volume 2633.211041
_symmetry_space_group_name_H-M "C 2/M"
_symmetry_group_IT_number 12
_symmetry_cell_setting 'monoclinic'
loop_
_space_group_symop_operation_xyz
x,y,z
-x,y,-z
-x,-y,-z
x,-y,z
1/2+x,1/2+y,z
1/2-x,1/2+y,-z
1/2-x,1/2-y,-z
1/2+x,1/2-y,z
loop_
_atom_site_type_symbol
_atom_site_label
_atom_site_fract_x
_atom_site_fract_y
_atom_site_fract_z
Si Si1 0.617989 0.362028 0.211744
Si Si2 0.709456 0.078802 0.854229
Si Si3 0.809488 0.874217 0.511134
Si Si4 0.805935 0.645762 0.794167
Si Si5 0.030727 0.958013 0.595866
Si Si6 0.728868 0.204518 0.009232
O O1 0.661401 0.398962 0.173214
O O2 0.340750 0.365897 0.178196
O O3 0.952830 0.359802 0.370324
O O4 0.531085 0.323536 0.134627
O O5 0.540001 0.112493 0.843802
O O6 0.411687 0.050036 0.738470
O O7 0.000000 0.061770 0.000000
O O8 0.000000 0.874293 0.500000
O O9 0.012991 0.849790 0.638100
O O10 0.831193 0.918928 0.547991
O O11 0.029888 0.683422 0.878762
O O12 0.000000 0.960304 0.500000
O O13 0.931727 0.000000 0.593477
O O14 0.500000 0.202382 0.000000
O O15 0.750000 0.250000 0.000000
#
# Coordination Sequence:
#
# PCOD9176261 Si02
#       6
#     8   8   8   8   8   8
#     4  11  20  36  54  82 110 141 188 227 270 332
#     4  11  20  33  58  80 109 151 187 227 274 324
#     4  10  18  34  58  83 103 148 185 222 278 318
#     4  10  21  35  54  82 110 140 187 229 267 333
#     4   9  17  32  54  84 114 142 188 229 276 333
#     4  10  23  36  56  82 108 145 179 226 283 327
#
# _framework density 18.228694000000001
#
# number of rings (size 3 to 8) (size 9 to 14) (size 15 to 20)
#    0.000    1.833    6.667    0.500    2.333    0.333 
#    0.000    0.833    0.000   12.000    0.000    5.833 
#    0.000    0.000    0.000    0.000    0.000    0.000 
#
# Total GULP energy -133640.985044 kJ/mol
# GULP energy per Si atom -5568.374377 kJ/mol
# Density = 1.818720 g / cm^3
# Si number density = 18.228694 Si / 1000 Ang^3
#
#
#
# Elastic Constant Matrix: (Units=GPa)
#
#
# Indices 1 2 3 4 5 6 
#
# 1 66.6924 5.0846 -1.3142 0.0000 -3.8259 0.0000
# 2 5.0846 98.5492 57.5793 0.0000 -3.2292 0.0000
# 3 -1.3142 57.5793 160.6041 0.0000 -6.8414 0.0000
# 4 0.0000 0.0000 0.0000 33.8923 0.0000 -10.5313
# 5 -3.8259 -3.2292 -6.8414 0.0000 21.6468 0.0000
# 6 0.0000 0.0000 0.0000 -10.5313 0.0000 25.8472
#
#
#
# Elastic Compliance Matrix: (Units=1/GPa)
#
#
# Indices 1 2 3 4 5 6 
#
# 1 0.015244 -0.001060 0.000621 0.000000 0.002732 0.000000
# 2 -0.001060 0.012914 -0.004627 0.000000 0.000277 0.000000
# 3 0.000621 -0.004627 0.007973 0.000000 0.001939 0.000000
# 4 0.000000 0.000000 0.000000 0.033782 0.000000 0.013764
# 5 0.002732 0.000277 0.001939 0.000000 0.047333 0.000000
# 6 0.000000 0.000000 0.000000 0.013764 0.000000 0.044297
#
#
# Mechanical properties :
#
#
# Convention : Reuss Voigt Hill
#
# Bulk Modulus (GPa) = 38.46144 49.83834 44.14989
# Shear Modulus (GPa) = 27.72511 33.91033 30.81772
#
# Velocity S-wave (km/s) = 3.90418 4.31777 4.11617
# Velocity P-wave (km/s) = 6.43962 7.22893 6.84566
#
# Compressibility (1/GPa) = 0.02600007
#
# Stress axis : x y z
#
# Youngs Moduli (GPa) = 65.59955 77.43349 125.42329
#
# Poissons Ratio (x) = 0.08207 -0.07790
# Poissons Ratio (y) = 0.06953 0.58032
# Poissons Ratio (z) = -0.04074 0.35828
#
# Static dielectric constant tensor:
#      x y z
#    x 1.647740 0.000000 -0.004920 
#    y 0.000000 1.660270 0.000000 
#    z -0.004920 0.000000 1.683270 
# 
# From -- ./inp_files/302912.got.cif
#   From: 2010.05.17/outbox.cif.g08.bks.cpg/sg12_152_cif.got.tgz:302912.got - 2010.06.03 13:09:07.
