data_PCOD9176628
_publ_section_title
;
Structure prediction by ZEFSAII (Michael W. Deem and Ramdas Pophale) SiO2 
 PCOD9176628
Probable space group: C 2/M
;
_chemical_formula_sum "Si O2"
_cell_formula_units_Z 48
_cell_length_a 13.947036
_cell_length_b 29.923707
_cell_length_c 7.268890
_cell_angle_alpha 90.000000
_cell_angle_beta 39.975789
_cell_angle_gamma 90.000000
_cell_volume 1949.010187
_symmetry_space_group_name_H-M "C 2/M"
_symmetry_group_IT_number 12
_symmetry_cell_setting 'monoclinic'
loop_
_space_group_symop_operation_xyz
x,y,z
-x,y,-z
-x,-y,-z
x,-y,z
1/2+x,1/2+y,z
1/2-x,1/2+y,-z
1/2-x,1/2-y,-z
1/2+x,1/2-y,z
loop_
_atom_site_type_symbol
_atom_site_label
_atom_site_fract_x
_atom_site_fract_y
_atom_site_fract_z
Si Si1 0.966768 0.854775 0.268978
Si Si2 0.383937 0.209872 0.522952
Si Si3 0.987761 0.047645 0.799593
Si Si4 0.352035 0.951659 0.845032
Si Si5 0.204369 0.645349 0.072581
Si Si6 0.193325 0.710337 0.773752
O O1 0.841886 0.818359 0.495903
O O2 0.928427 0.906778 0.377356
O O3 0.119147 0.849010 0.158890
O O4 0.000000 0.853801 0.000000
O O5 0.500000 0.229911 0.500000
O O6 0.236245 0.240108 0.772822
O O7 0.395319 0.214125 0.286781
O O8 0.355223 0.159327 0.637059
O O9 0.045074 0.000000 0.639756
O O10 0.810510 0.049703 0.016724
O O11 0.000000 0.045970 0.000000
O O12 0.500000 0.951972 0.500000
O O13 0.356738 0.000000 0.938151
O O14 0.348007 0.901897 0.930561
O O15 0.144508 0.682151 0.021477
#
# Coordination Sequence:
#
# PCOD9176628 Si02
#       6
#     8   8   8   8   8   8
#     4  10  18  35  59  84 120 159 200 248 309 362
#     4  11  24  42  61  88 122 161 207 252 307 368
#     4   8  15  28  52  85 116 154 204 248 294 362
#     4   9  18  34  59  89 124 165 204 252 314 370
#     4  11  21  38  62  89 124 159 206 255 305 370
#     4  11  24  40  62  90 120 162 204 254 314 363
#
# _framework density 24.627884000000002
#
# number of rings (size 3 to 8) (size 9 to 14) (size 15 to 20)
#    0.000    2.000    1.667    2.500    0.000    0.667 
#    0.000    0.833    0.000    5.000    0.000    3.500 
#    0.000    0.000    0.000    0.000    0.000    0.000 
#
# Total GULP energy -133841.478515 kJ/mol
# GULP energy per Si atom -5576.728271 kJ/mol
# Density = 2.457183 g / cm^3
# Si number density = 24.627884 Si / 1000 Ang^3
#
#
#
# Elastic Constant Matrix: (Units=GPa)
#
#
# Indices 1 2 3 4 5 6 
#
# 1 123.8658 35.7916 11.7862 0.0000 -0.1492 0.0000
# 2 35.7916 139.6171 0.1268 0.0000 1.6473 0.0000
# 3 11.7862 0.1268 62.7997 0.0000 17.7035 0.0000
# 4 0.0000 0.0000 0.0000 3.9698 0.0000 -27.7046
# 5 -0.1492 1.6473 17.7035 0.0000 37.1072 0.0000
# 6 0.0000 0.0000 0.0000 -27.7046 0.0000 3.3888
#
#
#
# Elastic Compliance Matrix: (Units=1/GPa)
#
#
# Indices 1 2 3 4 5 6 
#
# 1 0.008927 -0.002299 -0.001975 0.000000 0.001080 0.000000
# 2 -0.002299 0.007759 0.000596 0.000000 -0.000638 0.000000
# 3 -0.001975 0.000596 0.018836 0.000000 -0.009021 0.000000
# 4 0.000000 0.000000 0.000000 -0.004494 0.000000 -0.036739
# 5 0.001080 -0.000638 -0.009021 0.000000 0.031285 0.000000
# 6 0.000000 0.000000 0.000000 -0.036739 0.000000 -0.005264
#
#
# Mechanical properties :
#
#
# Convention : Reuss Voigt Hill
#
# Bulk Modulus (GPa) = 35.50632 46.85464 41.18048
# Shear Modulus (GPa) = 67.75506 27.46504 47.61005
#
# Velocity S-wave (km/s) = 5.25083 3.34309 4.40156
# Velocity P-wave (km/s) = 7.15612 5.82820 6.52603
#
# Compressibility (1/GPa) = 0.02816400
#
# Stress axis : x y z
#
# Youngs Moduli (GPa) = 112.02044 128.88425 53.08924
#
# Poissons Ratio (x) = 0.29636 0.10487
# Poissons Ratio (y) = 0.25758 -0.03163
# Poissons Ratio (z) = 0.22128 -0.07678
#
# Static dielectric constant tensor:
#      x y z
#    x 1.910950 0.000000 0.007600 
#    y 0.000000 2.025850 0.000000 
#    z 0.007600 0.000000 2.240900 
# 
# From -- ./inp_files/68059.got.cif
#   From: 2010.05.17/outbox.cif.g08.bks.cpg/sg12_35_cif.got.tgz:68059.got - 2010.06.03 13:09:07.
