data_PCOD9176559
_publ_section_title
;
Structure prediction by ZEFSAII (Michael W. Deem and Ramdas Pophale) SiO2 
 PCOD9176559
Probable space group: C 2/M
;
_chemical_formula_sum "Si O2"
_cell_formula_units_Z 44
_cell_length_a 19.593800
_cell_length_b 13.343041
_cell_length_c 7.159429
_cell_angle_alpha 90.000000
_cell_angle_beta 80.046327
_cell_angle_gamma 90.000000
_cell_volume 1843.593245
_symmetry_space_group_name_H-M "C 2/M"
_symmetry_group_IT_number 12
_symmetry_cell_setting 'monoclinic'
loop_
_space_group_symop_operation_xyz
x,y,z
-x,y,-z
-x,-y,-z
x,-y,z
1/2+x,1/2+y,z
1/2-x,1/2+y,-z
1/2-x,1/2-y,-z
1/2+x,1/2-y,z
loop_
_atom_site_type_symbol
_atom_site_label
_atom_site_fract_x
_atom_site_fract_y
_atom_site_fract_z
Si Si1 0.641415 0.500000 0.775750
Si Si2 0.920486 0.219148 0.751391
Si Si3 0.910718 0.000000 0.757873
Si Si4 0.977659 0.384966 0.231436
Si Si5 0.238999 0.785399 0.294906
Si Si6 0.770420 0.000000 0.598934
Si Si7 0.119865 0.783419 0.815730
O O1 0.717122 0.500000 0.632515
O O2 0.612010 0.392142 0.727239
O O3 0.624725 0.500000 0.011554
O O4 0.840763 0.226573 0.722167
O O5 0.963287 0.319523 0.691907
O O6 0.947454 0.106109 0.700850
O O7 0.920930 0.215909 0.974472
O O8 0.847670 0.000000 0.644252
O O9 0.967907 0.500000 0.298875
O O10 0.910355 0.312044 0.277860
O O11 0.000000 0.392657 0.000000
O O12 0.250000 0.750000 0.500000
O O13 0.299446 0.726221 0.162078
O O14 0.260586 0.901287 0.295791
#
# Coordination Sequence:
#
# PCOD9176559 Si02
#       7
#     4   8   4   8   8   4   8
#     4  10  18  35  56  88 113 147 194 245 297 345
#     4   9  19  37  58  85 116 148 198 247 294 351
#     4   8  18  33  60  84 110 147 193 241 298 352
#     4   9  19  37  59  87 120 154 193 241 297 358
#     4  11  21  36  57  82 115 156 197 241 301 347
#     4  10  20  36  54  81 121 149 192 248 296 345
#     4  10  20  35  59  86 116 152 196 244 294 359
#
# _framework density 23.866434999999999
#
# number of rings (size 3 to 8) (size 9 to 14) (size 15 to 20)
#    0.000    2.364    1.818    0.545    1.273    0.727 
#    3.273    4.545    0.000    3.273    0.000    0.000 
#    0.000    0.000    0.000    0.000    0.000    0.000 
#
# Total GULP energy -122471.354439 kJ/mol
# GULP energy per Si atom -5566.879747 kJ/mol
# Density = 2.381211 g / cm^3
# Si number density = 23.866435 Si / 1000 Ang^3
#
#
#
# Elastic Constant Matrix: (Units=GPa)
#
#
# Indices 1 2 3 4 5 6 
#
# 1 134.6131 75.9297 4.2723 0.0000 11.6225 0.0000
# 2 75.9297 252.3211 -0.7825 0.0000 7.7450 0.0000
# 3 4.2723 -0.7825 70.8822 0.0000 -4.2978 0.0000
# 4 0.0000 0.0000 0.0000 15.5211 0.0000 -1.3003
# 5 11.6225 7.7450 -4.2978 0.0000 23.1378 0.0000
# 6 0.0000 0.0000 0.0000 -1.3003 0.0000 25.9200
#
#
#
# Elastic Compliance Matrix: (Units=1/GPa)
#
#
# Indices 1 2 3 4 5 6 
#
# 1 0.009308 -0.002683 -0.000829 0.000000 -0.003931 0.000000
# 2 -0.002683 0.004778 0.000201 0.000000 -0.000214 0.000000
# 3 -0.000829 0.000201 0.014343 0.000000 0.003013 0.000000
# 4 0.000000 0.000000 0.000000 0.064700 0.000000 0.003246
# 5 -0.003931 -0.000214 0.003013 0.000000 0.045825 0.000000
# 6 0.000000 0.000000 0.000000 0.003246 0.000000 0.038743
#
#
# Mechanical properties :
#
#
# Convention : Reuss Voigt Hill
#
# Bulk Modulus (GPa) = 45.85570 68.51725 57.18648
# Shear Modulus (GPa) = 26.09782 38.14225 32.12003
#
# Velocity S-wave (km/s) = 3.31039 4.00203 3.67253
# Velocity P-wave (km/s) = 5.81952 7.07997 6.48046
#
# Compressibility (1/GPa) = 0.02180754
#
# Stress axis : x y z
#
# Youngs Moduli (GPa) = 107.43784 209.30438 69.72136
#
# Poissons Ratio (x) = 0.56153 0.05780
# Poissons Ratio (y) = 0.28824 -0.01405
# Poissons Ratio (z) = 0.08907 -0.04217
#
# Static dielectric constant tensor:
#      x y z
#    x 2.019620 0.000000 -0.156000 
#    y 0.000000 1.996610 0.000000 
#    z -0.156000 0.000000 2.127130 
# 
# From -- ./inp_files/84118.got.cif
#   From: 2010.05.17/outbox.cif.g08.bks.cpg/sg12_43_cif.got.tgz:84118.got - 2010.06.03 13:09:07.
