data_PCOD9176613
_publ_section_title
;
Structure prediction by ZEFSAII (Michael W. Deem and Ramdas Pophale) SiO2 
 PCOD9176613
Probable space group: C 2/M
;
_chemical_formula_sum "Si O2"
_cell_formula_units_Z 56
_cell_length_a 7.781378
_cell_length_b 28.447930
_cell_length_c 17.539365
_cell_angle_alpha 90.000000
_cell_angle_beta 124.980152
_cell_angle_gamma 90.000000
_cell_volume 3181.199261
_symmetry_space_group_name_H-M "C 2/M"
_symmetry_group_IT_number 12
_symmetry_cell_setting 'monoclinic'
loop_
_space_group_symop_operation_xyz
x,y,z
-x,y,-z
-x,-y,-z
x,-y,z
1/2+x,1/2+y,z
1/2-x,1/2+y,-z
1/2-x,1/2-y,-z
1/2+x,1/2-y,z
loop_
_atom_site_type_symbol
_atom_site_label
_atom_site_fract_x
_atom_site_fract_y
_atom_site_fract_z
Si Si1 0.312965 0.555286 0.891142
Si Si2 0.903151 0.274366 0.600553
Si Si3 0.418212 0.943403 0.894782
Si Si4 0.455369 0.948436 0.398888
Si Si5 0.548892 0.406050 0.232729
Si Si6 0.326661 0.681681 0.642316
Si Si7 0.272746 0.366383 0.462472
O O1 0.302213 0.500000 0.865095
O O2 0.372520 0.586173 0.833609
O O3 0.095584 0.568130 0.877342
O O4 0.500000 0.558617 0.000000
O O5 0.750000 0.250000 0.500000
O O6 0.959921 0.229391 0.665279
O O7 0.773573 0.319116 0.598534
O O8 0.103888 0.298175 0.613886
O O9 0.190933 0.921875 0.821660
O O10 0.396693 0.000000 0.890079
O O11 0.500000 0.929700 0.000000
O O12 0.500000 0.949275 0.500000
O O13 0.212183 0.937781 0.322268
O O14 0.595336 0.905232 0.404629
O O15 0.510117 0.000000 0.380855
O O16 0.579877 0.353956 0.272956
O O17 0.286407 0.652500 0.553540
O O18 0.500000 0.385805 0.500000
#
# Coordination Sequence:
#
# PCOD9176613 Si02
#       7
#     8   8   8   8   8   8   8
#     4  10  20  37  63  94 124 161 208 257 312 367
#     4  10  18  35  59  78 110 152 205 260 306 344
#     4  10  20  37  64  93 124 164 210 259 310 366
#     4  11  22  38  55  77 125 177 203 231 296 377
#     4  12  22  38  61  90 130 161 202 260 312 373
#     4  11  22  37  57  89 114 155 204 259 322 361
#     4  11  20  36  58  82 117 161 214 258 295 354
#
# _framework density 17.603424
#
# number of rings (size 3 to 8) (size 9 to 14) (size 15 to 20)
#    0.000    1.286    4.286    4.714    0.000    1.429 
#    2.571    0.000    0.000    0.000    0.000    3.000 
#    0.000    0.000    0.000    0.000    0.000    0.000 
#
# Total GULP energy -156199.015488 kJ/mol
# GULP energy per Si atom -5578.536267 kJ/mol
# Density = 1.756336 g / cm^3
# Si number density = 17.603424 Si / 1000 Ang^3
#
#
#
# Elastic Constant Matrix: (Units=GPa)
#
#
# Indices 1 2 3 4 5 6 
#
# 1 111.6607 43.3582 52.3396 0.0000 24.3257 0.0000
# 2 43.3582 121.7179 42.6977 0.0000 7.3091 0.0000
# 3 52.3396 42.6977 92.3689 0.0000 13.9574 0.0000
# 4 0.0000 0.0000 0.0000 32.7334 0.0000 1.9627
# 5 24.3257 7.3091 13.9574 0.0000 33.0248 0.0000
# 6 0.0000 0.0000 0.0000 1.9627 0.0000 26.0117
#
#
#
# Elastic Compliance Matrix: (Units=1/GPa)
#
#
# Indices 1 2 3 4 5 6 
#
# 1 0.014316 -0.002627 -0.005760 0.000000 -0.007529 0.000000
# 2 -0.002627 0.010290 -0.003436 0.000000 0.001110 0.000000
# 3 -0.005760 -0.003436 0.015940 0.000000 -0.001734 0.000000
# 4 0.000000 0.000000 0.000000 0.030689 0.000000 -0.002316
# 5 -0.007529 0.001110 -0.001734 0.000000 0.036313 0.000000
# 6 0.000000 0.000000 0.000000 -0.002316 0.000000 0.038619
#
#
# Mechanical properties :
#
#
# Convention : Reuss Voigt Hill
#
# Bulk Modulus (GPa) = 59.16855 66.94872 63.05864
# Shear Modulus (GPa) = 28.49880 30.84411 29.67145
#
# Velocity S-wave (km/s) = 4.02796 4.19043 4.11000
# Velocity P-wave (km/s) = 7.43758 7.84392 7.64345
#
# Compressibility (1/GPa) = 0.01690087
#
# Stress axis : x y z
#
# Youngs Moduli (GPa) = 69.85240 97.18092 62.73495
#
# Poissons Ratio (x) = 0.25529 0.36135
# Poissons Ratio (y) = 0.18350 0.21554
# Poissons Ratio (z) = 0.40234 0.33389
#
# Static dielectric constant tensor:
#      x y z
#    x 1.665950 0.000000 -0.021120 
#    y 0.000000 1.644360 0.000000 
#    z -0.021120 0.000000 1.604570 
# 
# From -- ./inp_files/260164.got.cif
#   From: 2010.05.17/outbox.cif.g08.bks.cpg/sg12_131_cif.got.tgz:260164.got - 2010.06.03 13:09:07.
