data_PCOD9176689
_publ_section_title
;
Structure prediction by ZEFSAII (Michael W. Deem and Ramdas Pophale) SiO2 
 PCOD9176689
Probable space group: C 2/M
;
_chemical_formula_sum "Si O2"
_cell_formula_units_Z 56
_cell_length_a 15.695964
_cell_length_b 8.438797
_cell_length_c 25.147076
_cell_angle_alpha 90.000000
_cell_angle_beta 119.578705
_cell_angle_gamma 90.000000
_cell_volume 2896.774826
_symmetry_space_group_name_H-M "C 2/M"
_symmetry_group_IT_number 12
_symmetry_cell_setting 'monoclinic'
loop_
_space_group_symop_operation_xyz
x,y,z
-x,y,-z
-x,-y,-z
x,-y,z
1/2+x,1/2+y,z
1/2-x,1/2+y,-z
1/2-x,1/2-y,-z
1/2+x,1/2-y,z
loop_
_atom_site_type_symbol
_atom_site_label
_atom_site_fract_x
_atom_site_fract_y
_atom_site_fract_z
Si Si1 0.609420 0.688306 0.510374
Si Si2 0.669209 0.310088 0.933229
Si Si3 0.734496 0.312634 0.358842
Si Si4 0.747508 0.689326 0.151662
Si Si5 0.660728 0.688554 0.711659
Si Si6 0.939132 0.193403 0.622279
Si Si7 0.525295 0.693153 0.068151
O O1 0.500000 0.705625 0.500000
O O2 0.632944 0.500000 0.519309
O O3 0.685648 0.778507 0.570780
O O4 0.605472 0.743856 0.448131
O O5 0.669664 0.500000 0.934783
O O6 0.697921 0.254437 0.883465
O O7 0.562053 0.254761 0.919941
O O8 0.750000 0.250000 0.000000
O O9 0.729186 0.500000 0.347064
O O10 0.769351 0.229113 0.316098
O O11 0.630923 0.258075 0.351130
O O12 0.745554 0.500000 0.146880
O O13 0.800122 0.738225 0.221985
O O14 0.634382 0.746617 0.116498
O O15 0.655862 0.500000 0.716568
O O16 0.550887 0.746009 0.663661
O O17 0.939782 0.000000 0.620706
O O18 0.525769 0.500000 0.069024
O O19 0.500000 0.741211 0.000000
#
# Coordination Sequence:
#
# PCOD9176689 Si02
#       7
#     8   8   8   8   8   8   8
#     4  10  18  35  61  86 115 156 197 237 293 354
#     4  11  21  37  62  91 119 154 193 235 287 346
#     4  11  22  37  59  89 118 149 196 249 295 339
#     4  11  23  41  62  88 120 153 196 245 289 344
#     4  11  23  43  62  81 115 161 201 235 289 357
#     4   9  20  38  60  83 116 159 197 235 292 360
#     4   9  18  36  61  86 117 157 189 222 287 358
#
# _framework density 19.331844
#
# number of rings (size 3 to 8) (size 9 to 14) (size 15 to 20)
#    0.000    1.714    2.857    2.143    0.000    1.429 
#    0.000   12.857    0.000    0.000    0.000    0.000 
#    0.000    0.000    0.000    0.000    0.000    0.000 
#
# Total GULP energy -156437.697503 kJ/mol
# GULP energy per Si atom -5587.060625 kJ/mol
# Density = 1.928784 g / cm^3
# Si number density = 19.331844 Si / 1000 Ang^3
#
#
#
# Elastic Constant Matrix: (Units=GPa)
#
#
# Indices 1 2 3 4 5 6 
#
# 1 140.0424 18.4916 48.6047 0.0000 -29.1936 0.0000
# 2 18.4916 26.2973 7.4218 0.0000 -1.0487 0.0000
# 3 48.6047 7.4218 110.4025 0.0000 -26.2054 0.0000
# 4 0.0000 0.0000 0.0000 34.6341 0.0000 -3.6832
# 5 -29.1936 -1.0487 -26.2054 0.0000 18.8255 0.0000
# 6 0.0000 0.0000 0.0000 -3.6832 0.0000 25.8398
#
#
#
# Elastic Compliance Matrix: (Units=1/GPa)
#
#
# Indices 1 2 3 4 5 6 
#
# 1 0.011948 -0.007525 -0.000681 0.000000 0.017162 0.000000
# 2 -0.007525 0.043562 -0.002702 0.000000 -0.013004 0.000000
# 3 -0.000681 -0.002702 0.013819 0.000000 0.018030 0.000000
# 4 0.000000 0.000000 0.000000 0.029318 0.000000 0.004179
# 5 0.017162 -0.013004 0.018030 0.000000 0.104106 0.000000
# 6 0.000000 0.000000 0.000000 0.004179 0.000000 0.039296
#
#
# Mechanical properties :
#
#
# Convention : Reuss Voigt Hill
#
# Bulk Modulus (GPa) = 21.04699 47.30872 34.17785
# Shear Modulus (GPa) = 17.87613 29.34147 23.60880
#
# Velocity S-wave (km/s) = 3.04418 3.90009 3.49841
# Velocity P-wave (km/s) = 4.82358 6.69373 5.83408
#
# Compressibility (1/GPa) = 0.04751273
#
# Stress axis : x y z
#
# Youngs Moduli (GPa) = 83.69453 22.95569 72.36579
#
# Poissons Ratio (x) = 0.17275 0.04926
# Poissons Ratio (y) = 0.62981 0.19555
# Poissons Ratio (z) = 0.05698 0.06203
#
# Static dielectric constant tensor:
#      x y z
#    x 1.680950 0.000000 0.008090 
#    y 0.000000 1.671590 0.000000 
#    z 0.008090 0.000000 1.633070 
# 
# From -- ./inp_files/339041.got.cif
#   From: 2010.05.17/outbox.cif.g08.bks.cpg/sg12_170_cif.got.tgz:339041.got - 2010.06.03 13:09:07.
