data_PCOD9176373
_publ_section_title
;
Structure prediction by ZEFSAII (Michael W. Deem and Ramdas Pophale) SiO2 
 PCOD9176373
Probable space group: C 2/M
;
_chemical_formula_sum "Si O2"
_cell_formula_units_Z 64
_cell_length_a 26.529964
_cell_length_b 14.885160
_cell_length_c 20.583569
_cell_angle_alpha 90.000000
_cell_angle_beta 158.632005
_cell_angle_gamma 90.000000
_cell_volume 2961.675984
_symmetry_space_group_name_H-M "C 2/M"
_symmetry_group_IT_number 12
_symmetry_cell_setting 'monoclinic'
loop_
_space_group_symop_operation_xyz
x,y,z
-x,y,-z
-x,-y,-z
x,-y,z
1/2+x,1/2+y,z
1/2-x,1/2+y,-z
1/2-x,1/2-y,-z
1/2+x,1/2-y,z
loop_
_atom_site_type_symbol
_atom_site_label
_atom_site_fract_x
_atom_site_fract_y
_atom_site_fract_z
Si Si1 0.732514 0.109295 0.665965
Si Si2 0.842604 0.110638 0.310410
Si Si3 0.151057 0.394397 0.194930
Si Si4 0.647234 0.134396 0.339818
Si Si5 0.915435 0.610234 0.256811
Si Si6 0.800082 0.107346 0.892499
Si Si7 0.884500 0.155970 0.718718
Si Si8 0.347253 0.101964 0.033251
O O1 0.574573 0.135896 0.460302
O O2 0.771867 0.139929 0.785487
O O3 0.834688 0.144888 0.733078
O O4 0.740541 0.000000 0.673333
O O5 0.764586 0.141356 0.281803
O O6 0.000000 0.140681 0.500000
O O7 0.843097 0.000000 0.309760
O O8 0.756123 0.142142 0.143919
O O9 0.140443 0.500000 0.165744
O O10 0.184165 0.388555 0.310308
O O11 0.000000 0.353348 0.000000
O O12 0.769112 0.108302 0.535306
O O13 0.623568 0.240873 0.311648
O O14 0.499140 0.096710 0.183409
O O15 0.915669 0.500000 0.255474
O O16 0.811540 0.639653 0.188817
O O17 0.865495 0.643678 0.126244
O O18 0.781477 0.000000 0.867584
O O19 0.958595 0.125151 0.101431
O O20 0.297114 0.000000 0.984206
#
# Coordination Sequence:
#
# PCOD9176373 Si02
#       8
#     8   8   8   8   8   8   8   8
#     4  10  19  36  62  87 114 148 182 227 283 341
#     4   9  18  32  53  84 115 139 176 232 285 327
#     4  10  19  33  57  84 107 142 188 231 275 328
#     4  11  23  38  56  78 113 152 194 234 274 327
#     4   9  18  33  60  90 113 143 184 225 277 344
#     4  10  21  37  58  89 118 141 181 236 287 334
#     4  11  24  38  55  81 113 150 190 232 283 327
#     4  10  18  34  60  83 111 152 189 227 279 334
#
# _framework density 21.609386000000001
#
# number of rings (size 3 to 8) (size 9 to 14) (size 15 to 20)
#    0.000    2.000    2.500    1.500    0.000    6.000 
#    0.000    3.125    2.750    0.000    0.000    0.000 
#    0.000    0.000    0.000    0.000    0.000    0.000 
#
# Total GULP energy -178791.369105 kJ/mol
# GULP energy per Si atom -5587.230285 kJ/mol
# Density = 2.156020 g / cm^3
# Si number density = 21.609386 Si / 1000 Ang^3
#
#
#
# Elastic Constant Matrix: (Units=GPa)
#
#
# Indices 1 2 3 4 5 6 
#
# 1 71.7726 3.0294 21.2438 0.0006 -17.4903 0.0008
# 2 3.0294 34.1300 -4.8766 0.0001 1.5097 0.0001
# 3 21.2438 -4.8766 96.9054 0.0004 -9.1274 0.0006
# 4 0.0006 0.0001 0.0004 12.8017 0.0001 -2.3119
# 5 -17.4903 1.5097 -9.1274 0.0001 32.9980 0.0001
# 6 0.0008 0.0001 0.0006 -2.3119 0.0001 -7.2971
#
#
#
# Elastic Compliance Matrix: (Units=1/GPa)
#
#
# Indices 1 2 3 4 5 6 
#
# 1 0.016942 -0.002305 -0.003054 0.000000 0.008241 0.000002
# 2 -0.002305 0.029855 0.001811 0.000000 -0.002087 0.000000
# 3 -0.003054 0.001811 0.011212 0.000000 0.001400 0.000001
# 4 0.000000 0.000000 0.000000 0.073887 0.000000 -0.023409
# 5 0.008241 -0.002087 0.001400 0.000000 0.035155 0.000002
# 6 0.000002 0.000000 0.000001 -0.023409 0.000002 -0.129623
#
#
# Mechanical properties :
#
#
# Convention : Reuss Voigt Hill
#
# Bulk Modulus (GPa) = 19.64076 26.84459 23.24268
# Shear Modulus (GPa) = 81.30748 19.92794 50.61771
#
# Velocity S-wave (km/s) = 6.14066 3.04005 4.84508
# Velocity P-wave (km/s) = 7.70621 4.97716 6.48683
#
# Compressibility (1/GPa) = 0.05091452
#
# Stress axis : x y z
#
# Youngs Moduli (GPa) = 59.02391 33.49480 89.19170
#
# Poissons Ratio (x) = 0.07719 0.27238
# Poissons Ratio (y) = 0.13603 -0.16154
# Poissons Ratio (z) = 0.18025 -0.06066
#
# Static dielectric constant tensor:
#      x y z
#    x 1.755190 0.000000 -0.020480 
#    y 0.000000 1.843600 0.000000 
#    z -0.020480 0.000000 1.757790 
# 
# From -- ./inp_files/328662.got.cif
#   From: 2010.05.17/outbox.cif.g08.bks.cpg/sg12_165_cif.got.tgz:328662.got - 2010.06.03 13:09:07.
