data_PCOD9176015
_publ_section_title
;
Structure prediction by ZEFSAII (Michael W. Deem and Ramdas Pophale) SiO2 
 PCOD9176015
Probable space group: C 2/M
;
_chemical_formula_sum "Si O2"
_cell_formula_units_Z 56
_cell_length_a 15.600423
_cell_length_b 20.669142
_cell_length_c 23.308523
_cell_angle_alpha 90.000000
_cell_angle_beta 156.839492
_cell_angle_gamma 90.000000
_cell_volume 2956.015286
_symmetry_space_group_name_H-M "C 2/M"
_symmetry_group_IT_number 12
_symmetry_cell_setting 'monoclinic'
loop_
_space_group_symop_operation_xyz
x,y,z
-x,y,-z
-x,-y,-z
x,-y,z
1/2+x,1/2+y,z
1/2-x,1/2+y,-z
1/2-x,1/2-y,-z
1/2+x,1/2-y,z
loop_
_atom_site_type_symbol
_atom_site_label
_atom_site_fract_x
_atom_site_fract_y
_atom_site_fract_z
Si Si1 0.071621 0.342349 0.917209
Si Si2 0.501598 0.074890 0.697465
Si Si3 0.681879 0.660613 0.046407
Si Si4 0.225108 0.760987 0.229314
Si Si5 0.265158 0.425604 0.347987
Si Si6 0.823980 0.688244 0.506379
Si Si7 0.146509 0.202237 0.808831
O O1 0.249541 0.351366 0.977133
O O2 0.933528 0.275703 0.824610
O O3 0.889232 0.395463 0.794592
O O4 0.189144 0.337544 0.050387
O O5 0.733766 0.101608 0.863229
O O6 0.353811 0.077916 0.663949
O O7 0.399070 0.126066 0.589608
O O8 0.509884 0.000000 0.683227
O O9 0.825645 0.723304 0.153375
O O10 0.431977 0.683752 0.894008
O O11 0.456770 0.788812 0.391128
O O12 0.280792 0.709359 0.212806
O O13 0.500000 0.392846 0.500000
O O14 0.299054 0.500000 0.353178
O O15 0.750000 0.750000 0.500000
O O16 0.598348 0.676432 0.334733
#
# Coordination Sequence:
#
# PCOD9176015 Si02
#       7
#     8   8   8   8   8   8   8
#     4  10  20  31  53  77 104 136 176 215 270 316
#     4  10  20  35  54  78 107 143 179 222 269 318
#     4  10  18  34  50  75 107 135 174 225 262 314
#     4  10  19  31  52  75 107 139 171 219 271 312
#     4   9  20  35  53  75 106 141 180 223 266 318
#     4  10  20  33  53  73 106 141 176 215 270 315
#     4  10  19  32  51  75 107 140 167 215 272 314
#
# _framework density 18.944421999999999
#
# number of rings (size 3 to 8) (size 9 to 14) (size 15 to 20)
#    0.000    2.143    2.857    3.429    4.000    0.000 
#    0.000    4.286    0.000    1.714    0.000    0.000 
#    0.000    9.143    0.000    0.000    0.000    0.000 
#
# Total GULP energy -155962.046541 kJ/mol
# GULP energy per Si atom -5570.073091 kJ/mol
# Density = 1.890130 g / cm^3
# Si number density = 18.944422 Si / 1000 Ang^3
#
#
#
# Elastic Constant Matrix: (Units=GPa)
#
#
# Indices 1 2 3 4 5 6 
#
# 1 35.3258 8.3964 22.1400 -0.0198 4.4556 0.0081
# 2 8.3964 72.4724 33.9534 0.0019 -2.5101 0.0030
# 3 22.1400 33.9534 156.4714 -0.0203 21.0244 0.0020
# 4 -0.0198 0.0019 -0.0203 24.8614 -0.0154 -3.3341
# 5 4.4556 -2.5101 21.0244 -0.0154 25.7119 0.0050
# 6 0.0081 0.0030 0.0020 -3.3341 0.0050 20.5421
#
#
#
# Elastic Compliance Matrix: (Units=1/GPa)
#
#
# Indices 1 2 3 4 5 6 
#
# 1 0.031410 -0.002022 -0.003649 0.000019 -0.002657 -0.000008
# 2 -0.002022 0.016023 -0.003874 -0.000003 0.005082 -0.000003
# 3 -0.003649 -0.003874 0.008666 0.000001 -0.006832 0.000003
# 4 0.000019 -0.000003 0.000001 0.041118 0.000019 0.006674
# 5 -0.002657 0.005082 -0.006832 0.000019 0.045435 -0.000007
# 6 -0.000008 -0.000003 0.000003 0.006674 -0.000007 0.049764
#
#
# Mechanical properties :
#
#
# Convention : Reuss Voigt Hill
#
# Bulk Modulus (GPa) = 27.01888 43.69436 35.35662
# Shear Modulus (GPa) = 22.33714 27.54174 24.93944
#
# Velocity S-wave (km/s) = 3.43751 3.81703 3.63223
# Velocity P-wave (km/s) = 5.48165 6.52234 6.02451
#
# Compressibility (1/GPa) = 0.03701116
#
# Stress axis : x y z
#
# Youngs Moduli (GPa) = 31.83658 62.40838 115.39630
#
# Poissons Ratio (x) = 0.12617 0.42105
# Poissons Ratio (y) = 0.06436 0.44702
# Poissons Ratio (z) = 0.11616 0.24176
#
# Static dielectric constant tensor:
#      x y z
#    x 1.720920 0.000010 0.005840 
#    y 0.000010 1.674060 0.000000 
#    z 0.005840 0.000000 1.709140 
# 
# From -- ./inp_files/364712.got.cif
#   From: 2010.05.17/outbox.cif.g08.bks.cpg/sg12_183_cif.got.tgz:364712.got - 2010.06.03 13:09:07.
