data_PCOD9176897
_publ_section_title
;
Structure prediction by ZEFSAII (Michael W. Deem and Ramdas Pophale) SiO2 
 PCOD9176897
Probable space group: C 2/M
;
_chemical_formula_sum "Si O2"
_cell_formula_units_Z 40
_cell_length_a 10.961359
_cell_length_b 25.397229
_cell_length_c 6.976470
_cell_angle_alpha 90.000000
_cell_angle_beta 104.694202
_cell_angle_gamma 90.000000
_cell_volume 1878.644927
_symmetry_space_group_name_H-M "C 2/M"
_symmetry_group_IT_number 12
_symmetry_cell_setting 'monoclinic'
loop_
_space_group_symop_operation_xyz
x,y,z
-x,y,-z
-x,-y,-z
x,-y,z
1/2+x,1/2+y,z
1/2-x,1/2+y,-z
1/2-x,1/2-y,-z
1/2+x,1/2-y,z
loop_
_atom_site_type_symbol
_atom_site_label
_atom_site_fract_x
_atom_site_fract_y
_atom_site_fract_z
Si Si1 0.905512 0.830598 0.202024
Si Si2 0.681951 0.641841 0.249596
Si Si3 0.353538 0.844974 0.771811
Si Si4 0.402354 0.793619 0.204448
Si Si5 0.139525 0.560394 0.465109
O O1 0.795234 0.836293 0.314259
O O2 0.908738 0.767991 0.165419
O O3 0.047655 0.848421 0.296891
O O4 0.860118 0.861122 0.991785
O O5 0.783515 0.689944 0.287076
O O6 0.761888 0.592745 0.362576
O O7 0.457811 0.814159 0.688111
O O8 0.371922 0.906273 0.735181
O O9 0.375852 0.824256 0.994807
O O10 0.177716 0.500000 0.454911
O O11 0.000000 0.561744 0.500000
#
# Coordination Sequence:
#
# PCOD9176897 Si02
#       5
#     8   8   8   8   8
#     4  10  20  36  60  93 122 147 182 234 290 349
#     4  10  19  37  59  84 118 156 187 232 290 343
#     4  10  19  35  59  86 116 152 195 233 277 344
#     4  10  18  36  60  90 121 153 186 227 282 347
#     4  11  24  43  59  79 113 156 200 251 289 321
#
# _framework density 21.291941000000001
#
# number of rings (size 3 to 8) (size 9 to 14) (size 15 to 20)
#    0.000    1.800    2.000    6.000    0.000    0.800 
#    0.000   21.000    0.000    0.000    0.000    0.000 
#    0.000    0.000    0.000    0.000    0.000    0.000 
#
# Total GULP energy -111498.366992 kJ/mol
# GULP energy per Si atom -5574.918350 kJ/mol
# Density = 2.124348 g / cm^3
# Si number density = 21.291941 Si / 1000 Ang^3
#
#
#
# Elastic Constant Matrix: (Units=GPa)
#
#
# Indices 1 2 3 4 5 6 
#
# 1 195.2209 29.6027 20.5944 0.0000 23.3528 0.0000
# 2 29.6027 162.2596 30.2632 0.0000 5.1633 0.0000
# 3 20.5944 30.2632 83.7208 0.0000 26.3213 0.0000
# 4 0.0000 0.0000 0.0000 26.4276 0.0000 3.0674
# 5 23.3528 5.1633 26.3213 0.0000 32.1718 0.0000
# 6 0.0000 0.0000 0.0000 3.0674 0.0000 13.8511
#
#
#
# Elastic Compliance Matrix: (Units=1/GPa)
#
#
# Indices 1 2 3 4 5 6 
#
# 1 0.005747 -0.000963 0.000266 0.000000 -0.004234 0.000000
# 2 -0.000963 0.006805 -0.002826 0.000000 0.001919 0.000000
# 3 0.000266 -0.002826 0.017258 0.000000 -0.013859 0.000000
# 4 0.000000 0.000000 0.000000 0.038838 0.000000 -0.008601
# 5 -0.004234 0.001919 -0.013859 0.000000 0.045187 0.000000
# 6 0.000000 0.000000 0.000000 -0.008601 0.000000 0.074101
#
#
# Mechanical properties :
#
#
# Convention : Reuss Voigt Hill
#
# Bulk Modulus (GPa) = 43.93285 66.90244 55.41765
# Shear Modulus (GPa) = 24.68276 38.53949 31.61113
#
# Velocity S-wave (km/s) = 3.40848 4.25908 3.85730
# Velocity P-wave (km/s) = 6.01404 7.46164 6.77660
#
# Compressibility (1/GPa) = 0.02276201
#
# Stress axis : x y z
#
# Youngs Moduli (GPa) = 174.00472 146.95597 57.94479
#
# Poissons Ratio (x) = 0.14156 -0.01540
# Poissons Ratio (y) = 0.16762 0.16377
# Poissons Ratio (z) = -0.04625 0.41534
#
# Static dielectric constant tensor:
#      x y z
#    x 1.854880 0.000000 0.002400 
#    y 0.000000 1.697090 0.000000 
#    z 0.002400 0.000000 1.887860 
# 
# From -- ./inp_files/50975.got.cif
#   From: 2010.05.17/outbox.cif.g08.bks.cpg/sg12_26_cif.got.tgz:50975.got - 2010.06.03 13:09:07.
