data_PCOD9176520
_publ_section_title
;
Structure prediction by ZEFSAII (Michael W. Deem and Ramdas Pophale) SiO2 
 PCOD9176520
Probable space group: C 2/M
;
_chemical_formula_sum "Si O2"
_cell_formula_units_Z 56
_cell_length_a 11.191521
_cell_length_b 25.950219
_cell_length_c 15.877215
_cell_angle_alpha 90.000000
_cell_angle_beta 42.090962
_cell_angle_gamma 90.000000
_cell_volume 3090.863930
_symmetry_space_group_name_H-M "C 2/M"
_symmetry_group_IT_number 12
_symmetry_cell_setting 'monoclinic'
loop_
_space_group_symop_operation_xyz
x,y,z
-x,y,-z
-x,-y,-z
x,-y,z
1/2+x,1/2+y,z
1/2-x,1/2+y,-z
1/2-x,1/2-y,-z
1/2+x,1/2-y,z
loop_
_atom_site_type_symbol
_atom_site_label
_atom_site_fract_x
_atom_site_fract_y
_atom_site_fract_z
Si Si1 0.549980 0.721265 0.388945
Si Si2 0.080376 0.201807 0.188158
Si Si3 0.925786 0.306519 0.240809
Si Si4 0.877820 0.377583 0.987078
Si Si5 0.783129 0.871395 0.299807
Si Si6 0.447212 0.438679 0.931063
Si Si7 0.584645 0.835195 0.566932
O O1 0.500000 0.692028 0.500000
O O2 0.511518 0.696298 0.320089
O O3 0.762922 0.723946 0.283224
O O4 0.446450 0.775681 0.445587
O O5 0.078644 0.262988 0.173515
O O6 0.932807 0.172696 0.210112
O O7 0.262823 0.170984 0.082687
O O8 0.864205 0.328322 0.363227
O O9 0.991698 0.352968 0.149804
O O10 0.732062 0.413520 0.015988
O O11 0.000000 0.399038 0.000000
O O12 0.889356 0.921828 0.215498
O O13 0.704378 0.865226 0.436027
O O14 0.610473 0.860965 0.333795
O O15 0.425751 0.500000 0.943980
O O16 0.500000 0.421971 0.000000
#
# Coordination Sequence:
#
# PCOD9176520 Si02
#       7
#     8   8   8   8   8   8   8
#     4  11  18  29  47  72 111 157 194 223 253 316
#     4  10  20  32  48  75 116 157 193 224 267 327
#     4  11  20  32  50  79 117 161 191 221 272 320
#     4  11  22  38  57  85 116 149 194 243 282 339
#     4  10  18  35  54  79 111 142 183 236 272 335
#     4  10  23  43  66  86 107 139 186 243 308 360
#     4  10  19  31  50  80 113 149 192 224 266 323
#
# _framework density 18.117913000000001
#
# number of rings (size 3 to 8) (size 9 to 14) (size 15 to 20)
#    0.000    1.571    4.286    2.143    0.000    2.571 
#    0.000    2.143    0.000    0.857    0.000    1.000 
#    0.000    0.000    0.000    0.000    0.000    0.000 
#
# Total GULP energy -155889.091580 kJ/mol
# GULP energy per Si atom -5567.467556 kJ/mol
# Density = 1.807668 g / cm^3
# Si number density = 18.117913 Si / 1000 Ang^3
#
#
#
# Elastic Constant Matrix: (Units=GPa)
#
#
# Indices 1 2 3 4 5 6 
#
# 1 119.5348 37.5526 36.1228 0.0000 0.3180 0.0000
# 2 37.5526 46.6169 21.6581 0.0000 6.0982 0.0000
# 3 36.1228 21.6581 65.1501 0.0000 4.4897 0.0000
# 4 0.0000 0.0000 0.0000 21.3405 0.0000 0.7100
# 5 0.3180 6.0982 4.4897 0.0000 31.2345 0.0000
# 6 0.0000 0.0000 0.0000 0.7100 0.0000 18.7732
#
#
#
# Elastic Compliance Matrix: (Units=1/GPa)
#
#
# Indices 1 2 3 4 5 6 
#
# 1 0.012184 -0.008137 -0.004193 0.000000 0.002067 0.000000
# 2 -0.008137 0.031254 -0.005518 0.000000 -0.005226 0.000000
# 3 -0.004193 -0.005518 0.019625 0.000000 -0.001701 0.000000
# 4 0.000000 0.000000 0.000000 0.046918 0.000000 -0.001775
# 5 0.002067 -0.005226 -0.001701 0.000000 0.033260 0.000000
# 6 0.000000 0.000000 0.000000 -0.001775 0.000000 0.053335
#
#
# Mechanical properties :
#
#
# Convention : Reuss Voigt Hill
#
# Bulk Modulus (GPa) = 36.54020 46.88542 41.71281
# Shear Modulus (GPa) = 20.71308 23.33417 22.02363
#
# Velocity S-wave (km/s) = 3.38485 3.59263 3.49029
# Velocity P-wave (km/s) = 5.95718 6.56837 6.27023
#
# Compressibility (1/GPa) = 0.02736712
#
# Stress axis : x y z
#
# Youngs Moduli (GPa) = 82.07765 31.99624 50.95433
#
# Poissons Ratio (x) = 0.26036 0.21363
# Poissons Ratio (y) = 0.66788 0.28117
# Poissons Ratio (z) = 0.34412 0.17656
#
# Static dielectric constant tensor:
#      x y z
#    x 1.690050 0.000000 -0.018120 
#    y 0.000000 1.598630 0.000000 
#    z -0.018120 0.000000 1.683280 
# 
# From -- ./inp_files/265490.got.cif
#   From: 2010.05.17/outbox.cif.g08.bks.cpg/sg12_133_cif.got.tgz:265490.got - 2010.06.03 13:09:07.
