data_PCOD9176706
_publ_section_title
;
Structure prediction by ZEFSAII (Michael W. Deem and Ramdas Pophale) SiO2 
 PCOD9176706
Probable space group: C 2/M
;
_chemical_formula_sum "Si O2"
_cell_formula_units_Z 56
_cell_length_a 11.219465
_cell_length_b 24.033662
_cell_length_c 19.818756
_cell_angle_alpha 90.000000
_cell_angle_beta 147.565916
_cell_angle_gamma 90.000000
_cell_volume 2866.155482
_symmetry_space_group_name_H-M "C 2/M"
_symmetry_group_IT_number 12
_symmetry_cell_setting 'monoclinic'
loop_
_space_group_symop_operation_xyz
x,y,z
-x,y,-z
-x,-y,-z
x,-y,z
1/2+x,1/2+y,z
1/2-x,1/2+y,-z
1/2-x,1/2-y,-z
1/2+x,1/2-y,z
loop_
_atom_site_type_symbol
_atom_site_label
_atom_site_fract_x
_atom_site_fract_y
_atom_site_fract_z
Si Si1 0.753334 0.173272 0.411064
Si Si2 0.536536 0.938389 0.255884
Si Si3 0.293790 0.938371 0.997539
Si Si4 0.231575 0.938018 0.235988
Si Si5 0.470827 0.828962 0.405234
Si Si6 0.633516 0.817724 0.001783
Si Si7 0.576034 0.752744 0.215833
O O1 0.689206 0.112445 0.351607
O O2 0.686955 0.174304 0.458911
O O3 0.603284 0.219301 0.301785
O O4 0.000000 0.184368 0.500000
O O5 0.444068 0.934669 0.136295
O O6 0.326228 0.935471 0.205595
O O7 0.639443 0.000000 0.314034
O O8 0.326897 0.000000 0.983198
O O9 0.344430 0.883574 0.979942
O O10 0.033280 0.933650 0.891222
O O11 0.349209 0.887651 0.331220
O O12 0.288723 0.000000 0.290381
O O13 0.500000 0.825309 0.500000
O O14 0.301577 0.779373 0.305102
O O15 0.876784 0.791251 0.116187
O O16 0.500000 0.792380 0.000000
O O17 0.496283 0.801214 0.869869
#
# Coordination Sequence:
#
# PCOD9176706 Si02
#       7
#     8   8   8   8   8   8   8
#     4  11  24  41  63  88 118 160 208 253 297 351
#     4   9  18  35  60  89 119 151 193 245 299 358
#     4  10  18  35  61  89 117 150 192 239 300 362
#     4   9  18  35  60  89 119 151 193 245 299 358
#     4  11  24  41  63  88 118 160 208 253 297 351
#     4  11  23  38  60  90 123 155 190 243 305 361
#     4  11  23  42  60  86 117 163 198 246 292 365
#
# _framework density 19.538367999999998
#
# number of rings (size 3 to 8) (size 9 to 14) (size 15 to 20)
#    0.000    1.714    2.857    1.714    0.000    6.000 
#    0.000    0.000    0.000    0.000    0.000    0.000 
#    0.000    0.000    0.000    0.000    0.000    0.000 
#
# Total GULP energy -156123.031641 kJ/mol
# GULP energy per Si atom -5575.822559 kJ/mol
# Density = 1.949390 g / cm^3
# Si number density = 19.538368 Si / 1000 Ang^3
#
#
#
# Elastic Constant Matrix: (Units=GPa)
#
#
# Indices 1 2 3 4 5 6 
#
# 1 74.8894 2.7290 21.7275 0.0801 4.6381 0.0245
# 2 2.7290 105.2087 8.7449 0.0812 6.7799 0.0258
# 3 21.7275 8.7449 41.8620 0.2026 3.1727 0.0633
# 4 0.0801 0.0812 0.2026 275.1925 0.0210 80.6516
# 5 4.6381 6.7799 3.1727 0.0210 17.4882 0.0061
# 6 0.0245 0.0258 0.0633 80.6516 0.0061 45.7778
#
#
#
# Elastic Compliance Matrix: (Units=1/GPa)
#
#
# Indices 1 2 3 4 5 6 
#
# 1 0.015870 0.000450 -0.008110 0.000001 -0.002912 0.000001
# 2 0.000450 0.009893 -0.002028 -0.000001 -0.003587 -0.000001
# 3 -0.008110 -0.002028 0.028693 -0.000017 -0.002268 -0.000005
# 4 0.000001 -0.000001 -0.000017 0.007513 -0.000001 -0.013237
# 5 -0.002912 -0.003587 -0.002268 -0.000001 0.059756 0.000001
# 6 0.000001 -0.000001 -0.000005 -0.013237 0.000001 0.045165
#
#
# Mechanical properties :
#
#
# Convention : Reuss Voigt Hill
#
# Bulk Modulus (GPa) = 28.50702 32.04030 30.27366
# Shear Modulus (GPa) = 25.25758 80.27562 52.76660
#
# Velocity S-wave (km/s) = 3.59934 6.41680 5.20243
# Velocity P-wave (km/s) = 5.64762 8.44599 7.18437
#
# Compressibility (1/GPa) = 0.03507908
#
# Stress axis : x y z
#
# Youngs Moduli (GPa) = 63.01200 101.08183 34.85145
#
# Poissons Ratio (x) = -0.04550 0.28265
# Poissons Ratio (y) = -0.02836 0.07069
# Poissons Ratio (z) = 0.51104 0.20504
#
# Static dielectric constant tensor:
#      x y z
#    x 1.662740 0.000000 -0.000920 
#    y 0.000000 1.713790 0.000000 
#    z -0.000920 0.000000 1.669100 
# 
# From -- ./inp_files/307252.got.cif
#   From: 2010.05.17/outbox.cif.g08.bks.cpg/sg12_154_cif.got.tgz:307252.got - 2010.06.03 13:09:07.
