data_PCOD9176752
_publ_section_title
;
Structure prediction by ZEFSAII (Michael W. Deem and Ramdas Pophale) SiO2 
 PCOD9176752
Probable space group: C 2/M
;
_chemical_formula_sum "Si O2"
_cell_formula_units_Z 48
_cell_length_a 10.353715
_cell_length_b 28.343473
_cell_length_c 7.043539
_cell_angle_alpha 90.000000
_cell_angle_beta 86.261914
_cell_angle_gamma 90.000000
_cell_volume 2062.601120
_symmetry_space_group_name_H-M "C 2/M"
_symmetry_group_IT_number 12
_symmetry_cell_setting 'monoclinic'
loop_
_space_group_symop_operation_xyz
x,y,z
-x,y,-z
-x,-y,-z
x,-y,z
1/2+x,1/2+y,z
1/2-x,1/2+y,-z
1/2-x,1/2-y,-z
1/2+x,1/2-y,z
loop_
_atom_site_type_symbol
_atom_site_label
_atom_site_fract_x
_atom_site_fract_y
_atom_site_fract_z
Si Si1 0.456872 0.658513 0.784812
Si Si2 0.044993 0.642659 0.216120
Si Si3 0.200763 0.551502 0.109060
Si Si4 0.886943 0.074950 0.376072
Si Si5 0.381314 0.242286 0.863611
Si Si6 0.290806 0.904237 0.289924
O O1 0.569292 0.629339 0.667309
O O2 0.416192 0.711725 0.735798
O O3 0.327380 0.627884 0.774119
O O4 0.500000 0.659674 0.000000
O O5 0.134768 0.597041 0.208655
O O6 0.115006 0.692373 0.246738
O O7 0.911371 0.629093 0.330480
O O8 0.000000 0.645443 0.000000
O O9 0.147505 0.500000 0.162303
O O10 0.347687 0.553882 0.177007
O O11 0.183506 0.560622 0.886646
O O12 0.763194 0.069970 0.522030
O O13 0.000000 0.055027 0.500000
O O14 0.500000 0.239952 0.000000
O O15 0.250000 0.250000 0.000000
#
# Coordination Sequence:
#
# PCOD9176752 Si02
#       6
#     8   8   8   8   8   8
#     4  10  18  35  64  90 123 171 206 250 313 383
#     4   9  20  37  60  92 129 162 212 266 310 376
#     4  11  23  41  67  92 121 168 217 262 319 381
#     4  10  23  40  63  91 130 163 205 263 318 376
#     4  10  19  31  60  96 125 167 217 256 314 379
#     4  10  21  41  62  90 133 162 205 263 318 371
#
# _framework density 23.271585000000002
#
# number of rings (size 3 to 8) (size 9 to 14) (size 15 to 20)
#    0.000    2.000    1.667    3.000    2.333    4.667 
#    0.000    7.500    7.333    0.000    0.000    0.000 
#    0.000    0.000    0.000    0.000    0.000    0.000 
#
# Total GULP energy -133836.013208 kJ/mol
# GULP energy per Si atom -5576.500550 kJ/mol
# Density = 2.321862 g / cm^3
# Si number density = 23.271585 Si / 1000 Ang^3
#
#
#
# Elastic Constant Matrix: (Units=GPa)
#
#
# Indices 1 2 3 4 5 6 
#
# 1 87.6312 11.9374 9.9647 0.0000 -3.9480 0.0000
# 2 11.9374 155.3687 -0.1205 0.0000 -1.3099 0.0000
# 3 9.9647 -0.1205 53.1314 0.0000 7.2372 0.0000
# 4 0.0000 0.0000 0.0000 1.4293 0.0000 -2.7310
# 5 -3.9480 -1.3099 7.2372 0.0000 40.9841 0.0000
# 6 0.0000 0.0000 0.0000 -2.7310 0.0000 4.3904
#
#
#
# Elastic Compliance Matrix: (Units=1/GPa)
#
#
# Indices 1 2 3 4 5 6 
#
# 1 0.011882 -0.000902 -0.002441 0.000000 0.001547 0.000000
# 2 -0.000902 0.006506 0.000172 0.000000 0.000091 0.000000
# 3 -0.002441 0.000172 0.019787 0.000000 -0.003724 0.000000
# 4 0.000000 0.000000 0.000000 -3.711811 0.000000 -2.308852
# 5 0.001547 0.000091 -0.003724 0.000000 0.025209 0.000000
# 6 0.000000 0.000000 0.000000 -2.308852 0.000000 -1.208404
#
#
# Mechanical properties :
#
#
# Convention : Reuss Voigt Hill
#
# Bulk Modulus (GPa) = 31.41487 37.74385 34.57936
# Shear Modulus (GPa) = -1.03308 27.65076 13.30884
#
# Velocity S-wave (km/s) = -0.66700 3.45073 2.39402
# Velocity P-wave (km/s) = 3.59658 5.66841 4.74690
#
# Compressibility (1/GPa) = 0.03183205
#
# Stress axis : x y z
#
# Youngs Moduli (GPa) = 84.16397 153.69285 50.53900
#
# Poissons Ratio (x) = 0.13859 0.12337
# Poissons Ratio (y) = 0.07589 -0.00867
# Poissons Ratio (z) = 0.20545 -0.02636
#
# Static dielectric constant tensor:
#      x y z
#    x 1.924510 0.000000 -0.056390 
#    y 0.000000 1.926860 0.000000 
#    z -0.056390 0.000000 1.911210 
# 
# From -- ./inp_files/51985.got.cif
#   From: 2010.05.17/outbox.cif.g08.bks.cpg/sg12_26_cif.got.tgz:51985.got - 2010.06.03 13:09:07.
