data_PCOD9176736
_publ_section_title
;
Structure prediction by ZEFSAII (Michael W. Deem and Ramdas Pophale) SiO2 
 PCOD9176736
Probable space group: C 2/M
;
_chemical_formula_sum "Si O2"
_cell_formula_units_Z 56
_cell_length_a 17.883567
_cell_length_b 15.355139
_cell_length_c 16.068057
_cell_angle_alpha 90.000000
_cell_angle_beta 145.313488
_cell_angle_gamma 90.000000
_cell_volume 2511.014024
_symmetry_space_group_name_H-M "C 2/M"
_symmetry_group_IT_number 12
_symmetry_cell_setting 'monoclinic'
loop_
_space_group_symop_operation_xyz
x,y,z
-x,y,-z
-x,-y,-z
x,-y,z
1/2+x,1/2+y,z
1/2-x,1/2+y,-z
1/2-x,1/2-y,-z
1/2+x,1/2-y,z
loop_
_atom_site_type_symbol
_atom_site_label
_atom_site_fract_x
_atom_site_fract_y
_atom_site_fract_z
Si Si1 0.616831 0.106031 0.171949
Si Si2 0.819583 0.900145 0.094180
Si Si3 0.024319 0.394488 0.788112
Si Si4 0.540680 0.173095 0.627743
Si Si5 0.305295 0.600205 0.824202
Si Si6 0.389923 0.364245 0.343027
Si Si7 0.967857 0.100079 0.829806
O O1 0.567213 0.131412 0.218340
O O2 0.755539 0.146660 0.272149
O O3 0.632485 0.000000 0.183199
O O4 0.500000 0.128345 0.000000
O O5 0.842527 0.904537 0.213239
O O6 0.948969 0.858923 0.169221
O O7 0.815936 0.000000 0.058021
O O8 0.674811 0.863146 0.943246
O O9 0.027831 0.500000 0.791606
O O10 0.979818 0.363539 0.656280
O O11 0.500000 0.136317 0.500000
O O12 0.694126 0.151448 0.769594
O O13 0.535674 0.276349 0.617061
O O14 0.263790 0.500000 0.773420
O O15 0.345789 0.637963 0.770685
O O16 0.424232 0.597074 0.998062
O O17 0.500000 0.409624 0.500000
O O18 0.930347 0.000000 0.772697
#
# Coordination Sequence:
#
# PCOD9176736 Si02
#       7
#     8   8   8   8   8   8   8
#     4  10  20  41  69  94 120 152 205 267 308 355
#     4  10  18  35  63  87 112 148 196 253 306 359
#     4  10  20  38  66  94 118 152 206 264 308 354
#     4  11  24  41  55  82 125 169 205 243 301 367
#     4   9  16  32  55  79 114 151 191 242 289 348
#     4  11  25  43  57  85 127 166 201 245 306 369
#     4   8  15  29  53  85 111 136 179 242 300 341
#
# _framework density 22.301748
#
# number of rings (size 3 to 8) (size 9 to 14) (size 15 to 20)
#    0.000    2.143    2.857    1.714    0.000    2.857 
#    7.714    1.429    0.000    0.000    0.000    0.000 
#    0.000    0.000    0.000    0.000    0.000    0.000 
#
# Total GULP energy -156028.013232 kJ/mol
# GULP energy per Si atom -5572.429044 kJ/mol
# Density = 2.225099 g / cm^3
# Si number density = 22.301748 Si / 1000 Ang^3
#
#
#
# Elastic Constant Matrix: (Units=GPa)
#
#
# Indices 1 2 3 4 5 6 
#
# 1 196.6988 12.9668 35.0645 0.0000 -28.9470 0.0000
# 2 12.9668 18.0131 1.3756 0.0000 -7.1484 0.0000
# 3 35.0645 1.3756 74.1990 0.0000 -21.4466 -0.0001
# 4 0.0000 0.0000 0.0000 2.3149 0.0000 -7.6273
# 5 -28.9470 -7.1484 -21.4466 0.0000 30.5822 -0.0001
# 6 0.0000 0.0000 -0.0001 -7.6273 -0.0001 18.1241
#
#
#
# Elastic Compliance Matrix: (Units=1/GPa)
#
#
# Indices 1 2 3 4 5 6 
#
# 1 0.006155 -0.002714 -0.001703 0.000000 0.003997 0.000000
# 2 -0.002714 0.063237 0.004566 -0.000003 0.015414 -0.000001
# 3 -0.001703 0.004566 0.017609 -0.000002 0.011804 -0.000001
# 4 0.000000 -0.000003 -0.000002 -1.117415 -0.000005 -0.470250
# 5 0.003997 0.015414 0.011804 -0.000005 0.048363 -0.000002
# 6 0.000000 -0.000001 -0.000001 -0.470250 -0.000002 -0.142724
#
#
# Mechanical properties :
#
#
# Convention : Reuss Voigt Hill
#
# Bulk Modulus (GPa) = 11.45501 43.08055 27.26778
# Shear Modulus (GPa) = -4.56216 26.17117 10.80451
#
# Velocity S-wave (km/s) = -1.43181 3.42936 2.20345
# Velocity P-wave (km/s) = 1.55373 5.91944 4.32746
#
# Compressibility (1/GPa) = 0.08729802
#
# Stress axis : x y z
#
# Youngs Moduli (GPa) = 162.47985 15.81346 56.78811
#
# Poissons Ratio (x) = 0.04292 0.09671
# Poissons Ratio (y) = 0.44101 -0.25927
# Poissons Ratio (z) = 0.27669 -0.07220
#
# Static dielectric constant tensor:
#      x y z
#    x 1.881260 0.000000 0.020800 
#    y 0.000000 1.944310 0.000000 
#    z 0.020800 0.000000 1.885330 
# 
# From -- ./inp_files/227635.got.cif
#   From: 2010.05.17/outbox.cif.g08.bks.cpg/sg12_114_cif.got.tgz:227635.got - 2010.06.03 13:09:07.
