data_PCOD9176399
_publ_section_title
;
Structure prediction by ZEFSAII (Michael W. Deem and Ramdas Pophale) SiO2 
 PCOD9176399
Probable space group: C 2/M
;
_chemical_formula_sum "Si O2"
_cell_formula_units_Z 40
_cell_length_a 15.284951
_cell_length_b 29.636490
_cell_length_c 8.412205
_cell_angle_alpha 90.000000
_cell_angle_beta 27.124208
_cell_angle_gamma 90.000000
_cell_volume 1737.361734
_symmetry_space_group_name_H-M "C 2/M"
_symmetry_group_IT_number 12
_symmetry_cell_setting 'monoclinic'
loop_
_space_group_symop_operation_xyz
x,y,z
-x,y,-z
-x,-y,-z
x,-y,z
1/2+x,1/2+y,z
1/2-x,1/2+y,-z
1/2-x,1/2-y,-z
1/2+x,1/2-y,z
loop_
_atom_site_type_symbol
_atom_site_label
_atom_site_fract_x
_atom_site_fract_y
_atom_site_fract_z
Si Si1 0.834195 0.371949 0.637696
Si Si2 0.696197 0.802336 0.587888
Si Si3 0.937394 0.858093 0.442772
Si Si4 0.220445 0.049779 0.614683
Si Si5 0.706212 0.450978 0.258039
O O1 0.822761 0.326442 0.552051
O O2 0.853995 0.413808 0.482903
O O3 0.000000 0.371321 0.500000
O O4 0.630153 0.379033 0.055097
O O5 0.750000 0.750000 0.500000
O O6 0.849815 0.829174 0.444207
O O7 0.500000 0.807702 0.000000
O O8 0.787099 0.895647 0.751064
O O9 0.000000 0.831377 0.500000
O O10 0.235166 0.045857 0.401967
O O11 0.246848 0.000000 0.643086
O O12 0.000000 0.063055 0.000000
O O13 0.500000 0.454409 0.500000
O O14 0.798702 0.500000 0.053548
#
# Coordination Sequence:
#
# PCOD9176399 Si02
#       5
#     8   8   8   8   8
#     4  12  24  41  63  97 137 175 218 267 321 384
#     4  12  26  47  72  98 126 162 210 268 330 395
#     4  11  22  41  67  96 130 173 217 265 321 382
#     4  10  18  34  60  90 128 177 224 266 316 373
#     4   9  17  31  59  93 126 170 220 265 315 373
#
# _framework density 23.023415
#
# number of rings (size 3 to 8) (size 9 to 14) (size 15 to 20)
#    0.000    1.200    4.000    3.000    0.000    1.200 
#    0.000    4.000    0.000    4.800    0.000    0.000 
#    0.000    0.000    0.000    0.000    0.000    0.000 
#
# Total GULP energy -111384.910824 kJ/mol
# GULP energy per Si atom -5569.245541 kJ/mol
# Density = 2.297101 g / cm^3
# Si number density = 23.023415 Si / 1000 Ang^3
#
#
#
# Elastic Constant Matrix: (Units=GPa)
#
#
# Indices 1 2 3 4 5 6 
#
# 1 194.4690 84.3012 32.8271 0.0000 -20.2637 0.0000
# 2 84.3012 155.5643 11.3964 0.0000 -14.7266 0.0000
# 3 32.8271 11.3964 83.9440 0.0000 -9.8679 0.0000
# 4 0.0000 0.0000 0.0000 13.4833 0.0000 2.5059
# 5 -20.2637 -14.7266 -9.8679 0.0000 34.1125 0.0000
# 6 0.0000 0.0000 0.0000 2.5059 0.0000 18.9182
#
#
#
# Elastic Compliance Matrix: (Units=1/GPa)
#
#
# Indices 1 2 3 4 5 6 
#
# 1 0.007277 -0.003584 -0.002104 0.000000 0.002167 0.000000
# 2 -0.003584 0.008496 0.000444 0.000000 0.001667 0.000000
# 3 -0.002104 0.000444 0.012993 0.000000 0.002700 0.000000
# 4 0.000000 0.000000 0.000000 0.076038 0.000000 -0.010072
# 5 0.002167 0.001667 0.002700 0.000000 0.032103 0.000000
# 6 0.000000 0.000000 0.000000 -0.010072 0.000000 0.054193
#
#
# Mechanical properties :
#
#
# Convention : Reuss Voigt Hill
#
# Bulk Modulus (GPa) = 54.71448 76.78072 65.74760
# Shear Modulus (GPa) = 24.07553 33.66633 28.87093
#
# Velocity S-wave (km/s) = 3.23723 3.82811 3.54500
# Velocity P-wave (km/s) = 6.14729 7.27740 6.73609
#
# Compressibility (1/GPa) = 0.01827670
#
# Stress axis : x y z
#
# Youngs Moduli (GPa) = 137.42120 117.70600 76.96588
#
# Poissons Ratio (x) = 0.42187 0.16197
# Poissons Ratio (y) = 0.49253 -0.03419
# Poissons Ratio (z) = 0.28919 -0.05228
#
# Static dielectric constant tensor:
#      x y z
#    x 1.837080 0.000000 -0.017980 
#    y 0.000000 2.671880 0.000000 
#    z -0.017980 0.000000 2.000500 
# 
# From -- ./inp_files/68457.got.cif
#   From: 2010.05.17/outbox.cif.g08.bks.cpg/sg12_35_cif.got.tgz:68457.got - 2010.06.03 13:09:07.
