data_PCOD9176532
_publ_section_title
;
Structure prediction by ZEFSAII (Michael W. Deem and Ramdas Pophale) SiO2 
 PCOD9176532
Probable space group: C 2/M
;
_chemical_formula_sum "Si O2"
_cell_formula_units_Z 56
_cell_length_a 21.130864
_cell_length_b 19.036734
_cell_length_c 15.040255
_cell_angle_alpha 90.000000
_cell_angle_beta 154.452397
_cell_angle_gamma 90.000000
_cell_volume 2609.185298
_symmetry_space_group_name_H-M "C 2/M"
_symmetry_group_IT_number 12
_symmetry_cell_setting 'monoclinic'
loop_
_space_group_symop_operation_xyz
x,y,z
-x,y,-z
-x,-y,-z
x,-y,z
1/2+x,1/2+y,z
1/2-x,1/2+y,-z
1/2-x,1/2-y,-z
1/2+x,1/2-y,z
loop_
_atom_site_type_symbol
_atom_site_label
_atom_site_fract_x
_atom_site_fract_y
_atom_site_fract_z
Si Si1 0.078261 0.817307 0.728888
Si Si2 0.754982 0.424565 0.847785
Si Si3 0.511770 0.079662 0.320288
Si Si4 0.890158 0.779823 0.935794
Si Si5 0.181473 0.332849 0.810884
Si Si6 0.878176 0.692353 0.659997
Si Si7 0.252523 0.855613 0.669476
O O1 0.144323 0.863569 0.733636
O O2 0.085373 0.737508 0.704185
O O3 0.921304 0.845568 0.560059
O O4 0.193004 0.827549 0.954336
O O5 0.684534 0.500000 0.773718
O O6 0.792028 0.413393 0.792210
O O7 0.893876 0.420268 0.089117
O O8 0.420990 0.101960 0.293003
O O9 0.609161 0.146748 0.413448
O O10 0.571603 0.000000 0.402502
O O11 0.771292 0.829065 0.832973
O O12 0.809623 0.717919 0.781242
O O13 0.000000 0.811341 0.000000
O O14 0.979988 0.737083 0.127477
O O15 0.750000 0.750000 0.500000
O O16 0.834857 0.636666 0.681258
#
# Coordination Sequence:
#
# PCOD9176532 Si02
#       7
#     8   8   8   8   8   8   8
#     4  10  19  31  53  78 109 152 195 232 270 328
#     4  10  20  33  50  79 121 157 186 224 273 341
#     4  10  21  37  57  82 112 152 192 229 281 344
#     4  10  20  33  52  84 112 136 185 239 279 335
#     4  10  18  35  55  75 107 149 191 239 281 322
#     4  11  21  36  55  81 112 149 193 236 277 332
#     4  11  20  31  50  79 114 148 187 229 280 329
#
# _framework density 21.462637999999998
#
# number of rings (size 3 to 8) (size 9 to 14) (size 15 to 20)
#    0.000    1.714    2.857    3.857    0.000    1.714 
#    0.000    1.429    0.000    3.000    0.000   17.000 
#    0.000    0.000    0.000    0.000    0.000    0.000 
#
# Total GULP energy -156348.855090 kJ/mol
# GULP energy per Si atom -5583.887682 kJ/mol
# Density = 2.141379 g / cm^3
# Si number density = 21.462638 Si / 1000 Ang^3
#
#
#
# Elastic Constant Matrix: (Units=GPa)
#
#
# Indices 1 2 3 4 5 6 
#
# 1 129.1918 32.6287 -9.0596 0.0000 12.1731 0.0000
# 2 32.6287 86.6553 2.3863 0.0000 7.3109 0.0000
# 3 -9.0596 2.3863 36.8682 0.0000 3.6180 0.0000
# 4 0.0000 0.0000 0.0000 8.2410 0.0000 -2.7482
# 5 12.1731 7.3109 3.6180 0.0000 24.5970 0.0000
# 6 0.0000 0.0000 0.0000 -2.7482 0.0000 14.9357
#
#
#
# Elastic Compliance Matrix: (Units=1/GPa)
#
#
# Indices 1 2 3 4 5 6 
#
# 1 0.009117 -0.003175 0.002837 0.000000 -0.003986 0.000000
# 2 -0.003175 0.012949 -0.001415 0.000000 -0.002069 0.000000
# 3 0.002837 -0.001415 0.028419 0.000000 -0.005164 0.000000
# 4 0.000000 0.000000 0.000000 0.129278 0.000000 0.023787
# 5 -0.003986 -0.002069 -0.005164 0.000000 0.044002 0.000000
# 6 0.000000 0.000000 0.000000 0.023787 0.000000 0.071331
#
#
# Mechanical properties :
#
#
# Convention : Reuss Voigt Hill
#
# Bulk Modulus (GPa) = 21.28619 33.84733 27.56676
# Shear Modulus (GPa) = 15.91036 24.67207 20.29122
#
# Velocity S-wave (km/s) = 2.72565 3.39416 3.07810
# Velocity P-wave (km/s) = 4.45475 5.58256 5.05024
#
# Compressibility (1/GPa) = 0.04697882
#
# Stress axis : x y z
#
# Youngs Moduli (GPa) = 109.68904 77.22671 35.18766
#
# Poissons Ratio (x) = 0.24516 -0.09982
# Poissons Ratio (y) = 0.34822 0.04979
# Poissons Ratio (z) = -0.31117 0.10929
#
# Static dielectric constant tensor:
#      x y z
#    x 1.854010 0.000000 -0.005960 
#    y 0.000000 1.759380 0.000000 
#    z -0.005960 0.000000 1.839660 
# 
# From -- ./inp_files/234749.got.cif
#   From: 2010.05.17/outbox.cif.g08.bks.cpg/sg12_118_cif.got.tgz:234749.got - 2010.06.03 13:09:07.
