data_PCOD9176589
_publ_section_title
;
Structure prediction by ZEFSAII (Michael W. Deem and Ramdas Pophale) SiO2 
 PCOD9176589
Probable space group: C 2/M
;
_chemical_formula_sum "Si O2"
_cell_formula_units_Z 52
_cell_length_a 15.263916
_cell_length_b 22.141826
_cell_length_c 12.507770
_cell_angle_alpha 90.000000
_cell_angle_beta 143.031919
_cell_angle_gamma 90.000000
_cell_volume 2542.149333
_symmetry_space_group_name_H-M "C 2/M"
_symmetry_group_IT_number 12
_symmetry_cell_setting 'monoclinic'
loop_
_space_group_symop_operation_xyz
x,y,z
-x,y,-z
-x,-y,-z
x,-y,z
1/2+x,1/2+y,z
1/2-x,1/2+y,-z
1/2-x,1/2-y,-z
1/2+x,1/2-y,z
loop_
_atom_site_type_symbol
_atom_site_label
_atom_site_fract_x
_atom_site_fract_y
_atom_site_fract_z
Si Si1 0.175177 0.867246 0.183863
Si Si2 0.173424 0.631282 0.163707
Si Si3 0.177376 0.752626 0.044065
Si Si4 0.430051 0.625373 0.548882
Si Si5 0.667217 0.500000 0.206347
Si Si6 0.366599 0.500000 0.570640
Si Si7 0.825841 0.500000 0.828397
Si Si8 0.122669 0.210438 0.326922
O O1 0.232741 0.935722 0.231291
O O2 0.194303 0.840119 0.320807
O O3 0.223262 0.814300 0.149857
O O4 0.000000 0.871823 0.000000
O O5 0.256821 0.633617 0.357764
O O6 0.219895 0.564407 0.165928
O O7 0.217080 0.691385 0.144237
O O8 0.000000 0.630437 0.000000
O O9 0.000523 0.754720 0.860758
O O10 0.250000 0.750000 0.000000
O O11 0.500000 0.629156 0.500000
O O12 0.453174 0.560700 0.625369
O O13 0.467504 0.677401 0.667644
O O14 0.669500 0.500000 0.338763
O O15 0.500000 0.500000 0.000000
O O16 0.236432 0.500000 0.354347
O O17 0.000000 0.500000 0.000000
O O18 0.250000 0.250000 0.500000
#
# Coordination Sequence:
#
# PCOD9176589 Si02
#       8
#     8   8   8   8   4   4   4   8
#     4   9  19  35  55  79 110 149 193 234 279 343
#     4  10  19  37  57  78 110 149 184 228 276 345
#     4  11  22  37  55  81 114 148 186 237 294 339
#     4  11  21  34  54  86 118 140 179 241 296 340
#     4  10  18  35  58  82 114 152 200 241 275 352
#     4  10  19  34  56  85 116 153 177 234 306 340
#     4   8  18  33  58  83 110 140 191 231 282 337
#     4  11  21  34  56  82 108 149 194 229 280 344
#
# _framework density 20.455131999999999
#
# number of rings (size 3 to 8) (size 9 to 14) (size 15 to 20)
#    0.000    1.846    1.538    4.385    0.000    0.000 
#    0.000    0.769    0.000    0.000    0.000    1.077 
#    0.000    0.000    0.000    0.000    0.000    0.000 
#
# Total GULP energy -144893.088527 kJ/mol
# GULP energy per Si atom -5572.811097 kJ/mol
# Density = 2.040858 g / cm^3
# Si number density = 20.455132 Si / 1000 Ang^3
#
#
#
# Elastic Constant Matrix: (Units=GPa)
#
#
# Indices 1 2 3 4 5 6 
#
# 1 59.4149 46.4387 9.3504 0.0000 -19.2171 0.0000
# 2 46.4387 220.6411 40.4337 0.0000 -30.0546 0.0000
# 3 9.3504 40.4337 66.1500 0.0000 -0.8043 0.0000
# 4 0.0000 0.0000 0.0000 31.3607 0.0000 -9.0000
# 5 -19.2171 -30.0546 -0.8043 0.0000 31.5744 0.0000
# 6 0.0000 0.0000 0.0000 -9.0000 0.0000 11.0526
#
#
#
# Elastic Compliance Matrix: (Units=1/GPa)
#
#
# Indices 1 2 3 4 5 6 
#
# 1 0.023024 -0.003125 -0.001211 0.000000 0.011008 0.000000
# 2 -0.003125 0.006368 -0.003401 0.000000 0.004073 0.000000
# 3 -0.001211 -0.003401 0.017324 0.000000 -0.003533 0.000000
# 4 0.000000 0.000000 0.000000 0.041611 0.000000 0.033883
# 5 0.011008 0.004073 -0.003533 0.000000 0.042158 0.000000
# 6 0.000000 0.000000 0.000000 0.033883 0.000000 0.118067
#
#
# Mechanical properties :
#
#
# Convention : Reuss Voigt Hill
#
# Bulk Modulus (GPa) = 32.00696 59.85018 45.92857
# Shear Modulus (GPa) = 18.21893 31.46307 24.84100
#
# Velocity S-wave (km/s) = 2.98766 3.92618 3.48863
# Velocity P-wave (km/s) = 5.25194 7.06229 6.22330
#
# Compressibility (1/GPa) = 0.03124320
#
# Stress axis : x y z
#
# Youngs Moduli (GPa) = 43.43302 157.03540 57.72238
#
# Poissons Ratio (x) = 0.49067 0.06989
# Poissons Ratio (y) = 0.13571 0.19633
# Poissons Ratio (z) = 0.05259 0.53411
#
# Static dielectric constant tensor:
#      x y z
#    x 1.722810 0.000000 0.003810 
#    y 0.000000 1.800980 0.000000 
#    z 0.003810 0.000000 1.742200 
# 
# From -- ./inp_files/159654.got.cif
#   From: 2010.05.17/outbox.cif.g08.bks.cpg/sg12_80_cif.got.tgz:159654.got - 2010.06.03 13:09:07.
