data_PCOD9176686
_publ_section_title
;
Structure prediction by ZEFSAII (Michael W. Deem and Ramdas Pophale) SiO2 
 PCOD9176686
Probable space group: C 2/M
;
_chemical_formula_sum "Si O2"
_cell_formula_units_Z 56
_cell_length_a 14.762435
_cell_length_b 8.685127
_cell_length_c 21.945169
_cell_angle_alpha 90.000000
_cell_angle_beta 60.630789
_cell_angle_gamma 90.000000
_cell_volume 2452.049716
_symmetry_space_group_name_H-M "C 2/M"
_symmetry_group_IT_number 12
_symmetry_cell_setting 'monoclinic'
loop_
_space_group_symop_operation_xyz
x,y,z
-x,y,-z
-x,-y,-z
x,-y,z
1/2+x,1/2+y,z
1/2-x,1/2+y,-z
1/2-x,1/2-y,-z
1/2+x,1/2-y,z
loop_
_atom_site_type_symbol
_atom_site_label
_atom_site_fract_x
_atom_site_fract_y
_atom_site_fract_z
Si Si1 0.315578 0.316852 0.735124
Si Si2 0.402798 0.679964 0.150362
Si Si3 0.913778 0.181586 0.475112
Si Si4 0.030424 0.682356 0.672856
Si Si5 0.383108 0.822115 0.896811
Si Si6 0.168397 0.676598 0.942427
Si Si7 0.245743 0.813399 0.376568
O O1 0.308030 0.500000 0.743783
O O2 0.209404 0.241610 0.792366
O O3 0.422859 0.258685 0.727935
O O4 0.319401 0.276476 0.661854
O O5 0.412670 0.500000 0.157698
O O6 0.499559 0.765163 0.149847
O O7 0.399256 0.717712 0.079348
O O8 0.809974 0.240148 0.543554
O O9 0.000000 0.187988 0.500000
O O10 0.945553 0.276710 0.405642
O O11 0.904015 0.000000 0.461141
O O12 0.020550 0.500000 0.684056
O O13 0.135861 0.738795 0.670455
O O14 0.289913 0.723643 0.898620
O O15 0.371829 0.000000 0.881855
O O16 0.362799 0.812294 0.976617
O O17 0.153918 0.500000 0.927469
O O18 0.247582 0.000000 0.380267
#
# Coordination Sequence:
#
# PCOD9176686 Si02
#       7
#     8   8   8   8   8   8   8
#     4  11  23  43  62  79 111 159 203 241 293 357
#     4  12  25  40  60  89 124 161 204 252 303 360
#     4  10  18  35  61  85 113 151 193 231 286 358
#     4  11  22  37  58  88 118 145 188 245 302 350
#     4  10  21  39  64  94 126 160 200 249 301 355
#     4  10  21  39  64  94 125 160 203 248 299 358
#     4   9  20  38  60  83 112 151 191 236 291 354
#
# _framework density 22.838037
#
# number of rings (size 3 to 8) (size 9 to 14) (size 15 to 20)
#    0.000    1.571    1.429    3.857    0.000    4.857 
#    0.000    7.857    0.000    0.000    0.000    0.000 
#    0.000    0.000    0.000    0.000    0.000    0.000 
#
# Total GULP energy -156661.611000 kJ/mol
# GULP energy per Si atom -5595.057536 kJ/mol
# Density = 2.278606 g / cm^3
# Si number density = 22.838037 Si / 1000 Ang^3
#
#
#
# Elastic Constant Matrix: (Units=GPa)
#
#
# Indices 1 2 3 4 5 6 
#
# 1 98.4059 5.0538 9.8814 0.0000 -29.3284 0.0000
# 2 5.0538 57.3709 4.4304 0.0000 -13.1323 0.0000
# 3 9.8814 4.4304 68.6912 0.0000 -25.6720 0.0000
# 4 0.0000 0.0000 0.0000 27.9919 0.0000 -5.1992
# 5 -29.3284 -13.1323 -25.6720 0.0000 44.4724 0.0000
# 6 0.0000 0.0000 0.0000 -5.1992 0.0000 28.3972
#
#
#
# Elastic Compliance Matrix: (Units=1/GPa)
#
#
# Indices 1 2 3 4 5 6 
#
# 1 0.012847 0.000968 0.001738 0.000000 0.009761 0.000000
# 2 0.000968 0.018832 0.001228 0.000000 0.006908 0.000000
# 3 0.001738 0.001228 0.018862 0.000000 0.012397 0.000000
# 4 0.000000 0.000000 0.000000 0.036982 0.000000 0.006771
# 5 0.009761 0.006908 0.012397 0.000000 0.038119 0.000000
# 6 0.000000 0.000000 0.000000 0.006771 0.000000 0.036454
#
#
# Mechanical properties :
#
#
# Convention : Reuss Voigt Hill
#
# Bulk Modulus (GPa) = 17.12087 29.24435 23.18261
# Shear Modulus (GPa) = 28.78568 33.84581 31.31574
#
# Velocity S-wave (km/s) = 3.55410 3.85384 3.70700
# Velocity P-wave (km/s) = 4.93509 5.71277 5.33811
#
# Compressibility (1/GPa) = 0.05840824
#
# Stress axis : x y z
#
# Youngs Moduli (GPa) = 77.83945 53.10219 53.01740
#
# Poissons Ratio (x) = -0.05143 -0.09212
# Poissons Ratio (y) = -0.07539 -0.06510
# Poissons Ratio (z) = -0.13525 -0.06521
#
# Static dielectric constant tensor:
#      x y z
#    x 1.848320 0.000000 0.008100 
#    y 0.000000 1.763530 0.000000 
#    z 0.008100 0.000000 1.922560 
# 
# From -- ./inp_files/338567.got.cif
#   From: 2010.05.17/outbox.cif.g08.bks.cpg/sg12_170_cif.got.tgz:338567.got - 2010.06.03 13:09:07.
