data_PCOD9176290
_publ_section_title
;
Structure prediction by ZEFSAII (Michael W. Deem and Ramdas Pophale) SiO2 
 PCOD9176290
Probable space group: C 2/M
;
_chemical_formula_sum "Si O2"
_cell_formula_units_Z 60
_cell_length_a 12.398773
_cell_length_b 19.144680
_cell_length_c 24.880378
_cell_angle_alpha 90.000000
_cell_angle_beta 145.030738
_cell_angle_gamma 90.000000
_cell_volume 3384.871309
_symmetry_space_group_name_H-M "C 2/M"
_symmetry_group_IT_number 12
_symmetry_cell_setting 'monoclinic'
loop_
_space_group_symop_operation_xyz
x,y,z
-x,y,-z
-x,-y,-z
x,-y,z
1/2+x,1/2+y,z
1/2-x,1/2+y,-z
1/2-x,1/2-y,-z
1/2+x,1/2-y,z
loop_
_atom_site_type_symbol
_atom_site_label
_atom_site_fract_x
_atom_site_fract_y
_atom_site_fract_z
Si Si1 0.981323 0.674442 0.315045
Si Si2 0.500000 0.886478 0.000000
Si Si3 0.350315 0.583590 0.487818
Si Si4 0.716830 0.167929 0.986838
Si Si5 0.561211 0.670352 0.663525
Si Si6 0.072114 0.142849 0.189935
Si Si7 0.613188 0.423940 0.788080
Si Si8 0.524857 0.802953 0.208121
O O1 0.154055 0.621916 0.394428
O O2 0.965309 0.688154 0.244932
O O3 0.009270 0.750268 0.355029
O O4 0.784084 0.644005 0.255942
O O5 0.414626 0.845348 0.015468
O O6 0.681021 0.923500 0.099977
O O7 0.500000 0.593910 0.500000
O O8 0.329048 0.500000 0.486636
O O9 0.428636 0.622596 0.572699
O O10 0.608489 0.154217 0.887213
O O11 0.750000 0.250000 0.000000
O O12 0.915212 0.130473 0.079620
O O13 0.595945 0.634369 0.735380
O O14 0.761458 0.674060 0.715168
O O15 0.024448 0.220824 0.192577
O O16 0.031363 0.092059 0.222848
O O17 0.579631 0.500000 0.750169
#
# Coordination Sequence:
#
# PCOD9176290 Si02
#       8
#     8   4   8   8   8   8   8   8
#     4  11  22  39  62  86 122 152 193 251 302 350
#     4  10  19  34  50  86 120 158 203 236 291 336
#     4  11  24  42  63  87 113 151 198 247 305 363
#     4   9  18  29  53  84 120 156 189 240 280 342
#     4  11  21  39  62  92 114 150 200 251 296 346
#     4   9  21  34  53  88 120 158 192 232 294 350
#     4  11  21  36  58  84 122 161 198 242 288 350
#     4  10  18  34  58  88 118 152 197 240 288 339
#
# _framework density 17.725932
#
# number of rings (size 3 to 8) (size 9 to 14) (size 15 to 20)
#    0.000    1.733    4.000    1.000    0.000    1.067 
#    0.000    0.667    0.000    1.600    0.000    2.800 
#    0.000    0.000    0.000    0.000    0.000    0.000 
#
# Total GULP energy -167221.909779 kJ/mol
# GULP energy per Si atom -5574.063659 kJ/mol
# Density = 1.768559 g / cm^3
# Si number density = 17.725932 Si / 1000 Ang^3
#
#
#
# Elastic Constant Matrix: (Units=GPa)
#
#
# Indices 1 2 3 4 5 6 
#
# 1 112.0462 42.8957 53.5514 0.0001 11.4616 0.0000
# 2 42.8957 74.6123 35.9460 0.0000 12.9652 0.0000
# 3 53.5514 35.9460 100.4413 0.0004 2.8218 0.0003
# 4 0.0001 0.0000 0.0004 1.3989 0.0002 -14.8464
# 5 11.4616 12.9652 2.8218 0.0002 29.4840 0.0002
# 6 0.0000 0.0000 0.0003 -14.8464 0.0002 5.2579
#
#
#
# Elastic Compliance Matrix: (Units=1/GPa)
#
#
# Indices 1 2 3 4 5 6 
#
# 1 0.013640 -0.004719 -0.005508 0.000000 -0.002700 0.000000
# 2 -0.004719 0.019212 -0.004185 0.000000 -0.006213 0.000000
# 3 -0.005508 -0.004185 0.014317 0.000000 0.002611 0.000000
# 4 0.000000 0.000000 0.000000 -0.024678 0.000001 -0.069682
# 5 -0.002700 -0.006213 0.002611 0.000001 0.037448 0.000001
# 6 0.000000 0.000000 0.000000 -0.069682 0.000001 -0.006566
#
#
# Mechanical properties :
#
#
# Convention : Reuss Voigt Hill
#
# Bulk Modulus (GPa) = 54.51032 61.32066 57.91549
# Shear Modulus (GPa) = 56.61772 17.54194 37.07983
#
# Velocity S-wave (km/s) = 5.65773 3.14924 4.57863
# Velocity P-wave (km/s) = 8.57312 6.92044 7.79073
#
# Compressibility (1/GPa) = 0.01834515
#
# Stress axis : x y z
#
# Youngs Moduli (GPa) = 73.31310 52.05213 69.84817
#
# Poissons Ratio (x) = 0.24565 0.38469
# Poissons Ratio (y) = 0.34599 0.29230
# Poissons Ratio (z) = 0.40378 0.21782
#
# Static dielectric constant tensor:
#      x y z
#    x 1.574560 0.000000 -0.005110 
#    y 0.000000 1.598500 0.000000 
#    z -0.005110 0.000000 1.631900 
# 
# From -- ./inp_files/336880.got.cif
#   From: 2010.05.17/outbox.cif.g08.bks.cpg/sg12_169_cif.got.tgz:336880.got - 2010.06.03 13:09:07.
