data_PCOD9176861
_publ_section_title
;
Structure prediction by ZEFSAII (Michael W. Deem and Ramdas Pophale) SiO2 
 PCOD9176861
Probable space group: C 2/M
;
_chemical_formula_sum "Si O2"
_cell_formula_units_Z 52
_cell_length_a 12.058167
_cell_length_b 26.203136
_cell_length_c 17.081816
_cell_angle_alpha 90.000000
_cell_angle_beta 32.138226
_cell_angle_gamma 90.000000
_cell_volume 2871.114747
_symmetry_space_group_name_H-M "C 2/M"
_symmetry_group_IT_number 12
_symmetry_cell_setting 'monoclinic'
loop_
_space_group_symop_operation_xyz
x,y,z
-x,y,-z
-x,-y,-z
x,-y,z
1/2+x,1/2+y,z
1/2-x,1/2+y,-z
1/2-x,1/2-y,-z
1/2+x,1/2-y,z
loop_
_atom_site_type_symbol
_atom_site_label
_atom_site_fract_x
_atom_site_fract_y
_atom_site_fract_z
Si Si1 0.437137 0.500000 0.914344
Si Si2 0.730961 0.300205 0.458103
Si Si3 0.112914 0.172999 0.852625
Si Si4 0.145867 0.500000 0.244704
Si Si5 0.254624 0.718892 0.724027
Si Si6 0.000000 0.653913 0.000000
Si Si7 0.534609 0.108889 0.281532
Si Si8 0.766044 0.891317 0.977382
O O1 0.682209 0.500000 0.789147
O O2 0.297234 0.500000 0.077619
O O3 0.371452 0.447148 0.912909
O O4 0.750000 0.250000 0.500000
O O5 0.824627 0.288567 0.316590
O O6 0.483769 0.304895 0.595151
O O7 0.849534 0.351708 0.411681
O O8 0.246803 0.220476 0.742546
O O9 0.263732 0.128089 0.790955
O O10 0.000000 0.190520 0.000000
O O11 0.941872 0.150747 0.895265
O O12 0.007010 0.550590 0.323124
O O13 0.117355 0.690256 0.869092
O O14 0.154155 0.621437 0.962924
O O15 0.603499 0.109873 0.148428
#
# Coordination Sequence:
#
# PCOD9176861 Si02
#       8
#     4   8   8   4   8   4   8   8
#     4   9  16  33  54  92 117 148 198 251 305 350
#     4  11  23  39  58  85 122 161 201 245 301 367
#     4  10  19  32  58  89 116 151 199 252 296 348
#     4   9  16  30  62  87 118 150 194 259 305 346
#     4  11  24  38  56  85 122 163 201 241 299 365
#     4  12  24  39  56  86 122 169 198 240 302 358
#     4  10  18  36  58  90 119 153 201 251 304 354
#     4  10  21  33  58  86 124 156 198 250 299 355
#
# _framework density 18.111433000000002
#
# number of rings (size 3 to 8) (size 9 to 14) (size 15 to 20)
#    0.000    1.692    5.385    0.000    2.154    0.923 
#    0.000    0.000    0.000    3.692    0.000    2.154 
#    0.000    0.000    0.000    0.000    0.000    0.000 
#
# Total GULP energy -144934.167963 kJ/mol
# GULP energy per Si atom -5574.391075 kJ/mol
# Density = 1.807021 g / cm^3
# Si number density = 18.111433 Si / 1000 Ang^3
#
#
#
# Elastic Constant Matrix: (Units=GPa)
#
#
# Indices 1 2 3 4 5 6 
#
# 1 125.0386 55.0259 25.2659 -0.0025 -1.0427 0.0006
# 2 55.0259 140.7817 40.6319 -0.0153 -4.8715 0.0052
# 3 25.2659 40.6319 53.0831 -0.0604 0.3963 0.0138
# 4 -0.0025 -0.0153 -0.0604 27.7791 0.0063 -7.8520
# 5 -1.0427 -4.8715 0.3963 0.0063 17.3231 0.0011
# 6 0.0006 0.0052 0.0138 -7.8520 0.0011 18.5592
#
#
#
# Elastic Compliance Matrix: (Units=1/GPa)
#
#
# Indices 1 2 3 4 5 6 
#
# 1 0.009863 -0.003221 -0.002227 -0.000006 -0.000261 0.000000
# 2 -0.003221 0.010300 -0.006372 -0.000010 0.002848 -0.000002
# 3 -0.002227 -0.006372 0.024794 0.000052 -0.002493 0.000006
# 4 -0.000006 -0.000010 0.000052 0.040888 -0.000020 0.017299
# 5 -0.000261 0.002848 -0.002493 -0.000020 0.058569 -0.000011
# 6 0.000000 -0.000002 0.000006 0.017299 -0.000011 0.061201
#
#
# Mechanical properties :
#
#
# Convention : Reuss Voigt Hill
#
# Bulk Modulus (GPa) = 46.91097 62.30563 54.60830
# Shear Modulus (GPa) = 21.15414 25.93091 23.54253
#
# Velocity S-wave (km/s) = 3.42131 3.78794 3.60928
# Velocity P-wave (km/s) = 6.44707 7.32170 6.89826
#
# Compressibility (1/GPa) = 0.02131698
#
# Stress axis : x y z
#
# Youngs Moduli (GPa) = 101.38967 97.08814 40.33190
#
# Poissons Ratio (x) = 0.31276 0.08981
# Poissons Ratio (y) = 0.32662 0.25699
# Poissons Ratio (z) = 0.22577 0.61864
#
# Static dielectric constant tensor:
#      x y z
#    x 1.643850 0.000000 -0.001490 
#    y 0.000000 1.627130 0.000010 
#    z -0.001490 0.000010 1.653990 
# 
# From -- ./inp_files/52596.got.cif
#   From: 2010.05.17/outbox.cif.g08.bks.cpg/sg12_27_cif.got.tgz:52596.got - 2010.06.03 13:09:07.
