data_PCOD9176655
_publ_section_title
;
Structure prediction by ZEFSAII (Michael W. Deem and Ramdas Pophale) SiO2 
 PCOD9176655
Probable space group: C 2/M
;
_chemical_formula_sum "Si O2"
_cell_formula_units_Z 48
_cell_length_a 11.715087
_cell_length_b 15.312459
_cell_length_c 16.357550
_cell_angle_alpha 90.000000
_cell_angle_beta 136.774548
_cell_angle_gamma 90.000000
_cell_volume 2009.636004
_symmetry_space_group_name_H-M "C 2/M"
_symmetry_group_IT_number 12
_symmetry_cell_setting 'monoclinic'
loop_
_space_group_symop_operation_xyz
x,y,z
-x,y,-z
-x,-y,-z
x,-y,z
1/2+x,1/2+y,z
1/2-x,1/2+y,-z
1/2-x,1/2-y,-z
1/2+x,1/2-y,z
loop_
_atom_site_type_symbol
_atom_site_label
_atom_site_fract_x
_atom_site_fract_y
_atom_site_fract_z
Si Si1 0.113428 0.596752 0.873440
Si Si2 0.670612 0.282715 0.123370
Si Si3 0.120689 0.861425 0.367378
Si Si4 0.137964 0.351979 0.372678
Si Si5 0.241535 0.405725 0.126580
Si Si6 0.373658 0.149906 0.372483
O O1 0.164285 0.500000 0.868329
O O2 0.197202 0.678937 0.871696
O O3 0.921190 0.608982 0.744421
O O4 0.182573 0.598153 0.001371
O O5 0.661271 0.179404 0.121850
O O6 0.730938 0.306940 0.244096
O O7 0.500000 0.320345 0.000000
O O8 0.126977 0.754471 0.364241
O O9 0.187478 0.878107 0.494284
O O10 0.259665 0.900456 0.378140
O O11 0.939150 0.893812 0.246417
O O12 0.998058 0.383673 0.366702
O O13 0.188701 0.500000 0.131745
O O14 0.500000 0.200881 0.500000
#
# Coordination Sequence:
#
# PCOD9176655 Si02
#       6
#     8   8   8   8   8   8
#     4  10  21  37  57  84 115 148 190 234 284 346
#     4  11  22  37  59  82 113 155 189 238 292 333
#     4  10  18  35  60  84 114 151 193 233 282 342
#     4   9  19  34  58  87 112 151 189 233 286 341
#     4  11  23  38  57  84 117 154 197 236 280 341
#     4   9  18  33  57  89 112 144 188 233 284 345
#
# _framework density 23.884922
#
# number of rings (size 3 to 8) (size 9 to 14) (size 15 to 20)
#    0.000    2.000    3.333    1.500    2.333    1.333 
#    0.000    5.000    0.000   14.000    0.000    0.000 
#    0.000    0.000    0.000    0.000    0.000    0.000 
#
# Total GULP energy -133631.339527 kJ/mol
# GULP energy per Si atom -5567.972480 kJ/mol
# Density = 2.383056 g / cm^3
# Si number density = 23.884922 Si / 1000 Ang^3
#
#
#
# Elastic Constant Matrix: (Units=GPa)
#
#
# Indices 1 2 3 4 5 6 
#
# 1 36.5699 -5.2220 26.3871 0.0000 7.9735 0.0000
# 2 -5.2220 90.6283 40.3423 0.0000 -8.4561 0.0000
# 3 26.3871 40.3423 277.4333 0.0000 2.9806 0.0000
# 4 0.0000 0.0000 0.0000 38.1924 0.0000 -20.5342
# 5 7.9735 -8.4561 2.9806 0.0000 34.4704 0.0000
# 6 0.0000 0.0000 0.0000 -20.5342 0.0000 5.9777
#
#
#
# Elastic Compliance Matrix: (Units=1/GPa)
#
#
# Indices 1 2 3 4 5 6 
#
# 1 0.031510 0.002703 -0.003322 0.000000 -0.006338 0.000000
# 2 0.002703 0.012358 -0.002082 0.000000 0.002586 0.000000
# 3 -0.003322 -0.002082 0.004224 0.000000 -0.000108 0.000000
# 4 0.000000 0.000000 0.000000 -0.030917 0.000000 -0.106202
# 5 -0.006338 0.002586 -0.000108 0.000000 0.031120 0.000000
# 6 0.000000 0.000000 0.000000 -0.106202 0.000000 -0.197529
#
#
# Mechanical properties :
#
#
# Convention : Reuss Voigt Hill
#
# Bulk Modulus (GPa) = 23.42459 58.62738 41.02599
# Shear Modulus (GPa) = -38.57957 38.60304 0.01174
#
# Velocity S-wave (km/s) = -4.02335 4.02457 0.07018
# Velocity P-wave (km/s) = 3.42849 6.79671 4.14974
#
# Compressibility (1/GPa) = 0.04269018
#
# Stress axis : x y z
#
# Youngs Moduli (GPa) = 31.73627 80.92019 236.72546
#
# Poissons Ratio (x) = -0.21872 0.78637
# Poissons Ratio (y) = -0.08578 0.49283
# Poissons Ratio (z) = 0.10542 0.16846
#
# Static dielectric constant tensor:
#      x y z
#    x 2.090220 0.000000 0.156150 
#    y 0.000000 1.922550 0.000000 
#    z 0.156150 0.000000 2.064700 
# 
# From -- ./inp_files/270435.got.cif
#   From: 2010.05.17/outbox.cif.g08.bks.cpg/sg12_136_cif.got.tgz:270435.got - 2010.06.03 13:09:07.
