data_PCOD9176731
_publ_section_title
;
Structure prediction by ZEFSAII (Michael W. Deem and Ramdas Pophale) SiO2 
 PCOD9176731
Probable space group: C 2/M
;
_chemical_formula_sum "Si O2"
_cell_formula_units_Z 32
_cell_length_a 11.811514
_cell_length_b 20.867639
_cell_length_c 10.508001
_cell_angle_alpha 90.000000
_cell_angle_beta 36.825223
_cell_angle_gamma 90.000000
_cell_volume 1552.381180
_symmetry_space_group_name_H-M "C 2/M"
_symmetry_group_IT_number 12
_symmetry_cell_setting 'monoclinic'
loop_
_space_group_symop_operation_xyz
x,y,z
-x,y,-z
-x,-y,-z
x,-y,z
1/2+x,1/2+y,z
1/2-x,1/2+y,-z
1/2-x,1/2-y,-z
1/2+x,1/2-y,z
loop_
_atom_site_type_symbol
_atom_site_label
_atom_site_fract_x
_atom_site_fract_y
_atom_site_fract_z
Si Si1 0.465249 0.813401 0.387757
Si Si2 0.224861 0.872038 0.286063
Si Si3 0.092420 0.763051 0.790462
Si Si4 0.443295 0.925782 0.851783
O O1 0.500000 0.793400 0.500000
O O2 0.237262 0.810933 0.591963
O O3 0.528115 0.765259 0.218808
O O4 0.550200 0.881905 0.278813
O O5 0.301770 0.800665 0.249233
O O6 0.350239 0.916170 0.268069
O O7 0.000000 0.876152 0.500000
O O8 0.295997 0.894302 0.083374
O O9 0.000000 0.791842 0.000000
O O10 0.404177 0.000000 0.867343
#
# Coordination Sequence:
#
# PCOD9176731 Si02
#       4
#     8   8   8   8
#     4  10  21  37  56  86 115 158 188 231 298 343
#     4  10  18  35  62  91 111 147 196 246 292 327
#     4  10  19  38  59  87 120 143 193 246 287 342
#     4  10  21  38  56  83 121 153 195 239 276 342
#
# _framework density 20.613493999999999
#
# number of rings (size 3 to 8) (size 9 to 14) (size 15 to 20)
#    0.000    2.000    5.000    2.250    0.000    3.500 
#   13.500    0.000    0.000    0.750    0.000    0.000 
#    0.000    0.000    0.000    0.000    0.000    0.000 
#
# Total GULP energy -89191.598722 kJ/mol
# GULP energy per Si atom -5574.474920 kJ/mol
# Density = 2.056658 g / cm^3
# Si number density = 20.613494 Si / 1000 Ang^3
#
#
#
# Elastic Constant Matrix: (Units=GPa)
#
#
# Indices 1 2 3 4 5 6 
#
# 1 57.4371 4.2318 39.4651 -0.0001 7.0302 0.0000
# 2 4.2318 77.8018 32.2902 0.0000 6.5096 0.0000
# 3 39.4651 32.2902 128.8780 -0.0001 8.1935 0.0000
# 4 -0.0001 0.0000 -0.0001 18.7448 0.0001 -2.4376
# 5 7.0302 6.5096 8.1935 0.0001 46.6576 0.0000
# 6 0.0000 0.0000 0.0000 -2.4376 0.0000 -17.2559
#
#
#
# Elastic Compliance Matrix: (Units=1/GPa)
#
#
# Indices 1 2 3 4 5 6 
#
# 1 0.022536 0.001982 -0.007245 0.000000 -0.002400 0.000000
# 2 0.001982 0.014608 -0.004165 0.000000 -0.001605 0.000000
# 3 -0.007245 -0.004165 0.011038 0.000000 -0.000266 0.000000
# 4 0.000000 0.000000 0.000000 0.052386 0.000000 -0.007400
# 5 -0.002400 -0.001605 -0.000266 0.000000 0.022065 0.000000
# 6 0.000000 0.000000 0.000000 -0.007400 0.000000 -0.056906
#
#
# Mechanical properties :
#
#
# Convention : Reuss Voigt Hill
#
# Bulk Modulus (GPa) = 34.09876 46.23236 40.16556
# Shear Modulus (GPa) = 52.98901 22.17128 37.58015
#
# Velocity S-wave (km/s) = 5.07561 3.28315 4.27439
# Velocity P-wave (km/s) = 7.13631 6.07034 6.62480
#
# Compressibility (1/GPa) = 0.02932658
#
# Stress axis : x y z
#
# Youngs Moduli (GPa) = 44.37320 68.45444 90.59405
#
# Poissons Ratio (x) = -0.13567 0.65636
# Poissons Ratio (y) = -0.08794 0.37732
# Poissons Ratio (z) = 0.32148 0.28511
#
# Static dielectric constant tensor:
#      x y z
#    x 1.890630 0.000000 -0.018600 
#    y 0.000000 1.717370 0.000000 
#    z -0.018600 0.000000 1.768460 
# 
# From -- ./inp_files/50257.got.cif
#   From: 2010.05.17/outbox.cif.g08.bks.cpg/sg12_26_cif.got.tgz:50257.got - 2010.06.03 13:09:07.
