data_PCOD9176950
_publ_section_title
;
Structure prediction by ZEFSAII (Michael W. Deem and Ramdas Pophale) SiO2 
 PCOD9176950
Probable space group: C 2/M
;
_chemical_formula_sum "Si O2"
_cell_formula_units_Z 56
_cell_length_a 12.967003
_cell_length_b 27.625364
_cell_length_c 7.995270
_cell_angle_alpha 90.000000
_cell_angle_beta 112.525000
_cell_angle_gamma 90.000000
_cell_volume 2645.559663
_symmetry_space_group_name_H-M "C 2/M"
_symmetry_group_IT_number 12
_symmetry_cell_setting 'monoclinic'
loop_
_space_group_symop_operation_xyz
x,y,z
-x,y,-z
-x,-y,-z
x,-y,z
1/2+x,1/2+y,z
1/2-x,1/2+y,-z
1/2-x,1/2-y,-z
1/2+x,1/2-y,z
loop_
_atom_site_type_symbol
_atom_site_label
_atom_site_fract_x
_atom_site_fract_y
_atom_site_fract_z
Si Si1 0.556591 0.305447 0.217397
Si Si2 0.676660 0.203016 0.006853
Si Si3 0.176302 0.942549 0.530615
Si Si4 0.793932 0.875730 0.887380
Si Si5 0.041796 0.903246 0.761918
Si Si6 0.068650 0.296547 0.302461
Si Si7 0.621389 0.104683 0.522191
O O1 0.661554 0.336000 0.218005
O O2 0.482004 0.345573 0.261152
O O3 0.581862 0.260403 0.351701
O O4 0.500000 0.290660 0.000000
O O5 0.746358 0.155655 0.008866
O O6 0.562507 0.199795 0.827700
O O7 0.750000 0.250000 0.000000
O O8 0.640653 0.201165 0.176911
O O9 0.122459 0.922029 0.667089
O O10 0.297239 0.920377 0.562794
O O11 0.078975 0.928112 0.336558
O O12 0.184345 0.000000 0.544093
O O13 0.693809 0.901247 0.734225
O O14 0.892550 0.907879 0.022993
O O15 0.102145 0.339710 0.446561
O O16 0.500000 0.085591 0.500000
#
# Coordination Sequence:
#
# PCOD9176950 Si02
#       7
#     8   8   8   8   8   8   8
#     4  10  18  36  63  96 138 174 219 269 329 394
#     4  11  19  36  59  86 130 189 237 270 311 379
#     4  11  25  49  75 100 129 167 224 302 366 416
#     4  11  21  39  62  95 140 180 222 277 332 406
#     4  10  21  42  72 102 129 169 217 291 354 412
#     4  11  22  36  59  96 133 191 236 261 323 394
#     4  12  26  44  62  97 141 185 230 277 332 408
#
# _framework density 21.167545
#
# number of rings (size 3 to 8) (size 9 to 14) (size 15 to 20)
#    0.000    1.143    5.714    2.571    0.000    0.857 
#    2.571    2.143    0.000    0.857    0.000    0.000 
#    0.000    0.000    0.000    0.000    0.000    0.000 
#
# Total GULP energy -156213.278597 kJ/mol
# GULP energy per Si atom -5579.045664 kJ/mol
# Density = 2.111937 g / cm^3
# Si number density = 21.167545 Si / 1000 Ang^3
#
#
#
# Elastic Constant Matrix: (Units=GPa)
#
#
# Indices 1 2 3 4 5 6 
#
# 1 172.1640 47.0456 40.8919 0.0000 7.0944 0.0000
# 2 47.0456 108.1200 33.5160 0.0000 -8.4308 0.0000
# 3 40.8919 33.5160 75.5131 0.0000 13.2273 0.0000
# 4 0.0000 0.0000 0.0000 5.7373 0.0000 4.8341
# 5 7.0944 -8.4308 13.2273 0.0000 30.3931 0.0000
# 6 0.0000 0.0000 0.0000 4.8341 0.0000 20.7977
#
#
#
# Elastic Compliance Matrix: (Units=1/GPa)
#
#
# Indices 1 2 3 4 5 6 
#
# 1 0.007126 -0.002393 -0.002587 0.000000 -0.001201 0.000000
# 2 -0.002393 0.012437 -0.005333 0.000000 0.006329 0.000000
# 3 -0.002587 -0.005333 0.018580 0.000000 -0.008962 0.000000
# 4 0.000000 0.000000 0.000000 0.216748 0.000000 -0.050379
# 5 -0.001201 0.006329 -0.008962 0.000000 0.038839 0.000000
# 6 0.000000 0.000000 0.000000 -0.050379 0.000000 0.059792
#
#
# Mechanical properties :
#
#
# Convention : Reuss Voigt Hill
#
# Bulk Modulus (GPa) = 57.08165 66.52266 61.80215
# Shear Modulus (GPa) = 13.15841 27.00853 20.08347
#
# Velocity S-wave (km/s) = 2.49596 3.57591 3.08358
# Velocity P-wave (km/s) = 5.94403 6.96738 6.47595
#
# Compressibility (1/GPa) = 0.01751877
#
# Stress axis : x y z
#
# Youngs Moduli (GPa) = 140.32986 80.40669 53.82077
#
# Poissons Ratio (x) = 0.19238 0.13921
# Poissons Ratio (y) = 0.33575 0.28703
# Poissons Ratio (z) = 0.36297 0.42881
#
# Static dielectric constant tensor:
#      x y z
#    x 1.846030 0.000000 0.013390 
#    y 0.000000 1.778120 0.000000 
#    z 0.013390 0.000000 1.813720 
# 
# From -- ./inp_files/53305.got.cif
#   From: 2010.05.17/outbox.cif.g08.bks.cpg/sg12_27_cif.got.tgz:53305.got - 2010.06.03 13:09:07.
