data_PCOD9176293
_publ_section_title
;
Structure prediction by ZEFSAII (Michael W. Deem and Ramdas Pophale) SiO2 
 PCOD9176293
Probable space group: C 2/M
;
_chemical_formula_sum "Si O2"
_cell_formula_units_Z 48
_cell_length_a 20.835739
_cell_length_b 18.437055
_cell_length_c 9.834858
_cell_angle_alpha 90.000000
_cell_angle_beta 136.670707
_cell_angle_gamma 90.000000
_cell_volume 2592.466517
_symmetry_space_group_name_H-M "C 2/M"
_symmetry_group_IT_number 12
_symmetry_cell_setting 'monoclinic'
loop_
_space_group_symop_operation_xyz
x,y,z
-x,y,-z
-x,-y,-z
x,-y,z
1/2+x,1/2+y,z
1/2-x,1/2+y,-z
1/2-x,1/2-y,-z
1/2+x,1/2-y,z
loop_
_atom_site_type_symbol
_atom_site_label
_atom_site_fract_x
_atom_site_fract_y
_atom_site_fract_z
Si Si1 0.763435 0.179193 0.427853
Si Si2 0.585793 0.913491 0.236862
Si Si3 0.375715 0.414236 0.217164
Si Si4 0.999970 0.675188 0.344525
Si Si5 0.717182 0.183847 0.042354
Si Si6 0.548290 0.656223 0.386322
O O1 0.750000 0.250000 0.500000
O O2 0.683375 0.120942 0.338132
O O3 0.748985 0.197443 0.246126
O O4 0.870429 0.150124 0.600863
O O5 0.559564 0.875104 0.337621
O O6 0.592802 0.000000 0.259586
O O7 0.500000 0.897456 0.000000
O O8 0.382169 0.500000 0.217546
O O9 0.270231 0.385122 0.058883
O O10 0.412943 0.385911 0.421255
O O11 0.444084 0.376657 0.211729
O O12 0.000000 0.650612 0.500000
O O13 0.036473 0.758174 0.396073
O O14 0.893314 0.675571 0.130597
O O15 0.750000 0.250000 0.000000
#
# Coordination Sequence:
#
# PCOD9176293 Si02
#       6
#     8   8   8   8   8   8
#     4  11  22  37  65  92 120 163 210 250 308 373
#     4  11  25  43  60  88 126 163 213 266 311 369
#     4  10  20  35  58  92 124 154 199 260 307 357
#     4  12  21  39  66  89 121 162 212 257 316 373
#     4  11  22  37  61  95 123 162 203 255 307 371
#     4  10  18  34  58  90 120 153 200 250 302 363
#
# _framework density 18.515184999999999
#
# number of rings (size 3 to 8) (size 9 to 14) (size 15 to 20)
#    0.000    1.167    6.667    2.000    0.000    4.333 
#    0.000    0.000    0.000    0.000    0.000    1.167 
#    0.000    0.000    0.000    0.000    0.000    0.000 
#
# Total GULP energy -133865.363540 kJ/mol
# GULP energy per Si atom -5577.723481 kJ/mol
# Density = 1.847304 g / cm^3
# Si number density = 18.515185 Si / 1000 Ang^3
#
#
#
# Elastic Constant Matrix: (Units=GPa)
#
#
# Indices 1 2 3 4 5 6 
#
# 1 162.0439 70.5972 29.7070 0.0000 7.2824 0.0000
# 2 70.5972 124.4601 25.1559 0.0000 -9.9356 0.0000
# 3 29.7070 25.1559 41.8531 0.0000 -4.0991 0.0000
# 4 0.0000 0.0000 0.0000 23.1607 0.0000 6.8737
# 5 7.2824 -9.9356 -4.0991 0.0000 33.9065 0.0000
# 6 0.0000 0.0000 0.0000 6.8737 0.0000 29.8833
#
#
#
# Elastic Compliance Matrix: (Units=1/GPa)
#
#
# Indices 1 2 3 4 5 6 
#
# 1 0.009112 -0.004656 -0.004042 0.000000 -0.003810 0.000000
# 2 -0.004656 0.011666 -0.003314 0.000000 0.004018 0.000000
# 3 -0.004042 -0.003314 0.029089 0.000000 0.003414 0.000000
# 4 0.000000 0.000000 0.000000 0.046340 0.000000 -0.010659
# 5 -0.003810 0.004018 0.003414 0.000000 0.031901 0.000000
# 6 0.000000 0.000000 0.000000 -0.010659 0.000000 0.035915
#
#
# Mechanical properties :
#
#
# Convention : Reuss Voigt Hill
#
# Bulk Modulus (GPa) = 38.69574 64.36412 51.52993
# Shear Modulus (GPa) = 25.42453 30.91657 28.17055
#
# Velocity S-wave (km/s) = 3.70965 4.09075 3.90485
# Velocity P-wave (km/s) = 6.26846 7.55980 6.94421
#
# Compressibility (1/GPa) = 0.02584264
#
# Stress axis : x y z
#
# Youngs Moduli (GPa) = 109.74875 85.71932 34.37784
#
# Poissons Ratio (x) = 0.39907 0.13897
# Poissons Ratio (y) = 0.51094 0.11392
# Poissons Ratio (z) = 0.44364 0.28407
#
# Static dielectric constant tensor:
#      x y z
#    x 1.683630 0.000000 0.042070 
#    y 0.000000 1.607340 0.000000 
#    z 0.042070 0.000000 1.303380 
# 
# From -- ./inp_files/88170.got.cif
#   From: 2010.05.17/outbox.cif.g08.bks.cpg/sg12_45_cif.got.tgz:88170.got - 2010.06.03 13:09:07.
