data_PCOD9176711
_publ_section_title
;
Structure prediction by ZEFSAII (Michael W. Deem and Ramdas Pophale) SiO2 
 PCOD9176711
Probable space group: C 2/M
;
_chemical_formula_sum "Si O2"
_cell_formula_units_Z 50
_cell_length_a 32.662852
_cell_length_b 7.966383
_cell_length_c 31.536061
_cell_angle_alpha 90.000000
_cell_angle_beta 163.716061
_cell_angle_gamma 90.000000
_cell_volume 2300.896579
_symmetry_space_group_name_H-M "C 2/M"
_symmetry_group_IT_number 12
_symmetry_cell_setting 'monoclinic'
loop_
_space_group_symop_operation_xyz
x,y,z
-x,y,-z
-x,-y,-z
x,-y,z
1/2+x,1/2+y,z
1/2-x,1/2+y,-z
1/2-x,1/2-y,-z
1/2+x,1/2-y,z
loop_
_atom_site_type_symbol
_atom_site_label
_atom_site_fract_x
_atom_site_fract_y
_atom_site_fract_z
Si Si1 0.399958 0.317487 0.446784
Si Si2 0.831808 0.299053 0.623414
Si Si3 0.705952 0.306345 0.325160
Si Si4 0.166612 0.300587 0.960096
Si Si5 0.000000 0.500000 0.500000
Si Si6 0.370292 0.701408 0.983767
Si Si7 0.668135 0.301717 0.150717
O O1 0.471960 0.500000 0.516352
O O2 0.320746 0.295625 0.412531
O O3 0.267620 0.303177 0.281191
O O4 0.492722 0.152164 0.528975
O O5 0.829369 0.500000 0.627228
O O6 0.750000 0.250000 0.500000
O O7 0.759325 0.208791 0.591155
O O8 0.999768 0.240660 0.788776
O O9 0.706785 0.500000 0.311211
O O10 0.539761 0.240386 0.155097
O O11 0.168002 0.500000 0.962311
O O12 0.208578 0.247305 0.050256
O O13 0.250000 0.250000 0.000000
O O14 0.373709 0.500000 0.985791
O O15 0.319043 0.751894 0.885623
O O16 0.717859 0.500000 0.205155
O O17 0.500000 0.296248 0.000000
#
# Coordination Sequence:
#
# PCOD9176711 Si02
#       7
#     8   8   8   8   2   8   8
#     4  12  24  40  65  90 119 166 211 255 308 370
#     4  10  21  37  59  91 119 152 205 261 310 368
#     4  10  18  36  61  89 121 156 196 253 310 364
#     4  10  21  37  58  84 121 157 200 249 307 375
#     4  12  26  48  58  78 124 168 218 254 304 366
#     4   9  18  32  59  90 123 158 193 238 309 372
#     4  10  18  35  61  93 128 155 193 253 313 363
#
# _framework density 21.730658999999999
#
# number of rings (size 3 to 8) (size 9 to 14) (size 15 to 20)
#    0.000    1.760    3.200    1.680    0.000    3.520 
#    0.000    1.600    3.520    1.920    0.000    0.000 
#    0.000    0.000    0.000    0.000    0.000    0.000 
#
# Total GULP energy -139351.356532 kJ/mol
# GULP energy per Si atom -5574.054261 kJ/mol
# Density = 2.168120 g / cm^3
# Si number density = 21.730659 Si / 1000 Ang^3
#
#
#
# Elastic Constant Matrix: (Units=GPa)
#
#
# Indices 1 2 3 4 5 6 
#
# 1 191.9349 21.5076 27.7797 -0.0072 3.7802 -0.0021
# 2 21.5076 99.3475 13.4059 -0.0120 11.7828 -0.0056
# 3 27.7797 13.4059 24.4277 -0.0164 -5.0293 -0.0085
# 4 -0.0072 -0.0120 -0.0164 17.0995 -0.0068 -1.9954
# 5 3.7802 11.7828 -5.0293 -0.0068 40.7632 -0.0021
# 6 -0.0021 -0.0056 -0.0085 -1.9954 -0.0021 32.3541
#
#
#
# Elastic Compliance Matrix: (Units=1/GPa)
#
#
# Indices 1 2 3 4 5 6 
#
# 1 0.006330 -0.000203 -0.007383 -0.000005 -0.001439 -0.000002
# 2 -0.000203 0.011545 -0.006965 0.000000 -0.004178 0.000000
# 3 -0.007383 -0.006965 0.055111 0.000050 0.009497 0.000017
# 4 -0.000005 0.000000 0.000050 0.058905 0.000017 0.003633
# 5 -0.001439 -0.004178 0.009497 0.000017 0.027045 0.000004
# 6 -0.000002 0.000000 0.000017 0.003633 0.000004 0.031132
#
#
# Mechanical properties :
#
#
# Convention : Reuss Voigt Hill
#
# Bulk Modulus (GPa) = 22.78764 49.01073 35.89919
# Shear Modulus (GPa) = 21.38598 34.91114 28.14856
#
# Velocity S-wave (km/s) = 3.14050 4.01251 3.60299
# Velocity P-wave (km/s) = 4.86410 6.63850 5.81933
#
# Compressibility (1/GPa) = 0.04388344
#
# Stress axis : x y z
#
# Youngs Moduli (GPa) = 157.98220 86.61764 18.14521
#
# Poissons Ratio (x) = 0.01762 0.13397
# Poissons Ratio (y) = 0.03213 0.12638
# Poissons Ratio (z) = 1.16640 0.60327
#
# Static dielectric constant tensor:
#      x y z
#    x 1.889680 0.000000 0.157650 
#    y 0.000000 1.730970 -0.000010 
#    z 0.157650 -0.000010 2.453640 
# 
# From -- ./inp_files/384880.got.cif
#   From: 2010.05.17/outbox.cif.g08.bks.cpg/sg12_193_cif.got.tgz:384880.got - 2010.06.03 13:09:07.
