data_PCOD9176472
_publ_section_title
;
Structure prediction by ZEFSAII (Michael W. Deem and Ramdas Pophale) SiO2 
 PCOD9176472
Probable space group: C 2/M
;
_chemical_formula_sum "Si O2"
_cell_formula_units_Z 40
_cell_length_a 17.853304
_cell_length_b 12.680949
_cell_length_c 17.338534
_cell_angle_alpha 90.000000
_cell_angle_beta 156.426063
_cell_angle_gamma 90.000000
_cell_volume 1569.889373
_symmetry_space_group_name_H-M "C 2/M"
_symmetry_group_IT_number 12
_symmetry_cell_setting 'monoclinic'
loop_
_space_group_symop_operation_xyz
x,y,z
-x,y,-z
-x,-y,-z
x,-y,z
1/2+x,1/2+y,z
1/2-x,1/2+y,-z
1/2-x,1/2-y,-z
1/2+x,1/2-y,z
loop_
_atom_site_type_symbol
_atom_site_label
_atom_site_fract_x
_atom_site_fract_y
_atom_site_fract_z
Si Si1 0.633632 0.384253 0.744938
Si Si2 0.168271 0.116991 0.961423
Si Si3 0.613648 0.149565 0.377029
Si Si4 0.030948 0.689855 0.139752
Si Si5 0.120477 0.687302 0.548227
O O1 0.572892 0.500000 0.659895
O O2 0.614700 0.383730 0.820551
O O3 0.514443 0.285511 0.603710
O O4 0.856306 0.371291 0.939113
O O5 0.069563 0.212125 0.910989
O O6 0.129374 0.000000 0.955935
O O7 0.389629 0.138522 0.174183
O O8 0.750000 0.250000 0.500000
O O9 0.625200 0.118388 0.296796
O O10 0.666710 0.119006 0.515514
O O11 0.192616 0.752334 0.247456
O O12 0.000000 0.630701 0.500000
#
# Coordination Sequence:
#
# PCOD9176472 Si02
#       5
#     8   8   8   8   8
#     4  10  20  36  58  87 116 145 188 235 285 342
#     4  10  18  34  63  90 109 145 195 242 287 327
#     4   9  17  35  58  79 112 147 184 237 277 323
#     4  10  19  37  62  80 114 149 191 241 282 323
#     4  11  22  35  56  83 116 159 188 222 286 347
#
# _framework density 25.479502
#
# number of rings (size 3 to 8) (size 9 to 14) (size 15 to 20)
#    0.000    2.000    4.000    1.200    0.000    2.000 
#    0.000    8.000    0.000    3.600    0.000    0.000 
#    0.000    0.000    0.000    0.000    0.000    0.000 
#
# Total GULP energy -111352.158097 kJ/mol
# GULP energy per Si atom -5567.607905 kJ/mol
# Density = 2.542151 g / cm^3
# Si number density = 25.479502 Si / 1000 Ang^3
#
#
#
# Elastic Constant Matrix: (Units=GPa)
#
#
# Indices 1 2 3 4 5 6 
#
# 1 87.9983 2.3901 -19.7174 0.0000 14.0516 0.0001
# 2 2.3901 142.7298 17.0310 -0.0020 -3.5282 -0.0008
# 3 -19.7174 17.0310 73.2734 -0.0025 11.7444 -0.0008
# 4 0.0000 -0.0020 -0.0025 -1.2692 -0.0011 -1.4757
# 5 14.0516 -3.5282 11.7444 -0.0011 37.7125 -0.0002
# 6 0.0001 -0.0008 -0.0008 -1.4757 -0.0002 -6.4536
#
#
#
# Elastic Compliance Matrix: (Units=1/GPa)
#
#
# Indices 1 2 3 4 5 6 
#
# 1 0.013568 -0.000983 0.004952 -0.000003 -0.006690 0.000001
# 2 -0.000983 0.007335 -0.002250 -0.000011 0.001753 0.000002
# 3 0.004952 -0.002250 0.016664 -0.000029 -0.007245 0.000005
# 4 -0.000003 -0.000011 -0.000029 -1.073237 -0.000022 0.245407
# 5 -0.006690 0.001753 -0.007245 -0.000022 0.031429 0.000005
# 6 0.000001 0.000002 0.000005 0.245407 0.000005 -0.211066
#
#
# Mechanical properties :
#
#
# Convention : Reuss Voigt Hill
#
# Bulk Modulus (GPa) = 24.38820 33.71211 29.05015
# Shear Modulus (GPa) = -4.14912 26.28446 11.06767
#
# Velocity S-wave (km/s) = -1.27748 3.21533 2.08643
# Velocity P-wave (km/s) = 2.72333 5.20041 4.15095
#
# Compressibility (1/GPa) = 0.04100344
#
# Stress axis : x y z
#
# Youngs Moduli (GPa) = 73.70090 136.34017 60.00808
#
# Poissons Ratio (x) = 0.13409 -0.29716
# Poissons Ratio (y) = 0.07248 0.13505
# Poissons Ratio (z) = -0.36497 0.30683
#
# Static dielectric constant tensor:
#      x y z
#    x 2.151620 0.000000 -0.037880 
#    y 0.000000 2.060820 0.000000 
#    z -0.037880 0.000000 2.047340 
# 
# From -- ./inp_files/322152.got.cif
#   From: 2010.05.17/outbox.cif.g08.bks.cpg/sg12_162_cif.got.tgz:322152.got - 2010.06.03 13:09:07.
