data_PCOD9176449
_publ_section_title
;
Structure prediction by ZEFSAII (Michael W. Deem and Ramdas Pophale) SiO2 
 PCOD9176449
Probable space group: C 2/M
;
_chemical_formula_sum "Si O2"
_cell_formula_units_Z 64
_cell_length_a 10.919545
_cell_length_b 32.424391
_cell_length_c 16.667691
_cell_angle_alpha 90.000000
_cell_angle_beta 146.781016
_cell_angle_gamma 90.000000
_cell_volume 3233.001449
_symmetry_space_group_name_H-M "C 2/M"
_symmetry_group_IT_number 12
_symmetry_cell_setting 'monoclinic'
loop_
_space_group_symop_operation_xyz
x,y,z
-x,y,-z
-x,-y,-z
x,-y,z
1/2+x,1/2+y,z
1/2-x,1/2+y,-z
1/2-x,1/2-y,-z
1/2+x,1/2-y,z
loop_
_atom_site_type_symbol
_atom_site_label
_atom_site_fract_x
_atom_site_fract_y
_atom_site_fract_z
Si Si1 0.601615 0.397043 0.348899
Si Si2 0.458693 0.838127 0.116754
Si Si3 0.494973 0.047791 0.615289
Si Si4 0.246545 0.766403 0.090868
Si Si5 0.990592 0.046499 0.148683
Si Si6 0.051658 0.431389 0.828765
Si Si7 0.890809 0.956276 0.352653
Si Si8 0.347491 0.681167 0.207642
O O1 0.468799 0.418258 0.203087
O O2 0.479685 0.416054 0.358688
O O3 0.564919 0.348142 0.328567
O O4 0.843540 0.418938 0.485765
O O5 0.375569 0.808996 0.144698
O O6 0.462267 0.883730 0.154564
O O7 0.693208 0.826407 0.201794
O O8 0.289715 0.833180 0.947789
O O9 0.757552 0.051041 0.743612
O O10 0.470048 0.057943 0.695192
O O11 0.433287 0.000000 0.563196
O O12 0.371542 0.730280 0.208704
O O13 0.250000 0.750000 0.000000
O O14 0.000000 0.770478 0.000000
O O15 0.965181 0.000000 0.166237
O O16 0.802339 0.053267 0.979164
O O17 0.875211 0.453930 0.789016
O O18 0.000000 0.956531 0.500000
O O19 0.956406 0.000000 0.350088
#
# Coordination Sequence:
#
# PCOD9176449 Si02
#       8
#     8   8   8   8   8   8   8   8
#     4  12  22  38  62  85 121 165 205 259 314 378
#     4  10  20  36  57  92 128 157 201 258 324 379
#     4  11  24  42  59  82 122 173 221 258 309 379
#     4  10  18  34  62  89 127 166 202 256 322 399
#     4  11  24  39  58  85 120 165 216 270 316 362
#     4  12  22  38  60  89 125 159 206 271 315 361
#     4  11  22  36  58  89 122 163 211 254 305 376
#     4  10  19  37  58  89 125 155 201 259 318 370
#
# _framework density 19.795846000000001
#
# number of rings (size 3 to 8) (size 9 to 14) (size 15 to 20)
#    0.000    1.125    6.250    3.000    0.000    3.500 
#    0.000    1.250    0.000    0.750    0.000    0.000 
#    0.000    0.000    0.000    0.000    0.000    0.000 
#
# Total GULP energy -178311.351794 kJ/mol
# GULP energy per Si atom -5572.229744 kJ/mol
# Density = 1.975079 g / cm^3
# Si number density = 19.795846 Si / 1000 Ang^3
#
#
#
# Elastic Constant Matrix: (Units=GPa)
#
#
# Indices 1 2 3 4 5 6 
#
# 1 90.1565 46.3243 21.1724 0.0000 8.8990 0.0000
# 2 46.3243 138.2202 26.4640 0.0000 20.1597 0.0000
# 3 21.1724 26.4640 74.4948 0.0000 20.0152 0.0000
# 4 0.0000 0.0000 0.0000 26.3350 0.0000 -12.4644
# 5 8.8990 20.1597 20.0152 0.0000 26.4502 0.0000
# 6 0.0000 0.0000 0.0000 -12.4644 0.0000 -47.8338
#
#
#
# Elastic Compliance Matrix: (Units=1/GPa)
#
#
# Indices 1 2 3 4 5 6 
#
# 1 0.013807 -0.004210 -0.002564 0.000000 0.000504 0.000000
# 2 -0.004210 0.009566 -0.000782 0.000000 -0.005282 0.000000
# 3 -0.002564 -0.000782 0.017621 0.000000 -0.011875 0.000000
# 4 0.000000 0.000000 0.000000 0.033803 0.000000 -0.008808
# 5 0.000504 -0.005282 -0.011875 0.000000 0.050650 0.000000
# 6 0.000000 0.000000 0.000000 -0.008808 0.000000 -0.018610
#
#
# Mechanical properties :
#
#
# Convention : Reuss Voigt Hill
#
# Bulk Modulus (GPa) = 38.63753 54.53257 46.58505
# Shear Modulus (GPa) = 38.29150 14.91766 26.60458
#
# Velocity S-wave (km/s) = 4.40286 2.74811 3.66997
# Velocity P-wave (km/s) = 6.73849 6.13814 6.44531
#
# Compressibility (1/GPa) = 0.02588157
#
# Stress axis : x y z
#
# Youngs Moduli (GPa) = 72.42458 104.53568 56.75048
#
# Poissons Ratio (x) = 0.44010 0.14550
# Poissons Ratio (y) = 0.30491 0.04441
# Poissons Ratio (z) = 0.18569 0.08180
#
# Static dielectric constant tensor:
#      x y z
#    x 1.762780 0.000000 -0.004440 
#    y 0.000000 1.728550 0.000000 
#    z -0.004440 0.000000 1.733500 
# 
# From -- ./inp_files/266293.got.cif
#   From: 2010.05.17/outbox.cif.g08.bks.cpg/sg12_134_cif.got.tgz:266293.got - 2010.06.03 13:09:07.
