data_PCOD9176858
_publ_section_title
;
Structure prediction by ZEFSAII (Michael W. Deem and Ramdas Pophale) SiO2 
 PCOD9176858
Probable space group: C 2/M
;
_chemical_formula_sum "Si O2"
_cell_formula_units_Z 44
_cell_length_a 10.408385
_cell_length_b 22.155958
_cell_length_c 11.446236
_cell_angle_alpha 90.000000
_cell_angle_beta 51.695942
_cell_angle_gamma 90.000000
_cell_volume 2071.372478
_symmetry_space_group_name_H-M "C 2/M"
_symmetry_group_IT_number 12
_symmetry_cell_setting 'monoclinic'
loop_
_space_group_symop_operation_xyz
x,y,z
-x,y,-z
-x,-y,-z
x,-y,z
1/2+x,1/2+y,z
1/2-x,1/2+y,-z
1/2-x,1/2-y,-z
1/2+x,1/2-y,z
loop_
_atom_site_type_symbol
_atom_site_label
_atom_site_fract_x
_atom_site_fract_y
_atom_site_fract_z
Si Si1 0.383406 0.672109 0.352486
Si Si2 0.511424 0.000000 0.338511
Si Si3 0.652541 0.000000 0.000407
Si Si4 0.107939 0.687304 0.708009
Si Si5 0.378589 0.130505 0.665510
Si Si6 0.772630 0.890850 0.792863
Si Si7 0.304758 0.500000 0.601839
O O1 0.258950 0.670340 0.533972
O O2 0.409226 0.741199 0.298913
O O3 0.297943 0.641553 0.288533
O O4 0.550148 0.639066 0.293050
O O5 0.582761 0.060320 0.351411
O O6 0.312422 0.000000 0.444950
O O7 0.579588 0.000000 0.168987
O O8 0.740820 0.936231 0.920029
O O9 0.500000 0.000000 0.000000
O O10 0.152991 0.661765 0.810910
O O11 0.941728 0.657802 0.751339
O O12 0.500000 0.160022 0.500000
O O13 0.760308 0.939412 0.695330
O O14 0.500000 0.500000 0.500000
#
# Coordination Sequence:
#
# PCOD9176858 Si02
#       7
#     8   4   4   8   8   8   4
#     4  10  21  33  57  92 123 153 190 241 307 349
#     4  12  22  41  59  83 117 158 194 241 303 361
#     4  11  22  42  61  83 108 167 213 243 289 334
#     4  10  18  36  58  87 126 157 186 240 300 362
#     4  10  21  35  56  86 120 152 183 238 310 365
#     4  11  21  36  61  87 116 155 205 243 273 354
#     4  11  21  32  60  90 114 142 190 254 303 335
#
# _framework density 21.241955000000001
#
# number of rings (size 3 to 8) (size 9 to 14) (size 15 to 20)
#    0.000    1.455    3.636    3.000    2.545    4.364 
#    0.000    1.818    0.000   12.000    0.000    0.000 
#    0.000    0.000    0.000    0.000    0.000    0.000 
#
# Total GULP energy -122692.262037 kJ/mol
# GULP energy per Si atom -5576.921002 kJ/mol
# Density = 2.119361 g / cm^3
# Si number density = 21.241955 Si / 1000 Ang^3
#
#
#
# Elastic Constant Matrix: (Units=GPa)
#
#
# Indices 1 2 3 4 5 6 
#
# 1 164.3795 74.6739 12.3804 0.0000 -1.1849 0.0000
# 2 74.6739 134.2062 21.5908 0.0000 -1.6140 0.0000
# 3 12.3804 21.5908 47.2357 0.0000 8.7974 0.0000
# 4 0.0000 0.0000 0.0000-1039.3650 0.0000 405.9253
# 5 -1.1849 -1.6140 8.7974 0.0000 19.2667 0.0000
# 6 0.0000 0.0000 0.0000 405.9253 0.0000 -127.9357
#
#
#
# Elastic Compliance Matrix: (Units=1/GPa)
#
#
# Indices 1 2 3 4 5 6 
#
# 1 0.008142 -0.004512 -0.000103 0.000000 0.000170 0.000000
# 2 -0.004512 0.010661 -0.004159 0.000000 0.002515 0.000000
# 3 -0.000103 -0.004159 0.025318 0.000000 -0.011915 0.000000
# 4 0.000000 0.000000 0.000000 0.004023 0.000000 0.012764
# 5 0.000170 0.002515 -0.011915 0.000000 0.057565 0.000000
# 6 0.000000 0.000000 0.000000 0.012764 0.000000 0.032681
#
#
# Mechanical properties :
#
#
# Convention : Reuss Voigt Hill
#
# Bulk Modulus (GPa) = 37.63255 62.56798 50.10027
# Shear Modulus (GPa) = 30.34087 -213.79506 -91.72710
#
# Velocity S-wave (km/s) = 3.78345 -10.04321 -6.57843
# Velocity P-wave (km/s) = 6.06964 10.24545 5.83646
#
# Compressibility (1/GPa) = 0.02657274
#
# Stress axis : x y z
#
# Youngs Moduli (GPa) = 122.81942 93.80128 39.49820
#
# Poissons Ratio (x) = 0.42320 0.00409
# Poissons Ratio (y) = 0.55412 0.16426
# Poissons Ratio (z) = 0.01271 0.39010
#
# Static dielectric constant tensor:
#      x y z
#    x 1.786510 0.000000 0.027500 
#    y 0.000000 1.776850 0.000000 
#    z 0.027500 0.000000 1.861770 
# 
# From -- ./inp_files/122133.got.cif
#   From: 2010.05.17/outbox.cif.g08.bks.cpg/sg12_62_cif.got.tgz:122133.got - 2010.06.03 13:09:07.
