data_PCOD9176448
_publ_section_title
;
Structure prediction by ZEFSAII (Michael W. Deem and Ramdas Pophale) SiO2 
 PCOD9176448
Probable space group: C 2/M
;
_chemical_formula_sum "Si O2"
_cell_formula_units_Z 52
_cell_length_a 16.262206
_cell_length_b 25.306482
_cell_length_c 5.424369
_cell_angle_alpha 90.000000
_cell_angle_beta 102.701300
_cell_angle_gamma 90.000000
_cell_volume 2177.714239
_symmetry_space_group_name_H-M "C 2/M"
_symmetry_group_IT_number 12
_symmetry_cell_setting 'monoclinic'
loop_
_space_group_symop_operation_xyz
x,y,z
-x,y,-z
-x,-y,-z
x,-y,z
1/2+x,1/2+y,z
1/2-x,1/2+y,-z
1/2-x,1/2-y,-z
1/2+x,1/2-y,z
loop_
_atom_site_type_symbol
_atom_site_label
_atom_site_fract_x
_atom_site_fract_y
_atom_site_fract_z
Si Si1 0.752573 0.500000 0.063823
Si Si2 0.445344 0.885283 0.718471
Si Si3 0.424908 0.388267 0.757294
Si Si4 0.345113 0.302806 0.441635
Si Si5 0.577118 0.500000 0.248631
Si Si6 0.176817 0.311919 0.616786
Si Si7 0.906439 0.500000 0.554818
Si Si8 0.765654 0.115140 0.010031
O O1 0.665321 0.500000 0.160138
O O2 0.832233 0.500000 0.302567
O O3 0.752391 0.555393 0.917935
O O4 0.500000 0.881738 0.500000
O O5 0.374171 0.840593 0.634201
O O6 0.405704 0.944301 0.697463
O O7 0.500000 0.877620 0.000000
O O8 0.422634 0.334588 0.605012
O O9 0.426998 0.444134 0.614600
O O10 0.500000 0.387313 0.000000
O O11 0.337250 0.390385 0.847981
O O12 0.272855 0.297683 0.603996
O O13 0.362743 0.244894 0.346863
O O14 0.304385 0.344398 0.227923
O O15 0.500000 0.500000 0.000000
O O16 0.185895 0.356042 0.833583
O O17 0.000000 0.500000 0.500000
#
# Coordination Sequence:
#
# PCOD9176448 Si02
#       8
#     4   8   8   8   4   8   4   8
#     4  10  18  34  62  89 122 164 211 261 327 397
#     4  11  25  44  67  97 133 176 220 276 338 396
#     4   9  19  36  55  84 119 151 196 253 315 383
#     4  10  22  37  61  87 114 164 208 260 322 383
#     4   8  16  33  57  81 117 157 193 250 314 376
#     4  10  22  41  59  84 121 162 213 262 318 391
#     4  10  21  39  64  95 135 171 222 276 343 395
#     4  10  20  37  60  86 118 157 206 260 317 386
#
# _framework density 23.878249
#
# number of rings (size 3 to 8) (size 9 to 14) (size 15 to 20)
#    0.000    2.154    1.538    0.692    2.154    1.846 
#    2.769    1.538    0.000    5.538    0.000    0.000 
#    0.000    0.000    0.000    0.000    0.000    0.000 
#
# Total GULP energy -145179.846529 kJ/mol
# GULP energy per Si atom -5583.840251 kJ/mol
# Density = 2.382390 g / cm^3
# Si number density = 23.878249 Si / 1000 Ang^3
#
#
#
# Elastic Constant Matrix: (Units=GPa)
#
#
# Indices 1 2 3 4 5 6 
#
# 1 103.4219 6.1497 1.3121 0.0000 -0.1010 0.0000
# 2 6.1497 248.4891 55.5675 0.0000 26.3615 0.0000
# 3 1.3121 55.5675 92.5682 0.0000 29.4647 0.0000
# 4 0.0000 0.0000 0.0000 -2.0272 0.0000 23.4218
# 5 -0.1010 26.3615 29.4647 0.0000 39.2952 0.0000
# 6 0.0000 0.0000 0.0000 23.4218 0.0000 13.7172
#
#
#
# Elastic Compliance Matrix: (Units=1/GPa)
#
#
# Indices 1 2 3 4 5 6 
#
# 1 0.009685 -0.000251 -0.000063 0.000000 0.000241 0.000000
# 2 -0.000251 0.004710 -0.002388 0.000000 -0.001370 0.000000
# 3 -0.000063 -0.002388 0.015404 0.000000 -0.009949 0.000000
# 4 0.000000 0.000000 0.000000 -0.023798 0.000000 0.040635
# 5 0.000241 -0.001370 -0.009949 0.000000 0.033828 0.000000
# 6 0.000000 0.000000 0.000000 0.040635 0.000000 0.003517
#
#
# Mechanical properties :
#
#
# Convention : Reuss Voigt Hill
#
# Bulk Modulus (GPa) = 40.99238 63.39308 52.19273
# Shear Modulus (GPa) = 87.90388 35.62703 61.76546
#
# Velocity S-wave (km/s) = 6.07398 3.86687 5.09146
# Velocity P-wave (km/s) = 8.14835 6.82224 7.51460
#
# Compressibility (1/GPa) = 0.02439478
#
# Stress axis : x y z
#
# Youngs Moduli (GPa) = 103.25141 212.32374 64.91979
#
# Poissons Ratio (x) = 0.05332 0.00410
# Poissons Ratio (y) = 0.02593 0.15500
# Poissons Ratio (z) = 0.00652 0.50695
#
# Static dielectric constant tensor:
#      x y z
#    x 1.923460 0.000000 -0.038290 
#    y 0.000000 1.969310 0.000000 
#    z -0.038290 0.000000 1.926500 
# 
# From -- ./inp_files/22522.got.cif
#   From: 2010.05.17/outbox.cif.g08.bks.cpg/sg12_12_cif.got.tgz:22522.got - 2010.06.03 13:09:07.
