data_PCOD9176975
_publ_section_title
;
Structure prediction by ZEFSAII (Michael W. Deem and Ramdas Pophale) SiO2 
 PCOD9176975
Probable space group: C 2/M
;
_chemical_formula_sum "Si O2"
_cell_formula_units_Z 48
_cell_length_a 7.875786
_cell_length_b 31.273832
_cell_length_c 8.656383
_cell_angle_alpha 90.000000
_cell_angle_beta 100.725200
_cell_angle_gamma 90.000000
_cell_volume 2094.873241
_symmetry_space_group_name_H-M "C 2/M"
_symmetry_group_IT_number 12
_symmetry_cell_setting 'monoclinic'
loop_
_space_group_symop_operation_xyz
x,y,z
-x,y,-z
-x,-y,-z
x,-y,z
1/2+x,1/2+y,z
1/2-x,1/2+y,-z
1/2-x,1/2-y,-z
1/2+x,1/2-y,z
loop_
_atom_site_type_symbol
_atom_site_label
_atom_site_fract_x
_atom_site_fract_y
_atom_site_fract_z
Si Si1 0.790700 0.773501 0.226298
Si Si2 0.502320 0.908284 0.683247
Si Si3 0.368403 0.610562 0.754463
Si Si4 0.629741 0.549834 0.674895
Si Si5 0.500000 0.333375 0.500000
Si Si6 0.500000 0.681689 0.000000
Si Si7 0.462084 0.191478 0.310591
O O1 0.594971 0.785629 0.219421
O O2 0.888893 0.802395 0.372725
O O3 0.801698 0.723266 0.263613
O O4 0.873724 0.789911 0.082809
O O5 0.500000 0.912223 0.500000
O O6 0.701629 0.919249 0.756799
O O7 0.326392 0.932076 0.699867
O O8 0.512549 0.858035 0.725102
O O9 0.533863 0.580254 0.779358
O O10 0.379278 0.636223 0.589087
O O11 0.389178 0.648572 0.878339
O O12 0.500000 0.552286 0.500000
O O13 0.637631 0.500000 0.714972
O O14 0.500000 0.194444 0.500000
#
# Coordination Sequence:
#
# PCOD9176975 Si02
#       7
#     8   8   8   8   4   4   8
#     4  11  23  39  58  91 131 181 240 280 329 389
#     4  11  21  38  65 100 131 175 219 275 346 405
#     4  11  21  43  67  95 135 180 224 273 343 407
#     4  11  23  41  69 105 135 161 211 291 357 413
#     4  10  18  36  65  82 128 178 227 286 322 386
#     4  10  26  42  67  94 142 192 225 282 338 394
#     4  11  23  37  62  94 129 180 236 287 329 387
#
# _framework density 22.913083
#
# number of rings (size 3 to 8) (size 9 to 14) (size 15 to 20)
#    0.000    1.167    3.333    4.500    4.667    1.667 
#    0.000    2.917    0.000    1.000    0.000    0.000 
#    0.000    0.000    0.000    0.000    0.000    0.000 
#
# Total GULP energy -133963.361303 kJ/mol
# GULP energy per Si atom -5581.806721 kJ/mol
# Density = 2.286093 g / cm^3
# Si number density = 22.913083 Si / 1000 Ang^3
#
#
#
# Elastic Constant Matrix: (Units=GPa)
#
#
# Indices 1 2 3 4 5 6 
#
# 1 130.9736 43.5174 14.8839 0.0000 -16.3529 0.0000
# 2 43.5174 139.8921 28.4338 0.0000 -12.6764 0.0000
# 3 14.8839 28.4338 58.9863 0.0000 -5.6353 0.0000
# 4 0.0000 0.0000 0.0000 15.0361 0.0000 7.8519
# 5 -16.3529 -12.6764 -5.6353 0.0000 21.3306 0.0000
# 6 0.0000 0.0000 0.0000 7.8519 0.0000 39.2916
#
#
#
# Elastic Compliance Matrix: (Units=1/GPa)
#
#
# Indices 1 2 3 4 5 6 
#
# 1 0.009134 -0.002196 -0.000720 0.000000 0.005507 0.000000
# 2 -0.002196 0.008764 -0.003420 0.000000 0.002621 0.000000
# 3 -0.000720 -0.003420 0.019017 0.000000 0.002439 0.000000
# 4 0.000000 0.000000 0.000000 0.074256 0.000000 -0.014839
# 5 0.005507 0.002621 0.002439 0.000000 0.053305 0.000000
# 6 0.000000 0.000000 0.000000 -0.014839 0.000000 0.028416
#
#
# Mechanical properties :
#
#
# Convention : Reuss Voigt Hill
#
# Bulk Modulus (GPa) = 41.25012 55.94692 48.59852
# Shear Modulus (GPa) = 23.40326 31.33277 27.36801
#
# Velocity S-wave (km/s) = 3.19939 3.70193 3.45980
# Velocity P-wave (km/s) = 5.62939 6.53777 6.10051
#
# Compressibility (1/GPa) = 0.02424235
#
# Stress axis : x y z
#
# Youngs Moduli (GPa) = 109.47805 114.10051 52.58591
#
# Poissons Ratio (x) = 0.25057 0.03787
# Poissons Ratio (y) = 0.24042 0.17985
# Poissons Ratio (z) = 0.07883 0.39024
#
# Static dielectric constant tensor:
#      x y z
#    x 2.191550 0.000000 0.148270 
#    y 0.000000 1.837680 0.000000 
#    z 0.148270 0.000000 1.939860 
# 
# From -- ./inp_files/42288.got.cif
#   From: 2010.05.17/outbox.cif.g08.bks.cpg/sg12_22_cif.got.tgz:42288.got - 2010.06.03 13:09:07.
