data_PCOD9176487
_publ_section_title
;
Structure prediction by ZEFSAII (Michael W. Deem and Ramdas Pophale) SiO2 
 PCOD9176487
Probable space group: C 2/M
;
_chemical_formula_sum "Si O2"
_cell_formula_units_Z 34
_cell_length_a 8.803806
_cell_length_b 14.307053
_cell_length_c 19.552953
_cell_angle_alpha 90.000000
_cell_angle_beta 35.604285
_cell_angle_gamma 90.000000
_cell_volume 1433.814957
_symmetry_space_group_name_H-M "C 2/M"
_symmetry_group_IT_number 12
_symmetry_cell_setting 'monoclinic'
loop_
_space_group_symop_operation_xyz
x,y,z
-x,y,-z
-x,-y,-z
x,-y,z
1/2+x,1/2+y,z
1/2-x,1/2+y,-z
1/2-x,1/2-y,-z
1/2+x,1/2-y,z
loop_
_atom_site_type_symbol
_atom_site_label
_atom_site_fract_x
_atom_site_fract_y
_atom_site_fract_z
Si Si1 0.355625 0.819025 0.114885
Si Si2 0.000000 0.660444 0.500000
Si Si3 0.990983 0.500000 0.876604
Si Si4 0.000000 0.000000 0.500000
Si Si5 0.715323 0.679443 0.735805
Si Si6 0.902847 0.500000 0.753920
Si Si7 0.100540 0.000000 0.616450
O O1 0.538858 0.907075 0.067358
O O2 0.317837 0.762038 0.197942
O O3 0.067767 0.840873 0.192245
O O4 0.500000 0.766037 0.000000
O O5 0.921222 0.710105 0.600115
O O6 0.755585 0.591486 0.582575
O O7 0.304594 0.500000 0.748646
O O8 0.840943 0.500000 0.858627
O O9 0.285888 0.000000 0.358340
O O10 0.139378 0.000000 0.522085
O O11 0.811013 0.590492 0.744721
#
# Coordination Sequence:
#
# PCOD9176487 Si02
#       7
#     8   4   4   2   8   4   4
#     4  12  27  49  72 101 144 189 248 300 346 418
#     4  11  20  40  69 100 142 176 224 283 359 424
#     4  11  23  45  71 103 132 190 238 291 360 413
#     4  10  18  34  68 104 142 182 230 274 352 408
#     4  12  25  46  71 107 143 190 235 293 362 418
#     4  11  23  41  74 104 148 183 233 286 353 439
#     4  10  18  37  67 100 134 180 221 285 340 427
#
# _framework density 23.712962000000001
#
# number of rings (size 3 to 8) (size 9 to 14) (size 15 to 20)
#    0.000    0.706    4.706    3.882    0.000    0.941 
#    0.000    4.118    0.000    0.000    0.000    0.000 
#    0.000    0.000    0.000    0.000    0.000    0.000 
#
# Total GULP energy -94763.829777 kJ/mol
# GULP energy per Si atom -5574.342928 kJ/mol
# Density = 2.365899 g / cm^3
# Si number density = 23.712962 Si / 1000 Ang^3
#
#
#
# Elastic Constant Matrix: (Units=GPa)
#
#
# Indices 1 2 3 4 5 6 
#
# 1 127.3273 30.2213 35.3989 -0.0061 21.8964 0.0092
# 2 30.2213 79.8761 17.6824 -0.0014 18.8268 -0.0017
# 3 35.3989 17.6824 150.4154 -0.0096 30.6626 0.0299
# 4 -0.0061 -0.0014 -0.0096 45.1379 0.0053 -0.6104
# 5 21.8964 18.8268 30.6626 0.0053 41.2973 -0.0168
# 6 0.0092 -0.0017 0.0299 -0.6104 -0.0168 57.9181
#
#
#
# Elastic Compliance Matrix: (Units=1/GPa)
#
#
# Indices 1 2 3 4 5 6 
#
# 1 0.009311 -0.002574 -0.001321 0.000001 -0.002782 -0.000002
# 2 -0.002574 0.014760 -0.000042 0.000001 -0.005332 -0.000001
# 3 -0.001321 -0.000042 0.008033 0.000002 -0.005245 -0.000005
# 4 0.000001 0.000001 0.000002 0.022157 -0.000005 0.000234
# 5 -0.002782 -0.005332 -0.005245 -0.000005 0.032015 0.000012
# 6 -0.000002 -0.000001 -0.000005 0.000234 0.000012 0.017268
#
#
# Mechanical properties :
#
#
# Convention : Reuss Voigt Hill
#
# Bulk Modulus (GPa) = 41.27574 58.24711 49.76142
# Shear Modulus (GPa) = 41.84242 47.15842 44.50042
#
# Velocity S-wave (km/s) = 4.20520 4.46434 4.33671
# Velocity P-wave (km/s) = 6.40488 7.15476 6.79018
#
# Compressibility (1/GPa) = 0.02422730
#
# Stress axis : x y z
#
# Youngs Moduli (GPa) = 107.40443 67.75248 124.48080
#
# Poissons Ratio (x) = 0.17443 0.16449
# Poissons Ratio (y) = 0.27651 0.00525
# Poissons Ratio (z) = 0.14193 0.00286
#
# Static dielectric constant tensor:
#      x y z
#    x 1.893080 0.000000 0.044480 
#    y 0.000000 1.936630 0.000000 
#    z 0.044480 0.000000 1.922280 
# 
# From -- ./inp_files/255636.got.cif
#   From: 2010.05.17/outbox.cif.g08.bks.cpg/sg12_128_cif.got.tgz:255636.got - 2010.06.03 13:09:07.
