data_PCOD9176502
_publ_section_title
;
Structure prediction by ZEFSAII (Michael W. Deem and Ramdas Pophale) SiO2 
 PCOD9176502
Probable space group: C 2/M
;
_chemical_formula_sum "Si O2"
_cell_formula_units_Z 56
_cell_length_a 22.804652
_cell_length_b 27.372173
_cell_length_c 14.606305
_cell_angle_alpha 90.000000
_cell_angle_beta 159.724584
_cell_angle_gamma 90.000000
_cell_volume 3159.496925
_symmetry_space_group_name_H-M "C 2/M"
_symmetry_group_IT_number 12
_symmetry_cell_setting 'monoclinic'
loop_
_space_group_symop_operation_xyz
x,y,z
-x,y,-z
-x,-y,-z
x,-y,z
1/2+x,1/2+y,z
1/2-x,1/2+y,-z
1/2-x,1/2-y,-z
1/2+x,1/2-y,z
loop_
_atom_site_type_symbol
_atom_site_label
_atom_site_fract_x
_atom_site_fract_y
_atom_site_fract_z
Si Si1 0.683239 0.555100 0.718549
Si Si2 0.559358 0.624961 0.385607
Si Si3 0.555701 0.364523 0.981010
Si Si4 0.220729 0.789710 0.728665
Si Si5 0.942390 0.247122 0.813606
Si Si6 0.254790 0.143028 0.942015
Si Si7 0.581226 0.820388 0.518961
O O1 0.500000 0.553342 0.500000
O O2 0.748367 0.500000 0.807183
O O3 0.651133 0.581295 0.574565
O O4 0.785044 0.592602 0.931497
O O5 0.522439 0.612534 0.225919
O O6 0.668426 0.674137 0.568496
O O7 0.379031 0.634542 0.172171
O O8 0.483393 0.309773 0.869685
O O9 0.500000 0.384092 0.000000
O O10 0.756808 0.354955 0.263564
O O11 0.173903 0.819570 0.750892
O O12 0.137576 0.736501 0.592862
O O13 0.419285 0.778364 0.037493
O O14 0.750000 0.250000 0.500000
O O15 0.000000 0.262085 0.000000
O O16 0.428482 0.165043 0.230517
O O17 0.500000 0.826675 0.500000
#
# Coordination Sequence:
#
# PCOD9176502 Si02
#       7
#     8   8   8   8   8   8   8
#     4   8  16  33  58  84 107 134 171 227 283 325
#     4  10  18  35  52  80 108 138 183 226 270 330
#     4  10  22  34  50  72 107 149 187 217 266 323
#     4  10  22  30  50  75 107 145 187 227 269 315
#     4  10  21  34  46  65 103 150 193 229 261 314
#     4  10  20  32  53  81 111 139 184 222 274 327
#     4  11  21  33  50  77 112 154 178 222 267 316
#
# _framework density 17.724340999999999
#
# number of rings (size 3 to 8) (size 9 to 14) (size 15 to 20)
#    0.000    2.143    1.429    3.000   10.000    1.143 
#    0.000    0.000    0.000    1.714    0.000    1.000 
#    0.000    0.000    0.000    0.000    0.000    0.000 
#
# Total GULP energy -155903.435533 kJ/mol
# GULP energy per Si atom -5567.979840 kJ/mol
# Density = 1.768400 g / cm^3
# Si number density = 17.724341 Si / 1000 Ang^3
#
#
#
# Elastic Constant Matrix: (Units=GPa)
#
#
# Indices 1 2 3 4 5 6 
#
# 1 95.1359 33.7868 37.6099 0.0000 -18.7743 0.0000
# 2 33.7868 80.1305 45.2999 0.0000 -10.5232 0.0000
# 3 37.6099 45.2999 140.5777 0.0000 -5.5573 0.0000
# 4 0.0000 0.0000 0.0000 -8.9009 0.0000 2.7374
# 5 -18.7743 -10.5232 -5.5573 0.0000 30.4536 0.0000
# 6 0.0000 0.0000 0.0000 2.7374 0.0000 7.2105
#
#
#
# Elastic Compliance Matrix: (Units=1/GPa)
#
#
# Indices 1 2 3 4 5 6 
#
# 1 0.014129 -0.003739 -0.002299 0.000000 0.006999 0.000000
# 2 -0.003739 0.016860 -0.004325 0.000000 0.002732 0.000000
# 3 -0.002299 -0.004325 0.009072 0.000000 -0.001256 0.000000
# 4 0.000000 0.000000 0.000000 -0.100602 0.000000 0.038193
# 5 0.006999 0.002732 -0.001256 0.000000 0.037866 0.000000
# 6 0.000000 0.000000 0.000000 0.038193 0.000000 0.124188
#
#
# Mechanical properties :
#
#
# Convention : Reuss Voigt Hill
#
# Bulk Modulus (GPa) = 51.71437 61.02636 56.37037
# Shear Modulus (GPa) = 38.85529 19.02914 28.94222
#
# Velocity S-wave (km/s) = 4.68717 3.28016 4.04531
# Velocity P-wave (km/s) = 7.65070 6.98939 7.32751
#
# Compressibility (1/GPa) = 0.01933698
#
# Stress axis : x y z
#
# Youngs Moduli (GPa) = 70.77657 59.31313 110.22479
#
# Poissons Ratio (x) = 0.22176 0.25336
# Poissons Ratio (y) = 0.26462 0.47668
# Poissons Ratio (z) = 0.16268 0.25651
#
# Static dielectric constant tensor:
#      x y z
#    x 1.875140 0.000000 -0.007460 
#    y 0.000000 1.585070 0.000000 
#    z -0.007460 0.000000 1.622180 
# 
# From -- ./inp_files/242293.got.cif
#   From: 2010.05.17/outbox.cif.g08.bks.cpg/sg12_122_cif.got.tgz:242293.got - 2010.06.03 13:09:07.
