data_PCOD9176888
_publ_section_title
;
Structure prediction by ZEFSAII (Michael W. Deem and Ramdas Pophale) SiO2 
 PCOD9176888
Probable space group: C 2/M
;
_chemical_formula_sum "Si O2"
_cell_formula_units_Z 48
_cell_length_a 18.190573
_cell_length_b 28.379137
_cell_length_c 5.248132
_cell_angle_alpha 90.000000
_cell_angle_beta 117.586774
_cell_angle_gamma 90.000000
_cell_volume 2401.243537
_symmetry_space_group_name_H-M "C 2/M"
_symmetry_group_IT_number 12
_symmetry_cell_setting 'monoclinic'
loop_
_space_group_symop_operation_xyz
x,y,z
-x,y,-z
-x,-y,-z
x,-y,z
1/2+x,1/2+y,z
1/2-x,1/2+y,-z
1/2-x,1/2-y,-z
1/2+x,1/2-y,z
loop_
_atom_site_type_symbol
_atom_site_label
_atom_site_fract_x
_atom_site_fract_y
_atom_site_fract_z
Si Si1 0.051193 0.636122 0.824968
Si Si2 0.181633 0.188508 0.743569
Si Si3 0.686576 0.445037 0.333863
Si Si4 0.902609 0.907466 0.298204
Si Si5 0.304310 0.866733 0.616711
Si Si6 0.854530 0.292704 0.305116
O O1 0.077839 0.689595 0.790501
O O2 0.000000 0.616820 0.500000
O O3 0.142491 0.617026 0.051516
O O4 0.000000 0.630307 0.000000
O O5 0.124055 0.147591 0.762453
O O6 0.225921 0.165128 0.571559
O O7 0.137985 0.238063 0.615948
O O8 0.261102 0.199695 0.049031
O O9 0.705847 0.500000 0.368394
O O10 0.646185 0.429697 0.538999
O O11 0.767425 0.412267 0.422604
O O12 0.624765 0.432955 0.004226
O O13 0.000000 0.911550 0.500000
O O14 0.359113 0.830995 0.537431
#
# Coordination Sequence:
#
# PCOD9176888 Si02
#       6
#     8   8   8   8   8   8
#     4  11  22  37  57  89 121 156 195 243 299 362
#     4   9  20  34  58  89 119 162 206 243 292 356
#     4  11  24  42  66  90 115 156 213 255 300 364
#     4  11  23  41  59  90 128 162 194 253 309 354
#     4  10  20  38  64  84 121 157 208 250 306 352
#     4  10  18  36  60  86 118 166 202 246 288 359
#
# _framework density 19.989640999999999
#
# number of rings (size 3 to 8) (size 9 to 14) (size 15 to 20)
#    0.000    1.667    3.333    1.500    0.000    2.667 
#    0.000    0.000    0.000    1.000    0.000    0.000 
#    0.000    0.000    0.000    0.000    0.000    0.000 
#
# Total GULP energy -133764.456010 kJ/mol
# GULP energy per Si atom -5573.519000 kJ/mol
# Density = 1.994414 g / cm^3
# Si number density = 19.989641 Si / 1000 Ang^3
#
#
#
# Elastic Constant Matrix: (Units=GPa)
#
#
# Indices 1 2 3 4 5 6 
#
# 1 25.7241 2.9246 3.1423 0.0000 -14.5480 0.0000
# 2 2.9246 124.8170 33.5008 0.0000 -6.5134 0.0000
# 3 3.1423 33.5008 108.2971 0.0000 3.3598 0.0000
# 4 0.0000 0.0000 0.0000 13.8691 0.0000 -8.4641
# 5 -14.5480 -6.5134 3.3598 0.0000 24.2583 0.0000
# 6 0.0000 0.0000 0.0000 -8.4641 0.0000 5.2275
#
#
#
# Elastic Compliance Matrix: (Units=1/GPa)
#
#
# Indices 1 2 3 4 5 6 
#
# 1 0.059912 0.001404 -0.003313 0.000000 0.036766 0.000000
# 2 0.001404 0.008954 -0.002924 0.000000 0.003651 0.000000
# 3 -0.003313 -0.002924 0.010365 0.000000 -0.004208 0.000000
# 4 0.000000 0.000000 0.000000 6.082200 0.000000 9.847989
# 5 0.036766 0.003651 -0.004208 0.000000 0.064835 0.000000
# 6 0.000000 0.000000 0.000000 9.847989 0.000000 16.136660
#
#
# Mechanical properties :
#
#
# Convention : Reuss Voigt Hill
#
# Bulk Modulus (GPa) = 14.37513 37.55259 25.96386
# Shear Modulus (GPa) = 0.22326 23.28901 11.75613
#
# Velocity S-wave (km/s) = 0.33456 3.41699 2.42773
# Velocity P-wave (km/s) = 2.71222 5.86469 4.56896
#
# Compressibility (1/GPa) = 0.06956460
#
# Stress axis : x y z
#
# Youngs Moduli (GPa) = 16.69123 111.68025 96.47835
#
# Poissons Ratio (x) = -0.15681 0.31966
# Poissons Ratio (y) = -0.02344 0.28209
# Poissons Ratio (z) = 0.05530 0.32654
#
# Static dielectric constant tensor:
#      x y z
#    x 1.762220 0.000000 -0.008350 
#    y 0.000000 1.692690 0.000000 
#    z -0.008350 0.000000 1.777630 
# 
# From -- ./inp_files/17504.got.cif
#   From: 2010.05.17/outbox.cif.g08.bks.cpg/sg12_9_cif.got.tgz:17504.got - 2010.06.03 13:09:07.
