data_PCOD9176077
_publ_section_title
;
Structure prediction by ZEFSAII (Michael W. Deem and Ramdas Pophale) SiO2 
 PCOD9176077
Probable space group: C 2/M
;
_chemical_formula_sum "Si O2"
_cell_formula_units_Z 56
_cell_length_a 17.536653
_cell_length_b 21.033393
_cell_length_c 14.067877
_cell_angle_alpha 90.000000
_cell_angle_beta 33.764742
_cell_angle_gamma 90.000000
_cell_volume 2883.970170
_symmetry_space_group_name_H-M "C 2/M"
_symmetry_group_IT_number 12
_symmetry_cell_setting 'monoclinic'
loop_
_space_group_symop_operation_xyz
x,y,z
-x,y,-z
-x,-y,-z
x,-y,z
1/2+x,1/2+y,z
1/2-x,1/2+y,-z
1/2-x,1/2-y,-z
1/2+x,1/2-y,z
loop_
_atom_site_type_symbol
_atom_site_label
_atom_site_fract_x
_atom_site_fract_y
_atom_site_fract_z
Si Si1 0.502869 0.714541 0.840529
Si Si2 0.788142 0.822885 0.931140
Si Si3 0.780798 0.810665 0.236202
Si Si4 0.657570 0.321002 0.344735
Si Si5 0.555312 0.075086 0.198833
Si Si6 0.921415 0.649040 0.180970
Si Si7 0.629478 0.931168 0.433401
O O1 0.442687 0.677047 0.813239
O O2 0.639281 0.688025 0.746949
O O3 0.538533 0.789479 0.795581
O O4 0.385947 0.706433 0.043076
O O5 0.785081 0.830469 0.821234
O O6 0.750000 0.750000 0.000000
O O7 0.684563 0.876848 0.077333
O O8 0.669190 0.754717 0.352959
O O9 0.721819 0.879805 0.286975
O O10 0.500000 0.341581 0.500000
O O11 0.761806 0.351190 0.314289
O O12 0.484334 0.089720 0.171036
O O13 0.437053 0.090061 0.398307
O O14 0.591401 0.000000 0.171286
O O15 0.000000 0.659110 0.000000
O O16 0.500000 0.937942 0.500000
O O17 0.696936 0.000000 0.375951
#
# Coordination Sequence:
#
# PCOD9176077 Si02
#       7
#     8   8   8   8   8   8   8
#     4  10  19  33  60  86 114 158 196 247 303 362
#     4  12  20  37  60  86 117 155 199 253 299 342
#     4  10  18  34  54  81 118 152 192 242 307 354
#     4  11  23  34  58  92 123 148 200 258 310 357
#     4  11  24  39  63  90 114 162 213 243 296 369
#     4  11  18  41  60  86 121 153 200 257 294 358
#     4  10  22  37  54  81 119 156 198 249 298 359
#
# _framework density 19.417676
#
# number of rings (size 3 to 8) (size 9 to 14) (size 15 to 20)
#    0.000    1.286    7.143    1.286    2.000    1.429 
#    0.000    5.000    0.000    1.714    0.000    0.000 
#    0.000    0.000    0.000    0.000    0.000    0.000 
#
# Total GULP energy -156010.829781 kJ/mol
# GULP energy per Si atom -5571.815349 kJ/mol
# Density = 1.937348 g / cm^3
# Si number density = 19.417676 Si / 1000 Ang^3
#
#
#
# Elastic Constant Matrix: (Units=GPa)
#
#
# Indices 1 2 3 4 5 6 
#
# 1 98.5370 10.4391 8.0973 -0.0004 -13.6423 0.0001
# 2 10.4391 66.4735 22.7863 -0.0018 -4.8710 0.0011
# 3 8.0973 22.7863 40.0154 -0.0020 -13.8917 0.0011
# 4 -0.0004 -0.0018 -0.0020 24.8158 0.0009 -1.9464
# 5 -13.6423 -4.8710 -13.8917 0.0009 30.3192 -0.0004
# 6 0.0001 0.0011 0.0011 -1.9464 -0.0004 24.6094
#
#
#
# Elastic Compliance Matrix: (Units=1/GPa)
#
#
# Indices 1 2 3 4 5 6 
#
# 1 0.010948 -0.001467 0.000295 0.000000 0.004826 0.000000
# 2 -0.001467 0.019016 -0.011535 0.000000 -0.002890 0.000000
# 3 0.000295 -0.011535 0.036747 0.000002 0.015116 -0.000001
# 4 0.000000 0.000000 0.000002 0.040548 0.000000 0.003207
# 5 0.004826 -0.002890 0.015116 0.000000 0.041616 0.000000
# 6 0.000000 0.000000 -0.000001 0.003207 0.000000 0.040889
#
#
# Mechanical properties :
#
#
# Convention : Reuss Voigt Hill
#
# Bulk Modulus (GPa) = 24.21453 31.96348 28.08901
# Shear Modulus (GPa) = 21.83954 26.86243 24.35098
#
# Velocity S-wave (km/s) = 3.35733 3.72344 3.54512
# Velocity P-wave (km/s) = 5.24655 5.91457 5.59055
#
# Compressibility (1/GPa) = 0.04129752
#
# Stress axis : x y z
#
# Youngs Moduli (GPa) = 91.34332 52.58665 27.21315
#
# Poissons Ratio (x) = 0.07714 -0.00803
# Poissons Ratio (y) = 0.13398 0.31390
# Poissons Ratio (z) = -0.02696 0.60659
#
# Static dielectric constant tensor:
#      x y z
#    x 1.778540 0.000000 -0.005230 
#    y 0.000000 1.722600 0.000000 
#    z -0.005230 0.000000 1.723690 
# 
# From -- ./inp_files/227593.got.cif
#   From: 2010.05.17/outbox.cif.g08.bks.cpg/sg12_114_cif.got.tgz:227593.got - 2010.06.03 13:09:07.
