data_PCOD9176884
_publ_section_title
;
Structure prediction by ZEFSAII (Michael W. Deem and Ramdas Pophale) SiO2 
 PCOD9176884
Probable space group: C 2/M
;
_chemical_formula_sum "Si O2"
_cell_formula_units_Z 48
_cell_length_a 14.451934
_cell_length_b 14.293873
_cell_length_c 11.333909
_cell_angle_alpha 90.000000
_cell_angle_beta 108.614632
_cell_angle_gamma 90.000000
_cell_volume 2218.811962
_symmetry_space_group_name_H-M "C 2/M"
_symmetry_group_IT_number 12
_symmetry_cell_setting 'monoclinic'
loop_
_space_group_symop_operation_xyz
x,y,z
-x,y,-z
-x,-y,-z
x,-y,z
1/2+x,1/2+y,z
1/2-x,1/2+y,-z
1/2-x,1/2-y,-z
1/2+x,1/2-y,z
loop_
_atom_site_type_symbol
_atom_site_label
_atom_site_fract_x
_atom_site_fract_y
_atom_site_fract_z
Si Si1 0.776765 0.898748 0.291920
Si Si2 0.327953 0.217064 0.432625
Si Si3 0.003266 0.757592 0.137315
Si Si4 0.565251 0.892234 0.334548
Si Si5 0.199532 0.849054 0.958077
Si Si6 0.314450 0.604063 0.783334
O O1 0.841537 0.811460 0.362256
O O2 0.670782 0.894543 0.310742
O O3 0.759598 0.891977 0.144838
O O4 0.820846 0.000000 0.338538
O O5 0.250000 0.250000 0.500000
O O6 0.413232 0.166610 0.538826
O O7 0.276923 0.141150 0.327730
O O8 0.997215 0.670567 0.223082
O O9 0.101723 0.817304 0.198014
O O10 0.914101 0.828979 0.112783
O O11 0.000000 0.724536 0.000000
O O12 0.534723 0.000000 0.340541
O O13 0.250000 0.750000 0.000000
O O14 0.208057 0.899352 0.086539
O O15 0.344260 0.500000 0.756457
#
# Coordination Sequence:
#
# PCOD9176884 Si02
#       6
#     8   8   8   8   8   8
#     4  10  19  34  60  87 113 148 190 234 289 340
#     4  10  18  36  60  85 117 149 190 238 281 337
#     4  10  21  37  58  84 119 150 190 241 283 334
#     4  10  20  38  63  87 113 150 195 238 281 341
#     4  11  21  38  59  81 121 154 187 240 294 340
#     4  11  21  36  61  88 114 153 196 234 285 345
#
# _framework density 21.633196999999999
#
# number of rings (size 3 to 8) (size 9 to 14) (size 15 to 20)
#    0.000    1.667    5.000    2.000    0.000    4.667 
#    0.000    2.500    0.000    2.000    0.000    0.000 
#    0.000    0.000    0.000    0.000    0.000    0.000 
#
# Total GULP energy -134045.616419 kJ/mol
# GULP energy per Si atom -5585.234017 kJ/mol
# Density = 2.158396 g / cm^3
# Si number density = 21.633197 Si / 1000 Ang^3
#
#
#
# Elastic Constant Matrix: (Units=GPa)
#
#
# Indices 1 2 3 4 5 6 
#
# 1 37.4819 -8.5232 12.5395 0.0000 -18.9570 0.0000
# 2 -8.5232 137.2719 45.7840 0.0000 -4.3436 0.0000
# 3 12.5395 45.7840 116.7905 0.0000 -7.7719 0.0000
# 4 0.0000 0.0000 0.0000 9.5385 0.0000 -8.5398
# 5 -18.9570 -4.3436 -7.7719 0.0000 17.6505 0.0000
# 6 0.0000 0.0000 0.0000 -8.5398 0.0000 -2.2130
#
#
#
# Elastic Compliance Matrix: (Units=1/GPa)
#
#
# Indices 1 2 3 4 5 6 
#
# 1 0.066108 0.008212 -0.005623 0.000000 0.070546 0.000000
# 2 0.008212 0.009408 -0.003944 0.000000 0.009398 0.000000
# 3 -0.005623 -0.003944 0.010555 0.000000 -0.002362 0.000000
# 4 0.000000 0.000000 0.000000 0.023534 0.000000 -0.090813
# 5 0.070546 0.009398 -0.002362 0.000000 0.133697 0.000000
# 6 0.000000 0.000000 0.000000 -0.090813 0.000000 -0.101434
#
#
# Mechanical properties :
#
#
# Convention : Reuss Voigt Hill
#
# Bulk Modulus (GPa) = 11.99604 43.46057 27.72831
# Shear Modulus (GPa) = 29.00855 21.11146 25.06001
#
# Velocity S-wave (km/s) = 3.66584 3.12730 3.40723
# Velocity P-wave (km/s) = 4.84511 5.75963 5.32205
#
# Compressibility (1/GPa) = 0.08336083
#
# Stress axis : x y z
#
# Youngs Moduli (GPa) = 15.12687 106.29703 94.74122
#
# Poissons Ratio (x) = -0.87292 0.53269
# Poissons Ratio (y) = -0.12422 0.37368
# Poissons Ratio (z) = 0.08505 0.41926
#
# Static dielectric constant tensor:
#      x y z
#    x 1.884390 0.000000 0.024980 
#    y 0.000000 3.098970 0.000000 
#    z 0.024980 0.000000 1.805460 
# 
# From -- ./inp_files/143859.got.cif
#   From: 2010.05.17/outbox.cif.g08.bks.cpg/sg12_72_cif.got.tgz:143859.got - 2010.06.03 13:09:07.
