data_PCOD9176295
_publ_section_title
;
Structure prediction by ZEFSAII (Michael W. Deem and Ramdas Pophale) SiO2 
 PCOD9176295
Probable space group: C 2/M
;
_chemical_formula_sum "Si O2"
_cell_formula_units_Z 48
_cell_length_a 24.215751
_cell_length_b 11.957229
_cell_length_c 10.836206
_cell_angle_alpha 90.000000
_cell_angle_beta 48.590020
_cell_angle_gamma 90.000000
_cell_volume 2353.231280
_symmetry_space_group_name_H-M "C 2/M"
_symmetry_group_IT_number 12
_symmetry_cell_setting 'monoclinic'
loop_
_space_group_symop_operation_xyz
x,y,z
-x,y,-z
-x,-y,-z
x,-y,z
1/2+x,1/2+y,z
1/2-x,1/2+y,-z
1/2-x,1/2-y,-z
1/2+x,1/2-y,z
loop_
_atom_site_type_symbol
_atom_site_label
_atom_site_fract_x
_atom_site_fract_y
_atom_site_fract_z
Si Si1 0.372401 0.221298 0.852117
Si Si2 0.928924 0.268163 0.195748
Si Si3 0.565928 0.000000 0.306045
Si Si4 0.480214 0.000000 0.178727
Si Si5 0.692233 0.134888 0.794822
Si Si6 0.660878 0.631654 0.307298
Si Si7 0.518805 0.368798 0.668695
O O1 0.324381 0.303855 0.840419
O O2 0.447575 0.289706 0.770186
O O3 0.389650 0.113444 0.743846
O O4 0.338468 0.173631 0.027213
O O5 0.939023 0.383302 0.257387
O O6 0.854451 0.291310 0.231399
O O7 0.936475 0.163023 0.273584
O O8 0.000000 0.261923 0.000000
O O9 0.500000 0.000000 0.500000
O O10 0.540265 0.000000 0.199070
O O11 0.500000 0.000000 0.000000
O O12 0.779215 0.157758 0.675899
O O13 0.680210 0.000000 0.793814
O O14 0.667592 0.500000 0.275064
O O15 0.577448 0.654240 0.473647
O O16 0.498854 0.500000 0.694376
#
# Coordination Sequence:
#
# PCOD9176295 Si02
#       7
#     8   8   4   4   8   8   8
#     4  12  21  39  62  90 118 155 203 243 300 360
#     4  11  20  36  63  90 115 150 202 252 299 354
#     4  12  22  32  60  98 128 148 189 266 320 347
#     4  10  18  34  58  92 120 152 198 247 314 365
#     4  11  22  40  63  90 118 158 198 249 301 361
#     4  10  24  42  60  84 123 162 200 238 299 363
#     4  11  23  39  61  88 119 158 201 243 293 354
#
# _framework density 20.397486000000001
#
# number of rings (size 3 to 8) (size 9 to 14) (size 15 to 20)
#    0.000    1.000    5.000    3.500    0.000    2.333 
#    0.000    0.000    1.833    0.000    0.000    0.000 
#    0.000    0.000    0.000    0.000    0.000    0.000 
#
# Total GULP energy -133938.148818 kJ/mol
# GULP energy per Si atom -5580.756201 kJ/mol
# Density = 2.035106 g / cm^3
# Si number density = 20.397486 Si / 1000 Ang^3
#
#
#
# Elastic Constant Matrix: (Units=GPa)
#
#
# Indices 1 2 3 4 5 6 
#
# 1 97.5271 6.9758 -4.4434 0.0000 -7.9779 0.0000
# 2 6.9758 51.5571 9.8040 0.0000 -6.6546 0.0000
# 3 -4.4434 9.8040 35.9150 0.0000 -6.8523 0.0000
# 4 0.0000 0.0000 0.0000 11.2551 0.0000 16.7326
# 5 -7.9779 -6.6546 -6.8523 0.0000 28.4854 0.0000
# 6 0.0000 0.0000 0.0000 16.7326 0.0000 17.7884
#
#
#
# Elastic Compliance Matrix: (Units=1/GPa)
#
#
# Indices 1 2 3 4 5 6 
#
# 1 0.010730 -0.001482 0.002347 0.000000 0.003224 0.000000
# 2 -0.001482 0.021021 -0.005307 0.000000 0.003219 0.000000
# 3 0.002347 -0.005307 0.030889 0.000000 0.006848 0.000000
# 4 0.000000 0.000000 0.000000 -0.222997 0.000000 0.209761
# 5 0.003224 0.003219 0.006848 0.000000 0.038408 0.000000
# 6 0.000000 0.000000 0.000000 0.209761 0.000000 -0.141095
#
#
# Mechanical properties :
#
#
# Convention : Reuss Voigt Hill
#
# Bulk Modulus (GPa) = 18.60262 23.29688 20.94975
# Shear Modulus (GPa) = -21.16496 23.01664 0.92584
#
# Velocity S-wave (km/s) = -3.22471 3.36282 0.67445
# Velocity P-wave (km/s) = 2.17375 5.15018 3.30145
#
# Compressibility (1/GPa) = 0.05375587
#
# Stress axis : x y z
#
# Youngs Moduli (GPa) = 93.19492 47.57094 32.37374
#
# Poissons Ratio (x) = 0.07050 -0.07599
# Poissons Ratio (y) = 0.13812 0.17182
# Poissons Ratio (z) = -0.21874 0.25248
#
# Static dielectric constant tensor:
#      x y z
#    x 1.787960 0.000000 -0.009480 
#    y 0.000000 1.702770 0.000000 
#    z -0.009480 0.000000 1.752700 
# 
# From -- ./inp_files/154328.got.cif
#   From: 2010.05.17/outbox.cif.g08.bks.cpg/sg12_78_cif.got.tgz:154328.got - 2010.06.03 13:09:07.
