data_PCOD9176761
_publ_section_title
;
Structure prediction by ZEFSAII (Michael W. Deem and Ramdas Pophale) SiO2 
 PCOD9176761
Probable space group: C 2/M
;
_chemical_formula_sum "Si O2"
_cell_formula_units_Z 48
_cell_length_a 18.132576
_cell_length_b 14.532949
_cell_length_c 18.711380
_cell_angle_alpha 90.000000
_cell_angle_beta 149.472592
_cell_angle_gamma 90.000000
_cell_volume 2504.611927
_symmetry_space_group_name_H-M "C 2/M"
_symmetry_group_IT_number 12
_symmetry_cell_setting 'monoclinic'
loop_
_space_group_symop_operation_xyz
x,y,z
-x,y,-z
-x,-y,-z
x,-y,z
1/2+x,1/2+y,z
1/2-x,1/2+y,-z
1/2-x,1/2-y,-z
1/2+x,1/2-y,z
loop_
_atom_site_type_symbol
_atom_site_label
_atom_site_fract_x
_atom_site_fract_y
_atom_site_fract_z
Si Si1 0.078866 0.000000 0.421628
Si Si2 0.320096 0.000000 0.994488
Si Si3 0.917730 0.808577 0.075117
Si Si4 0.068572 0.688691 0.772431
Si Si5 0.966780 0.000000 0.164157
Si Si6 0.076575 0.500000 0.306916
Si Si7 0.058197 0.814637 0.626238
Si Si8 0.631729 0.845156 0.071964
O O1 0.253271 0.000000 0.566099
O O2 0.032987 0.000000 0.299390
O O3 0.014180 0.910327 0.407490
O O4 0.484494 0.000000 0.157181
O O5 0.205552 0.000000 0.962144
O O6 0.297948 0.908496 0.930558
O O7 0.960640 0.752632 0.182575
O O8 0.996053 0.906562 0.145889
O O9 0.743056 0.824673 0.924482
O O10 0.941257 0.742359 0.027498
O O11 0.034737 0.742402 0.671114
O O12 0.980147 0.593568 0.702896
O O13 0.232508 0.823747 0.765258
O O14 0.000000 0.788570 0.500000
O O15 0.500000 0.895527 0.000000
#
# Coordination Sequence:
#
# PCOD9176761 Si02
#       8
#     4   4   8   8   4   4   8   8
#     4  12  25  38  57  92 126 157 190 243 306 357
#     4  12  19  36  65  86 116 149 196 259 291 342
#     4  10  18  35  66  88 113 150 200 251 291 340
#     4  10  19  38  62  88 115 153 202 244 289 349
#     4  12  18  40  64  90 117 153 197 249 302 342
#     4  12  24  36  62  96 119 149 203 249 293 343
#     4  11  24  41  58  83 127 164 189 235 305 361
#     4  11  23  38  60  92 117 154 202 243 294 352
#
# _framework density 19.164646999999999
#
# number of rings (size 3 to 8) (size 9 to 14) (size 15 to 20)
#    0.000    1.000    6.667    1.500    2.333    0.667 
#    3.000    0.833    0.000    0.000    0.000    0.000 
#    0.000    0.000    0.000    0.000    0.000    0.000 
#
# Total GULP energy -133894.294865 kJ/mol
# GULP energy per Si atom -5578.928953 kJ/mol
# Density = 1.912103 g / cm^3
# Si number density = 19.164647 Si / 1000 Ang^3
#
#
#
# Elastic Constant Matrix: (Units=GPa)
#
#
# Indices 1 2 3 4 5 6 
#
# 1 54.8599 28.6497 46.0514 0.0002 -4.1189 -0.0002
# 2 28.6497 107.0875 48.3178 0.0007 -8.6587 0.0002
# 3 46.0514 48.3178 125.0747 0.0002 -21.9914 0.0001
# 4 0.0002 0.0007 0.0002 20.4140 0.0002 -5.5933
# 5 -4.1189 -8.6587 -21.9914 0.0002 38.2890 -0.0002
# 6 -0.0002 0.0002 0.0001 -5.5933 -0.0002 46.6516
#
#
#
# Elastic Compliance Matrix: (Units=1/GPa)
#
#
# Indices 1 2 3 4 5 6 
#
# 1 0.027696 -0.003407 -0.009447 0.000000 -0.003217 0.000000
# 2 -0.003407 0.011729 -0.003197 0.000000 0.000449 0.000000
# 3 -0.009447 -0.003197 0.013796 0.000000 0.006184 0.000000
# 4 0.000000 0.000000 0.000000 0.050650 0.000000 0.006073
# 5 -0.003217 0.000449 0.006184 0.000000 0.029425 0.000000
# 6 0.000000 0.000000 0.000000 0.006073 0.000000 0.022164
#
#
# Mechanical properties :
#
#
# Convention : Reuss Voigt Hill
#
# Bulk Modulus (GPa) = 47.35344 59.22889 53.29116
# Shear Modulus (GPa) = 25.69355 32.00448 28.84901
#
# Velocity S-wave (km/s) = 3.66549 4.09097 3.88406
# Velocity P-wave (km/s) = 6.53275 7.29980 6.92690
#
# Compressibility (1/GPa) = 0.02111779
#
# Stress axis : x y z
#
# Youngs Moduli (GPa) = 36.10610 85.26066 72.48482
#
# Poissons Ratio (x) = 0.29052 0.68475
# Poissons Ratio (y) = 0.12303 0.23176
# Poissons Ratio (z) = 0.34109 0.27261
#
# Static dielectric constant tensor:
#      x y z
#    x 1.657340 0.000000 -0.005240 
#    y 0.000000 1.735190 0.000000 
#    z -0.005240 0.000000 1.663570 
# 
# From -- ./inp_files/278291.got.cif
#   From: 2010.05.17/outbox.cif.g08.bks.cpg/sg12_140_cif.got.tgz:278291.got - 2010.06.03 13:09:07.
