data_PCOD9176060
_publ_section_title
;
Structure prediction by ZEFSAII (Michael W. Deem and Ramdas Pophale) SiO2 
 PCOD9176060
Probable space group: C 2/M
;
_chemical_formula_sum "Si O2"
_cell_formula_units_Z 40
_cell_length_a 29.404114
_cell_length_b 17.906834
_cell_length_c 10.236165
_cell_angle_alpha 90.000000
_cell_angle_beta 153.495976
_cell_angle_gamma 90.000000
_cell_volume 2405.208841
_symmetry_space_group_name_H-M "C 2/M"
_symmetry_group_IT_number 12
_symmetry_cell_setting 'monoclinic'
loop_
_space_group_symop_operation_xyz
x,y,z
-x,y,-z
-x,-y,-z
x,-y,z
1/2+x,1/2+y,z
1/2-x,1/2+y,-z
1/2-x,1/2-y,-z
1/2+x,1/2-y,z
loop_
_atom_site_type_symbol
_atom_site_label
_atom_site_fract_x
_atom_site_fract_y
_atom_site_fract_z
Si Si1 0.181266 0.658370 0.695828
Si Si2 0.630475 0.000000 0.981612
Si Si3 0.386087 0.257309 0.240700
Si Si4 0.113830 0.500000 0.628762
Si Si5 0.384947 0.239010 0.731690
Si Si6 0.689665 0.836303 0.200623
O O1 0.122064 0.713703 0.643349
O O2 0.155346 0.574535 0.667913
O O3 0.148548 0.680298 0.466083
O O4 0.300600 0.678501 0.019898
O O5 0.643752 0.000000 0.858708
O O6 0.508961 0.000000 0.693488
O O7 0.677292 0.924690 0.160854
O O8 0.500000 0.282285 0.500000
O O9 0.352218 0.198563 0.041833
O O10 0.372814 0.199657 0.840428
O O11 0.304745 0.306823 0.515677
O O12 0.500000 0.262410 0.000000
#
# Coordination Sequence:
#
# PCOD9176060 Si02
#       6
#     8   4   8   4   8   8
#     4  10  21  32  53  81 104 134 177 213 254 311
#     4  11  20  33  54  77 107 137 165 217 268 305
#     4  10  18  34  54  76 104 139 175 214 254 301
#     4  11  20  33  52  79 109 133 167 219 266 303
#     4  10  20  36  54  76 106 138 173 213 252 304
#     4  10  21  34  53  80 105 135 175 209 258 315
#
# _framework density 16.630572999999998
#
# number of rings (size 3 to 8) (size 9 to 14) (size 15 to 20)
#    0.000    1.800    2.000    3.600    0.000    0.800 
#    0.000    3.000    0.000    0.000    0.000    0.000 
#    0.000    0.000    0.000    0.000    0.000    0.000 
#
# Total GULP energy -111659.620119 kJ/mol
# GULP energy per Si atom -5582.981006 kJ/mol
# Density = 1.659272 g / cm^3
# Si number density = 16.630573 Si / 1000 Ang^3
#
#
#
# Elastic Constant Matrix: (Units=GPa)
#
#
# Indices 1 2 3 4 5 6 
#
# 1 83.1997 30.8488 27.5443 0.0000 16.9835 0.0000
# 2 30.8488 113.0143 34.7858 0.0000 12.7371 0.0000
# 3 27.5443 34.7858 53.0826 0.0000 21.5258 0.0000
# 4 0.0000 0.0000 0.0000 7.3463 0.0000 -1.8336
# 5 16.9835 12.7371 21.5258 0.0000 40.0028 0.0000
# 6 0.0000 0.0000 0.0000 -1.8336 0.0000 16.0019
#
#
#
# Elastic Compliance Matrix: (Units=1/GPa)
#
#
# Indices 1 2 3 4 5 6 
#
# 1 0.015166 -0.002196 -0.005248 0.000000 -0.002916 0.000000
# 2 -0.002196 0.011409 -0.006705 0.000000 0.000908 0.000000
# 3 -0.005248 -0.006705 0.030938 0.000000 -0.012284 0.000000
# 4 0.000000 0.000000 0.000000 0.140131 0.000000 0.016058
# 5 -0.002916 0.000908 -0.012284 0.000000 0.032557 0.000000
# 6 0.000000 0.000000 0.000000 0.016058 0.000000 0.064333
#
#
# Mechanical properties :
#
#
# Convention : Reuss Voigt Hill
#
# Bulk Modulus (GPa) = 34.23025 48.40604 41.31815
# Shear Modulus (GPa) = 15.03437 23.07805 19.05621
#
# Velocity S-wave (km/s) = 3.00995 3.72921 3.38872
# Velocity P-wave (km/s) = 5.71902 6.90742 6.34112
#
# Compressibility (1/GPa) = 0.02921393
#
# Stress axis : x y z
#
# Youngs Moduli (GPa) = 65.93648 87.64669 32.32309
#
# Poissons Ratio (x) = 0.19245 0.16964
# Poissons Ratio (y) = 0.14478 0.21674
# Poissons Ratio (z) = 0.34606 0.58771
#
# Static dielectric constant tensor:
#      x y z
#    x 1.564900 0.000000 0.003880 
#    y 0.000000 1.515630 0.000000 
#    z 0.003880 0.000000 1.562120 
# 
# From -- ./inp_files/60895.got.cif
#   From: 2010.05.17/outbox.cif.g08.bks.cpg/sg12_31_cif.got.tgz:60895.got - 2010.06.03 13:09:07.
