data_PCOD9176239
_publ_section_title
;
Structure prediction by ZEFSAII (Michael W. Deem and Ramdas Pophale) SiO2 
 PCOD9176239
Probable space group: C 2/M
;
_chemical_formula_sum "Si O2"
_cell_formula_units_Z 64
_cell_length_a 14.952597
_cell_length_b 7.833377
_cell_length_c 27.421475
_cell_angle_alpha 90.000000
_cell_angle_beta 103.540332
_cell_angle_gamma 90.000000
_cell_volume 3122.586486
_symmetry_space_group_name_H-M "C 2/M"
_symmetry_group_IT_number 12
_symmetry_cell_setting 'monoclinic'
loop_
_space_group_symop_operation_xyz
x,y,z
-x,y,-z
-x,-y,-z
x,-y,z
1/2+x,1/2+y,z
1/2-x,1/2+y,-z
1/2-x,1/2-y,-z
1/2+x,1/2-y,z
loop_
_atom_site_type_symbol
_atom_site_label
_atom_site_fract_x
_atom_site_fract_y
_atom_site_fract_z
Si Si1 0.649348 0.202552 0.284913
Si Si2 0.040835 0.290858 0.365668
Si Si3 0.695685 0.209420 0.093839
Si Si4 0.901126 0.701253 0.013518
Si Si5 0.407961 0.197468 0.825844
Si Si6 0.101253 0.803637 0.876418
Si Si7 0.275183 0.203652 0.558084
Si Si8 0.165694 0.701112 0.638664
O O1 0.579683 0.266810 0.317932
O O2 0.630675 0.275571 0.228866
O O3 0.753320 0.225263 0.317009
O O4 0.631613 0.000000 0.279761
O O5 0.039117 0.500000 0.365848
O O6 0.121920 0.238017 0.413411
O O7 0.937671 0.232099 0.365053
O O8 0.669815 0.268081 0.036211
O O9 0.626936 0.270291 0.127097
O O10 0.797251 0.259838 0.122750
O O11 0.691592 0.000000 0.089916
O O12 0.884372 0.500000 0.021214
O O13 0.903085 0.792290 0.065399
O O14 0.000000 0.713107 0.000000
O O15 0.517637 0.205231 0.841712
O O16 0.377573 0.000000 0.822949
O O17 0.092959 0.000000 0.860314
O O18 0.250000 0.250000 0.500000
O O19 0.201998 0.271749 0.588214
O O20 0.274257 0.000000 0.563149
O O21 0.163453 0.500000 0.648009
#
# Coordination Sequence:
#
# PCOD9176239 Si02
#       8
#     8   8   8   8   8   8   8   8
#     4   9  19  36  57  78 102 137 179 222 261 310
#     4   8  17  34  54  77 107 143 178 216 266 316
#     4   9  19  35  53  75 103 136 169 209 259 314
#     4  10  18  34  58  74  96 137 176 202 247 322
#     4  10  20  38  58  74 101 141 178 207 256 324
#     4  11  22  34  51  78 108 130 164 218 267 304
#     4  10  20  36  55  80 115 149 185 222 261 309
#     4  10  19  34  56  79 107 143 180 219 267 316
#
# _framework density 20.495829000000001
#
# number of rings (size 3 to 8) (size 9 to 14) (size 15 to 20)
#    0.000    2.375    1.250    2.250    0.000    2.250 
#    0.000   10.625    0.000    0.000    0.000    0.000 
#    0.000    0.000    0.000    0.000    0.000    0.000 
#
# Total GULP energy -178535.910175 kJ/mol
# GULP energy per Si atom -5579.247193 kJ/mol
# Density = 2.044918 g / cm^3
# Si number density = 20.495829 Si / 1000 Ang^3
#
#
#
# Elastic Constant Matrix: (Units=GPa)
#
#
# Indices 1 2 3 4 5 6 
#
# 1 121.8855 -4.6616 37.2929 0.0000 6.1880 0.0000
# 2 -4.6616 15.2376 -6.1600 0.0000 -4.1669 0.0000
# 3 37.2929 -6.1600 115.1160 0.0000 14.9690 0.0000
# 4 0.0000 0.0000 0.0000 15.5523 0.0000 5.9943
# 5 6.1880 -4.1669 14.9690 0.0000 10.8129 0.0000
# 6 0.0000 0.0000 0.0000 5.9943 0.0000 18.3605
#
#
#
# Elastic Compliance Matrix: (Units=1/GPa)
#
#
# Indices 1 2 3 4 5 6 
#
# 1 0.009152 0.001449 -0.002779 0.000000 -0.000832 0.000000
# 2 0.001449 0.073596 -0.000136 0.000000 0.027720 0.000000
# 3 -0.002779 -0.000136 0.011439 0.000000 -0.014298 0.000000
# 4 0.000000 0.000000 0.000000 0.073555 0.000000 -0.024014
# 5 -0.000832 0.027720 -0.014298 0.000000 0.123433 0.000000
# 6 0.000000 0.000000 0.000000 -0.024014 0.000000 0.062305
#
#
# Mechanical properties :
#
#
# Convention : Reuss Voigt Hill
#
# Bulk Modulus (GPa) = 10.95828 33.90909 22.43368
# Shear Modulus (GPa) = 12.92554 23.99633 18.46094
#
# Velocity S-wave (km/s) = 2.51398 3.42539 3.00445
# Velocity P-wave (km/s) = 3.71282 5.67668 4.79634
#
# Compressibility (1/GPa) = 0.09125519
#
# Stress axis : x y z
#
# Youngs Moduli (GPa) = 109.26047 13.58774 87.41872
#
# Poissons Ratio (x) = -0.01969 0.24296
# Poissons Ratio (y) = -0.15831 0.01186
# Poissons Ratio (z) = 0.30367 0.00184
#
# Static dielectric constant tensor:
#      x y z
#    x 1.730490 0.000000 -0.007820 
#    y 0.000000 1.765680 0.000000 
#    z -0.007820 0.000000 1.670460 
# 
# From -- ./inp_files/359868.got.cif
#   From: 2010.05.17/outbox.cif.g08.bks.cpg/sg12_180_cif.got.tgz:359868.got - 2010.06.03 13:09:07.
