data_PCOD9176396
_publ_section_title
;
Structure prediction by ZEFSAII (Michael W. Deem and Ramdas Pophale) SiO2 
 PCOD9176396
Probable space group: C 2/M
;
_chemical_formula_sum "Si O2"
_cell_formula_units_Z 64
_cell_length_a 27.800846
_cell_length_b 10.721319
_cell_length_c 21.343790
_cell_angle_alpha 90.000000
_cell_angle_beta 31.561801
_cell_angle_gamma 90.000000
_cell_volume 3329.863087
_symmetry_space_group_name_H-M "C 2/M"
_symmetry_group_IT_number 12
_symmetry_cell_setting 'monoclinic'
loop_
_space_group_symop_operation_xyz
x,y,z
-x,y,-z
-x,-y,-z
x,-y,z
1/2+x,1/2+y,z
1/2-x,1/2+y,-z
1/2-x,1/2-y,-z
1/2+x,1/2-y,z
loop_
_atom_site_type_symbol
_atom_site_label
_atom_site_fract_x
_atom_site_fract_y
_atom_site_fract_z
Si Si1 0.125775 0.360531 0.142193
Si Si2 0.767433 0.760687 0.083138
Si Si3 0.975545 0.856513 0.305614
Si Si4 0.599209 0.644450 0.963738
Si Si5 0.273189 0.649733 0.291871
Si Si6 0.914753 0.151031 0.234039
Si Si7 0.602157 0.639270 0.336324
Si Si8 0.586559 0.292584 0.492661
O O1 0.086236 0.500000 0.190936
O O2 0.205770 0.341673 0.104482
O O3 0.054867 0.246178 0.226950
O O4 0.174094 0.337013 0.022038
O O5 0.834851 0.843575 0.049588
O O6 0.697434 0.686754 0.204540
O O7 0.926551 0.820206 0.294425
O O8 0.915317 0.850844 0.435864
O O9 0.009542 0.000000 0.260836
O O10 0.581613 0.500000 0.967571
O O11 0.658442 0.696048 0.839667
O O12 0.501443 0.697436 0.095814
O O13 0.273131 0.500000 0.288603
O O14 0.321212 0.690032 0.303568
O O15 0.168250 0.692768 0.402380
O O16 0.917754 0.000000 0.227760
O O17 0.579808 0.500000 0.336902
O O18 0.521658 0.732961 0.402315
O O19 0.606735 0.633135 0.406215
#
# Coordination Sequence:
#
# PCOD9176396 Si02
#       8
#     8   8   8   8   8   8   8   8
#     4  11  24  37  58  91 127 157 193 247 308 360
#     4  11  21  37  59  88 118 160 193 237 299 368
#     4  11  22  39  63  86 117 163 211 248 292 358
#     4  10  18  34  60  90 119 150 194 244 296 361
#     4  10  21  37  58  88 122 153 197 252 308 352
#     4   9  19  36  61  88 114 153 201 252 298 356
#     4  11  22  39  59  83 114 152 203 247 285 350
#     4  11  22  37  57  85 114 156 202 245 290 344
#
# _framework density 19.220011
#
# number of rings (size 3 to 8) (size 9 to 14) (size 15 to 20)
#    0.000    1.500    3.750    2.625    0.000    4.500 
#    0.000    1.250    0.000    2.250    0.000    1.750 
#    0.000    0.000    0.000    0.000    0.000    0.000 
#
# Total GULP energy -178185.496162 kJ/mol
# GULP energy per Si atom -5568.296755 kJ/mol
# Density = 1.917627 g / cm^3
# Si number density = 19.220011 Si / 1000 Ang^3
#
#
#
# Elastic Constant Matrix: (Units=GPa)
#
#
# Indices 1 2 3 4 5 6 
#
# 1 110.5157 28.4020 30.4829 0.0000 -5.6778 0.0001
# 2 28.4020 53.2932 22.5929 -0.0006 -0.7118 0.0000
# 3 30.4829 22.5929 90.5068 -0.0007 9.7670 0.0001
# 4 0.0000 -0.0006 -0.0007 -36.9130 0.0004 -14.7918
# 5 -5.6778 -0.7118 9.7670 0.0004 28.4980 0.0001
# 6 0.0001 0.0000 0.0001 -14.7918 0.0001 15.6697
#
#
#
# Elastic Compliance Matrix: (Units=1/GPa)
#
#
# Indices 1 2 3 4 5 6 
#
# 1 0.011228 -0.004692 -0.002948 0.000000 0.003130 0.000000
# 2 -0.004692 0.023106 -0.004308 0.000000 0.001119 0.000000
# 3 -0.002948 -0.004308 0.013699 0.000000 -0.005390 0.000000
# 4 0.000000 0.000000 0.000000 -0.019656 0.000000 -0.018554
# 5 0.003130 0.001119 -0.005390 0.000000 0.037589 0.000000
# 6 0.000000 0.000000 0.000000 -0.018554 0.000000 0.046303
#
#
# Mechanical properties :
#
#
# Convention : Reuss Voigt Hill
#
# Bulk Modulus (GPa) = 41.43208 46.36349 43.89778
# Shear Modulus (GPa) = 34.67100 12.97346 23.82223
#
# Velocity S-wave (km/s) = 4.25184 2.60089 3.52440
# Velocity P-wave (km/s) = 6.76075 5.76146 6.28101
#
# Compressibility (1/GPa) = 0.02413589
#
# Stress axis : x y z
#
# Youngs Moduli (GPa) = 89.05967 43.27836 72.99818
#
# Poissons Ratio (x) = 0.20308 0.21521
# Poissons Ratio (y) = 0.41790 0.31449
# Poissons Ratio (z) = 0.26257 0.18645
#
# Static dielectric constant tensor:
#      x y z
#    x 1.699110 0.000000 0.024370 
#    y 0.000000 1.663800 0.000000 
#    z 0.024370 0.000000 1.700520 
# 
# From -- ./inp_files/327797.got.cif
#   From: 2010.05.17/outbox.cif.g08.bks.cpg/sg12_164_cif.got.tgz:327797.got - 2010.06.03 13:09:07.
