data_PCOD9176947
_publ_section_title
;
Structure prediction by ZEFSAII (Michael W. Deem and Ramdas Pophale) SiO2 
 PCOD9176947
Probable space group: C 2/M
;
_chemical_formula_sum "Si O2"
_cell_formula_units_Z 32
_cell_length_a 8.915368
_cell_length_b 15.333900
_cell_length_c 11.617543
_cell_angle_alpha 90.000000
_cell_angle_beta 74.425679
_cell_angle_gamma 90.000000
_cell_volume 1529.889568
_symmetry_space_group_name_H-M "C 2/M"
_symmetry_group_IT_number 12
_symmetry_cell_setting 'monoclinic'
loop_
_space_group_symop_operation_xyz
x,y,z
-x,y,-z
-x,-y,-z
x,-y,z
1/2+x,1/2+y,z
1/2-x,1/2+y,-z
1/2-x,1/2-y,-z
1/2+x,1/2-y,z
loop_
_atom_site_type_symbol
_atom_site_label
_atom_site_fract_x
_atom_site_fract_y
_atom_site_fract_z
Si Si1 0.678688 0.325711 0.218701
Si Si2 0.796115 0.500000 0.921394
Si Si3 0.843746 0.699914 0.579761
Si Si4 0.152823 0.500000 0.814669
Si Si5 0.141220 0.842741 0.826282
O O1 0.601255 0.274566 0.341289
O O2 0.765746 0.411727 0.243303
O O3 0.804205 0.254581 0.148368
O O4 0.541867 0.345979 0.158173
O O5 0.704776 0.415256 0.897935
O O6 0.969152 0.500000 0.831431
O O7 0.819687 0.500000 0.053033
O O8 0.750000 0.750000 0.500000
O O9 0.729775 0.643861 0.684624
O O10 0.000000 0.655871 0.500000
#
# Coordination Sequence:
#
# PCOD9176947 Si02
#       5
#     8   4   8   4   8
#     4  10  21  38  64  91 122 157 201 244 296 361
#     4  11  25  43  61  87 121 158 202 256 300 353
#     4  10  18  36  63  90 121 159 193 242 296 353
#     4  11  25  43  61  87 121 157 204 255 300 351
#     4  10  21  38  64  91 122 156 203 242 298 360
#
# _framework density 20.916542
#
# number of rings (size 3 to 8) (size 9 to 14) (size 15 to 20)
#    1.500    0.250    2.500    2.250    3.500    3.000 
#    0.000    2.500    0.000    0.000    0.000    0.000 
#    0.000    0.000    0.000    0.000    0.000    0.000 
#
# Total GULP energy -89240.861887 kJ/mol
# GULP energy per Si atom -5577.553868 kJ/mol
# Density = 2.086893 g / cm^3
# Si number density = 20.916542 Si / 1000 Ang^3
#
#
#
# Elastic Constant Matrix: (Units=GPa)
#
#
# Indices 1 2 3 4 5 6 
#
# 1 106.0206 8.3448 -1.1748 0.0000 1.9346 0.0000
# 2 8.3448 84.6143 -9.1642 0.0000 -2.7023 0.0000
# 3 -1.1748 -9.1642 52.8639 0.0000 -4.7761 0.0000
# 4 0.0000 0.0000 0.0000 11.1740 0.0000 -6.2969
# 5 1.9346 -2.7023 -4.7761 0.0000 32.9095 0.0000
# 6 0.0000 0.0000 0.0000 -6.2969 0.0000 66.1890
#
#
#
# Elastic Compliance Matrix: (Units=1/GPa)
#
#
# Indices 1 2 3 4 5 6 
#
# 1 0.009519 -0.000961 -0.000013 0.000000 -0.000640 0.000000
# 2 -0.000961 0.012197 0.002218 0.000000 0.001380 0.000000
# 3 -0.000013 0.002218 0.019574 0.000000 0.003024 0.000000
# 4 0.000000 0.000000 0.000000 0.094563 0.000000 0.008996
# 5 -0.000640 0.001380 0.003024 0.000000 0.030976 0.000000
# 6 0.000000 0.000000 0.000000 0.008996 0.000000 0.015964
#
#
# Mechanical properties :
#
#
# Convention : Reuss Voigt Hill
#
# Bulk Modulus (GPa) = 22.84197 26.61228 24.72713
# Shear Modulus (GPa) = 25.65440 38.42069 32.03754
#
# Velocity S-wave (km/s) = 3.50596 4.29051 3.91792
# Velocity P-wave (km/s) = 5.22812 6.10699 5.68456
#
# Compressibility (1/GPa) = 0.04377906
#
# Stress axis : x y z
#
# Youngs Moduli (GPa) = 105.04993 81.98510 51.08856
#
# Poissons Ratio (x) = 0.07876 0.00066
# Poissons Ratio (y) = 0.10092 -0.11330
# Poissons Ratio (z) = 0.00135 -0.18182
#
# Static dielectric constant tensor:
#      x y z
#    x 1.731070 0.000000 -0.004760 
#    y 0.000000 1.711270 0.000000 
#    z -0.004760 0.000000 1.791050 
# 
# From -- ./inp_files/128485.got.cif
#   From: 2010.05.17/outbox.cif.g08.bks.cpg/sg12_65_cif.got.tgz:128485.got - 2010.06.03 13:09:07.
