data_PCOD9176875
_publ_section_title
;
Structure prediction by ZEFSAII (Michael W. Deem and Ramdas Pophale) SiO2 
 PCOD9176875
Probable space group: C 2/M
;
_chemical_formula_sum "Si O2"
_cell_formula_units_Z 32
_cell_length_a 8.676660
_cell_length_b 11.780500
_cell_length_c 20.526561
_cell_angle_alpha 90.000000
_cell_angle_beta 139.527621
_cell_angle_gamma 90.000000
_cell_volume 1361.857480
_symmetry_space_group_name_H-M "C 2/M"
_symmetry_group_IT_number 12
_symmetry_cell_setting 'monoclinic'
loop_
_space_group_symop_operation_xyz
x,y,z
-x,y,-z
-x,-y,-z
x,-y,z
1/2+x,1/2+y,z
1/2-x,1/2+y,-z
1/2-x,1/2-y,-z
1/2+x,1/2-y,z
loop_
_atom_site_type_symbol
_atom_site_label
_atom_site_fract_x
_atom_site_fract_y
_atom_site_fract_z
Si Si1 0.163180 0.371925 0.269283
Si Si2 0.995474 0.694381 0.428729
Si Si3 0.275844 0.875060 0.975761
Si Si4 0.254347 0.664683 0.777981
O O1 0.242054 0.500000 0.290925
O O2 0.307334 0.299203 0.369289
O O3 0.219720 0.301153 0.222548
O O4 0.889719 0.364881 0.203687
O O5 0.900984 0.629178 0.334891
O O6 0.000000 0.635399 0.500000
O O7 0.250000 0.750000 0.500000
O O8 0.017855 0.881544 0.858927
O O9 0.300714 0.000000 0.019441
O O10 0.500000 0.869069 0.000000
O O11 0.250000 0.750000 0.000000
#
# Coordination Sequence:
#
# PCOD9176875 Si02
#       4
#     8   8   8   8
#     4  10  21  37  62  86 120 169 210 257 318 375
#     4  10  18  36  59  87 127 163 209 266 310 382
#     4  11  25  44  69  99 133 172 218 275 334 394
#     4  10  21  39  62  91 128 163 210 267 317 379
#
# _framework density 23.497319999999998
#
# number of rings (size 3 to 8) (size 9 to 14) (size 15 to 20)
#    1.500    0.250    2.500    2.250    0.000    2.000 
#    0.000    2.500    0.000    5.250    0.000    0.000 
#    0.000    0.000    0.000    0.000    0.000    0.000 
#
# Total GULP energy -89117.635799 kJ/mol
# GULP energy per Si atom -5569.852237 kJ/mol
# Density = 2.344384 g / cm^3
# Si number density = 23.497320 Si / 1000 Ang^3
#
#
#
# Elastic Constant Matrix: (Units=GPa)
#
#
# Indices 1 2 3 4 5 6 
#
# 1 65.7569 25.9601 23.1285 0.0000 16.3902 0.0000
# 2 25.9601 199.6432 3.8486 0.0000 -7.8315 0.0000
# 3 23.1285 3.8486 108.3505 0.0000 25.4873 0.0000
# 4 0.0000 0.0000 0.0000 0.7858 0.0000 -12.6025
# 5 16.3902 -7.8315 25.4873 0.0000 40.3593 0.0000
# 6 0.0000 0.0000 0.0000 -12.6025 0.0000 -8.4953
#
#
#
# Elastic Compliance Matrix: (Units=1/GPa)
#
#
# Indices 1 2 3 4 5 6 
#
# 1 0.018734 -0.002651 -0.002342 0.000000 -0.006644 0.000000
# 2 -0.002651 0.005444 -0.000152 0.000000 0.002229 0.000000
# 3 -0.002342 -0.000152 0.011178 0.000000 -0.006138 0.000000
# 4 0.000000 0.000000 0.000000 0.051332 0.000000 -0.076149
# 5 -0.006644 0.002229 -0.006138 0.000000 0.031784 0.000000
# 6 0.000000 0.000000 0.000000 -0.076149 0.000000 -0.004748
#
#
# Mechanical properties :
#
#
# Convention : Reuss Voigt Hill
#
# Bulk Modulus (GPa) = 39.89468 53.29167 46.59318
# Shear Modulus (GPa) = 37.77287 27.91750 32.84518
#
# Velocity S-wave (km/s) = 4.01376 3.45064 3.74281
# Velocity P-wave (km/s) = 6.20449 6.21330 6.20889
#
# Compressibility (1/GPa) = 0.02506600
#
# Stress axis : x y z
#
# Youngs Moduli (GPa) = 53.37885 183.68573 89.45847
#
# Poissons Ratio (x) = 0.48704 0.20951
# Poissons Ratio (y) = 0.14153 0.01357
# Poissons Ratio (z) = 0.12501 0.02787
#
# Static dielectric constant tensor:
#      x y z
#    x 1.889380 0.000000 -0.070730 
#    y 0.000000 1.923210 0.000000 
#    z -0.070730 0.000000 1.973860 
# 
# From -- ./inp_files/193399.got.cif
#   From: 2010.05.17/outbox.cif.g08.bks.cpg/sg12_97_cif.got.tgz:193399.got - 2010.06.03 13:09:07.
