data_PCOD9176687
_publ_section_title
;
Structure prediction by ZEFSAII (Michael W. Deem and Ramdas Pophale) SiO2 
 PCOD9176687
Probable space group: C 2/M
;
_chemical_formula_sum "Si O2"
_cell_formula_units_Z 64
_cell_length_a 15.037876
_cell_length_b 8.905098
_cell_length_c 28.917415
_cell_angle_alpha 90.000000
_cell_angle_beta 50.480242
_cell_angle_gamma 90.000000
_cell_volume 2987.220130
_symmetry_space_group_name_H-M "C 2/M"
_symmetry_group_IT_number 12
_symmetry_cell_setting 'monoclinic'
loop_
_space_group_symop_operation_xyz
x,y,z
-x,y,-z
-x,-y,-z
x,-y,z
1/2+x,1/2+y,z
1/2-x,1/2+y,-z
1/2-x,1/2-y,-z
1/2+x,1/2-y,z
loop_
_atom_site_type_symbol
_atom_site_label
_atom_site_fract_x
_atom_site_fract_y
_atom_site_fract_z
Si Si1 0.286447 0.317561 0.892065
Si Si2 0.492393 0.176133 0.700026
Si Si3 0.979341 0.178964 0.145029
Si Si4 0.241199 0.680612 0.643758
Si Si5 0.578577 0.822873 0.019998
Si Si6 0.040909 0.674338 0.395057
Si Si7 0.832881 0.178950 0.511024
Si Si8 0.249725 0.678727 0.801140
O O1 0.284503 0.500000 0.893663
O O2 0.418580 0.269920 0.854382
O O3 0.204079 0.269062 0.961127
O O4 0.235576 0.273077 0.859537
O O5 0.607339 0.226723 0.688665
O O6 0.514433 0.185132 0.637608
O O7 0.377625 0.268996 0.746695
O O8 0.471651 0.000000 0.717453
O O9 0.854252 0.250266 0.193209
O O10 0.969742 0.000000 0.150437
O O11 0.026721 0.229834 0.079162
O O12 0.245623 0.500000 0.647957
O O13 0.330541 0.758923 0.648369
O O14 0.289649 0.718448 0.576517
O O15 0.582499 0.000000 0.031913
O O16 0.500000 0.813897 0.000000
O O17 0.044971 0.500000 0.406700
O O18 0.960631 0.764105 0.456940
O O19 0.750000 0.250000 0.500000
O O20 0.828878 0.000000 0.508418
O O21 0.240972 0.500000 0.801112
#
# Coordination Sequence:
#
# PCOD9176687 Si02
#       8
#     8   8   8   8   8   8   8   8
#     4   9  20  38  59  84 118 155 189 235 292 347
#     4  10  23  44  62  83 120 157 195 248 303 343
#     4  11  22  37  59  89 121 151 190 240 294 346
#     4  10  22  41  62  88 124 160 195 244 301 353
#     4  10  18  35  61  85 118 157 190 232 288 348
#     4  11  23  40  62  91 124 159 199 244 298 359
#     4  11  21  37  62  91 125 161 197 243 301 358
#     4  11  23  42  63  84 112 154 204 242 289 351
#
# _framework density 21.424600999999999
#
# number of rings (size 3 to 8) (size 9 to 14) (size 15 to 20)
#    0.000    1.625    2.500    2.250    0.000    5.250 
#    0.000    6.875    0.000    0.000    0.000    0.000 
#    0.000    0.000    0.000    0.000    0.000    0.000 
#
# Total GULP energy -178890.287323 kJ/mol
# GULP energy per Si atom -5590.321479 kJ/mol
# Density = 2.137584 g / cm^3
# Si number density = 21.424601 Si / 1000 Ang^3
#
#
#
# Elastic Constant Matrix: (Units=GPa)
#
#
# Indices 1 2 3 4 5 6 
#
# 1 112.4653 20.2905 4.5040 0.0000 -36.6145 0.0001
# 2 20.2905 33.5172 10.3766 0.0001 -11.7307 0.0001
# 3 4.5040 10.3766 52.1273 0.0000 -27.8875 0.0000
# 4 0.0000 0.0001 0.0000 29.2574 0.0000 -7.1345
# 5 -36.6145 -11.7307 -27.8875 0.0000 38.6986 0.0000
# 6 0.0001 0.0001 0.0000 -7.1345 0.0000 28.4011
#
#
#
# Elastic Compliance Matrix: (Units=1/GPa)
#
#
# Indices 1 2 3 4 5 6 
#
# 1 0.016899 -0.005948 0.011901 0.000000 0.022762 0.000000
# 2 -0.005948 0.035599 -0.006201 0.000000 0.000695 0.000000
# 3 0.011901 -0.006201 0.039723 0.000000 0.038006 0.000000
# 4 0.000000 0.000000 0.000000 0.036410 0.000000 0.009146
# 5 0.022762 0.000695 0.038006 0.000000 0.074976 0.000000
# 6 0.000000 0.000000 0.000000 0.009146 0.000000 0.037508
#
#
# Mechanical properties :
#
#
# Convention : Reuss Voigt Hill
#
# Bulk Modulus (GPa) = 10.90208 29.82798 20.36503
# Shear Modulus (GPa) = 18.36993 30.13399 24.25196
#
# Velocity S-wave (km/s) = 2.93135 3.75442 3.36812
# Velocity P-wave (km/s) = 4.06900 5.72248 4.96505
#
# Compressibility (1/GPa) = 0.09172562
#
# Stress axis : x y z
#
# Youngs Moduli (GPa) = 59.17648 28.09060 25.17451
#
# Poissons Ratio (x) = 0.16708 -0.29961
# Poissons Ratio (y) = 0.35198 0.15610
# Poissons Ratio (z) = -0.70428 0.17418
#
# Static dielectric constant tensor:
#      x y z
#    x 1.792860 0.000000 -0.011100 
#    y 0.000000 1.715950 0.000000 
#    z -0.011100 0.000000 1.799650 
# 
# From -- ./inp_files/375387.got.cif
#   From: 2010.05.17/outbox.cif.g08.bks.cpg/sg12_188_cif.got.tgz:375387.got - 2010.06.03 13:09:07.
