data_PCOD9176845
_publ_section_title
;
Structure prediction by ZEFSAII (Michael W. Deem and Ramdas Pophale) SiO2 
 PCOD9176845
Probable space group: C 2/M
;
_chemical_formula_sum "Si O2"
_cell_formula_units_Z 46
_cell_length_a 21.731857
_cell_length_b 26.428562
_cell_length_c 13.034960
_cell_angle_alpha 90.000000
_cell_angle_beta 160.003699
_cell_angle_gamma 90.000000
_cell_volume 2560.086964
_symmetry_space_group_name_H-M "C 2/M"
_symmetry_group_IT_number 12
_symmetry_cell_setting 'monoclinic'
loop_
_space_group_symop_operation_xyz
x,y,z
-x,y,-z
-x,-y,-z
x,-y,z
1/2+x,1/2+y,z
1/2-x,1/2+y,-z
1/2-x,1/2-y,-z
1/2+x,1/2-y,z
loop_
_atom_site_type_symbol
_atom_site_label
_atom_site_fract_x
_atom_site_fract_y
_atom_site_fract_z
Si Si1 0.368056 0.000000 0.447809
Si Si2 0.684123 0.603713 0.837145
Si Si3 0.000000 0.757046 0.000000
Si Si4 0.225597 0.000000 0.007188
Si Si5 0.615017 0.191966 0.374664
Si Si6 0.520491 0.920764 0.220592
Si Si7 0.000000 0.500000 0.000000
Si Si8 0.121281 0.298463 0.790588
O O1 0.232507 0.000000 0.140842
O O2 0.568534 0.000000 0.712168
O O3 0.362262 0.951088 0.511013
O O4 0.500000 0.622873 0.500000
O O5 0.644421 0.551935 0.836727
O O6 0.770641 0.648297 0.040182
O O7 0.828382 0.589734 0.974781
O O8 0.817402 0.789575 0.713442
O O9 0.976989 0.722996 0.862053
O O10 0.607993 0.133059 0.334825
O O11 0.501272 0.199719 0.299905
O O12 0.498749 0.956033 0.088540
O O13 0.000000 0.294818 0.500000
O O14 0.250000 0.250000 0.000000
#
# Coordination Sequence:
#
# PCOD9176845 Si02
#       8
#     4   8   4   4   8   8   2   8
#     4   8  16  30  52  80 102 144 181 229 274 343
#     4  10  21  35  56  85 118 148 188 236 285 346
#     4  10  21  38  60  82 108 156 195 248 274 336
#     4   9  17  29  54  77 112 142 187 219 282 338
#     4  10  21  38  60  84 114 149 199 237 291 336
#     4   9  19  34  59  79 112 146 194 232 288 338
#     4  10  18  36  58  84 102 154 192 238 282 340
#     4  11  23  38  59  87 122 156 190 238 296 359
#
# _framework density 17.968139999999998
#
# number of rings (size 3 to 8) (size 9 to 14) (size 15 to 20)
#    0.000    2.261    0.000    2.870    7.304    1.391 
#    0.000    1.739    3.826    1.043    0.000    0.000 
#    0.000    0.000    0.000    0.000    0.000    0.000 
#
# Total GULP energy -128044.024599 kJ/mol
# GULP energy per Si atom -5567.131504 kJ/mol
# Density = 1.792724 g / cm^3
# Si number density = 17.968140 Si / 1000 Ang^3
#
#
#
# Elastic Constant Matrix: (Units=GPa)
#
#
# Indices 1 2 3 4 5 6 
#
# 1 77.2101 55.6373 39.8879 0.0000 -27.9682 0.0000
# 2 55.6373 161.6964 64.4690 0.0000 -10.2667 0.0000
# 3 39.8879 64.4690 113.6018 0.0000 -23.7605 0.0000
# 4 0.0000 0.0000 0.0000 17.8942 0.0000 -1.8238
# 5 -27.9682 -10.2667 -23.7605 0.0000 23.2952 0.0000
# 6 0.0000 0.0000 0.0000 -1.8238 0.0000 25.6315
#
#
#
# Elastic Compliance Matrix: (Units=1/GPa)
#
#
# Indices 1 2 3 4 5 6 
#
# 1 0.031724 -0.009284 0.001576 0.000000 0.035605 0.000000
# 2 -0.009284 0.010746 -0.005313 0.000000 -0.011829 0.000000
# 3 0.001576 -0.005313 0.014200 0.000000 0.014034 0.000000
# 4 0.000000 0.000000 0.000000 0.056292 0.000000 0.004005
# 5 0.035605 -0.011829 0.014034 0.000000 0.094776 0.000000
# 6 0.000000 0.000000 0.000000 0.004005 0.000000 0.039300
#
#
# Mechanical properties :
#
#
# Convention : Reuss Voigt Hill
#
# Bulk Modulus (GPa) = 32.64801 74.72186 53.68493
# Shear Modulus (GPa) = 17.64991 26.19844 21.92417
#
# Velocity S-wave (km/s) = 3.13755 3.82258 3.49688
# Velocity P-wave (km/s) = 5.59777 7.82042 6.80051
#
# Compressibility (1/GPa) = 0.03062974
#
# Stress axis : x y z
#
# Youngs Moduli (GPa) = 31.52148 93.05824 70.42499
#
# Poissons Ratio (x) = 0.86393 -0.11102
# Poissons Ratio (y) = 0.29264 0.37415
# Poissons Ratio (z) = -0.04969 0.49439
#
# Static dielectric constant tensor:
#      x y z
#    x 1.599320 0.000000 0.006140 
#    y 0.000000 1.620660 0.000000 
#    z 0.006140 0.000000 1.596230 
# 
# From -- ./inp_files/170728.got.cif
#   From: 2010.05.17/outbox.cif.g08.bks.cpg/sg12_86_cif.got.tgz:170728.got - 2010.06.03 13:09:07.
