data_PCOD9176408
_publ_section_title
;
Structure prediction by ZEFSAII (Michael W. Deem and Ramdas Pophale) SiO2 
 PCOD9176408
Probable space group: C 2/M
;
_chemical_formula_sum "Si O2"
_cell_formula_units_Z 48
_cell_length_a 20.696104
_cell_length_b 8.690521
_cell_length_c 17.099568
_cell_angle_alpha 90.000000
_cell_angle_beta 117.346127
_cell_angle_gamma 90.000000
_cell_volume 2731.829824
_symmetry_space_group_name_H-M "C 2/M"
_symmetry_group_IT_number 12
_symmetry_cell_setting 'monoclinic'
loop_
_space_group_symop_operation_xyz
x,y,z
-x,y,-z
-x,-y,-z
x,-y,z
1/2+x,1/2+y,z
1/2-x,1/2+y,-z
1/2-x,1/2-y,-z
1/2+x,1/2-y,z
loop_
_atom_site_type_symbol
_atom_site_label
_atom_site_fract_x
_atom_site_fract_y
_atom_site_fract_z
Si Si1 0.023812 0.312544 0.427688
Si Si2 0.902345 0.686987 0.769797
Si Si3 0.169754 0.818120 0.948548
Si Si4 0.586976 0.816441 0.050422
Si Si5 0.553189 0.185667 0.772597
Si Si6 0.173446 0.685979 0.429413
O O1 0.023945 0.500000 0.428868
O O2 0.104983 0.266469 0.445776
O O3 0.000000 0.258393 0.500000
O O4 0.968431 0.267755 0.327503
O O5 0.902342 0.500000 0.771040
O O6 0.886864 0.737168 0.849303
O O7 0.847666 0.735076 0.670720
O O8 0.983622 0.731083 0.787375
O O9 0.125440 0.754403 0.849484
O O10 0.173873 0.000000 0.945680
O O11 0.250000 0.750000 0.000000
O O12 0.125126 0.767925 0.000541
O O13 0.600623 0.000000 0.049804
O O14 0.500000 0.795743 0.000000
O O15 0.557908 0.000000 0.777642
O O16 0.175863 0.500000 0.431714
O O17 0.250000 0.750000 0.500000
#
# Coordination Sequence:
#
# PCOD9176408 Si02
#       6
#     8   8   8   8   8   8
#     4   8  15  30  55  81 103 134 178 220 257 308
#     4   8  15  30  54  79 102 139 178 209 256 320
#     4  12  25  39  54  77 111 144 179 222 272 320
#     4  10  18  34  61  83 104 137 178 218 264 322
#     4   9  16  33  58  79 103 140 182 218 262 318
#     4   9  17  31  51  75 107 140 171 210 259 308
#
# _framework density 17.570640000000001
#
# number of rings (size 3 to 8) (size 9 to 14) (size 15 to 20)
#    0.000    2.667    1.667    3.500    0.000    0.333 
#    3.000    4.167    0.000    1.000    0.000    0.000 
#    0.000    0.000    0.000    0.000    0.000    0.000 
#
# Total GULP energy -133802.942650 kJ/mol
# GULP energy per Si atom -5575.122610 kJ/mol
# Density = 1.753065 g / cm^3
# Si number density = 17.570640 Si / 1000 Ang^3
#
#
#
# Elastic Constant Matrix: (Units=GPa)
#
#
# Indices 1 2 3 4 5 6 
#
# 1 81.4944 33.9567 86.0251 0.0000 3.0657 0.0000
# 2 33.9567 36.8332 40.6259 0.0000 5.5221 0.0000
# 3 86.0251 40.6259 175.3615 0.0000 7.3718 0.0000
# 4 0.0000 0.0000 0.0000 24.3385 0.0000 8.5246
# 5 3.0657 5.5221 7.3718 0.0000 36.5859 0.0000
# 6 0.0000 0.0000 0.0000 8.5246 0.0000 18.3608
#
#
#
# Elastic Compliance Matrix: (Units=1/GPa)
#
#
# Indices 1 2 3 4 5 6 
#
# 1 0.031305 -0.016319 -0.011669 0.000000 0.002191 0.000000
# 2 -0.016319 0.045516 -0.002328 0.000000 -0.005033 0.000000
# 3 -0.011669 -0.002328 0.012012 0.000000 -0.001091 0.000000
# 4 0.000000 0.000000 0.000000 0.049066 0.000000 -0.022780
# 5 0.002191 -0.005033 -0.001091 0.000000 0.028129 0.000000
# 6 0.000000 0.000000 0.000000 -0.022780 0.000000 0.065040
#
#
# Mechanical properties :
#
#
# Convention : Reuss Voigt Hill
#
# Bulk Modulus (GPa) = 35.45768 68.32270 51.89019
# Shear Modulus (GPa) = 16.60578 24.72914 20.66746
#
# Velocity S-wave (km/s) = 3.07756 3.75562 3.43337
# Velocity P-wave (km/s) = 5.73170 7.60100 6.73155
#
# Compressibility (1/GPa) = 0.02820264
#
# Stress axis : x y z
#
# Youngs Moduli (GPa) = 31.94328 21.97031 83.25158
#
# Poissons Ratio (x) = 0.35853 0.97144
# Poissons Ratio (y) = 0.52128 0.19378
# Poissons Ratio (z) = 0.37274 0.05114
#
# Static dielectric constant tensor:
#      x y z
#    x 1.575990 0.000000 -0.016130 
#    y 0.000000 1.595270 0.000000 
#    z -0.016130 0.000000 1.614800 
# 
# From -- ./inp_files/274626.got.cif
#   From: 2010.05.17/outbox.cif.g08.bks.cpg/sg12_138_cif.got.tgz:274626.got - 2010.06.03 13:09:07.
