data_PCOD9176962
_publ_section_title
;
Structure prediction by ZEFSAII (Michael W. Deem and Ramdas Pophale) SiO2 
 PCOD9176962
Probable space group: C 2/M
;
_chemical_formula_sum "Si O2"
_cell_formula_units_Z 56
_cell_length_a 21.425890
_cell_length_b 14.860845
_cell_length_c 18.084757
_cell_angle_alpha 90.000000
_cell_angle_beta 154.157419
_cell_angle_gamma 90.000000
_cell_volume 2510.047838
_symmetry_space_group_name_H-M "C 2/M"
_symmetry_group_IT_number 12
_symmetry_cell_setting 'monoclinic'
loop_
_space_group_symop_operation_xyz
x,y,z
-x,y,-z
-x,-y,-z
x,-y,z
1/2+x,1/2+y,z
1/2-x,1/2+y,-z
1/2-x,1/2-y,-z
1/2+x,1/2-y,z
loop_
_atom_site_type_symbol
_atom_site_label
_atom_site_fract_x
_atom_site_fract_y
_atom_site_fract_z
Si Si1 0.715047 0.148825 0.383503
Si Si2 0.768103 0.840223 0.669979
Si Si3 0.731367 0.763163 0.788645
Si Si4 0.581268 0.214645 0.867628
Si Si5 0.664789 0.098389 0.171584
Si Si6 0.961058 0.098705 0.751380
Si Si7 0.051221 0.395894 0.689719
O O1 0.765440 0.247413 0.410076
O O2 0.559924 0.168178 0.250340
O O3 0.706668 0.092282 0.301038
O O4 0.814556 0.103621 0.549325
O O5 0.794640 0.816704 0.784422
O O6 0.907691 0.880325 0.778033
O O7 0.621751 0.894894 0.501484
O O8 0.718481 0.663941 0.739739
O O9 0.608117 0.828510 0.686795
O O10 0.819218 0.733935 0.955558
O O11 0.547575 0.317940 0.809420
O O12 0.610329 0.151377 0.828146
O O13 0.657012 0.000000 0.127644
O O14 0.500000 0.135833 0.000000
O O15 0.027281 0.000000 0.817267
O O16 0.099106 0.500000 0.734403
#
# Coordination Sequence:
#
# PCOD9176962 Si02
#       7
#     8   8   8   8   8   8   8
#     4  10  18  36  64  91 126 155 203 265 314 360
#     4  10  21  39  64  93 123 163 209 258 313 367
#     4  11  25  41  63  90 135 163 201 263 316 371
#     4  11  22  42  61  93 124 166 206 263 320 367
#     4  10  20  36  64  96 121 156 202 253 316 374
#     4  11  21  36  64  94 124 160 208 266 318 373
#     4  12  25  43  67  90 122 173 222 255 299 377
#
# _framework density 22.310333
#
# number of rings (size 3 to 8) (size 9 to 14) (size 15 to 20)
#    0.000    1.286    4.286    2.571    0.000    3.429 
#    0.000    1.429    0.000    1.714    0.000    0.000 
#    0.000    0.000    0.000    0.000    0.000    0.000 
#
# Total GULP energy -156026.198015 kJ/mol
# GULP energy per Si atom -5572.364215 kJ/mol
# Density = 2.225955 g / cm^3
# Si number density = 22.310333 Si / 1000 Ang^3
#
#
#
# Elastic Constant Matrix: (Units=GPa)
#
#
# Indices 1 2 3 4 5 6 
#
# 1 86.9155 39.8632 15.4366 -0.0001 -12.8389 0.0000
# 2 39.8632 150.4376 2.7211 -0.0001 7.5309 0.0000
# 3 15.4366 2.7211 45.7410 -0.0003 -14.0545 -0.0001
# 4 -0.0001 -0.0001 -0.0003 4.0959 0.0000 -4.8349
# 5 -12.8389 7.5309 -14.0545 0.0000 26.6826 0.0000
# 6 0.0000 0.0000 -0.0001 -4.8349 0.0000 12.3089
#
#
#
# Elastic Compliance Matrix: (Units=1/GPa)
#
#
# Indices 1 2 3 4 5 6 
#
# 1 0.014970 -0.004270 -0.002642 0.000000 0.007017 0.000000
# 2 -0.004270 0.008014 -0.000432 0.000000 -0.004544 0.000000
# 3 -0.002642 -0.000432 0.026757 0.000004 0.012944 0.000002
# 4 0.000000 0.000000 0.000004 0.455207 0.000003 0.178803
# 5 0.007017 -0.004544 0.012944 0.000003 0.048954 0.000001
# 6 0.000000 0.000000 0.000002 0.178803 0.000001 0.151475
#
#
# Mechanical properties :
#
#
# Convention : Reuss Voigt Hill
#
# Bulk Modulus (GPa) = 28.52862 44.34843 36.43853
# Shear Modulus (GPa) = 6.83294 23.62235 15.22765
#
# Velocity S-wave (km/s) = 1.75195 3.25746 2.61538
# Velocity P-wave (km/s) = 4.11186 5.83688 5.04859
#
# Compressibility (1/GPa) = 0.03505252
#
# Stress axis : x y z
#
# Youngs Moduli (GPa) = 66.80215 124.78054 37.37360
#
# Poissons Ratio (x) = 0.53283 0.09874
# Poissons Ratio (y) = 0.28525 0.01614
# Poissons Ratio (z) = 0.17649 0.05389
#
# Static dielectric constant tensor:
#      x y z
#    x 1.854970 0.000000 0.005000 
#    y 0.000000 1.878270 0.000000 
#    z 0.005000 0.000000 1.869620 
# 
# From -- ./inp_files/284571.got.cif
#   From: 2010.05.17/outbox.cif.g08.bks.cpg/sg12_143_cif.got.tgz:284571.got - 2010.06.03 13:09:07.
