data_PCOD9176453
_publ_section_title
;
Structure prediction by ZEFSAII (Michael W. Deem and Ramdas Pophale) SiO2 
 PCOD9176453
Probable space group: C 2/M
;
_chemical_formula_sum "Si O2"
_cell_formula_units_Z 56
_cell_length_a 12.516832
_cell_length_b 26.055106
_cell_length_c 9.915921
_cell_angle_alpha 90.000000
_cell_angle_beta 115.057462
_cell_angle_gamma 90.000000
_cell_volume 2929.494377
_symmetry_space_group_name_H-M "C 2/M"
_symmetry_group_IT_number 12
_symmetry_cell_setting 'monoclinic'
loop_
_space_group_symop_operation_xyz
x,y,z
-x,y,-z
-x,-y,-z
x,-y,z
1/2+x,1/2+y,z
1/2-x,1/2+y,-z
1/2-x,1/2-y,-z
1/2+x,1/2-y,z
loop_
_atom_site_type_symbol
_atom_site_label
_atom_site_fract_x
_atom_site_fract_y
_atom_site_fract_z
Si Si1 0.208687 0.840986 0.820831
Si Si2 0.033219 0.193993 0.358612
Si Si3 0.874623 0.302743 0.670680
Si Si4 0.099802 0.439898 0.669203
Si Si5 0.430480 0.130861 0.100029
Si Si6 0.262601 0.616109 0.570170
Si Si7 0.137241 0.941570 0.618455
O O1 0.280045 0.811251 0.740237
O O2 0.167442 0.896279 0.739108
O O3 0.090265 0.809543 0.785973
O O4 0.299839 0.851924 0.988539
O O5 0.106127 0.245566 0.370666
O O6 0.115103 0.146698 0.359472
O O7 0.000000 0.190185 0.500000
O O8 0.830862 0.341649 0.532071
O O9 0.998321 0.322687 0.794437
O O10 0.121818 0.500000 0.694060
O O11 0.063898 0.415116 0.791101
O O12 0.214379 0.409828 0.677622
O O13 0.000000 0.432903 0.500000
O O14 0.500000 0.117250 0.000000
O O15 0.281742 0.572467 0.467020
O O16 0.000000 0.938353 0.500000
O O17 0.159035 0.000000 0.676194
#
# Coordination Sequence:
#
# PCOD9176453 Si02
#       7
#     8   8   8   8   8   8   8
#     4  10  21  41  58  88 127 160 208 253 302 373
#     4  12  22  36  64  95 124 166 215 255 308 368
#     4  10  22  36  60  92 121 161 207 257 307 353
#     4  11  24  41  65  95 125 163 207 257 314 368
#     4  10  23  44  64  88 128 168 204 254 309 376
#     4  11  20  39  58  93 124 154 200 267 301 360
#     4  10  18  34  62  91 119 158 204 254 302 356
#
# _framework density 19.115926000000002
#
# number of rings (size 3 to 8) (size 9 to 14) (size 15 to 20)
#    0.000    1.429    5.714    0.857    2.000    1.429 
#    0.000    3.571    0.000    0.857    0.000    0.000 
#    0.000    0.000    0.000    0.000    0.000    0.000 
#
# Total GULP energy -156341.164645 kJ/mol
# GULP energy per Si atom -5583.613023 kJ/mol
# Density = 1.907242 g / cm^3
# Si number density = 19.115926 Si / 1000 Ang^3
#
#
#
# Elastic Constant Matrix: (Units=GPa)
#
#
# Indices 1 2 3 4 5 6 
#
# 1 70.5018 47.5206 26.5693 0.0000 16.3697 0.0000
# 2 47.5206 97.0545 8.1002 0.0000 -7.0354 0.0000
# 3 26.5693 8.1002 52.0199 0.0000 10.4775 0.0000
# 4 0.0000 0.0000 0.0000 6.2168 0.0000 2.7657
# 5 16.3697 -7.0354 10.4775 0.0000 35.4146 0.0000
# 6 0.0000 0.0000 0.0000 2.7657 0.0000 20.8042
#
#
#
# Elastic Compliance Matrix: (Units=1/GPa)
#
#
# Indices 1 2 3 4 5 6 
#
# 1 0.032876 -0.016256 -0.011218 0.000000 -0.015107 0.000000
# 2 -0.016256 0.018729 0.003322 0.000000 0.010252 0.000000
# 3 -0.011218 0.003322 0.024732 0.000000 -0.001472 0.000000
# 4 0.000000 0.000000 0.000000 0.170965 0.000000 -0.022728
# 5 -0.015107 0.010252 -0.001472 0.000000 0.037692 0.000000
# 6 0.000000 0.000000 0.000000 -0.022728 0.000000 0.051089
#
#
# Mechanical properties :
#
#
# Convention : Reuss Voigt Hill
#
# Bulk Modulus (GPa) = 35.67204 42.66182 39.16693
# Shear Modulus (GPa) = 12.69901 21.64620 17.17261
#
# Velocity S-wave (km/s) = 2.58023 3.36871 3.00048
# Velocity P-wave (km/s) = 5.25149 6.12347 5.70417
#
# Compressibility (1/GPa) = 0.02803316
#
# Stress axis : x y z
#
# Youngs Moduli (GPa) = 30.41709 53.39364 40.43323
#
# Poissons Ratio (x) = 0.86797 0.45356
# Poissons Ratio (y) = 0.49446 -0.13430
# Poissons Ratio (z) = 0.34121 -0.17735
#
# Static dielectric constant tensor:
#      x y z
#    x -47.239870 0.000000 9.832240 
#    y 0.000000 1.653120 0.000000 
#    z 9.832240 0.000000 -0.302320 
# 
# From -- ./inp_files/53284.got.cif
#   From: 2010.05.17/outbox.cif.g08.bks.cpg/sg12_27_cif.got.tgz:53284.got - 2010.06.03 13:09:07.
