data_PCOD9176645
_publ_section_title
;
Structure prediction by ZEFSAII (Michael W. Deem and Ramdas Pophale) SiO2 
 PCOD9176645
Probable space group: C 2/M
;
_chemical_formula_sum "Si O2"
_cell_formula_units_Z 56
_cell_length_a 16.846857
_cell_length_b 11.706332
_cell_length_c 19.107489
_cell_angle_alpha 90.000000
_cell_angle_beta 130.684426
_cell_angle_gamma 90.000000
_cell_volume 2857.531465
_symmetry_space_group_name_H-M "C 2/M"
_symmetry_group_IT_number 12
_symmetry_cell_setting 'monoclinic'
loop_
_space_group_symop_operation_xyz
x,y,z
-x,y,-z
-x,-y,-z
x,-y,z
1/2+x,1/2+y,z
1/2-x,1/2+y,-z
1/2-x,1/2-y,-z
1/2+x,1/2-y,z
loop_
_atom_site_type_symbol
_atom_site_label
_atom_site_fract_x
_atom_site_fract_y
_atom_site_fract_z
Si Si1 0.614968 0.710060 0.586286
Si Si2 0.836363 0.291425 0.886180
Si Si3 0.302474 0.365827 0.741043
Si Si4 0.605263 0.374237 0.734191
Si Si5 0.258032 0.871574 0.546862
Si Si6 0.956845 0.716797 0.736114
Si Si7 0.037097 0.372221 0.921690
O O1 0.500000 0.750705 0.500000
O O2 0.693980 0.811858 0.651532
O O3 0.606271 0.635239 0.651091
O O4 0.668292 0.640733 0.553959
O O5 0.820321 0.177941 0.830774
O O6 0.724177 0.350746 0.826288
O O7 0.920668 0.361901 0.888038
O O8 0.890727 0.285346 0.993033
O O9 0.303251 0.500000 0.736976
O O10 0.391089 0.309753 0.742984
O O11 0.571150 0.500000 0.736909
O O12 0.528608 0.279687 0.721307
O O13 0.250000 0.750000 0.500000
O O14 0.370501 0.862417 0.649734
O O15 0.248985 0.000000 0.508442
O O16 0.026269 0.652963 0.833883
O O17 0.076870 0.500000 0.957004
#
# Coordination Sequence:
#
# PCOD9176645 Si02
#       7
#     8   8   8   8   8   8   8
#     4  10  22  38  59  87 111 143 193 240 281 333
#     4   9  19  34  56  85 107 141 194 235 280 337
#     4   9  19  37  56  78 115 154 188 231 287 346
#     4  11  21  36  57  82 116 149 187 238 286 336
#     4  11  24  42  64  89 118 153 193 237 288 345
#     4  10  22  36  55  84 114 150 192 231 282 344
#     4  10  18  35  60  81 109 145 187 238 286 336
#
# _framework density 19.597334
#
# number of rings (size 3 to 8) (size 9 to 14) (size 15 to 20)
#    0.000    2.000    0.000    4.714    0.000    6.000 
#    0.000   15.000    0.000    0.000    0.000    0.000 
#    0.000    0.000    0.000    0.000    0.000    0.000 
#
# Total GULP energy -156218.925474 kJ/mol
# GULP energy per Si atom -5579.247338 kJ/mol
# Density = 1.955273 g / cm^3
# Si number density = 19.597334 Si / 1000 Ang^3
#
#
#
# Elastic Constant Matrix: (Units=GPa)
#
#
# Indices 1 2 3 4 5 6 
#
# 1 79.1682 13.0486 27.3399 0.0000 3.1240 0.0000
# 2 13.0486 116.4359 26.0089 0.0000 0.2631 0.0000
# 3 27.3399 26.0089 86.0235 0.0000 7.6383 0.0000
# 4 0.0000 0.0000 0.0000 5.7570 0.0000 -2.5697
# 5 3.1240 0.2631 7.6383 0.0000 28.0803 0.0000
# 6 0.0000 0.0000 0.0000 -2.5697 0.0000 8.4684
#
#
#
# Elastic Compliance Matrix: (Units=1/GPa)
#
#
# Indices 1 2 3 4 5 6 
#
# 1 0.014236 -0.000635 -0.004296 0.000000 -0.000409 0.000000
# 2 -0.000635 0.009252 -0.002658 0.000000 0.000707 0.000000
# 3 -0.004296 -0.002658 0.014089 0.000000 -0.003330 0.000000
# 4 0.000000 0.000000 0.000000 0.200917 0.000000 0.060968
# 5 -0.000409 0.000707 -0.003330 0.000000 0.036557 0.000000
# 6 0.000000 0.000000 0.000000 0.060968 0.000000 0.136587
#
#
# Mechanical properties :
#
#
# Convention : Reuss Voigt Hill
#
# Bulk Modulus (GPa) = 44.64559 46.04692 45.34626
# Shear Modulus (GPa) = 11.51326 22.80980 17.16153
#
# Velocity S-wave (km/s) = 2.42645 3.41533 2.96245
# Velocity P-wave (km/s) = 5.53906 6.25302 5.90683
#
# Compressibility (1/GPa) = 0.02239863
#
# Stress axis : x y z
#
# Youngs Moduli (GPa) = 70.24579 108.08769 70.97488
#
# Poissons Ratio (x) = 0.06861 0.30492
# Poissons Ratio (y) = 0.04459 0.18867
# Poissons Ratio (z) = 0.30178 0.28733
#
# Static dielectric constant tensor:
#      x y z
#    x 1.670960 0.000000 -0.014100 
#    y 0.000000 1.676820 0.000000 
#    z -0.014100 0.000000 1.726830 
# 
# From -- ./inp_files/277089.got.cif
#   From: 2010.05.17/outbox.cif.g08.bks.cpg/sg12_139_cif.got.tgz:277089.got - 2010.06.03 13:09:07.
