data_PCOD9176913
_publ_section_title
;
Structure prediction by ZEFSAII (Michael W. Deem and Ramdas Pophale) SiO2 
 PCOD9176913
Probable space group: C 2/M
;
_chemical_formula_sum "Si O2"
_cell_formula_units_Z 58
_cell_length_a 24.796242
_cell_length_b 17.585794
_cell_length_c 12.806574
_cell_angle_alpha 90.000000
_cell_angle_beta 145.933369
_cell_angle_gamma 90.000000
_cell_volume 3128.169649
_symmetry_space_group_name_H-M "C 2/M"
_symmetry_group_IT_number 12
_symmetry_cell_setting 'monoclinic'
loop_
_space_group_symop_operation_xyz
x,y,z
-x,y,-z
-x,-y,-z
x,-y,z
1/2+x,1/2+y,z
1/2-x,1/2+y,-z
1/2-x,1/2-y,-z
1/2+x,1/2-y,z
loop_
_atom_site_type_symbol
_atom_site_label
_atom_site_fract_x
_atom_site_fract_y
_atom_site_fract_z
Si Si1 0.269728 0.368680 0.229441
Si Si2 0.977955 0.152274 0.639068
Si Si3 0.972675 0.330247 0.575638
Si Si4 0.672238 0.415798 0.901553
Si Si5 0.500000 0.000000 0.000000
Si Si6 0.553819 0.697411 0.981374
Si Si7 0.557065 0.125186 0.928456
Si Si8 0.746987 0.188031 0.788396
O O1 0.370143 0.377374 0.450912
O O2 0.281657 0.407463 0.137305
O O3 0.259560 0.277647 0.197528
O O4 0.170518 0.394628 0.122146
O O5 0.988512 0.238949 0.613449
O O6 0.058960 0.102658 0.712627
O O7 0.005967 0.156810 0.805312
O O8 0.858483 0.340705 0.410598
O O9 0.000000 0.351391 0.500000
O O10 0.029654 0.371514 0.760942
O O11 0.686651 0.500000 0.967225
O O12 0.718056 0.354822 0.052498
O O13 0.500140 0.933333 0.092280
O O14 0.543134 0.788051 0.945011
O O15 0.500000 0.676070 0.000000
O O16 0.667843 0.679404 0.159538
#
# Coordination Sequence:
#
# PCOD9176913 Si02
#       8
#     8   8   8   8   2   8   8   8
#     4  10  19  35  56  84 105 148 192 222 274 336
#     4   9  19  33  56  86 115 141 178 229 286 328
#     4  10  18  36  61  88 109 140 192 237 275 329
#     4  11  21  33  54  83 124 148 170 226 292 356
#     4  12  24  44  50  68 118 154 186 230 284 328
#     4   9  17  36  58  83 104 138 189 238 268 323
#     4  10  22  37  58  78 110 149 186 231 279 324
#     4   9  19  35  57  83 109 145 190 230 276 324
#
# _framework density 18.541194000000001
#
# number of rings (size 3 to 8) (size 9 to 14) (size 15 to 20)
#    0.000    2.207    0.690    4.138    0.966    1.103 
#    3.724    3.103    0.000    6.621    0.000    0.000 
#    0.000    0.000    0.000    0.000    0.000    0.000 
#
# Total GULP energy -161500.141122 kJ/mol
# GULP energy per Si atom -5568.970384 kJ/mol
# Density = 1.849899 g / cm^3
# Si number density = 18.541194 Si / 1000 Ang^3
#
#
#
# Elastic Constant Matrix: (Units=GPa)
#
#
# Indices 1 2 3 4 5 6 
#
# 1 86.2710 2.9200 12.9152 0.0000 -6.2982 0.0000
# 2 2.9200 4.3741 2.5761 0.0000 4.9360 0.0000
# 3 12.9152 2.5761 58.1042 0.0000 13.7763 0.0000
# 4 0.0000 0.0000 0.0000 -11.7809 0.0000 11.1288
# 5 -6.2982 4.9360 13.7763 0.0000 23.4971 0.0000
# 6 0.0000 0.0000 0.0000 11.1288 0.0000 -22.1540
#
#
#
# Elastic Compliance Matrix: (Units=1/GPa)
#
#
# Indices 1 2 3 4 5 6 
#
# 1 0.013624 -0.017764 -0.004636 0.000000 0.010101 0.000000
# 2 -0.017764 0.322996 0.007950 0.000000 -0.077274 0.000000
# 3 -0.004636 0.007950 0.021579 0.000000 -0.015564 0.000000
# 4 0.000000 0.000000 0.000000 -0.161539 0.000000 -0.081147
# 5 0.010101 -0.077274 -0.015564 0.000000 0.070624 0.000000
# 6 0.000000 0.000000 0.000000 -0.081147 0.000000 -0.085902
#
#
# Mechanical properties :
#
#
# Convention : Reuss Voigt Hill
#
# Bulk Modulus (GPa) = 3.03676 20.61910 11.82793
# Shear Modulus (GPa) = 15.62261 6.60166 11.11213
#
# Velocity S-wave (km/s) = 2.90589 1.88898 2.45076
# Velocity P-wave (km/s) = 3.59170 3.98780 3.79492
#
# Compressibility (1/GPa) = 0.32929861
#
# Stress axis : x y z
#
# Youngs Moduli (GPa) = 73.39936 3.09601 46.34217
#
# Poissons Ratio (x) = 0.05500 0.21483
# Poissons Ratio (y) = 1.30387 -0.36841
# Poissons Ratio (z) = 0.34026 -0.02461
#
# Static dielectric constant tensor:
#      x y z
#    x 1.637930 0.000000 0.028700 
#    y 0.000000 1.848380 0.000000 
#    z 0.028700 0.000000 1.658350 
# 
# From -- ./inp_files/168977.got.cif
#   From: 2010.05.17/outbox.cif.g08.bks.cpg/sg12_85_cif.got.tgz:168977.got - 2010.06.03 13:09:07.
