data_PCOD9176016
_publ_section_title
;
Structure prediction by ZEFSAII (Michael W. Deem and Ramdas Pophale) SiO2 
 PCOD9176016
Probable space group: C 2/M
;
_chemical_formula_sum "Si O2"
_cell_formula_units_Z 56
_cell_length_a 7.608595
_cell_length_b 30.825873
_cell_length_c 13.821303
_cell_angle_alpha 90.000000
_cell_angle_beta 52.646713
_cell_angle_gamma 90.000000
_cell_volume 2576.834661
_symmetry_space_group_name_H-M "C 2/M"
_symmetry_group_IT_number 12
_symmetry_cell_setting 'monoclinic'
loop_
_space_group_symop_operation_xyz
x,y,z
-x,y,-z
-x,-y,-z
x,-y,z
1/2+x,1/2+y,z
1/2-x,1/2+y,-z
1/2-x,1/2-y,-z
1/2+x,1/2-y,z
loop_
_atom_site_type_symbol
_atom_site_label
_atom_site_fract_x
_atom_site_fract_y
_atom_site_fract_z
Si Si1 0.574628 0.737920 0.140012
Si Si2 0.787104 0.198626 0.473117
Si Si3 0.728906 0.185007 0.747241
Si Si4 0.694960 0.000000 0.855635
Si Si5 0.808796 0.595036 0.144703
Si Si6 0.338141 0.821138 0.709584
Si Si7 0.112327 0.905240 0.856558
Si Si8 0.885558 0.000000 0.143434
O O1 0.474308 0.783449 0.213497
O O2 0.696946 0.706460 0.174323
O O3 0.351789 0.711929 0.184081
O O4 0.750000 0.750000 0.000000
O O5 0.750000 0.250000 0.500000
O O6 0.728160 0.185379 0.382540
O O7 0.605145 0.177441 0.603541
O O8 0.048961 0.190509 0.388979
O O9 0.675880 0.135436 0.788604
O O10 0.678064 0.047070 0.811962
O O11 0.500000 0.000000 0.000000
O O12 0.921954 0.000000 0.840483
O O13 0.581499 0.597279 0.159334
O O14 0.000000 0.598506 0.000000
O O15 0.273512 0.866388 0.778852
O O16 0.224143 0.952886 0.813145
O O17 0.000000 0.900782 0.000000
O O18 0.000000 0.000000 0.000000
#
# Coordination Sequence:
#
# PCOD9176016 Si02
#       8
#     8   8   8   4   8   8   8   4
#     4  11  21  34  50  75 107 142 172 224 283 328
#     4  10  19  37  54  67  98 148 196 220 257 316
#     4  11  22  36  53  75 107 145 184 228 269 322
#     4   8  16  28  52  71 105 144 176 210 273 335
#     4  10  18  34  50  80 110 142 176 225 276 334
#     4  10  21  35  53  75 103 144 184 226 269 321
#     4  10  19  34  55  83 111 143 177 225 286 341
#     4   8  16  30  52  78 110 141 175 214 272 350
#
# _framework density 21.732088999999998
#
# number of rings (size 3 to 8) (size 9 to 14) (size 15 to 20)
#    0.000    2.000    4.286    1.286    0.000    1.143 
#    0.000    0.000    0.000    2.571    0.000    0.000 
#    0.000    0.000    0.000   26.857    0.000    0.357 
#
# Total GULP energy -156251.632684 kJ/mol
# GULP energy per Si atom -5580.415453 kJ/mol
# Density = 2.168263 g / cm^3
# Si number density = 21.732089 Si / 1000 Ang^3
#
#
#
# Elastic Constant Matrix: (Units=GPa)
#
#
# Indices 1 2 3 4 5 6 
#
# 1 61.9502 -25.2610 15.8289 0.0000 -22.4475 0.0000
# 2 -25.2610 198.9789 67.7939 0.0000 -12.3053 0.0000
# 3 15.8289 67.7939 158.3778 0.0000 -27.3851 0.0000
# 4 0.0000 0.0000 0.0000 2.3124 0.0000 -7.0365
# 5 -22.4475 -12.3053 -27.3851 0.0000 34.2828 0.0000
# 6 0.0000 0.0000 0.0000 -7.0365 0.0000 12.9156
#
#
#
# Elastic Compliance Matrix: (Units=1/GPa)
#
#
# Indices 1 2 3 4 5 6 
#
# 1 0.024371 0.004650 -0.001599 0.000000 0.016349 0.000000
# 2 0.004650 0.006771 -0.002804 0.000000 0.003235 0.000000
# 3 -0.001599 -0.002804 0.008492 0.000000 0.004730 0.000000
# 4 0.000000 0.000000 0.000000 -0.657391 0.000000 -0.358153
# 5 0.016349 0.003235 0.004730 0.000000 0.044813 0.000000
# 6 0.000000 0.000000 0.000000 -0.358153 0.000000 -0.117699
#
#
# Mechanical properties :
#
#
# Convention : Reuss Voigt Hill
#
# Bulk Modulus (GPa) = 24.92054 59.55893 42.23974
# Shear Modulus (GPa) = -7.37723 33.96516 13.29397
#
# Velocity S-wave (km/s) = -1.84445 3.95765 2.47598
# Velocity P-wave (km/s) = 2.63744 6.95338 5.25859
#
# Compressibility (1/GPa) = 0.04012754
#
# Stress axis : x y z
#
# Youngs Moduli (GPa) = 41.03300 147.68159 117.76022
#
# Poissons Ratio (x) = -0.68670 0.18832
# Poissons Ratio (y) = -0.19080 0.33017
# Poissons Ratio (z) = 0.06562 0.41406
#
# Static dielectric constant tensor:
#      x y z
#    x 2.089680 0.000000 0.055860 
#    y 0.000000 2.504580 0.000000 
#    z 0.055860 0.000000 1.736850 
# 
# From -- ./inp_files/200869.got.cif
#   From: 2010.05.17/outbox.cif.g08.bks.cpg/sg12_101_cif.got.tgz:200869.got - 2010.06.03 13:09:07.
