data_PCOD9176245
_publ_section_title
;
Structure prediction by ZEFSAII (Michael W. Deem and Ramdas Pophale) SiO2 
 PCOD9176245
Probable space group: C 2/M
;
_chemical_formula_sum "Si O2"
_cell_formula_units_Z 64
_cell_length_a 20.712093
_cell_length_b 7.840169
_cell_length_c 22.433879
_cell_angle_alpha 90.000000
_cell_angle_beta 59.853118
_cell_angle_gamma 90.000000
_cell_volume 3150.211562
_symmetry_space_group_name_H-M "C 2/M"
_symmetry_group_IT_number 12
_symmetry_cell_setting 'monoclinic'
loop_
_space_group_symop_operation_xyz
x,y,z
-x,y,-z
-x,-y,-z
x,-y,z
1/2+x,1/2+y,z
1/2-x,1/2+y,-z
1/2-x,1/2-y,-z
1/2+x,1/2-y,z
loop_
_atom_site_type_symbol
_atom_site_label
_atom_site_fract_x
_atom_site_fract_y
_atom_site_fract_z
Si Si1 0.866087 0.800246 0.207209
Si Si2 0.730765 0.704973 0.941341
Si Si3 0.634975 0.301000 0.592977
Si Si4 0.082877 0.209378 0.945308
Si Si5 0.523139 0.197307 0.742490
Si Si6 0.858281 0.291036 0.789491
Si Si7 0.796241 0.201772 0.560278
Si Si8 0.200892 0.293534 0.311040
O O1 0.894321 0.731060 0.131233
O O2 0.927855 0.784192 0.229285
O O3 0.786405 0.729286 0.264704
O O4 0.851730 0.000000 0.203118
O O5 0.730487 0.500000 0.936900
O O6 0.648508 0.763971 0.959614
O O7 0.793212 0.765326 0.864978
O O8 0.750000 0.750000 0.000000
O O9 0.615032 0.500000 0.599700
O O10 0.570530 0.210237 0.659742
O O11 0.714304 0.283897 0.590530
O O12 0.652364 0.236368 0.518221
O O13 0.081345 0.000000 0.946283
O O14 0.000000 0.266969 0.000000
O O15 0.439922 0.266719 0.772418
O O16 0.516776 0.000000 0.762702
O O17 0.858286 0.500000 0.789624
O O18 0.841271 0.239225 0.729405
O O19 0.827132 0.233437 0.611714
O O20 0.785672 0.000000 0.556033
O O21 0.200048 0.500000 0.313158
#
# Coordination Sequence:
#
# PCOD9176245 Si02
#       8
#     8   8   8   8   8   8   8   8
#     4  10  19  33  56  81 106 139 184 231 273 318
#     4  10  20  37  57  78 109 145 181 220 269 325
#     4  10  20  35  53  78 112 146 179 218 270 329
#     4   9  18  33  55  82 109 140 181 226 267 318
#     4  11  22  35  54  80 111 144 183 230 274 319
#     4   9  20  38  56  76 109 152 186 217 268 330
#     4  10  20  33  54  83 112 140 175 224 276 321
#     4  10  18  34  58  79 103 145 190 223 262 321
#
# _framework density 20.316096999999999
#
# number of rings (size 3 to 8) (size 9 to 14) (size 15 to 20)
#    0.000    2.125    2.500    1.125    1.750    1.500 
#    0.000    3.750    0.000    4.500    0.000    0.000 
#    0.000    0.000    0.000    0.000    0.000    0.000 
#
# Total GULP energy -178646.652465 kJ/mol
# GULP energy per Si atom -5582.707890 kJ/mol
# Density = 2.026986 g / cm^3
# Si number density = 20.316097 Si / 1000 Ang^3
#
#
#
# Elastic Constant Matrix: (Units=GPa)
#
#
# Indices 1 2 3 4 5 6 
#
# 1 114.6207 -8.9795 45.5095 0.0000 2.4651 -0.0007
# 2 -8.9795 20.8186 -6.5747 0.0008 -3.0916 -0.0031
# 3 45.5095 -6.5747 102.1157 0.0001 15.9039 -0.0001
# 4 0.0000 0.0008 0.0001 15.4847 0.0001 6.9034
# 5 2.4651 -3.0916 15.9039 0.0001 31.5527 0.0002
# 6 -0.0007 -0.0031 -0.0001 6.9034 0.0002 18.8492
#
#
#
# Elastic Compliance Matrix: (Units=1/GPa)
#
#
# Indices 1 2 3 4 5 6 
#
# 1 0.010918 0.003439 -0.004953 -0.000001 0.001980 0.000001
# 2 0.003439 0.050470 0.001073 -0.000008 0.004136 0.000011
# 3 -0.004953 0.001073 0.013014 0.000000 -0.006068 0.000000
# 4 -0.000001 -0.000008 0.000000 0.077182 -0.000001 -0.028268
# 5 0.001980 0.004136 -0.006068 -0.000001 0.035002 0.000001
# 6 0.000001 0.000011 0.000000 -0.028268 0.000001 0.063405
#
#
# Mechanical properties :
#
#
# Convention : Reuss Voigt Hill
#
# Bulk Modulus (GPa) = 13.60171 33.05174 23.32673
# Shear Modulus (GPa) = 18.15675 27.01733 22.58704
#
# Velocity S-wave (km/s) = 2.99275 3.65066 3.33795
# Velocity P-wave (km/s) = 4.31875 5.83728 5.13447
#
# Compressibility (1/GPa) = 0.07352016
#
# Stress axis : x y z
#
# Youngs Moduli (GPa) = 91.59462 19.81369 76.83976
#
# Poissons Ratio (x) = -0.06814 0.38056
# Poissons Ratio (y) = -0.31499 -0.08243
# Poissons Ratio (z) = 0.45364 -0.02126
#
# Static dielectric constant tensor:
#      x y z
#    x 1.694190 0.000000 -0.001010 
#    y 0.000000 1.748370 0.000000 
#    z -0.001010 0.000000 1.722820 
# 
# From -- ./inp_files/319929.got.cif
#   From: 2010.05.17/outbox.cif.g08.bks.cpg/sg12_160_cif.got.tgz:319929.got - 2010.06.03 13:09:07.
