data_PCOD9176155
_publ_section_title
;
Structure prediction by ZEFSAII (Michael W. Deem and Ramdas Pophale) SiO2 
 PCOD9176155
Probable space group: C 2/M
;
_chemical_formula_sum "Si O2"
_cell_formula_units_Z 64
_cell_length_a 20.463124
_cell_length_b 17.722082
_cell_length_c 12.719231
_cell_angle_alpha 90.000000
_cell_angle_beta 50.660971
_cell_angle_gamma 90.000000
_cell_volume 3567.438695
_symmetry_space_group_name_H-M "C 2/M"
_symmetry_group_IT_number 12
_symmetry_cell_setting 'monoclinic'
loop_
_space_group_symop_operation_xyz
x,y,z
-x,y,-z
-x,-y,-z
x,-y,z
1/2+x,1/2+y,z
1/2-x,1/2+y,-z
1/2-x,1/2-y,-z
1/2+x,1/2-y,z
loop_
_atom_site_type_symbol
_atom_site_label
_atom_site_fract_x
_atom_site_fract_y
_atom_site_fract_z
Si Si1 0.100553 0.087916 0.760964
Si Si2 0.276354 0.587121 0.170403
Si Si3 0.635212 0.182747 0.611571
Si Si4 0.806308 0.847410 0.529865
Si Si5 0.405626 0.135774 0.571718
Si Si6 0.006291 0.236286 0.114999
Si Si7 0.831783 0.801486 0.933963
Si Si8 0.904392 0.185703 0.629866
O O1 0.168337 0.110890 0.782980
O O2 0.145212 0.100023 0.602795
O O3 0.025339 0.148896 0.841969
O O4 0.076626 0.000000 0.799558
O O5 0.294762 0.500000 0.137100
O O6 0.176841 0.598318 0.293520
O O7 0.304198 0.631824 0.039378
O O8 0.707041 0.145512 0.609878
O O9 0.671168 0.261243 0.526520
O O10 0.608968 0.133894 0.538481
O O11 0.556276 0.210084 0.758281
O O12 0.840387 0.853288 0.613085
O O13 0.500000 0.107078 0.500000
O O14 0.402702 0.223528 0.612588
O O15 0.097669 0.243165 0.072194
O O16 0.000000 0.254935 0.000000
O O17 0.875208 0.825995 0.779607
O O18 0.750000 0.750000 0.000000
O O19 0.000000 0.162366 0.500000
#
# Coordination Sequence:
#
# PCOD9176155 Si02
#       8
#     8   8   8   8   8   8   8   8
#     4  10  20  37  58  83 117 153 193 238 288 353
#     4  11  23  38  57  86 121 158 194 242 301 356
#     4   9  18  29  51  81 110 140 187 243 284 331
#     4   9  17  31  55  78 106 143 186 237 281 327
#     4  10  18  34  56  82 114 148 190 239 296 350
#     4  11  22  34  53  84 116 151 196 239 292 352
#     4  12  24  38  58  85 122 158 193 242 298 352
#     4  10  20  35  57  84 113 147 189 237 292 342
#
# _framework density 17.940041999999998
#
# number of rings (size 3 to 8) (size 9 to 14) (size 15 to 20)
#    0.000    1.750    3.750    3.000    3.500    1.000 
#    0.000    0.625    0.000    1.500    0.000    0.000 
#    0.000    2.500    0.000    0.000    0.000    0.000 
#
# Total GULP energy -178506.566213 kJ/mol
# GULP energy per Si atom -5578.330194 kJ/mol
# Density = 1.789921 g / cm^3
# Si number density = 17.940042 Si / 1000 Ang^3
#
#
#
# Elastic Constant Matrix: (Units=GPa)
#
#
# Indices 1 2 3 4 5 6 
#
# 1 142.9934 9.0746 62.1510 0.0000 3.1487 0.0000
# 2 9.0746 13.4295 7.0209 0.0000 5.2420 0.0000
# 3 62.1510 7.0209 111.2140 0.0000 15.7479 0.0000
# 4 0.0000 0.0000 0.0000 8.0649 0.0000 3.3438
# 5 3.1487 5.2420 15.7479 0.0000 36.6058 0.0000
# 6 0.0000 0.0000 0.0000 3.3438 0.0000 13.0204
#
#
#
# Elastic Compliance Matrix: (Units=1/GPa)
#
#
# Indices 1 2 3 4 5 6 
#
# 1 0.009562 -0.004488 -0.005361 0.000000 0.002127 0.000000
# 2 -0.004488 0.082355 -0.001145 0.000000 -0.010914 0.000000
# 3 -0.005361 -0.001145 0.012748 0.000000 -0.004859 0.000000
# 4 0.000000 0.000000 0.000000 0.138769 0.000000 -0.035638
# 5 0.002127 -0.010914 -0.004859 0.000000 0.030788 0.000000
# 6 0.000000 0.000000 0.000000 -0.035638 0.000000 0.085955
#
#
# Mechanical properties :
#
#
# Convention : Reuss Voigt Hill
#
# Bulk Modulus (GPa) = 12.09558 47.12555 29.61056
# Shear Modulus (GPa) = 12.20332 24.16426 18.18379
#
# Velocity S-wave (km/s) = 2.61095 3.67406 3.18714
# Velocity P-wave (km/s) = 3.98074 6.65760 5.48498
#
# Compressibility (1/GPa) = 0.08267482
#
# Stress axis : x y z
#
# Youngs Moduli (GPa) = 104.58578 12.14260 78.44321
#
# Poissons Ratio (x) = 0.05450 0.42055
# Poissons Ratio (y) = 0.46941 0.08984
# Poissons Ratio (z) = 0.56070 0.01391
#
# Static dielectric constant tensor:
#      x y z
#    x 1.644770 0.000000 -0.005970 
#    y 0.000000 1.596100 0.000000 
#    z -0.005970 0.000000 1.618800 
# 
# From -- ./inp_files/159553.got.cif
#   From: 2010.05.17/outbox.cif.g08.bks.cpg/sg12_80_cif.got.tgz:159553.got - 2010.06.03 13:09:07.
