data_PCOD9176168
_publ_section_title
;
Structure prediction by ZEFSAII (Michael W. Deem and Ramdas Pophale) SiO2 
 PCOD9176168
Probable space group: C 2/M
;
_chemical_formula_sum "Si O2"
_cell_formula_units_Z 40
_cell_length_a 8.624385
_cell_length_b 26.919834
_cell_length_c 14.881492
_cell_angle_alpha 90.000000
_cell_angle_beta 153.198428
_cell_angle_gamma 90.000000
_cell_volume 1557.862699
_symmetry_space_group_name_H-M "C 2/M"
_symmetry_group_IT_number 12
_symmetry_cell_setting 'monoclinic'
loop_
_space_group_symop_operation_xyz
x,y,z
-x,y,-z
-x,-y,-z
x,-y,z
1/2+x,1/2+y,z
1/2-x,1/2+y,-z
1/2-x,1/2-y,-z
1/2+x,1/2-y,z
loop_
_atom_site_type_symbol
_atom_site_label
_atom_site_fract_x
_atom_site_fract_y
_atom_site_fract_z
Si Si1 0.930796 0.053808 0.858054
Si Si2 0.708573 0.720987 0.750898
Si Si3 0.077973 0.138075 0.285638
Si Si4 0.023927 0.310041 0.285890
Si Si5 0.776292 0.084031 0.466731
O O1 0.028436 0.102360 0.851107
O O2 0.515965 0.051582 0.639217
O O3 0.074562 0.000000 0.902046
O O4 0.000000 0.058179 0.000000
O O5 0.618803 0.689111 0.793655
O O6 0.985836 0.702441 0.823613
O O7 0.368382 0.710654 0.513736
O O8 0.746493 0.778275 0.797393
O O9 0.500000 0.146291 0.500000
O O10 0.004250 0.106158 0.338169
O O11 0.064633 0.368409 0.318757
O O12 0.000000 0.063922 0.500000
#
# Coordination Sequence:
#
# PCOD9176168 Si02
#       5
#     8   8   8   8   8
#     4  10  23  41  58  76 104 145 186 225 280 339
#     4   9  16  24  43  78 114 144 171 217 260 311
#     4   9  18  30  54  80 108 140 182 222 268 316
#     4   9  16  25  44  79 118 140 172 214 264 310
#     4  10  18  34  56  87 113 135 177 230 269 312
#
# _framework density 25.676203999999998
#
# number of rings (size 3 to 8) (size 9 to 14) (size 15 to 20)
#    0.000    2.600    4.000    0.000   11.200    4.000 
#    0.000    1.000    0.000    3.600    0.000    0.000 
#    0.000    0.000    0.000    0.000    0.000    0.000 
#
# Total GULP energy -111597.594525 kJ/mol
# GULP energy per Si atom -5579.879726 kJ/mol
# Density = 2.561776 g / cm^3
# Si number density = 25.676204 Si / 1000 Ang^3
#
#
#
# Elastic Constant Matrix: (Units=GPa)
#
#
# Indices 1 2 3 4 5 6 
#
# 1 127.1507 40.0690 15.0332 0.0000 -23.7660 0.0000
# 2 40.0690 130.7949 9.9505 0.0000 -11.5728 0.0000
# 3 15.0332 9.9505 64.5954 0.0000 -6.5748 0.0000
# 4 0.0000 0.0000 0.0000 0.3230 0.0000 -15.0115
# 5 -23.7660 -11.5728 -6.5748 0.0000 38.3581 0.0000
# 6 0.0000 0.0000 0.0000 -15.0115 0.0000 72.7815
#
#
#
# Elastic Compliance Matrix: (Units=1/GPa)
#
#
# Indices 1 2 3 4 5 6 
#
# 1 0.009740 -0.002431 -0.001377 0.000000 0.005066 0.000000
# 2 -0.002431 0.008524 -0.000650 0.000000 0.000954 0.000000
# 3 -0.001377 -0.000650 0.016075 0.000000 0.001706 0.000000
# 4 0.000000 0.000000 0.000000 -0.360596 0.000000 -0.074375
# 5 0.005066 0.000954 0.001706 0.000000 0.029789 0.000000
# 6 0.000000 0.000000 0.000000 -0.074375 0.000000 -0.001600
#
#
# Mechanical properties :
#
#
# Convention : Reuss Voigt Hill
#
# Bulk Modulus (GPa) = 39.33331 50.29401 44.81366
# Shear Modulus (GPa) = -17.81409 39.45842 10.82217
#
# Velocity S-wave (km/s) = -2.63686 3.92442 2.05524
# Velocity P-wave (km/s) = 2.46607 6.33759 4.80867
#
# Compressibility (1/GPa) = 0.02542374
#
# Stress axis : x y z
#
# Youngs Moduli (GPa) = 102.66566 117.31324 62.20755
#
# Poissons Ratio (x) = 0.28519 0.08565
# Poissons Ratio (y) = 0.24958 0.04045
# Poissons Ratio (z) = 0.14135 0.07628
#
# Static dielectric constant tensor:
#      x y z
#    x 2.064820 0.000000 0.040750 
#    y 0.000000 2.066680 0.000000 
#    z 0.040750 0.000000 2.136480 
# 
# From -- ./inp_files/199512.got.cif
#   From: 2010.05.17/outbox.cif.g08.bks.cpg/sg12_100_cif.got.tgz:199512.got - 2010.06.03 13:09:07.
