data_PCOD9176699
_publ_section_title
;
Structure prediction by ZEFSAII (Michael W. Deem and Ramdas Pophale) SiO2 
 PCOD9176699
Probable space group: C 2/M
;
_chemical_formula_sum "Si O2"
_cell_formula_units_Z 56
_cell_length_a 15.391959
_cell_length_b 8.473989
_cell_length_c 23.690122
_cell_angle_alpha 90.000000
_cell_angle_beta 64.400438
_cell_angle_gamma 90.000000
_cell_volume 2786.612473
_symmetry_space_group_name_H-M "C 2/M"
_symmetry_group_IT_number 12
_symmetry_cell_setting 'monoclinic'
loop_
_space_group_symop_operation_xyz
x,y,z
-x,y,-z
-x,-y,-z
x,-y,z
1/2+x,1/2+y,z
1/2-x,1/2+y,-z
1/2-x,1/2-y,-z
1/2+x,1/2-y,z
loop_
_atom_site_type_symbol
_atom_site_label
_atom_site_fract_x
_atom_site_fract_y
_atom_site_fract_z
Si Si1 0.318867 0.813067 0.930974
Si Si2 0.353038 0.813227 0.715492
Si Si3 0.717948 0.184853 0.848624
Si Si4 0.490745 0.687198 0.068285
Si Si5 0.728980 0.312986 0.374490
Si Si6 0.900451 0.688088 0.494013
Si Si7 0.932909 0.692027 0.356089
O O1 0.284083 0.734607 0.882892
O O2 0.427649 0.771305 0.917739
O O3 0.306975 0.000000 0.929309
O O4 0.250000 0.750000 0.000000
O O5 0.276334 0.726547 0.776022
O O6 0.328011 0.780813 0.657346
O O7 0.462577 0.756179 0.694412
O O8 0.348318 0.000000 0.728375
O O9 0.616727 0.275281 0.881332
O O10 0.697292 0.000000 0.857301
O O11 0.508800 0.500000 0.065284
O O12 0.500000 0.737806 0.000000
O O13 0.722942 0.500000 0.364852
O O14 0.682034 0.276856 0.448314
O O15 0.840680 0.263173 0.345249
O O16 0.879561 0.500000 0.499584
O O17 0.915129 0.742680 0.425736
O O18 0.000000 0.710973 0.500000
O O19 0.935602 0.500000 0.356765
#
# Coordination Sequence:
#
# PCOD9176699 Si02
#       7
#     8   8   8   8   8   8   8
#     4  12  24  41  67  99 132 169 209 258 315 375
#     4  11  23  44  65  84 119 169 213 252 309 380
#     4  12  26  44  66  96 132 168 212 265 320 383
#     4  11  23  41  68  99 130 166 211 259 313 377
#     4  11  22  37  59  91 124 155 203 263 318 367
#     4  10  18  35  61  87 117 160 207 249 308 379
#     4   9  20  38  61  86 119 162 205 252 308 374
#
# _framework density 20.096084000000001
#
# number of rings (size 3 to 8) (size 9 to 14) (size 15 to 20)
#    0.000    1.143    2.857    4.286    0.000    2.000 
#    0.000    7.857    0.000    0.000    0.000    0.000 
#    0.000    0.000    0.000    0.000    0.000    0.000 
#
# Total GULP energy -156607.294625 kJ/mol
# GULP energy per Si atom -5593.117665 kJ/mol
# Density = 2.005034 g / cm^3
# Si number density = 20.096084 Si / 1000 Ang^3
#
#
#
# Elastic Constant Matrix: (Units=GPa)
#
#
# Indices 1 2 3 4 5 6 
#
# 1 75.6698 -12.5699 -1.0559 0.0000 -23.1723 0.0000
# 2 -12.5699 28.2187 -12.3252 0.0000 1.7664 0.0000
# 3 -1.0559 -12.3252 63.7028 0.0000 -20.7631 0.0000
# 4 0.0000 0.0000 0.0000 30.5448 0.0000 -0.1533
# 5 -23.1723 1.7664 -20.7631 0.0000 28.7944 0.0000
# 6 0.0000 0.0000 0.0000 -0.1533 0.0000 25.9440
#
#
#
# Elastic Compliance Matrix: (Units=1/GPa)
#
#
# Indices 1 2 3 4 5 6 
#
# 1 0.024068 0.014267 0.012010 0.000000 0.027153 0.000000
# 2 0.014267 0.047513 0.015976 0.000000 0.020087 0.000000
# 3 0.012010 0.015976 0.028522 0.000000 0.029251 0.000000
# 4 0.000000 0.000000 0.000000 0.032740 0.000000 0.000193
# 5 0.027153 0.020087 0.029251 0.000000 0.076441 0.000000
# 6 0.000000 0.000000 0.000000 0.000193 0.000000 0.038546
#
#
# Mechanical properties :
#
#
# Convention : Reuss Voigt Hill
#
# Bulk Modulus (GPa) = 5.41687 12.85437 9.13562
# Shear Modulus (GPa) = 22.23596 29.95944 26.09770
#
# Velocity S-wave (km/s) = 3.32999 3.86529 3.60758
# Velocity P-wave (km/s) = 4.18168 5.13137 4.68067
#
# Compressibility (1/GPa) = 0.18460844
#
# Stress axis : x y z
#
# Youngs Moduli (GPa) = 41.54901 21.04678 35.06041
#
# Poissons Ratio (x) = -0.30027 -0.42106
# Poissons Ratio (y) = -0.59277 -0.56014
# Poissons Ratio (z) = -0.49898 -0.33625
#
# Static dielectric constant tensor:
#      x y z
#    x 1.689240 0.000000 0.009910 
#    y 0.000000 1.683420 0.000000 
#    z 0.009910 0.000000 1.691470 
# 
# From -- ./inp_files/338586.got.cif
#   From: 2010.05.17/outbox.cif.g08.bks.cpg/sg12_170_cif.got.tgz:338586.got - 2010.06.03 13:09:07.
