data_PCOD9176314
_publ_section_title
;
Structure prediction by ZEFSAII (Michael W. Deem and Ramdas Pophale) SiO2 
 PCOD9176314
Probable space group: C 2/M
;
_chemical_formula_sum "Si O2"
_cell_formula_units_Z 64
_cell_length_a 17.191984
_cell_length_b 26.550588
_cell_length_c 20.934621
_cell_angle_alpha 90.000000
_cell_angle_beta 160.057072
_cell_angle_gamma 90.000000
_cell_volume 3259.316462
_symmetry_space_group_name_H-M "C 2/M"
_symmetry_group_IT_number 12
_symmetry_cell_setting 'monoclinic'
loop_
_space_group_symop_operation_xyz
x,y,z
-x,y,-z
-x,-y,-z
x,-y,z
1/2+x,1/2+y,z
1/2-x,1/2+y,-z
1/2-x,1/2-y,-z
1/2+x,1/2-y,z
loop_
_atom_site_type_symbol
_atom_site_label
_atom_site_fract_x
_atom_site_fract_y
_atom_site_fract_z
Si Si1 0.618270 0.943452 0.404927
Si Si2 0.916050 0.682433 0.007123
Si Si3 0.948048 0.145003 0.633354
Si Si4 0.835128 0.689212 0.469070
Si Si5 0.203799 0.420625 0.614316
Si Si6 0.807755 0.296633 0.664489
Si Si7 0.890948 0.896829 0.986577
Si Si8 0.697194 0.208457 0.855658
O O1 0.797060 0.905154 0.510974
O O2 0.697719 0.944209 0.539956
O O3 0.364219 0.919535 0.208662
O O4 0.615297 0.000000 0.376814
O O5 0.714276 0.641409 0.853156
O O6 0.808828 0.736895 0.942644
O O7 0.000000 0.685513 0.000000
O O8 0.111021 0.674834 0.209985
O O9 0.844413 0.176188 0.613126
O O10 0.900389 0.177599 0.533475
O O11 0.848096 0.638675 0.438663
O O12 0.758755 0.738927 0.373487
O O13 0.063653 0.700846 0.685508
O O14 0.000000 0.440855 0.500000
O O15 0.440150 0.424328 0.834180
O O16 0.015565 0.296364 0.773236
O O17 0.868848 0.838475 0.990720
O O18 0.000000 0.899918 0.000000
#
# Coordination Sequence:
#
# PCOD9176314 Si02
#       8
#     8   8   8   8   8   8   8   8
#     4  11  25  43  64  87 109 149 208 263 305 355
#     4  12  25  35  55  93 124 157 199 242 292 360
#     4  10  21  41  59  80 118 151 200 250 302 354
#     4  10  18  34  59  82 117 162 209 235 272 344
#     4  11  22  38  56  85 125 167 193 235 298 347
#     4  11  20  36  60  82 117 169 198 238 289 348
#     4  12  22  38  58  87 125 162 201 247 290 347
#     4  11  19  36  58  87 120 165 207 232 278 350
#
# _framework density 19.636019999999998
#
# number of rings (size 3 to 8) (size 9 to 14) (size 15 to 20)
#    0.000    1.000    7.500    2.250    3.500    2.500 
#    0.000    0.000    0.000    0.375    0.000    0.875 
#    0.000    0.000    0.000    0.000    0.000    0.000 
#
# Total GULP energy -178849.472715 kJ/mol
# GULP energy per Si atom -5589.046022 kJ/mol
# Density = 1.959133 g / cm^3
# Si number density = 19.636020 Si / 1000 Ang^3
#
#
#
# Elastic Constant Matrix: (Units=GPa)
#
#
# Indices 1 2 3 4 5 6 
#
# 1 35.4760 0.8082 9.7124 0.0383 -11.0761 0.0370
# 2 0.8082 95.5488 12.3453 0.0261 8.7647 0.0268
# 3 9.7124 12.3453 76.1590 0.1347 -10.4499 0.1215
# 4 0.0383 0.0261 0.1347 14.1272 0.0412 6.1869
# 5 -11.0761 8.7647 -10.4499 0.0412 20.6894 0.0290
# 6 0.0370 0.0268 0.1215 6.1869 0.0290 1.2727
#
#
#
# Elastic Compliance Matrix: (Units=1/GPa)
#
#
# Indices 1 2 3 4 5 6 
#
# 1 0.034395 -0.001772 -0.001579 -0.000364 0.018366 0.000537
# 2 -0.001772 0.011472 -0.002612 0.000060 -0.007128 -0.000070
# 3 -0.001579 -0.002612 0.014818 -0.000441 0.007745 0.000653
# 4 -0.000364 0.000060 -0.000441 -0.062678 -0.000745 0.304768
# 5 0.018366 -0.007128 0.007745 -0.000745 0.065098 0.001017
# 6 0.000537 -0.000070 0.000653 0.304768 0.001017 -0.695936
#
#
# Mechanical properties :
#
#
# Convention : Reuss Voigt Hill
#
# Bulk Modulus (GPa) = 20.50889 28.10174 24.30531
# Shear Modulus (GPa) = -8.26921 19.50569 5.61824
#
# Velocity S-wave (km/s) = -2.05436 3.15519 1.69334
# Velocity P-wave (km/s) = 2.20000 5.25509 4.02840
#
# Compressibility (1/GPa) = 0.04875934
#
# Stress axis : x y z
#
# Youngs Moduli (GPa) = 29.07409 87.16800 67.48722
#
# Poissons Ratio (x) = 0.15443 0.10658
# Poissons Ratio (y) = 0.05151 0.17625
# Poissons Ratio (z) = 0.04592 0.22765
#
# Static dielectric constant tensor:
#      x y z
#    x 1.678700 0.000010 0.008520 
#    y 0.000010 1.698510 0.000000 
#    z 0.008520 0.000000 1.725640 
# 
# From -- ./inp_files/318386.got.cif
#   From: 2010.05.17/outbox.cif.g08.bks.cpg/sg12_160_cif.got.tgz:318386.got - 2010.06.03 13:09:07.
