data_PCOD9176955
_publ_section_title
;
Structure prediction by ZEFSAII (Michael W. Deem and Ramdas Pophale) SiO2 
 PCOD9176955
Probable space group: C 2/M
;
_chemical_formula_sum "Si O2"
_cell_formula_units_Z 38
_cell_length_a 15.589398
_cell_length_b 21.732668
_cell_length_c 9.601358
_cell_angle_alpha 90.000000
_cell_angle_beta 36.106717
_cell_angle_gamma 90.000000
_cell_volume 1916.924105
_symmetry_space_group_name_H-M "C 2/M"
_symmetry_group_IT_number 12
_symmetry_cell_setting 'monoclinic'
loop_
_space_group_symop_operation_xyz
x,y,z
-x,y,-z
-x,-y,-z
x,-y,z
1/2+x,1/2+y,z
1/2-x,1/2+y,-z
1/2-x,1/2-y,-z
1/2+x,1/2-y,z
loop_
_atom_site_type_symbol
_atom_site_label
_atom_site_fract_x
_atom_site_fract_y
_atom_site_fract_z
Si Si1 0.500000 0.714129 0.000000
Si Si2 0.846371 0.000000 0.284399
Si Si3 0.456233 0.166252 0.907209
Si Si4 0.717703 0.900910 0.082912
Si Si5 0.234640 0.366001 0.362487
Si Si6 0.463211 0.500000 0.709635
Si Si7 0.000000 0.500000 0.500000
O O1 0.434358 0.762217 0.974271
O O2 0.623427 0.670899 0.774022
O O3 0.758121 0.939119 0.358031
O O4 0.893623 0.000000 0.382491
O O5 0.000000 0.000000 0.000000
O O6 0.322996 0.134465 0.004177
O O7 0.594042 0.158209 0.625457
O O8 0.500000 0.137420 0.000000
O O9 0.729360 0.858069 0.203197
O O10 0.586717 0.946873 0.295346
O O11 0.863735 0.941043 0.877247
O O12 0.500000 0.500000 0.500000
#
# Coordination Sequence:
#
# PCOD9176955 Si02
#       7
#     4   4   8   8   8   4   2
#     4  10  24  41  64  91 128 170 212 258 312 368
#     4  12  22  40  65 101 118 168 204 261 323 368
#     4  10  25  40  60  95 127 168 210 261 316 359
#     4  11  21  40  63  91 124 167 213 255 312 379
#     4  12  21  43  70  89 129 164 220 255 309 389
#     4  11  25  37  58  95 134 162 201 260 325 378
#     4  10  18  36  64  88 118 154 208 254 292 370
#
# _framework density 19.823423999999999
#
# number of rings (size 3 to 8) (size 9 to 14) (size 15 to 20)
#    0.632    0.421    5.263    1.263    2.947    0.842 
#    0.000    2.632    0.000    0.000    0.000    0.000 
#    0.000    0.000    0.000    0.000    0.000    0.000 
#
# Total GULP energy -105803.247072 kJ/mol
# GULP energy per Si atom -5568.591951 kJ/mol
# Density = 1.977830 g / cm^3
# Si number density = 19.823424 Si / 1000 Ang^3
#
#
#
# Elastic Constant Matrix: (Units=GPa)
#
#
# Indices 1 2 3 4 5 6 
#
# 1 111.1364 17.2269 -3.1128 -0.0002 24.5422 0.0000
# 2 17.2269 95.6177 -2.5206 -0.0001 -2.2765 0.0000
# 3 -3.1128 -2.5206 56.6438 -0.0003 13.3883 0.0000
# 4 -0.0002 -0.0001 -0.0003 -22.1582 0.0002 12.9617
# 5 24.5422 -2.2765 13.3883 0.0002 36.0659 0.0000
# 6 0.0000 0.0000 0.0000 12.9617 0.0000 10.5570
#
#
#
# Elastic Compliance Matrix: (Units=1/GPa)
#
#
# Indices 1 2 3 4 5 6 
#
# 1 0.011363 -0.002189 0.002617 0.000000 -0.008842 0.000000
# 2 -0.002189 0.010902 -0.000164 0.000000 0.002238 0.000000
# 3 0.002617 -0.000164 0.019966 0.000000 -0.009203 0.000000
# 4 0.000000 0.000000 0.000000 -0.026266 0.000000 0.032249
# 5 -0.008842 0.002238 -0.009203 0.000000 0.037301 0.000000
# 6 0.000000 0.000000 0.000000 0.032249 0.000000 0.055129
#
#
# Mechanical properties :
#
#
# Convention : Reuss Voigt Hill
#
# Bulk Modulus (GPa) = 23.38723 31.84278 27.61501
# Shear Modulus (GPa) = 40.94315 21.67990 31.31152
#
# Velocity S-wave (km/s) = 4.54959 3.31063 3.97863
# Velocity P-wave (km/s) = 6.27867 5.54182 5.92172
#
# Compressibility (1/GPa) = 0.04275838
#
# Stress axis : x y z
#
# Youngs Moduli (GPa) = 88.00425 91.72952 50.08556
#
# Poissons Ratio (x) = 0.20077 -0.13107
# Poissons Ratio (y) = 0.19262 0.00823
# Poissons Ratio (z) = -0.23030 0.01507
#
# Static dielectric constant tensor:
#      x y z
#    x 1.769150 0.000000 -0.007960 
#    y 0.000000 1.692700 0.000000 
#    z -0.007960 0.000000 1.655690 
# 
# From -- ./inp_files/65139.got.cif
#   From: 2010.05.17/outbox.cif.g08.bks.cpg/sg12_33_cif.got.tgz:65139.got - 2010.06.03 13:09:07.
