data_PCOD9176943
_publ_section_title
;
Structure prediction by ZEFSAII (Michael W. Deem and Ramdas Pophale) SiO2 
 PCOD9176943
Probable space group: C 2/M
;
_chemical_formula_sum "Si O2"
_cell_formula_units_Z 52
_cell_length_a 14.768669
_cell_length_b 14.209601
_cell_length_c 10.856693
_cell_angle_alpha 90.000000
_cell_angle_beta 100.316279
_cell_angle_gamma 90.000000
_cell_volume 2241.520481
_symmetry_space_group_name_H-M "C 2/M"
_symmetry_group_IT_number 12
_symmetry_cell_setting 'monoclinic'
loop_
_space_group_symop_operation_xyz
x,y,z
-x,y,-z
-x,-y,-z
x,-y,z
1/2+x,1/2+y,z
1/2-x,1/2+y,-z
1/2-x,1/2-y,-z
1/2+x,1/2-y,z
loop_
_atom_site_type_symbol
_atom_site_label
_atom_site_fract_x
_atom_site_fract_y
_atom_site_fract_z
Si Si1 0.667839 0.188803 0.920688
Si Si2 0.694620 0.663010 0.739255
Si Si3 0.397555 0.316368 0.532729
Si Si4 0.606714 0.500000 0.297382
Si Si5 0.090988 0.000000 0.855722
Si Si6 0.596011 0.110357 0.135081
Si Si7 0.568682 0.892074 0.398047
Si Si8 0.228692 0.000000 0.107665
O O1 0.656787 0.239457 0.787275
O O2 0.710951 0.088720 0.908042
O O3 0.750000 0.250000 0.000000
O O4 0.592233 0.172782 0.008924
O O5 0.673867 0.659710 0.591378
O O6 0.631977 0.588481 0.794491
O O7 0.800163 0.636333 0.793115
O O8 0.500000 0.318001 0.500000
O O9 0.395459 0.402283 0.628151
O O10 0.380951 0.208893 0.571922
O O11 0.517437 0.500000 0.187497
O O12 0.698013 0.500000 0.239756
O O13 0.137990 0.000000 0.000025
O O14 0.535269 0.119334 0.245741
O O15 0.591762 0.000000 0.099847
O O16 0.500000 0.894412 0.500000
O O17 0.610305 0.000000 0.407763
#
# Coordination Sequence:
#
# PCOD9176943 Si02
#       8
#     8   8   8   4   4   8   8   4
#     4  10  20  37  62  90 130 165 209 272 325 385
#     4  11  21  36  64  92 124 170 217 265 321 395
#     4  11  23  42  62  85 131 172 218 269 326 397
#     4  12  27  38  65  98 134 182 217 268 336 396
#     4  12  20  42  64  93 132 170 223 262 329 398
#     4  10  18  36  63  88 120 164 209 261 332 389
#     4   9  21  40  62  87 118 167 219 267 329 392
#     4  12  23  43  60 102 136 165 219 283 328 398
#
# _framework density 23.198539
#
# number of rings (size 3 to 8) (size 9 to 14) (size 15 to 20)
#    0.000    1.385    6.154    0.923    4.308    0.615 
#    1.385    0.000    0.000    0.000    0.000    9.692 
#    0.000    0.000    0.000    0.000    0.000    0.000 
#
# Total GULP energy -145039.809025 kJ/mol
# GULP energy per Si atom -5578.454193 kJ/mol
# Density = 2.314574 g / cm^3
# Si number density = 23.198539 Si / 1000 Ang^3
#
#
#
# Elastic Constant Matrix: (Units=GPa)
#
#
# Indices 1 2 3 4 5 6 
#
# 1 90.2620 29.8791 30.9435 0.0000 -18.3915 0.0000
# 2 29.8791 167.7630 32.2012 0.0000 -13.9402 0.0000
# 3 30.9435 32.2012 84.1766 0.0000 -24.1320 0.0000
# 4 0.0000 0.0000 0.0000 63.2086 0.0000 3.3755
# 5 -18.3915 -13.9402 -24.1320 0.0000 39.3308 0.0000
# 6 0.0000 0.0000 0.0000 3.3755 0.0000 -9.0116
#
#
#
# Elastic Compliance Matrix: (Units=1/GPa)
#
#
# Indices 1 2 3 4 5 6 
#
# 1 0.013459 -0.001449 -0.003320 0.000000 0.003743 0.000000
# 2 -0.001449 0.006618 -0.001845 0.000000 0.000536 0.000000
# 3 -0.003320 -0.001845 0.015985 0.000000 0.007601 0.000000
# 4 0.000000 0.000000 0.000000 0.015510 0.000000 0.005810
# 5 0.003743 0.000536 0.007601 0.000000 0.032029 0.000000
# 6 0.000000 0.000000 0.000000 0.005810 0.000000 -0.108793
#
#
# Mechanical properties :
#
#
# Convention : Reuss Voigt Hill
#
# Bulk Modulus (GPa) = 43.79560 58.69436 51.24498
# Shear Modulus (GPa) = -1149.41662 35.31743 -557.04959
#
# Velocity S-wave (km/s) = -22.28329 3.90603 -15.51270
# Velocity P-wave (km/s) = 25.36021 6.76007 17.28355
#
# Compressibility (1/GPa) = 0.02283334
#
# Stress axis : x y z
#
# Youngs Moduli (GPa) = 74.29749 151.11346 62.55675
#
# Poissons Ratio (x) = 0.21893 0.20772
# Poissons Ratio (y) = 0.10764 0.11544
# Poissons Ratio (z) = 0.24670 0.27885
#
# Static dielectric constant tensor:
#      x y z
#    x 1.894200 0.000000 0.024310 
#    y 0.000000 1.820490 0.000000 
#    z 0.024310 0.000000 1.942370 
# 
# From -- ./inp_files/85869.got.cif
#   From: 2010.05.17/outbox.cif.g08.bks.cpg/sg12_43_cif.got.tgz:85869.got - 2010.06.03 13:09:07.
