data_PCOD9176205
_publ_section_title
;
Structure prediction by ZEFSAII (Michael W. Deem and Ramdas Pophale) SiO2 
 PCOD9176205
Probable space group: C 2/M
;
_chemical_formula_sum "Si O2"
_cell_formula_units_Z 44
_cell_length_a 23.523901
_cell_length_b 12.945725
_cell_length_c 13.898232
_cell_angle_alpha 90.000000
_cell_angle_beta 29.720426
_cell_angle_gamma 90.000000
_cell_volume 2098.331187
_symmetry_space_group_name_H-M "C 2/M"
_symmetry_group_IT_number 12
_symmetry_cell_setting 'monoclinic'
loop_
_space_group_symop_operation_xyz
x,y,z
-x,y,-z
-x,-y,-z
x,-y,z
1/2+x,1/2+y,z
1/2-x,1/2+y,-z
1/2-x,1/2-y,-z
1/2+x,1/2-y,z
loop_
_atom_site_type_symbol
_atom_site_label
_atom_site_fract_x
_atom_site_fract_y
_atom_site_fract_z
Si Si1 0.100547 0.119404 0.770598
Si Si2 0.001665 0.771734 0.611735
Si Si3 0.964445 0.287631 0.860419
Si Si4 0.249856 0.500000 0.669130
Si Si5 0.496311 0.500000 0.619462
Si Si6 0.517777 0.000000 0.088425
Si Si7 0.258835 0.227199 0.314799
O O1 0.046744 0.191009 0.766079
O O2 0.204438 0.181871 0.667281
O O3 0.123758 0.000000 0.709422
O O4 0.000000 0.116512 0.000000
O O5 0.939369 0.703599 0.784099
O O6 0.950025 0.886399 0.709679
O O7 0.135017 0.764055 0.447838
O O8 0.000000 0.751054 0.500000
O O9 0.023663 0.393819 0.806446
O O10 0.853543 0.272795 0.090463
O O11 0.376436 0.500000 0.524914
O O12 0.231970 0.613138 0.649678
O O13 0.156560 0.500000 0.892887
O O14 0.500000 0.500000 0.500000
O O15 0.500000 0.000000 0.000000
#
# Coordination Sequence:
#
# PCOD9176205 Si02
#       7
#     8   8   8   4   4   4   8
#     4   9  18  33  54  82 114 142 177 226 285 346
#     4  10  21  36  56  83 115 150 194 234 273 332
#     4  10  20  34  59  83 110 151 185 230 288 330
#     4   8  14  28  54  77  99 138 176 221 269 310
#     4   8  16  32  52  75 104 138 182 235 268 302
#     4  10  18  34  57  82 108 140 189 228 274 334
#     4   9  18  35  56  81 113 145 185 236 282 330
#
# _framework density 20.969045000000001
#
# number of rings (size 3 to 8) (size 9 to 14) (size 15 to 20)
#    0.000    2.727    0.000    2.727    1.273    1.455 
#    1.636    0.455    0.000    0.000    0.000    0.000 
#    0.000    0.000    0.000    0.000    0.000    0.000 
#
# Total GULP energy -122577.166488 kJ/mol
# GULP energy per Si atom -5571.689386 kJ/mol
# Density = 2.092132 g / cm^3
# Si number density = 20.969045 Si / 1000 Ang^3
#
#
#
# Elastic Constant Matrix: (Units=GPa)
#
#
# Indices 1 2 3 4 5 6 
#
# 1 91.5542 39.3045 26.5602 0.0000 35.5591 0.0000
# 2 39.3045 144.9857 24.2182 0.0000 18.4660 0.0000
# 3 26.5602 24.2182 65.4690 0.0000 18.5117 0.0000
# 4 0.0000 0.0000 0.0000 25.0285 0.0000 6.5153
# 5 35.5591 18.4660 18.5117 0.0000 31.6903 0.0000
# 6 0.0000 0.0000 0.0000 6.5153 0.0000 25.8032
#
#
#
# Elastic Compliance Matrix: (Units=1/GPa)
#
#
# Indices 1 2 3 4 5 6 
#
# 1 0.020495 -0.002687 -0.001510 0.000000 -0.020550 0.000000
# 2 -0.002687 0.007990 -0.001679 0.000000 -0.000661 0.000000
# 3 -0.001510 -0.001679 0.018869 0.000000 -0.008349 0.000000
# 4 0.000000 0.000000 0.000000 0.042765 0.000000 -0.010798
# 5 -0.020550 -0.000661 -0.008349 0.000000 0.059876 0.000000
# 6 0.000000 0.000000 0.000000 -0.010798 0.000000 0.041481
#
#
# Mechanical properties :
#
#
# Convention : Reuss Voigt Hill
#
# Bulk Modulus (GPa) = 28.08788 53.57496 40.83142
# Shear Modulus (GPa) = 23.24535 30.63281 26.93908
#
# Velocity S-wave (km/s) = 3.33311 3.82626 3.58817
# Velocity P-wave (km/s) = 5.31383 6.71754 6.05649
#
# Compressibility (1/GPa) = 0.03560254
#
# Stress axis : x y z
#
# Youngs Moduli (GPa) = 48.79138 125.15450 52.99696
#
# Poissons Ratio (x) = 0.33623 0.08005
# Poissons Ratio (y) = 0.13108 0.08898
# Poissons Ratio (z) = 0.07370 0.21014
#
# Static dielectric constant tensor:
#      x y z
#    x 1.734190 0.000000 -0.006240 
#    y 0.000000 1.831790 0.000000 
#    z -0.006240 0.000000 1.839220 
# 
# From -- ./inp_files/213023.got.cif
#   From: 2010.05.17/outbox.cif.g08.bks.cpg/sg12_107_cif.got.tgz:213023.got - 2010.06.03 13:09:07.
