data_PCOD9176753
_publ_section_title
;
Structure prediction by ZEFSAII (Michael W. Deem and Ramdas Pophale) SiO2 
 PCOD9176753
Probable space group: C 2/M
;
_chemical_formula_sum "Si O2"
_cell_formula_units_Z 44
_cell_length_a 10.507401
_cell_length_b 28.415380
_cell_length_c 8.900396
_cell_angle_alpha 90.000000
_cell_angle_beta 43.009189
_cell_angle_gamma 90.000000
_cell_volume 1812.659015
_symmetry_space_group_name_H-M "C 2/M"
_symmetry_group_IT_number 12
_symmetry_cell_setting 'monoclinic'
loop_
_space_group_symop_operation_xyz
x,y,z
-x,y,-z
-x,-y,-z
x,-y,z
1/2+x,1/2+y,z
1/2-x,1/2+y,-z
1/2-x,1/2-y,-z
1/2+x,1/2-y,z
loop_
_atom_site_type_symbol
_atom_site_label
_atom_site_fract_x
_atom_site_fract_y
_atom_site_fract_z
Si Si1 0.974029 0.398291 0.790713
Si Si2 0.286474 0.674458 0.890386
Si Si3 0.577890 0.602932 0.602214
Si Si4 0.000000 0.334461 0.500000
Si Si5 0.936015 0.000000 0.380879
Si Si6 0.223229 0.233828 0.806677
Si Si7 0.499442 0.000000 0.317080
O O1 0.198469 0.394806 0.597167
O O2 0.916663 0.371406 0.688999
O O3 0.917931 0.452466 0.823722
O O4 0.859379 0.367840 0.008779
O O5 0.477754 0.647549 0.763084
O O6 0.290537 0.712197 0.752797
O O7 0.222718 0.707200 0.084446
O O8 0.500000 0.604245 0.500000
O O9 0.515802 0.552023 0.723051
O O10 0.163534 0.298234 0.409276
O O11 0.000000 0.000000 0.500000
O O12 0.712991 0.000000 0.556801
O O13 0.000000 0.233923 0.000000
O O14 0.500000 0.000000 0.500000
#
# Coordination Sequence:
#
# PCOD9176753 Si02
#       7
#     8   8   8   4   4   8   4
#     4  10  21  37  59  86 117 148 189 237 291 346
#     4  10  23  37  55  87 111 150 196 237 286 346
#     4  10  21  36  59  82 115 153 191 232 288 345
#     4  10  20  37  60  80 112 157 184 236 302 334
#     4   8  18  37  56  85 121 155 189 240 292 352
#     4  10  22  38  56  80 117 146 193 244 285 342
#     4  10  18  35  64  91 118 154 198 242 291 359
#
# _framework density 24.273731000000002
#
# number of rings (size 3 to 8) (size 9 to 14) (size 15 to 20)
#    0.000    2.182    0.909    1.091    3.818    0.727 
#    0.000    5.455    0.000    8.727    0.000    0.000 
#    0.000    0.000    0.000    0.000    0.000    0.000 
#
# Total GULP energy -122630.375013 kJ/mol
# GULP energy per Si atom -5574.107955 kJ/mol
# Density = 2.421848 g / cm^3
# Si number density = 24.273731 Si / 1000 Ang^3
#
#
#
# Elastic Constant Matrix: (Units=GPa)
#
#
# Indices 1 2 3 4 5 6 
#
# 1 40.9448 18.8684 5.3495 0.0000 -21.0388 0.0000
# 2 18.8684 242.6353 56.3240 0.0000 -22.0422 0.0000
# 3 5.3495 56.3240 81.2607 0.0000 -32.0083 0.0000
# 4 0.0000 0.0000 0.0000 -13.7544 0.0000 -61.5429
# 5 -21.0388 -22.0422 -32.0083 0.0000 35.9931 0.0000
# 6 0.0000 0.0000 0.0000 -61.5429 0.0000 -41.4942
#
#
#
# Elastic Compliance Matrix: (Units=1/GPa)
#
#
# Indices 1 2 3 4 5 6 
#
# 1 0.041459 -0.003111 0.012655 0.000000 0.033583 0.000000
# 2 -0.003111 0.005145 -0.004366 0.000000 -0.002550 0.000000
# 3 0.012655 -0.004366 0.025180 0.000000 0.027116 0.000000
# 4 0.000000 0.000000 0.000000 0.012899 0.000000 -0.019132
# 5 0.033583 -0.002550 0.027116 0.000000 0.069965 0.000000
# 6 0.000000 0.000000 0.000000 -0.019132 0.000000 0.004276
#
#
# Mechanical properties :
#
#
# Convention : Reuss Voigt Hill
#
# Bulk Modulus (GPa) = 12.17421 58.43607 35.30514
# Shear Modulus (GPa) = 28.41747 15.10215 21.75981
#
# Velocity S-wave (km/s) = 3.42527 2.49702 2.99730
# Velocity P-wave (km/s) = 4.54638 5.69557 5.15311
#
# Compressibility (1/GPa) = 0.08214083
#
# Stress axis : x y z
#
# Youngs Moduli (GPa) = 24.12005 194.35787 39.71424
#
# Poissons Ratio (x) = 0.60463 -0.50259
# Poissons Ratio (y) = 0.07504 0.17339
# Poissons Ratio (z) = -0.30524 0.84855
#
# Static dielectric constant tensor:
#      x y z
#    x 1.936300 0.000000 0.023150 
#    y 0.000000 1.989340 0.000000 
#    z 0.023150 0.000000 2.079370 
# 
# From -- ./inp_files/79222.got.cif
#   From: 2010.05.17/outbox.cif.g08.bks.cpg/sg12_40_cif.got.tgz:79222.got - 2010.06.03 13:09:07.
