data_PCOD9176365
_publ_section_title
;
Structure prediction by ZEFSAII (Michael W. Deem and Ramdas Pophale) SiO2 
 PCOD9176365
Probable space group: C 2/M
;
_chemical_formula_sum "Si O2"
_cell_formula_units_Z 64
_cell_length_a 15.040558
_cell_length_b 7.446208
_cell_length_c 29.591163
_cell_angle_alpha 90.000000
_cell_angle_beta 46.774832
_cell_angle_gamma 90.000000
_cell_volume 2414.853342
_symmetry_space_group_name_H-M "C 2/M"
_symmetry_group_IT_number 12
_symmetry_cell_setting 'monoclinic'
loop_
_space_group_symop_operation_xyz
x,y,z
-x,y,-z
-x,-y,-z
x,-y,z
1/2+x,1/2+y,z
1/2-x,1/2+y,-z
1/2-x,1/2-y,-z
1/2+x,1/2-y,z
loop_
_atom_site_type_symbol
_atom_site_label
_atom_site_fract_x
_atom_site_fract_y
_atom_site_fract_z
Si Si1 0.375821 0.706961 0.342167
Si Si2 0.508968 0.282669 0.609441
Si Si3 0.761922 0.789260 0.294367
Si Si4 0.630414 0.220030 0.150199
Si Si5 0.275382 0.204669 0.791623
Si Si6 0.372157 0.282999 0.520440
Si Si7 0.879616 0.784587 0.015854
Si Si8 0.014149 0.289121 0.882519
O O1 0.410375 0.500000 0.323284
O O2 0.466150 0.784959 0.348437
O O3 0.351190 0.789532 0.301396
O O4 0.245871 0.708853 0.413554
O O5 0.511299 0.500000 0.609681
O O6 0.375973 0.225882 0.639303
O O7 0.608870 0.224626 0.538117
O O8 0.746158 0.708293 0.249806
O O9 0.791239 0.000000 0.279247
O O10 0.639837 0.282835 0.198678
O O11 0.754662 0.278629 0.081754
O O12 0.521585 0.277359 0.155073
O O13 0.629125 0.000000 0.151599
O O14 0.136558 0.200653 0.858806
O O15 0.314527 0.000000 0.770814
O O16 0.500000 0.236456 0.500000
O O17 0.361324 0.500000 0.525819
O O18 0.878063 0.000000 0.019662
O O19 0.902830 0.738536 0.955562
O O20 0.000000 0.716658 0.000000
O O21 0.037239 0.500000 0.872185
#
# Coordination Sequence:
#
# PCOD9176365 Si02
#       8
#     8   8   8   8   8   8   8   8
#     4  10  21  36  55  83 113 142 176 225 279 321
#     4  10  21  37  56  79 113 146 176 221 277 328
#     4  10  22  38  58  81 105 140 188 230 266 315
#     4   9  19  36  57  80 109 145 181 217 266 325
#     4  10  21  41  60  75 105 149 189 221 261 329
#     4  10  19  33  55  82 109 145 183 217 266 332
#     4  10  18  34  60  82 107 151 186 208 262 336
#     4  11  22  35  55  86 115 137 174 232 278 310
#
# _framework density 26.502645999999999
#
# number of rings (size 3 to 8) (size 9 to 14) (size 15 to 20)
#    0.000    2.000    2.500    1.125    0.000    3.000 
#    0.000    1.875    0.000    0.000    0.000    0.000 
#    0.000    0.000    0.000    0.000    0.000    0.000 
#
# Total GULP energy -179094.010106 kJ/mol
# GULP energy per Si atom -5596.687816 kJ/mol
# Density = 2.644232 g / cm^3
# Si number density = 26.502646 Si / 1000 Ang^3
#
#
#
# Elastic Constant Matrix: (Units=GPa)
#
#
# Indices 1 2 3 4 5 6 
#
# 1 178.9124 13.8755 27.2581 0.0006 32.3326 0.0003
# 2 13.8755 100.3170 10.4632 -0.0012 0.2729 -0.0049
# 3 27.2581 10.4632 96.4421 0.0001 19.6818 0.0007
# 4 0.0006 -0.0012 0.0001 22.3068 0.0003 -4.5070
# 5 32.3326 0.2729 19.6818 0.0003 62.3234 0.0004
# 6 0.0003 -0.0049 0.0007 -4.5070 0.0004 2.0390
#
#
#
# Elastic Compliance Matrix: (Units=1/GPa)
#
#
# Indices 1 2 3 4 5 6 
#
# 1 0.006348 -0.000754 -0.001113 -0.000001 -0.002939 -0.000004
# 2 -0.000754 0.010178 -0.001028 0.000010 0.000671 0.000047
# 3 -0.001113 -0.001028 0.011412 -0.000002 -0.003022 -0.000011
# 4 -0.000001 0.000010 -0.000002 0.081010 0.000000 0.179069
# 5 -0.002939 0.000671 -0.003022 0.000000 0.018521 -0.000001
# 6 -0.000004 0.000047 -0.000011 0.179069 -0.000001 0.886268
#
#
# Mechanical properties :
#
#
# Convention : Reuss Voigt Hill
#
# Bulk Modulus (GPa) = 45.14997 53.20724 49.17861
# Shear Modulus (GPa) = 4.86898 38.93881 21.90389
#
# Velocity S-wave (km/s) = 1.35689 3.83723 2.87797
# Velocity P-wave (km/s) = 4.41904 6.30494 5.44427
#
# Compressibility (1/GPa) = 0.02214841
#
# Stress axis : x y z
#
# Youngs Moduli (GPa) = 157.51940 98.25008 87.62934
#
# Poissons Ratio (x) = 0.07408 0.09751
# Poissons Ratio (y) = 0.11878 0.09009
# Poissons Ratio (z) = 0.17528 0.10101
#
# Static dielectric constant tensor:
#      x y z
#    x 2.069190 0.000000 0.040730 
#    y 0.000000 1.972190 0.000000 
#    z 0.040730 0.000000 2.121400 
# 
# From -- ./inp_files/375518.got.cif
#   From: 2010.05.17/outbox.cif.g08.bks.cpg/sg12_188_cif.got.tgz:375518.got - 2010.06.03 13:09:07.
