data_PCOD9176822
_publ_section_title
;
Structure prediction by ZEFSAII (Michael W. Deem and Ramdas Pophale) SiO2 
 PCOD9176822
Probable space group: C 2/M
;
_chemical_formula_sum "Si O2"
_cell_formula_units_Z 36
_cell_length_a 7.147573
_cell_length_b 14.829553
_cell_length_c 18.800071
_cell_angle_alpha 90.000000
_cell_angle_beta 43.639293
_cell_angle_gamma 90.000000
_cell_volume 1375.207569
_symmetry_space_group_name_H-M "C 2/M"
_symmetry_group_IT_number 12
_symmetry_cell_setting 'monoclinic'
loop_
_space_group_symop_operation_xyz
x,y,z
-x,y,-z
-x,-y,-z
x,-y,z
1/2+x,1/2+y,z
1/2-x,1/2+y,-z
1/2-x,1/2-y,-z
1/2+x,1/2-y,z
loop_
_atom_site_type_symbol
_atom_site_label
_atom_site_fract_x
_atom_site_fract_y
_atom_site_fract_z
Si Si1 0.321835 0.153393 0.765412
Si Si2 0.268705 0.146047 0.471153
Si Si3 0.300767 0.133939 0.201071
Si Si4 0.863935 0.000000 0.374382
Si Si5 0.311668 0.357603 0.983190
O O1 0.473938 0.130689 0.650770
O O2 0.523025 0.124722 0.774056
O O3 0.286266 0.261585 0.781403
O O4 0.016506 0.118288 0.863366
O O5 0.250000 0.250000 0.500000
O O6 0.000000 0.126945 0.500000
O O7 0.254129 0.078276 0.539515
O O8 0.036781 0.076650 0.283416
O O9 0.512953 0.105976 0.081130
O O10 0.500000 0.376258 0.000000
O O11 0.250000 0.250000 0.000000
#
# Coordination Sequence:
#
# PCOD9176822 Si02
#       5
#     8   8   8   4   8
#     4  10  18  36  57  83 114 150 192 229 282 339
#     4  12  23  39  61  84 117 155 193 233 285 340
#     4  10  20  35  60  83 114 147 191 236 287 338
#     4  12  23  36  58  86 119 148 194 232 294 333
#     4   8  16  30  53  83 106 142 185 234 275 335
#
# _framework density 26.177866999999999
#
# number of rings (size 3 to 8) (size 9 to 14) (size 15 to 20)
#    0.000    1.778    4.444    0.333    0.000    0.000 
#    0.000    6.667    0.000    1.333    0.000   70.000 
#    0.000    0.000    0.000    0.000    0.000    0.000 
#
# Total GULP energy -100348.048683 kJ/mol
# GULP energy per Si atom -5574.891594 kJ/mol
# Density = 2.611828 g / cm^3
# Si number density = 26.177867 Si / 1000 Ang^3
#
#
#
# Elastic Constant Matrix: (Units=GPa)
#
#
# Indices 1 2 3 4 5 6 
#
# 1 125.4261 12.3956 61.4549 -0.0127 -26.0534 0.0048
# 2 12.3956 103.4005 58.1551 -0.0071 -7.3929 0.0048
# 3 61.4549 58.1551 349.1603 -0.0243 -10.2432 0.0072
# 4 -0.0127 -0.0071 -0.0243 246.8632 0.0135 -19.3961
# 5 -26.0534 -7.3929 -10.2432 0.0135 27.7786 -0.0045
# 6 0.0048 0.0048 0.0072 -19.3961 -0.0045 -38.2487
#
#
#
# Elastic Compliance Matrix: (Units=1/GPa)
#
#
# Indices 1 2 3 4 5 6 
#
# 1 0.010739 0.000332 -0.001665 0.000000 0.009546 0.000000
# 2 0.000332 0.010817 -0.001786 0.000000 0.002531 0.000001
# 3 -0.001665 -0.001786 0.003432 0.000000 -0.000772 0.000000
# 4 0.000000 0.000000 0.000000 0.003896 -0.000002 -0.001975
# 5 0.009546 0.002531 -0.000772 -0.000002 0.045341 -0.000003
# 6 0.000000 0.000001 0.000000 -0.001975 -0.000003 -0.025143
#
#
# Mechanical properties :
#
#
# Convention : Reuss Voigt Hill
#
# Bulk Modulus (GPa) = 53.33628 93.55533 73.44581
# Shear Modulus (GPa) = 81.20849 77.01072 79.10960
#
# Velocity S-wave (km/s) = 5.57577 5.42974 5.50324
# Velocity P-wave (km/s) = 7.86581 8.66749 8.27636
#
# Compressibility (1/GPa) = 0.01874896
#
# Stress axis : x y z
#
# Youngs Moduli (GPa) = 93.11912 92.44979 291.38259
#
# Poissons Ratio (x) = -0.03067 0.48525
# Poissons Ratio (y) = -0.03090 0.52033
# Poissons Ratio (z) = 0.15508 0.16509
#
# Static dielectric constant tensor:
#      x y z
#    x 2.111650 0.000000 0.017050 
#    y 0.000000 2.556940 -0.000030 
#    z 0.017050 -0.000030 2.025520 
# 
# From -- ./inp_files/300054.got.cif
#   From: 2010.05.17/outbox.cif.g08.bks.cpg/sg12_151_cif.got.tgz:300054.got - 2010.06.03 13:09:07.
