data_PCOD9176798
_publ_section_title
;
Structure prediction by ZEFSAII (Michael W. Deem and Ramdas Pophale) SiO2 
 PCOD9176798
Probable space group: C 2/M
;
_chemical_formula_sum "Si O2"
_cell_formula_units_Z 64
_cell_length_a 20.561133
_cell_length_b 18.626742
_cell_length_c 22.787842
_cell_angle_alpha 90.000000
_cell_angle_beta 18.924909
_cell_angle_gamma 90.000000
_cell_volume 2830.560960
_symmetry_space_group_name_H-M "C 2/M"
_symmetry_group_IT_number 12
_symmetry_cell_setting 'monoclinic'
loop_
_space_group_symop_operation_xyz
x,y,z
-x,y,-z
-x,-y,-z
x,-y,z
1/2+x,1/2+y,z
1/2-x,1/2+y,-z
1/2-x,1/2-y,-z
1/2+x,1/2-y,z
loop_
_atom_site_type_symbol
_atom_site_label
_atom_site_fract_x
_atom_site_fract_y
_atom_site_fract_z
Si Si1 0.036355 0.085562 0.900130
Si Si2 0.435837 0.211412 0.267928
Si Si3 0.492118 0.628270 0.777217
Si Si4 0.904896 0.424426 0.923308
Si Si5 0.348714 0.171193 0.795470
Si Si6 0.211396 0.580568 0.841718
Si Si7 0.867140 0.417185 0.531351
Si Si8 0.989429 0.816230 0.649562
O O1 0.257928 0.104510 0.685861
O O2 0.013666 0.000000 0.909149
O O3 0.860520 0.129878 0.018304
O O4 0.000000 0.098656 0.000000
O O5 0.535269 0.289437 0.177112
O O6 0.480050 0.149102 0.184289
O O7 0.511217 0.178224 0.265857
O O8 0.199191 0.224289 0.463028
O O9 0.676090 0.589767 0.650728
O O10 0.530079 0.641281 0.675414
O O11 0.289472 0.583304 0.951937
O O12 0.012114 0.500000 0.819217
O O13 0.826937 0.426150 0.056023
O O14 0.464740 0.130244 0.643772
O O15 0.323137 0.254713 0.800412
O O16 0.237960 0.500000 0.794319
O O17 0.406232 0.630403 0.671359
O O18 0.000000 0.610812 0.000000
O O19 0.935635 0.500000 0.477246
#
# Coordination Sequence:
#
# PCOD9176798 Si02
#       8
#     8   8   8   8   8   8   8   8
#     4  10  24  43  60  83 117 160 206 249 295 347
#     4  11  20  36  57  85 124 153 182 237 306 360
#     4  10  18  36  55  82 118 155 186 234 292 357
#     4  10  21  33  54  87 115 149 197 240 291 354
#     4  11  21  39  60  88 123 155 196 243 297 359
#     4   9  20  40  61  80 110 154 201 245 291 348
#     4  11  21  35  61  89 117 156 201 243 294 353
#     4  10  20  37  59  86 119 150 190 236 297 358
#
# _framework density 22.610358999999999
#
# number of rings (size 3 to 8) (size 9 to 14) (size 15 to 20)
#    0.000    1.750    2.500    2.625    0.000    6.000 
#    0.000    2.500    2.750    2.250    0.000    0.000 
#    0.000    0.000    0.000    0.000    0.000    0.000 
#
# Total GULP energy -178558.936463 kJ/mol
# GULP energy per Si atom -5579.966764 kJ/mol
# Density = 2.255890 g / cm^3
# Si number density = 22.610359 Si / 1000 Ang^3
#
#
#
# Elastic Constant Matrix: (Units=GPa)
#
#
# Indices 1 2 3 4 5 6 
#
# 1 64.1521 21.5944 13.5619 -0.0602 -2.8805 0.0168
# 2 21.5944 68.9551 20.9976 -0.1322 -3.1451 0.0099
# 3 13.5619 20.9976 59.4881 -0.2461 1.5623 0.0094
# 4 -0.0602 -0.1322 -0.2461 30.2175 -0.0088 2.8017
# 5 -2.8805 -3.1451 1.5623 -0.0088 31.5267 0.0167
# 6 0.0168 0.0099 0.0094 2.8017 0.0167 18.1393
#
#
#
# Elastic Compliance Matrix: (Units=1/GPa)
#
#
# Indices 1 2 3 4 5 6 
#
# 1 0.017758 -0.004774 -0.002397 -0.000003 0.001265 -0.000013
# 2 -0.004774 0.017647 -0.005182 0.000027 0.001581 -0.000008
# 3 -0.002397 -0.005182 0.019230 0.000131 -0.001689 -0.000024
# 4 -0.000003 0.000027 0.000131 0.033575 0.000008 -0.005186
# 5 0.001265 0.001581 -0.001689 0.000008 0.032076 -0.000032
# 6 -0.000013 -0.000008 -0.000024 -0.005186 -0.000032 0.055930
#
#
# Mechanical properties :
#
#
# Convention : Reuss Voigt Hill
#
# Bulk Modulus (GPa) = 33.41019 33.87812 33.64415
# Shear Modulus (GPa) = 23.70792 25.07279 24.39036
#
# Velocity S-wave (km/s) = 3.24163 3.33364 3.28796
# Velocity P-wave (km/s) = 5.36838 5.46201 5.41539
#
# Compressibility (1/GPa) = 0.02993099
#
# Stress axis : x y z
#
# Youngs Moduli (GPa) = 56.31156 56.66577 52.00073
#
# Poissons Ratio (x) = 0.27051 0.12463
# Poissons Ratio (y) = 0.26882 0.26947
# Poissons Ratio (z) = 0.13496 0.29365
#
# Static dielectric constant tensor:
#      x y z
#    x 1.883230 -0.000020 0.036270 
#    y -0.000020 1.882110 0.000060 
#    z 0.036270 0.000060 1.895630 
# 
# From -- ./inp_files/347854.got.cif
#   From: 2010.05.17/outbox.cif.g08.bks.cpg/sg12_174_cif.got.tgz:347854.got - 2010.06.03 13:09:07.
