data_PCOD9176510
_publ_section_title
;
Structure prediction by ZEFSAII (Michael W. Deem and Ramdas Pophale) SiO2 
 PCOD9176510
Probable space group: C 2/M
;
_chemical_formula_sum "Si O2"
_cell_formula_units_Z 56
_cell_length_a 26.018153
_cell_length_b 13.349316
_cell_length_c 8.246272
_cell_angle_alpha 90.000000
_cell_angle_beta 61.041570
_cell_angle_gamma 90.000000
_cell_volume 2506.033672
_symmetry_space_group_name_H-M "C 2/M"
_symmetry_group_IT_number 12
_symmetry_cell_setting 'monoclinic'
loop_
_space_group_symop_operation_xyz
x,y,z
-x,y,-z
-x,-y,-z
x,-y,z
1/2+x,1/2+y,z
1/2-x,1/2+y,-z
1/2-x,1/2-y,-z
1/2+x,1/2-y,z
loop_
_atom_site_type_symbol
_atom_site_label
_atom_site_fract_x
_atom_site_fract_y
_atom_site_fract_z
Si Si1 0.821168 0.611849 0.161990
Si Si2 0.058664 0.113673 0.021493
Si Si3 0.858659 0.227755 0.329710
Si Si4 0.761991 0.887696 0.025390
Si Si5 0.961576 0.611351 0.224598
Si Si6 0.834565 0.249324 0.713540
Si Si7 0.569640 0.810145 0.212655
O O1 0.821824 0.500000 0.232198
O O2 0.813652 0.701925 0.299861
O O3 0.773771 0.611692 0.090524
O O4 0.883182 0.635000 0.977690
O O5 0.114450 0.141683 0.823589
O O6 0.062506 0.000000 0.077148
O O7 0.056227 0.199854 0.160356
O O8 0.000000 0.121097 0.000000
O O9 0.912143 0.305093 0.283846
O O10 0.837942 0.193978 0.537775
O O11 0.817777 0.821486 0.891815
O O12 0.775673 0.000000 0.054174
O O13 0.717217 0.831611 0.212667
O O14 0.936592 0.500000 0.278780
O O15 0.008894 0.632084 0.292262
O O16 0.000000 0.615910 0.000000
O O17 0.895790 0.299585 0.672115
#
# Coordination Sequence:
#
# PCOD9176510 Si02
#       7
#     8   8   8   8   8   8   8
#     4   9  17  32  58  81 105 141 182 226 273 325
#     4  10  19  35  55  75 105 149 192 222 253 304
#     4  11  20  34  53  87 116 139 179 227 275 318
#     4   9  20  41  59  75 103 146 188 226 278 331
#     4  11  19  32  56  84 113 147 181 215 263 329
#     4  10  23  36  57  82 112 144 176 231 279 327
#     4  10  18  35  53  79 111 149 186 214 263 325
#
# _framework density 22.346067000000001
#
# number of rings (size 3 to 8) (size 9 to 14) (size 15 to 20)
#    0.000    2.000    4.286    0.857    0.000    4.000 
#    0.000    0.714    0.000    1.714    0.000    0.000 
#    0.000    0.000    0.000    0.000    0.000    0.000 
#
# Total GULP energy -156446.713611 kJ/mol
# GULP energy per Si atom -5587.382629 kJ/mol
# Density = 2.229521 g / cm^3
# Si number density = 22.346067 Si / 1000 Ang^3
#
#
#
# Elastic Constant Matrix: (Units=GPa)
#
#
# Indices 1 2 3 4 5 6 
#
# 1 70.8457 -9.1352 -7.7528 0.0000 -1.8947 0.0000
# 2 -9.1352 94.4291 -6.2393 0.0000 -12.9675 0.0000
# 3 -7.7528 -6.2393 49.3813 0.0000 8.7806 0.0000
# 4 0.0000 0.0000 0.0000 9.2427 0.0000 3.5202
# 5 -1.8947 -12.9675 8.7806 0.0000 21.4193 0.0000
# 6 0.0000 0.0000 0.0000 3.5202 0.0000 19.9104
#
#
#
# Elastic Compliance Matrix: (Units=1/GPa)
#
#
# Indices 1 2 3 4 5 6 
#
# 1 0.014628 0.001761 0.002265 0.000000 0.001432 0.000000
# 2 0.001761 0.011765 0.000506 0.000000 0.007071 0.000000
# 3 0.002265 0.000506 0.022198 0.000000 -0.008593 0.000000
# 4 0.000000 0.000000 0.000000 0.116005 0.000000 -0.020510
# 5 0.001432 0.007071 -0.008593 0.000000 0.054617 0.000000
# 6 0.000000 0.000000 0.000000 -0.020510 0.000000 0.053851
#
#
# Mechanical properties :
#
#
# Convention : Reuss Voigt Hill
#
# Bulk Modulus (GPa) = 17.34463 18.71127 18.02795
# Shear Modulus (GPa) = 17.65413 25.96671 21.81042
#
# Velocity S-wave (km/s) = 2.81380 3.41255 3.12754
# Velocity P-wave (km/s) = 4.28198 4.89070 4.59642
#
# Compressibility (1/GPa) = 0.05765473
#
# Stress axis : x y z
#
# Youngs Moduli (GPa) = 68.36004 84.99926 45.04910
#
# Poissons Ratio (x) = -0.14972 -0.10202
# Poissons Ratio (y) = -0.12041 -0.02278
# Poissons Ratio (z) = -0.15481 -0.04298
#
# Static dielectric constant tensor:
#      x y z
#    x 1.874880 0.000000 0.006060 
#    y 0.000000 1.812850 0.000000 
#    z 0.006060 0.000000 1.838230 
# 
# From -- ./inp_files/111108.got.cif
#   From: 2010.05.17/outbox.cif.g08.bks.cpg/sg12_56_cif.got.tgz:111108.got - 2010.06.03 13:09:07.
