data_PCOD9176368
_publ_section_title
;
Structure prediction by ZEFSAII (Michael W. Deem and Ramdas Pophale) SiO2 
 PCOD9176368
Probable space group: C 2/M
;
_chemical_formula_sum "Si O2"
_cell_formula_units_Z 44
_cell_length_a 11.270911
_cell_length_b 20.653427
_cell_length_c 15.258392
_cell_angle_alpha 90.000000
_cell_angle_beta 141.691971
_cell_angle_gamma 90.000000
_cell_volume 2201.779588
_symmetry_space_group_name_H-M "C 2/M"
_symmetry_group_IT_number 12
_symmetry_cell_setting 'monoclinic'
loop_
_space_group_symop_operation_xyz
x,y,z
-x,y,-z
-x,-y,-z
x,-y,z
1/2+x,1/2+y,z
1/2-x,1/2+y,-z
1/2-x,1/2-y,-z
1/2+x,1/2-y,z
loop_
_atom_site_type_symbol
_atom_site_label
_atom_site_fract_x
_atom_site_fract_y
_atom_site_fract_z
Si Si1 0.758084 0.306738 0.714717
Si Si2 0.186640 0.154363 0.291750
Si Si3 0.196667 0.925402 0.947031
Si Si4 0.500000 0.125150 0.000000
Si Si5 0.269797 0.425800 0.845735
Si Si6 0.180029 0.822536 0.479262
O O1 0.787403 0.230383 0.712269
O O2 0.762800 0.341215 0.622178
O O3 0.549149 0.318907 0.636933
O O4 0.914362 0.331041 0.873244
O O5 0.287281 0.118153 0.268890
O O6 0.236306 0.140629 0.422399
O O7 0.970401 0.127219 0.159376
O O8 0.334562 0.917989 0.945349
O O9 0.308950 0.912151 0.103065
O O10 0.123796 0.000000 0.910142
O O11 0.231587 0.500000 0.801004
O O12 0.500000 0.419374 0.000000
O O13 0.250000 0.750000 0.500000
#
# Coordination Sequence:
#
# PCOD9176368 Si02
#       6
#     8   8   8   4   8   8
#     4  10  22  34  56  88 123 151 194 238 299 353
#     4  10  18  34  60  82 115 155 195 239 291 352
#     4  10  21  37  57  84 121 161 196 238 296 347
#     4  12  23  36  58  92 123 150 194 250 292 356
#     4   8  16  30  50  79 110 146 191 238 282 331
#     4   9  19  39  54  79 121 163 187 226 299 365
#
# _framework density 19.983834999999999
#
# number of rings (size 3 to 8) (size 9 to 14) (size 15 to 20)
#    0.000    2.364    1.818    1.909    3.818    3.636 
#    0.000    0.000    0.000    5.455    0.000   43.273 
#    0.000    0.000    0.000    0.000    0.000    0.000 
#
# Total GULP energy -122525.468843 kJ/mol
# GULP energy per Si atom -5569.339493 kJ/mol
# Density = 1.993835 g / cm^3
# Si number density = 19.983835 Si / 1000 Ang^3
#
#
#
# Elastic Constant Matrix: (Units=GPa)
#
#
# Indices 1 2 3 4 5 6 
#
# 1 66.6261 20.6260 25.4873 -0.0004 -35.0488 -0.0001
# 2 20.6260 51.9214 37.1431 -0.0001 -21.1226 0.0000
# 3 25.4873 37.1431 106.5166 -0.0011 -35.6382 -0.0005
# 4 -0.0004 -0.0001 -0.0011 15.8608 -0.0006 -9.9369
# 5 -35.0488 -21.1226 -35.6382 -0.0006 49.6946 -0.0003
# 6 -0.0001 0.0000 -0.0005 -9.9369 -0.0003 27.0362
#
#
#
# Elastic Compliance Matrix: (Units=1/GPa)
#
#
# Indices 1 2 3 4 5 6 
#
# 1 0.024362 -0.003712 0.000903 0.000002 0.016252 0.000001
# 2 -0.003712 0.027616 -0.007487 0.000000 0.003751 0.000000
# 3 0.000903 -0.007487 0.014382 0.000002 0.007768 0.000001
# 4 0.000002 0.000000 0.000002 0.081910 0.000004 0.030105
# 5 0.016252 0.003751 0.007768 0.000004 0.038750 0.000002
# 6 0.000001 0.000000 0.000001 0.030105 0.000002 0.048052
#
#
# Mechanical properties :
#
#
# Convention : Reuss Voigt Hill
#
# Bulk Modulus (GPa) = 21.84933 43.50855 32.67894
# Shear Modulus (GPa) = 18.45551 27.97218 23.21384
#
# Velocity S-wave (km/s) = 3.04225 3.74537 3.41197
# Velocity P-wave (km/s) = 4.82676 6.36576 5.64891
#
# Compressibility (1/GPa) = 0.04576798
#
# Stress axis : x y z
#
# Youngs Moduli (GPa) = 41.04695 36.21046 69.53117
#
# Poissons Ratio (x) = 0.13442 -0.06275
# Poissons Ratio (y) = 0.15237 0.52056
# Poissons Ratio (z) = -0.03705 0.27110
#
# Static dielectric constant tensor:
#      x y z
#    x 1.808470 0.000000 -0.010330 
#    y 0.000000 1.673030 0.000000 
#    z -0.010330 0.000000 1.737780 
# 
# From -- ./inp_files/207819.got.cif
#   From: 2010.05.17/outbox.cif.g08.bks.cpg/sg12_104_cif.got.tgz:207819.got - 2010.06.03 13:09:07.
