data_PCOD9176323
_publ_section_title
;
Structure prediction by ZEFSAII (Michael W. Deem and Ramdas Pophale) SiO2 
 PCOD9176323
Probable space group: C 2/M
;
_chemical_formula_sum "Si O2"
_cell_formula_units_Z 64
_cell_length_a 21.092093
_cell_length_b 8.527665
_cell_length_c 22.280133
_cell_angle_alpha 90.000000
_cell_angle_beta 118.167580
_cell_angle_gamma 90.000000
_cell_volume 3532.846222
_symmetry_space_group_name_H-M "C 2/M"
_symmetry_group_IT_number 12
_symmetry_cell_setting 'monoclinic'
loop_
_space_group_symop_operation_xyz
x,y,z
-x,y,-z
-x,-y,-z
x,-y,z
1/2+x,1/2+y,z
1/2-x,1/2+y,-z
1/2-x,1/2-y,-z
1/2+x,1/2-y,z
loop_
_atom_site_type_symbol
_atom_site_label
_atom_site_fract_x
_atom_site_fract_y
_atom_site_fract_z
Si Si1 0.918331 0.687782 0.840678
Si Si2 0.154430 0.187424 0.703786
Si Si3 0.776495 0.311427 0.448230
Si Si4 0.338893 0.189728 0.928296
Si Si5 0.296927 0.687585 0.707040
Si Si6 0.579811 0.311693 0.918161
Si Si7 0.827125 0.808922 0.154361
Si Si8 0.420616 0.189287 0.446348
O O1 0.915814 0.500000 0.836071
O O2 0.878139 0.736536 0.884219
O O3 0.873544 0.758486 0.765503
O O4 0.999766 0.744737 0.879403
O O5 0.235124 0.234689 0.720320
O O6 0.143733 0.241081 0.767493
O O7 0.102144 0.259394 0.630534
O O8 0.148200 0.000000 0.698830
O O9 0.778441 0.500000 0.451863
O O10 0.750000 0.250000 0.500000
O O11 0.722451 0.267210 0.369907
O O12 0.856031 0.257805 0.461947
O O13 0.255738 0.240839 0.890064
O O14 0.340419 0.000000 0.932058
O O15 0.380363 0.256249 0.003974
O O16 0.290115 0.500000 0.708648
O O17 0.576709 0.500000 0.916338
O O18 0.625097 0.257975 0.880300
O O19 0.826733 0.000000 0.154570
O O20 0.500000 0.245101 0.500000
O O21 0.420823 0.000000 0.447984
#
# Coordination Sequence:
#
# PCOD9176323 Si02
#       8
#     8   8   8   8   8   8   8   8
#     4  11  22  38  59  81 109 147 187 228 275 327
#     4  10  18  34  59  84 109 144 189 227 268 326
#     4   9  19  35  56  82 111 144 178 220 271 321
#     4  10  20  38  60  79 105 143 188 229 274 329
#     4  10  20  36  58  84 112 144 184 229 275 321
#     4  11  23  37  54  81 116 146 179 228 282 329
#     4   9  19  37  57  79 111 147 180 226 279 324
#     4   9  19  37  57  80 114 147 181 228 276 317
#
# _framework density 18.115705999999999
#
# number of rings (size 3 to 8) (size 9 to 14) (size 15 to 20)
#    0.000    2.125    1.250    3.000    0.000    5.250 
#    2.250    3.125    0.000    0.000    0.000    0.000 
#    0.000    0.000    0.000    0.000    0.000    0.000 
#
# Total GULP energy -178622.098374 kJ/mol
# GULP energy per Si atom -5581.940574 kJ/mol
# Density = 1.807447 g / cm^3
# Si number density = 18.115706 Si / 1000 Ang^3
#
#
#
# Elastic Constant Matrix: (Units=GPa)
#
#
# Indices 1 2 3 4 5 6 
#
# 1 133.6883 21.4529 92.1381 0.0000 -1.4030 0.0000
# 2 21.4529 13.8826 18.3622 0.0000 -3.5839 0.0000
# 3 92.1381 18.3622 155.6768 0.0000 0.1434 0.0000
# 4 0.0000 0.0000 0.0000 34.2716 0.0000 1.1480
# 5 -1.4030 -3.5839 0.1434 0.0000 31.7398 0.0000
# 6 0.0000 0.0000 0.0000 1.1480 0.0000 24.9108
#
#
#
# Elastic Compliance Matrix: (Units=1/GPa)
#
#
# Indices 1 2 3 4 5 6 
#
# 1 0.014390 -0.013255 -0.006953 0.000000 -0.000829 0.000000
# 2 -0.013255 0.100641 -0.004035 0.000000 0.010796 0.000000
# 3 -0.006953 -0.004035 0.011015 0.000000 -0.000813 0.000000
# 4 0.000000 0.000000 0.000000 0.029224 0.000000 -0.001347
# 5 -0.000829 0.010796 -0.000813 0.000000 0.032692 0.000000
# 6 0.000000 0.000000 0.000000 -0.001347 0.000000 0.040205
#
#
# Mechanical properties :
#
#
# Convention : Reuss Voigt Hill
#
# Bulk Modulus (GPa) = 12.89327 63.01712 37.95519
# Shear Modulus (GPa) = 16.52846 29.60406 23.06626
#
# Velocity S-wave (km/s) = 3.02384 4.04687 3.57217
# Velocity P-wave (km/s) = 4.39592 7.52978 6.16530
#
# Compressibility (1/GPa) = 0.07755986
#
# Stress axis : x y z
#
# Youngs Moduli (GPa) = 69.49128 9.93628 90.78287
#
# Poissons Ratio (x) = 0.13171 0.63119
# Poissons Ratio (y) = 0.92113 0.36635
# Poissons Ratio (z) = 0.48315 0.04010
#
# Static dielectric constant tensor:
#      x y z
#    x 1.607270 0.000000 -0.003160 
#    y 0.000000 1.623510 0.000000 
#    z -0.003160 0.000000 1.606720 
# 
# From -- ./inp_files/320097.got.cif
#   From: 2010.05.17/outbox.cif.g08.bks.cpg/sg12_161_cif.got.tgz:320097.got - 2010.06.03 13:09:07.
