data_PCOD9176296
_publ_section_title
;
Structure prediction by ZEFSAII (Michael W. Deem and Ramdas Pophale) SiO2 
 PCOD9176296
Probable space group: C 2/M
;
_chemical_formula_sum "Si O2"
_cell_formula_units_Z 56
_cell_length_a 18.655867
_cell_length_b 21.900487
_cell_length_c 8.731092
_cell_angle_alpha 90.000000
_cell_angle_beta 51.412732
_cell_angle_gamma 90.000000
_cell_volume 2788.400524
_symmetry_space_group_name_H-M "C 2/M"
_symmetry_group_IT_number 12
_symmetry_cell_setting 'monoclinic'
loop_
_space_group_symop_operation_xyz
x,y,z
-x,y,-z
-x,-y,-z
x,-y,z
1/2+x,1/2+y,z
1/2-x,1/2+y,-z
1/2-x,1/2-y,-z
1/2+x,1/2-y,z
loop_
_atom_site_type_symbol
_atom_site_label
_atom_site_fract_x
_atom_site_fract_y
_atom_site_fract_z
Si Si1 0.226723 0.068916 0.548719
Si Si2 0.096631 0.156450 0.906777
Si Si3 0.891504 0.366765 0.796557
Si Si4 0.088552 0.613022 0.584696
Si Si5 0.644230 0.272608 0.154292
Si Si6 0.759627 0.143668 0.769246
Si Si7 0.347164 0.774875 0.316156
O O1 0.178112 0.113678 0.736030
O O2 0.336058 0.072235 0.432041
O O3 0.211390 0.096491 0.399822
O O4 0.193935 0.000000 0.606369
O O5 0.093992 0.216787 0.803938
O O6 0.115471 0.184414 0.050231
O O7 0.000000 0.124534 0.000000
O O8 0.891655 0.389095 0.622038
O O9 0.906273 0.292569 0.769265
O O10 0.980854 0.396671 0.755641
O O11 0.796682 0.381402 0.009827
O O12 0.110230 0.680859 0.617112
O O13 0.654355 0.315478 0.290309
O O14 0.750000 0.250000 0.000000
O O15 0.680787 0.185768 0.795058
O O16 0.250000 0.750000 0.500000
#
# Coordination Sequence:
#
# PCOD9176296 Si02
#       7
#     8   8   8   8   8   8   8
#     4  11  25  44  60  77 113 168 220 257 289 338
#     4  12  23  37  61  93 121 155 202 246 307 363
#     4  10  19  33  56  95 128 152 181 242 309 376
#     4  10  21  35  57  89 127 160 192 235 306 367
#     4  10  18  34  58  93 129 153 181 232 308 382
#     4  10  20  34  59  84 122 155 196 241 298 363
#     4  11  18  31  53  88 120 152 182 235 299 366
#
# _framework density 20.083197999999999
#
# number of rings (size 3 to 8) (size 9 to 14) (size 15 to 20)
#    0.000    1.429    5.714    3.429    0.000    2.000 
#    0.000    5.714    0.000    0.857    0.000    0.000 
#    0.000    0.000    0.000    0.000    0.000    0.000 
#
# Total GULP energy -156129.408666 kJ/mol
# GULP energy per Si atom -5576.050310 kJ/mol
# Density = 2.003749 g / cm^3
# Si number density = 20.083198 Si / 1000 Ang^3
#
#
#
# Elastic Constant Matrix: (Units=GPa)
#
#
# Indices 1 2 3 4 5 6 
#
# 1 79.9337 2.2184 4.2106 0.0000 1.7548 0.0000
# 2 2.2184 60.8822 -0.7719 0.0000 5.1738 0.0000
# 3 4.2106 -0.7719 30.4802 0.0000 3.9564 0.0000
# 4 0.0000 0.0000 0.0000 3.8559 0.0000 0.0826
# 5 1.7548 5.1738 3.9564 0.0000 26.3795 0.0000
# 6 0.0000 0.0000 0.0000 0.0826 0.0000 9.6035
#
#
#
# Elastic Compliance Matrix: (Units=1/GPa)
#
#
# Indices 1 2 3 4 5 6 
#
# 1 0.012623 -0.000439 -0.001690 0.000000 -0.000500 0.000000
# 2 -0.000439 0.016741 0.000925 0.000000 -0.003393 0.000000
# 3 -0.001690 0.000925 0.033731 0.000000 -0.005128 0.000000
# 4 0.000000 0.000000 0.000000 0.259389 0.000000 -0.002231
# 5 -0.000500 -0.003393 -0.005128 0.000000 0.039376 0.000000
# 6 0.000000 0.000000 0.000000 -0.002231 0.000000 0.104147
#
#
# Mechanical properties :
#
#
# Convention : Reuss Voigt Hill
#
# Bulk Modulus (GPa) = 16.47801 20.29004 18.38402
# Shear Modulus (GPa) = 10.23242 19.01039 14.62140
#
# Velocity S-wave (km/s) = 2.25966 3.07999 2.70115
# Velocity P-wave (km/s) = 3.87696 4.77215 4.34765
#
# Compressibility (1/GPa) = 0.06068696
#
# Stress axis : x y z
#
# Youngs Moduli (GPa) = 79.22329 59.73283 29.64656
#
# Poissons Ratio (x) = 0.02621 0.05010
# Poissons Ratio (y) = 0.03477 -0.02742
# Poissons Ratio (z) = 0.13388 -0.05525
#
# Static dielectric constant tensor:
#      x y z
#    x 1.800880 0.000000 0.011330 
#    y 0.000000 1.766060 0.000000 
#    z 0.011330 0.000000 1.800310 
# 
# From -- ./inp_files/90326.got.cif
#   From: 2010.05.17/outbox.cif.g08.bks.cpg/sg12_46_cif.got.tgz:90326.got - 2010.06.03 13:09:07.
