data_PCOD9176693
_publ_section_title
;
Structure prediction by ZEFSAII (Michael W. Deem and Ramdas Pophale) SiO2 
 PCOD9176693
Probable space group: C 2/M
;
_chemical_formula_sum "Si O2"
_cell_formula_units_Z 64
_cell_length_a 32.998600
_cell_length_b 7.744180
_cell_length_c 15.389233
_cell_angle_alpha 90.000000
_cell_angle_beta 132.353346
_cell_angle_gamma 90.000000
_cell_volume 2906.262314
_symmetry_space_group_name_H-M "C 2/M"
_symmetry_group_IT_number 12
_symmetry_cell_setting 'monoclinic'
loop_
_space_group_symop_operation_xyz
x,y,z
-x,y,-z
-x,-y,-z
x,-y,z
1/2+x,1/2+y,z
1/2-x,1/2+y,-z
1/2-x,1/2-y,-z
1/2+x,1/2-y,z
loop_
_atom_site_type_symbol
_atom_site_label
_atom_site_fract_x
_atom_site_fract_y
_atom_site_fract_z
Si Si1 0.543892 0.803700 0.938471
Si Si2 0.381414 0.795753 0.492205
Si Si3 0.218785 0.293875 0.043113
Si Si4 0.741253 0.291136 0.712740
Si Si5 0.356126 0.789115 0.800449
Si Si6 0.063179 0.708701 0.603153
Si Si7 0.594174 0.305961 0.841993
Si Si8 0.424424 0.788128 0.736707
O O1 0.559919 0.807142 0.860024
O O2 0.483288 0.726563 0.857218
O O3 0.539267 0.000000 0.964918
O O4 0.595853 0.727734 0.064628
O O5 0.316432 0.772004 0.406488
O O6 0.402389 0.725999 0.429925
O O7 0.412004 0.726225 0.621510
O O8 0.393208 0.000000 0.507228
O O9 0.211951 0.500000 0.038728
O O10 0.251441 0.237087 0.176015
O O11 0.250000 0.250000 0.000000
O O12 0.158292 0.215924 0.954369
O O13 0.740065 0.500000 0.708642
O O14 0.795803 0.230779 0.741344
O O15 0.376311 0.741384 0.733804
O O16 0.354446 0.000000 0.803657
O O17 0.065457 0.500000 0.607640
O O18 0.084768 0.767400 0.727545
O O19 0.000000 0.760433 0.500000
O O20 0.576611 0.500000 0.835020
O O21 0.426708 0.000000 0.738011
#
# Coordination Sequence:
#
# PCOD9176693 Si02
#       8
#     8   8   8   8   8   8   8   8
#     4  10  18  35  61  87 114 148 191 242 292 341
#     4  10  21  36  55  84 116 148 188 236 286 342
#     4  11  22  38  58  83 112 147 193 241 289 342
#     4  10  21  37  56  80 114 152 190 232 280 339
#     4   9  17  33  58  88 114 143 189 243 290 337
#     4  10  21  39  61  83 112 152 198 246 292 340
#     4  12  24  36  55  85 118 153 189 232 289 351
#     4   9  18  33  59  89 113 142 191 244 289 341
#
# _framework density 22.021411000000001
#
# number of rings (size 3 to 8) (size 9 to 14) (size 15 to 20)
#    0.000    1.875    1.250    3.375    0.000    7.750 
#    0.000    1.875    0.000    3.000    0.000    0.000 
#    0.000    0.000    0.000    0.000    0.000    0.000 
#
# Total GULP energy -178842.723285 kJ/mol
# GULP energy per Si atom -5588.835103 kJ/mol
# Density = 2.197129 g / cm^3
# Si number density = 22.021411 Si / 1000 Ang^3
#
#
#
# Elastic Constant Matrix: (Units=GPa)
#
#
# Indices 1 2 3 4 5 6 
#
# 1 92.7169 -3.3172 -6.5055 0.0000 1.1927 0.0000
# 2 -3.3172 41.6748 0.6103 0.0000 -3.0584 0.0000
# 3 -6.5055 0.6103 65.7096 0.0000 4.7243 0.0000
# 4 0.0000 0.0000 0.0000 -39.0183 0.0000 -32.7575
# 5 1.1927 -3.0584 4.7243 0.0000 36.9547 0.0000
# 6 0.0000 0.0000 0.0000 -32.7575 0.0000 -29.8526
#
#
#
# Elastic Compliance Matrix: (Units=1/GPa)
#
#
# Indices 1 2 3 4 5 6 
#
# 1 0.010898 0.000820 0.001102 0.000000 -0.000425 0.000000
# 2 0.000820 0.024213 -0.000289 0.000000 0.002014 0.000000
# 3 0.001102 -0.000289 0.015477 0.000000 -0.002038 0.000000
# 4 0.000000 0.000000 0.000000 -0.325391 0.000000 0.357055
# 5 -0.000425 0.002014 -0.002038 0.000000 0.027501 0.000000
# 6 0.000000 0.000000 0.000000 0.357055 0.000000 -0.425297
#
#
# Mechanical properties :
#
#
# Convention : Reuss Voigt Hill
#
# Bulk Modulus (GPa) = 18.56875 20.18627 19.37751
# Shear Modulus (GPa) = -7.59976 7.57102 -0.01437
#
# Velocity S-wave (km/s) = -1.85972 1.85620 -0.08087
# Velocity P-wave (km/s) = 1.95934 3.71222 2.96813
#
# Compressibility (1/GPa) = 0.05385391
#
# Stress axis : x y z
#
# Youngs Moduli (GPa) = 91.76305 41.30078 64.61294
#
# Poissons Ratio (x) = -0.03387 -0.07119
# Poissons Ratio (y) = -0.07526 0.01864
# Poissons Ratio (z) = -0.10111 0.01192
#
# Static dielectric constant tensor:
#      x y z
#    x 1.783250 0.000000 -0.012580 
#    y 0.000000 1.895730 0.000000 
#    z -0.012580 0.000000 1.780700 
# 
# From -- ./inp_files/250067.got.cif
#   From: 2010.05.17/outbox.cif.g08.bks.cpg/sg12_126_cif.got.tgz:250067.got - 2010.06.03 13:09:07.
