data_PCOD9176133
_publ_section_title
;
Structure prediction by ZEFSAII (Michael W. Deem and Ramdas Pophale) SiO2 
 PCOD9176133
Probable space group: C 2/M
;
_chemical_formula_sum "Si O2"
_cell_formula_units_Z 64
_cell_length_a 19.519626
_cell_length_b 7.398421
_cell_length_c 30.240822
_cell_angle_alpha 90.000000
_cell_angle_beta 144.616277
_cell_angle_gamma 90.000000
_cell_volume 2528.831409
_symmetry_space_group_name_H-M "C 2/M"
_symmetry_group_IT_number 12
_symmetry_cell_setting 'monoclinic'
loop_
_space_group_symop_operation_xyz
x,y,z
-x,y,-z
-x,-y,-z
x,-y,z
1/2+x,1/2+y,z
1/2-x,1/2+y,-z
1/2-x,1/2-y,-z
1/2+x,1/2-y,z
loop_
_atom_site_type_symbol
_atom_site_label
_atom_site_fract_x
_atom_site_fract_y
_atom_site_fract_z
Si Si1 0.558026 0.779956 0.962332
Si Si2 0.028686 0.221491 0.611657
Si Si3 0.677564 0.782203 0.116043
Si Si4 0.871498 0.797147 0.609350
Si Si5 0.657106 0.705533 0.553129
Si Si6 0.042077 0.719879 0.858551
Si Si7 0.229863 0.720538 0.296620
Si Si8 0.427623 0.208645 0.221711
O O1 0.421780 0.727841 0.901068
O O2 0.594230 0.717139 0.932746
O O3 0.562030 0.000000 0.965177
O O4 0.632143 0.719586 0.043781
O O5 0.165974 0.273325 0.682321
O O6 0.949457 0.284221 0.610923
O O7 0.961431 0.280626 0.531457
O O8 0.026687 0.000000 0.611938
O O9 0.811658 0.722467 0.190571
O O10 0.678668 0.000000 0.116987
O O11 0.754128 0.703607 0.564989
O O12 0.962876 0.803766 0.698096
O O13 0.836094 0.000000 0.578282
O O14 0.629350 0.500000 0.551112
O O15 0.721999 0.783678 0.630173
O O16 0.047128 0.500000 0.862647
O O17 0.903923 0.775805 0.783347
O O18 0.098405 0.777063 0.841642
O O19 0.224590 0.500000 0.294180
O O20 0.463788 0.000000 0.236829
#
# Coordination Sequence:
#
# PCOD9176133 Si02
#       8
#     8   8   8   8   8   8   8   8
#     4   8  16  32  55  82 109 135 172 213 253 304
#     4   9  19  31  51  81 104 131 176 220 259 306
#     4   9  18  34  57  84 108 135 168 212 261 305
#     4  11  22  35  52  77 106 139 175 215 261 311
#     4  10  18  34  56  78 105 134 169 217 265 311
#     4   9  17  30  51  77 104 138 177 215 253 300
#     4   9  16  29  51  79 104 132 173 219 257 297
#     4  11  22  36  53  77 106 141 177 213 258 306
#
# _framework density 25.308130999999999
#
# number of rings (size 3 to 8) (size 9 to 14) (size 15 to 20)
#    0.000    2.500    1.250    2.250    1.750    2.000 
#    0.000    1.875    0.000    6.750    0.000    0.000 
#    0.000    0.000    0.000    0.000    0.000    0.000 
#
# Total GULP energy -178885.830937 kJ/mol
# GULP energy per Si atom -5590.182217 kJ/mol
# Density = 2.525053 g / cm^3
# Si number density = 25.308131 Si / 1000 Ang^3
#
#
#
# Elastic Constant Matrix: (Units=GPa)
#
#
# Indices 1 2 3 4 5 6 
#
# 1 96.9328 -2.3921 4.8297 -0.0001 -1.3503 -0.0007
# 2 -2.3921 85.8765 -3.7838 -0.0002 -3.0891 -0.0015
# 3 4.8297 -3.7838 20.8945 0.0000 5.1861 -0.0002
# 4 -0.0001 -0.0002 0.0000 2.0972 0.0001 2.5331
# 5 -1.3503 -3.0891 5.1861 0.0001 51.6232 -0.0001
# 6 -0.0007 -0.0015 -0.0002 2.5331 -0.0001 8.5347
#
#
#
# Elastic Compliance Matrix: (Units=1/GPa)
#
#
# Indices 1 2 3 4 5 6 
#
# 1 0.010454 0.000200 -0.002514 -0.000001 0.000538 0.000001
# 2 0.000200 0.011755 0.001955 -0.000002 0.000512 0.000003
# 3 -0.002514 0.001955 0.050029 0.000000 -0.004975 0.000001
# 4 -0.000001 -0.000002 0.000000 0.743288 -0.000003 -0.220612
# 5 0.000538 0.000512 -0.004975 -0.000003 0.019916 0.000001
# 6 0.000001 0.000003 0.000001 -0.220612 0.000001 0.182648
#
#
# Mechanical properties :
#
#
# Convention : Reuss Voigt Hill
#
# Bulk Modulus (GPa) = 13.98188 22.33459 18.15824
# Shear Modulus (GPa) = 4.79549 26.12103 15.45826
#
# Velocity S-wave (km/s) = 1.37803 3.21615 2.47412
# Velocity P-wave (km/s) = 2.84053 4.75770 3.91818
#
# Compressibility (1/GPa) = 0.07152112
#
# Stress axis : x y z
#
# Youngs Moduli (GPa) = 95.65625 85.07181 19.98821
#
# Poissons Ratio (x) = -0.01700 0.05025
# Poissons Ratio (y) = -0.01911 -0.03908
# Poissons Ratio (z) = 0.24046 -0.16635
#
# Static dielectric constant tensor:
#      x y z
#    x 1.988720 0.000000 -0.050910 
#    y 0.000000 2.021500 0.000000 
#    z -0.050910 0.000000 1.954320 
# 
# From -- ./inp_files/378347.got.cif
#   From: 2010.05.17/outbox.cif.g08.bks.cpg/sg12_190_cif.got.tgz:378347.got - 2010.06.03 13:09:07.
