data_PCOD9176475
_publ_section_title
;
Structure prediction by ZEFSAII (Michael W. Deem and Ramdas Pophale) SiO2 
 PCOD9176475
Probable space group: C 2/M
;
_chemical_formula_sum "Si O2"
_cell_formula_units_Z 38
_cell_length_a 13.313752
_cell_length_b 14.831783
_cell_length_c 9.593391
_cell_angle_alpha 90.000000
_cell_angle_beta 113.407862
_cell_angle_gamma 90.000000
_cell_volume 1738.468237
_symmetry_space_group_name_H-M "C 2/M"
_symmetry_group_IT_number 12
_symmetry_cell_setting 'monoclinic'
loop_
_space_group_symop_operation_xyz
x,y,z
-x,y,-z
-x,-y,-z
x,-y,z
1/2+x,1/2+y,z
1/2-x,1/2+y,-z
1/2-x,1/2-y,-z
1/2+x,1/2-y,z
loop_
_atom_site_type_symbol
_atom_site_label
_atom_site_fract_x
_atom_site_fract_y
_atom_site_fract_z
Si Si1 0.500000 0.757662 0.500000
Si Si2 0.832148 0.000000 0.938161
Si Si3 0.411113 0.000000 0.137118
Si Si4 0.500000 0.000000 0.500000
Si Si5 0.717328 0.669005 0.585271
Si Si6 0.546556 0.173179 0.220712
Si Si7 0.755787 0.000000 0.577635
Si Si8 0.000000 0.840538 0.000000
O O1 0.606382 0.699725 0.596607
O O2 0.473615 0.816684 0.622279
O O3 0.718737 0.000000 0.960209
O O4 0.796279 0.000000 0.757043
O O5 0.904027 0.909262 0.994592
O O6 0.467508 0.905980 0.124286
O O7 0.436200 0.000000 0.316160
O O8 0.624106 0.000000 0.490775
O O9 0.750000 0.750000 0.500000
O O10 0.825887 0.650342 0.733683
O O11 0.696694 0.585647 0.474816
O O12 0.527237 0.270571 0.139691
#
# Coordination Sequence:
#
# PCOD9176475 Si02
#       8
#     4   4   4   2   8   8   4   4
#     4  10  23  38  66  99 132 172 223 266 342 385
#     4  10  24  42  67  92 125 187 228 262 312 410
#     4  11  22  37  66 100 126 171 226 267 331 389
#     4  10  18  34  64 100 124 158 212 276 318 382
#     4  10  21  36  60  98 129 163 211 277 329 383
#     4  11  23  41  68  98 135 173 218 279 326 398
#     4  11  20  37  67  95 133 161 221 277 328 382
#     4  11  26  47  64  92 140 177 224 269 332 394
#
# _framework density 21.858324
#
# number of rings (size 3 to 8) (size 9 to 14) (size 15 to 20)
#    0.000    1.474    2.105    3.158   11.789    1.684 
#    0.000    2.105    0.000    0.000    0.000    0.000 
#    0.000    0.000    0.000    0.000    0.000    0.000 
#
# Total GULP energy -105859.427838 kJ/mol
# GULP energy per Si atom -5571.548834 kJ/mol
# Density = 2.180857 g / cm^3
# Si number density = 21.858324 Si / 1000 Ang^3
#
#
#
# Elastic Constant Matrix: (Units=GPa)
#
#
# Indices 1 2 3 4 5 6 
#
# 1 140.6380 41.8485 21.4492 0.0000 33.7037 0.0000
# 2 41.8485 145.9407 11.8765 0.0000 6.8563 0.0000
# 3 21.4492 11.8765 54.2207 0.0000 -1.7227 0.0000
# 4 0.0000 0.0000 0.0000 55.6249 0.0000 -17.4312
# 5 33.7037 6.8563 -1.7227 0.0000 39.0391 0.0000
# 6 0.0000 0.0000 0.0000 -17.4312 0.0000 51.0595
#
#
#
# Elastic Compliance Matrix: (Units=1/GPa)
#
#
# Indices 1 2 3 4 5 6 
#
# 1 0.010509 -0.002277 -0.003940 0.000000 -0.008847 0.000000
# 2 -0.002277 0.007536 -0.000730 0.000000 0.000610 0.000000
# 3 -0.003940 -0.000730 0.020302 0.000000 0.004425 0.000000
# 4 0.000000 0.000000 0.000000 0.020131 0.000000 0.006873
# 5 -0.008847 0.000610 0.004425 0.000000 0.033341 0.000000
# 6 0.000000 0.000000 0.000000 0.006873 0.000000 0.021931
#
#
# Mechanical properties :
#
#
# Convention : Reuss Voigt Hill
#
# Bulk Modulus (GPa) = 40.89531 54.57197 47.73364
# Shear Modulus (GPa) = 36.82000 46.85304 41.83652
#
# Velocity S-wave (km/s) = 4.10870 4.63480 4.37966
# Velocity P-wave (km/s) = 6.42327 7.32546 6.88915
#
# Compressibility (1/GPa) = 0.02445268
#
# Stress axis : x y z
#
# Youngs Moduli (GPa) = 95.15660 132.69870 49.25581
#
# Poissons Ratio (x) = 0.30219 0.19404
# Poissons Ratio (y) = 0.21670 0.03598
# Poissons Ratio (z) = 0.37487 0.09692
#
# Static dielectric constant tensor:
#      x y z
#    x 1.865920 0.000000 0.010350 
#    y 0.000000 1.838130 0.000000 
#    z 0.010350 0.000000 1.817420 
# 
# From -- ./inp_files/142255.got.cif
#   From: 2010.05.17/outbox.cif.g08.bks.cpg/sg12_72_cif.got.tgz:142255.got - 2010.06.03 13:09:07.
