data_PCOD9176843
_publ_section_title
;
Structure prediction by ZEFSAII (Michael W. Deem and Ramdas Pophale) SiO2 
 PCOD9176843
Probable space group: C 2/M
;
_chemical_formula_sum "Si O2"
_cell_formula_units_Z 64
_cell_length_a 12.874170
_cell_length_b 19.512898
_cell_length_c 17.969920
_cell_angle_alpha 90.000000
_cell_angle_beta 127.986470
_cell_angle_gamma 90.000000
_cell_volume 3557.946452
_symmetry_space_group_name_H-M "C 2/M"
_symmetry_group_IT_number 12
_symmetry_cell_setting 'monoclinic'
loop_
_space_group_symop_operation_xyz
x,y,z
-x,y,-z
-x,-y,-z
x,-y,z
1/2+x,1/2+y,z
1/2-x,1/2+y,-z
1/2-x,1/2-y,-z
1/2+x,1/2-y,z
loop_
_atom_site_type_symbol
_atom_site_label
_atom_site_fract_x
_atom_site_fract_y
_atom_site_fract_z
Si Si1 0.848034 0.420379 0.436160
Si Si2 0.325668 0.422360 0.171278
Si Si3 0.453069 0.729309 0.615162
Si Si4 0.410538 0.357516 0.743383
Si Si5 0.710617 0.651743 0.688155
Si Si6 0.683092 0.794514 0.034025
Si Si7 0.406659 0.755490 0.855135
Si Si8 0.284145 0.143554 0.558445
O O1 0.848238 0.500000 0.414574
O O2 0.739240 0.380763 0.338683
O O3 0.799173 0.411573 0.499813
O O4 0.000000 0.395240 0.500000
O O5 0.279423 0.500000 0.140921
O O6 0.480175 0.416132 0.218307
O O7 0.309918 0.399243 0.250989
O O8 0.248490 0.366498 0.086443
O O9 0.449962 0.695426 0.695362
O O10 0.586649 0.704306 0.634611
O O11 0.414405 0.808405 0.609607
O O12 0.335880 0.693390 0.517719
O O13 0.430742 0.318041 0.829635
O O14 0.833269 0.699488 0.762181
O O15 0.744523 0.619245 0.623337
O O16 0.682841 0.751723 0.110869
O O17 0.750000 0.750000 0.000000
O O18 0.534217 0.796929 0.938401
#
# Coordination Sequence:
#
# PCOD9176843 Si02
#       8
#     8   8   8   8   8   8   8   8
#     4  10  23  38  51  75 114 161 195 226 282 338
#     4  10  21  37  61  87 115 153 188 233 294 356
#     4   9  19  30  49  82 115 139 184 241 282 315
#     4  10  18  36  58  83 110 146 197 238 270 335
#     4  10  20  33  52  85 116 144 188 236 281 343
#     4  10  20  38  58  84 117 142 182 239 298 351
#     4  10  20  33  57  88 107 142 185 234 294 336
#     4  10  19  32  53  77 111 154 191 236 279 323
#
# _framework density 17.987904
#
# number of rings (size 3 to 8) (size 9 to 14) (size 15 to 20)
#    0.000    2.125    2.500    0.750    1.750    0.500 
#    0.000    5.000    0.000    6.750    0.000    0.000 
#    0.000    0.000    0.000    0.000    0.000    0.000 
#
# Total GULP energy -178188.676656 kJ/mol
# GULP energy per Si atom -5568.396145 kJ/mol
# Density = 1.794696 g / cm^3
# Si number density = 17.987904 Si / 1000 Ang^3
#
#
#
# Elastic Constant Matrix: (Units=GPa)
#
#
# Indices 1 2 3 4 5 6 
#
# 1 80.2619 28.6654 42.0660 0.0000 0.1150 0.0000
# 2 28.6654 69.0728 24.9968 0.0000 -5.3620 0.0000
# 3 42.0660 24.9968 72.2767 0.0000 -0.9867 0.0000
# 4 0.0000 0.0000 0.0000 14.5982 0.0000 3.3272
# 5 0.1150 -5.3620 -0.9867 0.0000 32.6333 0.0000
# 6 0.0000 0.0000 0.0000 3.3272 0.0000 16.6129
#
#
#
# Elastic Compliance Matrix: (Units=1/GPa)
#
#
# Indices 1 2 3 4 5 6 
#
# 1 0.019094 -0.004552 -0.009553 0.000000 -0.001104 0.000000
# 2 -0.004552 0.017848 -0.003485 0.000000 0.002843 0.000000
# 3 -0.009553 -0.003485 0.020602 0.000000 0.000084 0.000000
# 4 0.000000 0.000000 0.000000 0.071778 0.000000 -0.014376
# 5 -0.001104 0.002843 0.000084 0.000000 0.031117 0.000000
# 6 0.000000 0.000000 0.000000 -0.014376 0.000000 0.063073
#
#
# Mechanical properties :
#
#
# Convention : Reuss Voigt Hill
#
# Bulk Modulus (GPa) = 44.71524 45.89645 45.30584
# Shear Modulus (GPa) = 18.78650 21.16107 19.97379
#
# Velocity S-wave (km/s) = 3.23522 3.43360 3.33588
# Velocity P-wave (km/s) = 6.23442 6.42573 6.33080
#
# Compressibility (1/GPa) = 0.02236374
#
# Stress axis : x y z
#
# Youngs Moduli (GPa) = 52.37323 56.02724 48.53842
#
# Poissons Ratio (x) = 0.25506 0.46371
# Poissons Ratio (y) = 0.23842 0.16913
# Poissons Ratio (z) = 0.50035 0.19523
#
# Static dielectric constant tensor:
#      x y z
#    x 1.702790 0.000000 0.035430 
#    y 0.000000 1.702270 0.000000 
#    z 0.035430 0.000000 1.674310 
# 
# From -- ./inp_files/264825.got.cif
#   From: 2010.05.17/outbox.cif.g08.bks.cpg/sg12_133_cif.got.tgz:264825.got - 2010.06.03 13:09:07.
