data_PCOD9176796
_publ_section_title
;
Structure prediction by ZEFSAII (Michael W. Deem and Ramdas Pophale) SiO2 
 PCOD9176796
Probable space group: C 2/M
;
_chemical_formula_sum "Si O2"
_cell_formula_units_Z 48
_cell_length_a 5.216302
_cell_length_b 26.622249
_cell_length_c 17.289220
_cell_angle_alpha 90.000000
_cell_angle_beta 108.972068
_cell_angle_gamma 90.000000
_cell_volume 2270.522332
_symmetry_space_group_name_H-M "C 2/M"
_symmetry_group_IT_number 12
_symmetry_cell_setting 'monoclinic'
loop_
_space_group_symop_operation_xyz
x,y,z
-x,y,-z
-x,-y,-z
x,-y,z
1/2+x,1/2+y,z
1/2-x,1/2+y,-z
1/2-x,1/2-y,-z
1/2+x,1/2-y,z
loop_
_atom_site_type_symbol
_atom_site_label
_atom_site_fract_x
_atom_site_fract_y
_atom_site_fract_z
Si Si1 0.960725 0.500000 0.778212
Si Si2 0.698591 0.106833 0.252658
Si Si3 0.770587 0.889026 0.075827
Si Si4 0.511759 0.283150 0.129076
Si Si5 0.267695 0.662939 0.702876
Si Si6 0.577645 0.500000 0.886005
Si Si7 0.395555 0.766794 0.592974
O O1 0.847343 0.549685 0.728603
O O2 0.831874 0.500000 0.851973
O O3 0.285559 0.500000 0.815596
O O4 0.692822 0.110658 0.159010
O O5 0.446924 0.136132 0.262624
O O6 0.992887 0.127670 0.302156
O O7 0.950552 0.838283 0.086571
O O8 0.900082 0.944536 0.072692
O O9 0.500000 0.884140 0.000000
O O10 0.745176 0.251652 0.109267
O O11 0.603235 0.295300 0.226856
O O12 0.082676 0.684430 0.615689
O O13 0.250000 0.750000 0.500000
O O14 0.646596 0.727886 0.627944
#
# Coordination Sequence:
#
# PCOD9176796 Si02
#       7
#     4   8   8   8   8   4   8
#     4  10  18  36  55  80 112 138 185 244 294 348
#     4  10  21  35  56  80 109 148 189 239 293 341
#     4  10  22  40  58  80 109 146 200 254 304 352
#     4  11  22  36  54  76 106 148 188 226 280 343
#     4  11  20  36  56  80 112 150 189 225 276 344
#     4  10  21  38  60  80 104 142 189 256 318 352
#     4  10  20  34  55  84 118 147 176 219 269 324
#
# _framework density 21.140511
#
# number of rings (size 3 to 8) (size 9 to 14) (size 15 to 20)
#    0.000    1.667    0.000    7.250    0.000    2.000 
#    0.000   23.333    0.000    0.000    0.000    0.000 
#    0.000   53.333    0.000   11.000    0.000    0.167 
#
# Total GULP energy -133813.784799 kJ/mol
# GULP energy per Si atom -5575.574367 kJ/mol
# Density = 2.109239 g / cm^3
# Si number density = 21.140511 Si / 1000 Ang^3
#
#
#
# Elastic Constant Matrix: (Units=GPa)
#
#
# Indices 1 2 3 4 5 6 
#
# 1 137.1496 64.4445 25.0790 0.0000 33.3604 0.0000
# 2 64.4445 157.5240 62.7815 0.0000 26.6962 0.0000
# 3 25.0790 62.7815 74.9503 0.0000 22.5864 0.0000
# 4 0.0000 0.0000 0.0000 16.4108 0.0000 28.6669
# 5 33.3604 26.6962 22.5864 0.0000 37.0588 0.0000
# 6 0.0000 0.0000 0.0000 28.6669 0.0000 -58.4924
#
#
#
# Elastic Compliance Matrix: (Units=1/GPa)
#
#
# Indices 1 2 3 4 5 6 
#
# 1 0.010685 -0.003820 0.002075 0.000000 -0.008131 0.000000
# 2 -0.003820 0.011081 -0.008127 0.000000 0.000410 0.000000
# 3 0.002075 -0.008127 0.022361 0.000000 -0.009642 0.000000
# 4 0.000000 0.000000 0.000000 0.032829 0.000000 0.016090
# 5 -0.008131 0.000410 -0.009642 0.000000 0.039885 0.000000
# 6 0.000000 0.000000 0.000000 0.016090 0.000000 -0.009211
#
#
# Mechanical properties :
#
#
# Convention : Reuss Voigt Hill
#
# Bulk Modulus (GPa) = 41.01332 74.91488 57.96410
# Shear Modulus (GPa) = 36.89995 13.48336 25.19166
#
# Velocity S-wave (km/s) = 4.18240 2.52821 3.45574
# Velocity P-wave (km/s) = 6.53956 6.63596 6.58794
#
# Compressibility (1/GPa) = 0.02438232
#
# Stress axis : x y z
#
# Youngs Moduli (GPa) = 93.59107 90.24744 44.72105
#
# Poissons Ratio (x) = 0.34477 -0.09280
# Poissons Ratio (y) = 0.35754 0.36344
# Poissons Ratio (z) = -0.19421 0.73343
#
# Static dielectric constant tensor:
#      x y z
#    x 1.855730 0.000000 -0.072960 
#    y 0.000000 1.858850 0.000000 
#    z -0.072960 0.000000 1.805530 
# 
# From -- ./inp_files/298044.got.cif
#   From: 2010.05.17/outbox.cif.g08.bks.cpg/sg12_150_cif.got.tgz:298044.got - 2010.06.03 13:09:07.
