data_PCOD9176148
_publ_section_title
;
Structure prediction by ZEFSAII (Michael W. Deem and Ramdas Pophale) SiO2 
 PCOD9176148
Probable space group: C 2/M
;
_chemical_formula_sum "Si O2"
_cell_formula_units_Z 64
_cell_length_a 21.205982
_cell_length_b 8.492283
_cell_length_c 25.759974
_cell_angle_alpha 90.000000
_cell_angle_beta 50.568683
_cell_angle_gamma 90.000000
_cell_volume 3583.133217
_symmetry_space_group_name_H-M "C 2/M"
_symmetry_group_IT_number 12
_symmetry_cell_setting 'monoclinic'
loop_
_space_group_symop_operation_xyz
x,y,z
-x,y,-z
-x,-y,-z
x,-y,z
1/2+x,1/2+y,z
1/2-x,1/2+y,-z
1/2-x,1/2-y,-z
1/2+x,1/2-y,z
loop_
_atom_site_type_symbol
_atom_site_label
_atom_site_fract_x
_atom_site_fract_y
_atom_site_fract_z
Si Si1 0.528849 0.688995 0.295998
Si Si2 0.622770 0.810165 0.074837
Si Si3 0.535057 0.809156 0.780400
Si Si4 0.218033 0.810240 0.206138
Si Si5 0.716180 0.807771 0.716498
Si Si6 0.726631 0.312108 0.930421
Si Si7 0.985655 0.313918 0.427836
Si Si8 0.872960 0.187876 0.572306
O O1 0.527251 0.500000 0.299254
O O2 0.490310 0.746472 0.262570
O O3 0.623792 0.741782 0.249541
O O4 0.483594 0.757851 0.369862
O O5 0.534807 0.760457 0.142074
O O6 0.691892 0.759514 0.080522
O O7 0.624745 0.000000 0.071293
O O8 0.651047 0.744443 0.004775
O O9 0.625247 0.756693 0.749688
O O10 0.534430 0.000000 0.778821
O O11 0.255234 0.755470 0.241323
O O12 0.267947 0.754258 0.130103
O O13 0.217732 0.000000 0.206837
O O14 0.784682 0.760159 0.638934
O O15 0.716566 0.000000 0.716919
O O16 0.727470 0.500000 0.927998
O O17 0.998802 0.500000 0.423915
O O18 0.906451 0.268517 0.502908
O O19 0.061355 0.228553 0.417090
O O20 0.872932 0.000000 0.564890
#
# Coordination Sequence:
#
# PCOD9176148 Si02
#       8
#     8   8   8   8   8   8   8   8
#     4  11  21  35  56  82 110 142 181 224 271 321
#     4   9  18  32  51  77 107 140 175 218 269 320
#     4  10  20  37  58  81 110 141 180 224 271 323
#     4  10  19  34  55  80 107 139 181 221 265 320
#     4   9  19  36  58  81 108 145 180 218 269 327
#     4  10  19  31  51  80 107 137 177 224 271 311
#     4  11  21  33  53  83 112 142 181 227 272 313
#     4  10  18  34  56  81 111 144 181 221 273 324
#
# _framework density 17.861463000000001
#
# number of rings (size 3 to 8) (size 9 to 14) (size 15 to 20)
#    0.000    2.000    2.500    3.000    0.000    1.500 
#    0.000    3.125    0.000    3.750    0.000    0.000 
#    0.000    0.000    0.000    0.000    0.000    0.000 
#
# Total GULP energy -178619.949081 kJ/mol
# GULP energy per Si atom -5581.873409 kJ/mol
# Density = 1.782081 g / cm^3
# Si number density = 17.861463 Si / 1000 Ang^3
#
#
#
# Elastic Constant Matrix: (Units=GPa)
#
#
# Indices 1 2 3 4 5 6 
#
# 1 107.1191 10.2616 76.9346 -0.0001 -4.3324 -0.0001
# 2 10.2616 14.6193 12.2878 -0.0002 -1.4564 -0.0008
# 3 76.9346 12.2878 169.8204 0.0000 -1.9410 0.0000
# 4 -0.0001 -0.0002 0.0000 20.5409 0.0000 8.9049
# 5 -4.3324 -1.4564 -1.9410 0.0000 26.2853 0.0000
# 6 -0.0001 -0.0008 0.0000 8.9049 0.0000 18.6494
#
#
#
# Elastic Compliance Matrix: (Units=1/GPa)
#
#
# Indices 1 2 3 4 5 6 
#
# 1 0.014222 -0.004706 -0.006084 0.000000 0.001634 0.000000
# 2 -0.004706 0.074741 -0.003240 -0.000001 0.003126 0.000003
# 3 -0.006084 -0.003240 0.008873 0.000000 -0.000527 0.000000
# 4 0.000000 -0.000001 0.000000 0.061392 0.000000 -0.029314
# 5 0.001634 0.003126 -0.000527 0.000000 0.038448 0.000000
# 6 0.000000 0.000003 0.000000 -0.029314 0.000000 0.067618
#
#
# Mechanical properties :
#
#
# Convention : Reuss Voigt Hill
#
# Bulk Modulus (GPa) = 14.33171 54.50298 34.41734
# Shear Modulus (GPa) = 15.79219 25.90012 20.84615
#
# Velocity S-wave (km/s) = 2.97669 3.81209 3.41999
# Velocity P-wave (km/s) = 4.45595 7.06800 5.90813
#
# Compressibility (1/GPa) = 0.06977536
#
# Stress axis : x y z
#
# Youngs Moduli (GPa) = 70.31469 13.37955 112.69937
#
# Poissons Ratio (x) = 0.06297 0.68564
# Poissons Ratio (y) = 0.33092 0.36518
# Poissons Ratio (z) = 0.42778 0.04335
#
# Static dielectric constant tensor:
#      x y z
#    x 1.587860 0.000000 -0.011040 
#    y 0.000000 1.602490 0.000000 
#    z -0.011040 0.000000 1.611930 
# 
# From -- ./inp_files/365193.got.cif
#   From: 2010.05.17/outbox.cif.g08.bks.cpg/sg12_183_cif.got.tgz:365193.got - 2010.06.03 13:09:07.
