data_PCOD9176610
_publ_section_title
;
Structure prediction by ZEFSAII (Michael W. Deem and Ramdas Pophale) SiO2 
 PCOD9176610
Probable space group: C 2/M
;
_chemical_formula_sum "Si O2"
_cell_formula_units_Z 64
_cell_length_a 14.912949
_cell_length_b 7.701470
_cell_length_c 25.655488
_cell_angle_alpha 90.000000
_cell_angle_beta 98.626165
_cell_angle_gamma 90.000000
_cell_volume 2913.242918
_symmetry_space_group_name_H-M "C 2/M"
_symmetry_group_IT_number 12
_symmetry_cell_setting 'monoclinic'
loop_
_space_group_symop_operation_xyz
x,y,z
-x,y,-z
-x,-y,-z
x,-y,z
1/2+x,1/2+y,z
1/2-x,1/2+y,-z
1/2-x,1/2-y,-z
1/2+x,1/2-y,z
loop_
_atom_site_type_symbol
_atom_site_label
_atom_site_fract_x
_atom_site_fract_y
_atom_site_fract_z
Si Si1 0.981843 0.702048 0.285292
Si Si2 0.000115 0.211432 0.560144
Si Si3 0.144241 0.201233 0.371046
Si Si4 0.196899 0.786864 0.125846
Si Si5 0.164186 0.703895 0.650183
Si Si6 0.105014 0.209459 0.010344
Si Si7 0.458184 0.302691 0.818971
Si Si8 0.882933 0.296864 0.103083
O O1 0.987539 0.500000 0.300845
O O2 0.889473 0.772830 0.303430
O O3 0.069358 0.790278 0.318875
O O4 0.991328 0.714393 0.224398
O O5 0.089323 0.275578 0.598240
O O6 0.000000 0.263461 0.500000
O O7 0.910820 0.273491 0.583926
O O8 0.001682 0.000000 0.562843
O O9 0.239345 0.279792 0.359798
O O10 0.163189 0.000000 0.385681
O O11 0.151890 0.730083 0.067382
O O12 0.136310 0.726363 0.168829
O O13 0.301160 0.734970 0.132478
O O14 0.194451 0.000000 0.126138
O O15 0.181737 0.500000 0.662192
O O16 0.108441 0.000000 0.010198
O O17 0.145613 0.273239 0.959338
O O18 0.000000 0.264539 0.000000
O O19 0.442127 0.500000 0.801154
O O20 0.525022 0.299582 0.874472
O O21 0.898981 0.500000 0.113461
#
# Coordination Sequence:
#
# PCOD9176610 Si02
#       8
#     8   8   8   8   8   8   8   8
#     4  10  21  37  55  79 106 132 172 228 272 302
#     4   9  18  32  51  79 114 145 179 225 267 305
#     4   9  18  35  56  77 104 145 185 213 260 325
#     4   9  20  37  56  77 105 140 172 207 256 316
#     4   9  19  35  55  77 106 144 183 219 262 319
#     4  10  18  35  59  78 104 142 177 205 249 316
#     4  11  22  40  59  76 103 142 177 208 262 327
#     4  11  22  36  55  82 109 133 170 218 262 302
#
# _framework density 21.968644999999999
#
# number of rings (size 3 to 8) (size 9 to 14) (size 15 to 20)
#    0.000    2.250    1.250    1.500    0.000    3.000 
#    0.000    8.125    0.000    0.000    0.000    0.000 
#    0.000    0.000    0.000    0.000    0.000    0.000 
#
# Total GULP energy -178605.574460 kJ/mol
# GULP energy per Si atom -5581.424202 kJ/mol
# Density = 2.191864 g / cm^3
# Si number density = 21.968645 Si / 1000 Ang^3
#
#
#
# Elastic Constant Matrix: (Units=GPa)
#
#
# Indices 1 2 3 4 5 6 
#
# 1 148.2484 4.5096 29.4189 0.0000 -44.2318 0.0000
# 2 4.5096 39.3834 -5.3300 0.0000 -7.4555 0.0000
# 3 29.4189 -5.3300 92.0960 0.0000 -32.7080 0.0000
# 4 0.0000 0.0000 0.0000 21.1165 0.0000 5.3491
# 5 -44.2318 -7.4555 -32.7080 0.0000 24.9415 0.0000
# 6 0.0000 0.0000 0.0000 5.3491 0.0000 8.3961
#
#
#
# Elastic Compliance Matrix: (Units=1/GPa)
#
#
# Indices 1 2 3 4 5 6 
#
# 1 0.022835 0.012282 0.017038 0.000000 0.066512 0.000000
# 2 0.012282 0.037360 0.018607 0.000000 0.057350 0.000000
# 3 0.017038 0.018607 0.035936 0.000000 0.082904 0.000000
# 4 0.000000 0.000000 0.000000 0.056470 0.000000 -0.035976
# 5 0.066512 0.057350 0.082904 0.000000 0.283910 0.000000
# 6 0.000000 0.000000 0.000000 -0.035976 0.000000 0.142022
#
#
# Mechanical properties :
#
#
# Convention : Reuss Voigt Hill
#
# Bulk Modulus (GPa) = 5.20872 37.43607 21.32240
# Shear Modulus (GPa) = 9.14622 27.63278 18.38950
#
# Velocity S-wave (km/s) = 2.04263 3.55043 2.89637
# Velocity P-wave (km/s) = 2.81767 5.82109 4.57298
#
# Compressibility (1/GPa) = 0.19198558
#
# Stress axis : x y z
#
# Youngs Moduli (GPa) = 43.79170 26.76660 27.82736
#
# Poissons Ratio (x) = -0.32875 -0.47413
# Poissons Ratio (y) = -0.53786 -0.51778
# Poissons Ratio (z) = -0.74613 -0.49804
#
# Static dielectric constant tensor:
#      x y z
#    x 1.819350 0.000000 -0.042570 
#    y 0.000000 1.825060 0.000000 
#    z -0.042570 0.000000 1.816870 
# 
# From -- ./inp_files/338810.got.cif
#   From: 2010.05.17/outbox.cif.g08.bks.cpg/sg12_170_cif.got.tgz:338810.got - 2010.06.03 13:09:07.
