data_PCOD9176625
_publ_section_title
;
Structure prediction by ZEFSAII (Michael W. Deem and Ramdas Pophale) SiO2 
 PCOD9176625
Probable space group: C 2/M
;
_chemical_formula_sum "Si O2"
_cell_formula_units_Z 56
_cell_length_a 11.928196
_cell_length_b 29.327242
_cell_length_c 8.669798
_cell_angle_alpha 90.000000
_cell_angle_beta 114.117222
_cell_angle_gamma 90.000000
_cell_volume 2768.142501
_symmetry_space_group_name_H-M "C 2/M"
_symmetry_group_IT_number 12
_symmetry_cell_setting 'monoclinic'
loop_
_space_group_symop_operation_xyz
x,y,z
-x,y,-z
-x,-y,-z
x,-y,z
1/2+x,1/2+y,z
1/2-x,1/2+y,-z
1/2-x,1/2-y,-z
1/2+x,1/2-y,z
loop_
_atom_site_type_symbol
_atom_site_label
_atom_site_fract_x
_atom_site_fract_y
_atom_site_fract_z
Si Si1 0.908449 0.161536 0.715535
Si Si2 0.231440 0.668069 0.348156
Si Si3 0.758537 0.898989 0.867775
Si Si4 0.460433 0.832356 0.299122
Si Si5 0.418152 0.730950 0.294722
Si Si6 0.544024 0.500000 0.758421
Si Si7 0.379783 0.403428 0.271725
Si Si8 0.688787 0.500000 0.169525
O O1 0.792241 0.177958 0.549016
O O2 0.854069 0.131485 0.821986
O O3 0.998176 0.204938 0.784728
O O4 0.998592 0.127803 0.670555
O O5 0.295754 0.702726 0.264901
O O6 0.283161 0.618322 0.334023
O O7 0.086505 0.669543 0.274630
O O8 0.630425 0.872598 0.796368
O O9 0.746078 0.950572 0.795733
O O10 0.815555 0.900891 0.068965
O O11 0.500000 0.837876 0.500000
O O12 0.395756 0.783296 0.245017
O O13 0.500000 0.729602 0.500000
O O14 0.581520 0.455221 0.687757
O O15 0.404457 0.500000 0.738920
O O16 0.615732 0.500000 0.964310
#
# Coordination Sequence:
#
# PCOD9176625 Si02
#       8
#     8   8   8   8   8   4   8   4
#     4  10  18  35  59  84 113 144 182 236 280 326
#     4  10  21  38  55  81 121 144 186 231 278 340
#     4  11  21  35  61  84 113 150 190 231 280 336
#     4  11  22  36  59  83 111 155 193 224 278 341
#     4   8  19  33  57  85 107 149 190 235 270 328
#     4   9  16  32  59  84 108 144 187 236 282 325
#     4  10  20  36  58  85 112 143 186 236 287 326
#     4   9  18  34  55  87 114 141 193 235 268 344
#
# _framework density 20.230172
#
# number of rings (size 3 to 8) (size 9 to 14) (size 15 to 20)
#    0.000    2.143    2.857    1.714    2.000    2.286 
#    0.000    6.071    6.286    2.571    0.000    0.000 
#    0.000    0.000    0.000    0.000    0.000    0.000 
#
# Total GULP energy -156314.582271 kJ/mol
# GULP energy per Si atom -5582.663653 kJ/mol
# Density = 2.018413 g / cm^3
# Si number density = 20.230172 Si / 1000 Ang^3
#
#
#
# Elastic Constant Matrix: (Units=GPa)
#
#
# Indices 1 2 3 4 5 6 
#
# 1 129.3352 61.7958 20.5599 0.0000 15.6330 0.0000
# 2 61.7958 154.0752 24.4554 0.0000 19.9402 0.0000
# 3 20.5599 24.4554 41.5039 0.0000 2.1411 0.0000
# 4 0.0000 0.0000 0.0000 20.6068 0.0000 1.1650
# 5 15.6330 19.9402 2.1411 0.0000 19.7069 0.0000
# 6 0.0000 0.0000 0.0000 1.1650 0.0000 19.1132
#
#
#
# Elastic Compliance Matrix: (Units=1/GPa)
#
#
# Indices 1 2 3 4 5 6 
#
# 1 0.010225 -0.003003 -0.003051 0.000000 -0.004741 0.000000
# 2 -0.003003 0.009088 -0.003536 0.000000 -0.006429 0.000000
# 3 -0.003051 -0.003536 0.027534 0.000000 0.003006 0.000000
# 4 0.000000 0.000000 0.000000 0.048695 0.000000 -0.002968
# 5 -0.004741 -0.006429 0.003006 0.000000 0.060683 0.000000
# 6 0.000000 0.000000 0.000000 -0.002968 0.000000 0.052501
#
#
# Mechanical properties :
#
#
# Convention : Reuss Voigt Hill
#
# Bulk Modulus (GPa) = 36.14398 59.83740 47.99069
# Shear Modulus (GPa) = 21.08567 26.42559 23.75563
#
# Velocity S-wave (km/s) = 3.23195 3.61812 3.43048
# Velocity P-wave (km/s) = 5.64203 6.86272 6.28210
#
# Compressibility (1/GPa) = 0.02766712
#
# Stress axis : x y z
#
# Youngs Moduli (GPa) = 97.80189 110.03462 36.31908
#
# Poissons Ratio (x) = 0.33044 0.11081
# Poissons Ratio (y) = 0.29371 0.12841
# Poissons Ratio (z) = 0.29839 0.38904
#
# Static dielectric constant tensor:
#      x y z
#    x 1.698690 0.000000 -0.014300 
#    y 0.000000 1.731540 0.000000 
#    z -0.014300 0.000000 1.753610 
# 
# From -- ./inp_files/54657.got.cif
#   From: 2010.05.17/outbox.cif.g08.bks.cpg/sg12_28_cif.got.tgz:54657.got - 2010.06.03 13:09:07.
