data_PCOD9176537
_publ_section_title
;
Structure prediction by ZEFSAII (Michael W. Deem and Ramdas Pophale) SiO2 
 PCOD9176537
Probable space group: C 2/M
;
_chemical_formula_sum "Si O2"
_cell_formula_units_Z 48
_cell_length_a 18.657332
_cell_length_b 12.997259
_cell_length_c 18.329368
_cell_angle_alpha 90.000000
_cell_angle_beta 149.415052
_cell_angle_gamma 90.000000
_cell_volume 2261.564324
_symmetry_space_group_name_H-M "C 2/M"
_symmetry_group_IT_number 12
_symmetry_cell_setting 'monoclinic'
loop_
_space_group_symop_operation_xyz
x,y,z
-x,y,-z
-x,-y,-z
x,-y,z
1/2+x,1/2+y,z
1/2-x,1/2+y,-z
1/2-x,1/2-y,-z
1/2+x,1/2-y,z
loop_
_atom_site_type_symbol
_atom_site_label
_atom_site_fract_x
_atom_site_fract_y
_atom_site_fract_z
Si Si1 0.635224 0.695270 0.157143
Si Si2 0.707728 0.300241 0.839562
Si Si3 0.507577 0.115676 0.135508
Si Si4 0.618005 0.162676 0.539332
Si Si5 0.961455 0.386784 0.255217
Si Si6 0.443932 0.609459 0.533614
O O1 0.738040 0.740895 0.185341
O O2 0.574022 0.794916 0.145461
O O3 0.733033 0.629278 0.296597
O O4 0.500000 0.644475 0.000000
O O5 0.645917 0.208350 0.834317
O O6 0.578411 0.372398 0.703129
O O7 0.839360 0.363231 0.984913
O O8 0.547076 0.123484 0.255139
O O9 0.537974 0.000000 0.135151
O O10 0.500000 0.151744 0.500000
O O11 0.557211 0.116919 0.411718
O O12 0.638532 0.283825 0.538074
O O13 0.892174 0.500000 0.192417
O O14 0.500000 0.603990 0.500000
O O15 0.373337 0.500000 0.488370
#
# Coordination Sequence:
#
# PCOD9176537 Si02
#       6
#     8   8   8   8   8   8
#     4  10  20  34  54  82 117 145 183 232 285 345
#     4  10  18  35  55  80 114 150 192 233 279 335
#     4  10  22  35  54  87 123 154 181 228 298 356
#     4  10  18  36  55  82 111 146 197 241 280 331
#     4  10  21  37  59  84 110 151 204 241 277 334
#     4   9  15  24  46  76 105 136 177 227 272 322
#
# _framework density 21.224247999999999
#
# number of rings (size 3 to 8) (size 9 to 14) (size 15 to 20)
#    0.000    2.167    5.000    1.000    0.000    5.333 
#    0.000    0.000    0.000    9.000    0.000    4.667 
#    0.000    0.000    0.000    0.000    0.000    0.000 
#
# Total GULP energy -133836.658500 kJ/mol
# GULP energy per Si atom -5576.527438 kJ/mol
# Density = 2.117594 g / cm^3
# Si number density = 21.224248 Si / 1000 Ang^3
#
#
#
# Elastic Constant Matrix: (Units=GPa)
#
#
# Indices 1 2 3 4 5 6 
#
# 1 39.3730 3.5070 4.0968 0.0000 -8.2877 0.0001
# 2 3.5070 76.6570 -12.3587 0.0001 4.8704 0.0002
# 3 4.0968 -12.3587 109.8556 0.0001 6.7697 0.0003
# 4 0.0000 0.0001 0.0001 7.1523 0.0001 -10.4817
# 5 -8.2877 4.8704 6.7697 0.0001 31.0239 0.0001
# 6 0.0001 0.0002 0.0003 -10.4817 0.0001 -10.3989
#
#
#
# Elastic Compliance Matrix: (Units=1/GPa)
#
#
# Indices 1 2 3 4 5 6 
#
# 1 0.027455 -0.002049 -0.001750 0.000000 0.008038 0.000000
# 2 -0.002049 0.013624 0.001799 0.000000 -0.003079 0.000000
# 3 -0.001750 0.001799 0.009545 0.000000 -0.002833 0.000000
# 4 0.000000 0.000000 0.000000 0.056442 0.000000 -0.056891
# 5 0.008038 -0.003079 -0.002833 0.000000 0.035482 0.000000
# 6 0.000000 0.000000 0.000000 -0.056891 0.000000 -0.038820
#
#
# Mechanical properties :
#
#
# Convention : Reuss Voigt Hill
#
# Bulk Modulus (GPa) = 21.44776 24.04176 22.74476
# Shear Modulus (GPa) = 40.56193 20.93149 30.74671
#
# Velocity S-wave (km/s) = 4.37637 3.14380 3.81026
# Velocity P-wave (km/s) = 5.97194 4.95278 5.48608
#
# Compressibility (1/GPa) = 0.04662492
#
# Stress axis : x y z
#
# Youngs Moduli (GPa) = 36.42387 73.39726 104.76647
#
# Poissons Ratio (x) = 0.15038 0.18331
# Poissons Ratio (y) = 0.07462 -0.18846
# Poissons Ratio (z) = 0.06373 -0.13203
#
# Static dielectric constant tensor:
#      x y z
#    x 1.752350 0.000000 -0.000880 
#    y 0.000000 1.754940 0.000000 
#    z -0.000880 0.000000 1.835660 
# 
# From -- ./inp_files/284095.got.cif
#   From: 2010.05.17/outbox.cif.g08.bks.cpg/sg12_143_cif.got.tgz:284095.got - 2010.06.03 13:09:07.
