data_PCOD9176017
_publ_section_title
;
Structure prediction by ZEFSAII (Michael W. Deem and Ramdas Pophale) SiO2 
 PCOD9176017
Probable space group: C 2/M
;
_chemical_formula_sum "Si O2"
_cell_formula_units_Z 58
_cell_length_a 15.015102
_cell_length_b 23.901383
_cell_length_c 17.386227
_cell_angle_alpha 90.000000
_cell_angle_beta 148.348951
_cell_angle_gamma 90.000000
_cell_volume 3274.195532
_symmetry_space_group_name_H-M "C 2/M"
_symmetry_group_IT_number 12
_symmetry_cell_setting 'monoclinic'
loop_
_space_group_symop_operation_xyz
x,y,z
-x,y,-z
-x,-y,-z
x,-y,z
1/2+x,1/2+y,z
1/2-x,1/2+y,-z
1/2-x,1/2-y,-z
1/2+x,1/2-y,z
loop_
_atom_site_type_symbol
_atom_site_label
_atom_site_fract_x
_atom_site_fract_y
_atom_site_fract_z
Si Si1 0.980843 0.316555 0.071383
Si Si2 0.909632 0.215373 0.508949
Si Si3 0.418051 0.934646 0.558541
Si Si4 0.435761 0.848392 0.709336
Si Si5 0.844603 0.791314 0.742856
Si Si6 0.890695 0.234303 0.193111
Si Si7 0.223480 0.911875 0.261785
Si Si8 0.000000 0.000000 0.000000
O O1 0.017305 0.359921 0.167014
O O2 0.111048 0.264254 0.175906
O O3 0.799098 0.287634 0.952522
O O4 0.000000 0.339569 0.000000
O O5 0.745888 0.182276 0.418396
O O6 0.832833 0.276192 0.429478
O O7 0.000000 0.191418 0.500000
O O8 0.040307 0.218273 0.673257
O O9 0.417958 0.896910 0.634635
O O10 0.271430 0.922701 0.387210
O O11 0.599037 0.922919 0.651150
O O12 0.410087 0.000000 0.572304
O O13 0.573311 0.800854 0.786813
O O14 0.830603 0.847159 0.780772
O O15 0.989951 0.793381 0.784534
O O16 0.085794 0.951377 0.120104
#
# Coordination Sequence:
#
# PCOD9176017 Si02
#       8
#     8   8   8   8   8   8   8   2
#     4  10  21  35  52  85 117 150 184 231 290 350
#     4  10  19  32  52  84 111 146 187 232 280 345
#     4  11  22  42  61  77 110 153 204 229 274 329
#     4  10  21  35  57  80 109 150 189 237 279 333
#     4  10  21  33  53  81 113 155 190 218 285 340
#     4  10  18  34  50  81 117 145 189 233 275 346
#     4  11  23  39  56  84 112 155 189 239 272 333
#     4  12  24  38  52  80 120 142 196 236 266 318
#
# _framework density 17.714276000000002
#
# number of rings (size 3 to 8) (size 9 to 14) (size 15 to 20)
#    0.000    1.931    1.379    7.034    6.759    1.103 
#    0.000    0.000    0.000    0.828    0.000    0.000 
#    0.000    0.000    0.000    0.000    0.000    0.000 
#
# Total GULP energy -161478.572178 kJ/mol
# GULP energy per Si atom -5568.226627 kJ/mol
# Density = 1.767396 g / cm^3
# Si number density = 17.714276 Si / 1000 Ang^3
#
#
#
# Elastic Constant Matrix: (Units=GPa)
#
#
# Indices 1 2 3 4 5 6 
#
# 1 89.3291 32.3692 37.9186 -0.0002 -26.1717 0.0002
# 2 32.3692 78.2216 31.1237 0.0000 -14.1765 0.0001
# 3 37.9186 31.1237 108.2796 -0.0004 -26.5039 0.0003
# 4 -0.0002 0.0000 -0.0004 15.9931 -0.0002 -5.5245
# 5 -26.1717 -14.1765 -26.5039 -0.0002 38.6477 0.0002
# 6 0.0002 0.0001 0.0003 -5.5245 0.0002 3.9654
#
#
#
# Elastic Compliance Matrix: (Units=1/GPa)
#
#
# Indices 1 2 3 4 5 6 
#
# 1 0.016026 -0.004252 -0.002542 0.000000 0.007550 -0.000001
# 2 -0.004252 0.015848 -0.002822 0.000000 0.000998 0.000000
# 3 -0.002542 -0.002822 0.012332 0.000000 0.005701 -0.000001
# 4 0.000000 0.000000 0.000000 0.120533 0.000000 0.167924
# 5 0.007550 0.000998 0.005701 0.000000 0.035263 -0.000003
# 6 -0.000001 0.000000 -0.000001 0.167924 -0.000003 0.486127
#
#
# Mechanical properties :
#
#
# Convention : Reuss Voigt Hill
#
# Bulk Modulus (GPa) = 40.04178 53.18369 46.61273
# Shear Modulus (GPa) = 7.00589 23.34917 15.17753
#
# Velocity S-wave (km/s) = 1.99086 3.63450 2.93028
# Velocity P-wave (km/s) = 5.28564 6.90659 6.14976
#
# Compressibility (1/GPa) = 0.02497392
#
# Stress axis : x y z
#
# Youngs Moduli (GPa) = 62.39720 63.10142 81.09003
#
# Poissons Ratio (x) = 0.26832 0.20614
# Poissons Ratio (y) = 0.26532 0.22881
# Poissons Ratio (z) = 0.15862 0.17805
#
# Static dielectric constant tensor:
#      x y z
#    x 1.638350 0.000000 -0.023260 
#    y 0.000000 1.584940 0.000000 
#    z -0.023260 0.000000 1.657020 
# 
# From -- ./inp_files/272713.got.cif
#   From: 2010.05.17/outbox.cif.g08.bks.cpg/sg12_137_cif.got.tgz:272713.got - 2010.06.03 13:09:07.
