data_PCOD9176269
_publ_section_title
;
Structure prediction by ZEFSAII (Michael W. Deem and Ramdas Pophale) SiO2 
 PCOD9176269
Probable space group: C 2/M
;
_chemical_formula_sum "Si O2"
_cell_formula_units_Z 52
_cell_length_a 20.457137
_cell_length_b 11.017494
_cell_length_c 16.569158
_cell_angle_alpha 90.000000
_cell_angle_beta 129.458269
_cell_angle_gamma 90.000000
_cell_volume 2883.332506
_symmetry_space_group_name_H-M "C 2/M"
_symmetry_group_IT_number 12
_symmetry_cell_setting 'monoclinic'
loop_
_space_group_symop_operation_xyz
x,y,z
-x,y,-z
-x,-y,-z
x,-y,z
1/2+x,1/2+y,z
1/2-x,1/2+y,-z
1/2-x,1/2-y,-z
1/2+x,1/2-y,z
loop_
_atom_site_type_symbol
_atom_site_label
_atom_site_fract_x
_atom_site_fract_y
_atom_site_fract_z
Si Si1 0.694247 0.860145 0.292318
Si Si2 0.598653 0.134672 0.729633
Si Si3 0.454596 0.643613 0.044001
Si Si4 0.784285 0.851604 0.825195
Si Si5 0.500000 0.792698 0.500000
Si Si6 0.374650 0.640613 0.515185
Si Si7 0.544068 0.244084 0.268257
O O1 0.695462 0.745950 0.230245
O O2 0.776991 0.842185 0.413613
O O3 0.609193 0.849979 0.278751
O O4 0.699796 0.000000 0.263311
O O5 0.692396 0.183936 0.787386
O O6 0.553369 0.134054 0.607151
O O7 0.533318 0.198081 0.737769
O O8 0.610980 0.000000 0.771120
O O9 0.468555 0.500000 0.055058
O O10 0.498237 0.690710 0.158205
O O11 0.500000 0.695918 0.000000
O O12 0.355490 0.663407 0.949802
O O13 0.784144 0.000000 0.802802
O O14 0.433525 0.714069 0.499354
O O15 0.395115 0.500000 0.521628
O O16 0.398136 0.678813 0.624540
#
# Coordination Sequence:
#
# PCOD9176269 Si02
#       7
#     8   8   8   8   4   8   8
#     4  11  22  39  59  88 123 155 193 243 299 354
#     4  10  21  37  57  85 119 154 197 241 291 353
#     4  10  20  37  62  87 114 152 203 249 288 345
#     4  10  21  40  64  87 114 157 203 244 288 350
#     4  10  18  34  58  84 116 156 196 234 298 346
#     4  10  21  35  56  86 122 155 194 240 293 352
#     4  11  22  37  58  87 120 155 194 243 299 348
#
# _framework density 18.034687000000002
#
# number of rings (size 3 to 8) (size 9 to 14) (size 15 to 20)
#    0.000    1.692    3.077    1.846    0.000    1.231 
#    0.000    3.846    0.000    0.000    0.000    0.000 
#    0.000    0.000    0.000    0.000    0.000    0.000 
#
# Total GULP energy -144749.018679 kJ/mol
# GULP energy per Si atom -5567.269949 kJ/mol
# Density = 1.799364 g / cm^3
# Si number density = 18.034687 Si / 1000 Ang^3
#
#
#
# Elastic Constant Matrix: (Units=GPa)
#
#
# Indices 1 2 3 4 5 6 
#
# 1 109.0199 35.9448 51.0631 0.0000 14.2121 0.0000
# 2 35.9448 77.3132 42.7339 0.0000 -0.7248 0.0000
# 3 51.0631 42.7339 125.4294 0.0000 -0.8432 0.0000
# 4 0.0000 0.0000 0.0000 36.3771 0.0000 26.0721
# 5 14.2121 -0.7248 -0.8432 0.0000 29.4514 0.0000
# 6 0.0000 0.0000 0.0000 26.0721 0.0000 26.6641
#
#
#
# Elastic Compliance Matrix: (Units=1/GPa)
#
#
# Indices 1 2 3 4 5 6 
#
# 1 0.013258 -0.003965 -0.004091 0.000000 -0.006613 0.000000
# 2 -0.003965 0.017123 -0.004205 0.000000 0.002214 0.000000
# 3 -0.004091 -0.004205 0.011085 0.000000 0.002188 0.000000
# 4 0.000000 0.000000 0.000000 0.091880 0.000000 -0.089840
# 5 -0.006613 0.002214 0.002188 0.000000 0.037262 0.000000
# 6 0.000000 0.000000 0.000000 -0.089840 0.000000 0.125349
#
#
# Mechanical properties :
#
#
# Convention : Reuss Voigt Hill
#
# Bulk Modulus (GPa) = 59.01469 63.47182 61.24325
# Shear Modulus (GPa) = 15.33145 30.63323 22.98234
#
# Velocity S-wave (km/s) = 2.91883 4.12585 3.57366
# Velocity P-wave (km/s) = 6.64480 7.61364 7.14566
#
# Compressibility (1/GPa) = 0.01694493
#
# Stress axis : x y z
#
# Youngs Moduli (GPa) = 75.42577 58.40255 90.20866
#
# Poissons Ratio (x) = 0.23155 0.36906
# Poissons Ratio (y) = 0.29904 0.37930
# Poissons Ratio (z) = 0.30858 0.24557
#
# Static dielectric constant tensor:
#      x y z
#    x 1.653460 0.000000 0.008140 
#    y 0.000000 1.625040 0.000000 
#    z 0.008140 0.000000 1.615460 
# 
# From -- ./inp_files/232604.got.cif
#   From: 2010.05.17/outbox.cif.g08.bks.cpg/sg12_117_cif.got.tgz:232604.got - 2010.06.03 13:09:07.
