data_PCOD9176870
_publ_section_title
;
Structure prediction by ZEFSAII (Michael W. Deem and Ramdas Pophale) SiO2 
 PCOD9176870
Probable space group: C 2/M
;
_chemical_formula_sum "Si O2"
_cell_formula_units_Z 48
_cell_length_a 20.817227
_cell_length_b 20.957121
_cell_length_c 14.966606
_cell_angle_alpha 90.000000
_cell_angle_beta 162.757713
_cell_angle_gamma 90.000000
_cell_volume 1935.419385
_symmetry_space_group_name_H-M "C 2/M"
_symmetry_group_IT_number 12
_symmetry_cell_setting 'monoclinic'
loop_
_space_group_symop_operation_xyz
x,y,z
-x,y,-z
-x,-y,-z
x,-y,z
1/2+x,1/2+y,z
1/2-x,1/2+y,-z
1/2-x,1/2-y,-z
1/2+x,1/2-y,z
loop_
_atom_site_type_symbol
_atom_site_label
_atom_site_fract_x
_atom_site_fract_y
_atom_site_fract_z
Si Si1 0.231659 0.393314 0.961620
Si Si2 0.751548 0.776667 0.865072
Si Si3 0.227617 0.926654 0.601443
Si Si4 0.713650 0.069991 0.659939
Si Si5 0.239729 0.628312 0.162723
Si Si6 0.904878 0.129154 0.748820
O O1 0.261458 0.318638 0.970539
O O2 0.032888 0.419608 0.640465
O O3 0.465556 0.424108 0.263032
O O4 0.158523 0.406830 0.966237
O O5 0.500000 0.785252 0.500000
O O6 0.798976 0.702399 0.911938
O O7 0.948092 0.809223 0.071386
O O8 0.313987 0.897204 0.809780
O O9 0.249459 0.885203 0.540016
O O10 0.293109 0.000000 0.676133
O O11 0.774933 0.123671 0.668049
O O12 0.733418 0.000000 0.645281
O O13 0.900859 0.077169 0.982057
O O14 0.500000 0.621295 0.500000
#
# Coordination Sequence:
#
# PCOD9176870 Si02
#       6
#     8   8   8   8   8   8
#     4  10  20  34  57  88 112 147 188 237 280 334
#     4  10  18  36  59  83 112 142 197 233 283 338
#     4  10  20  36  59  87 117 150 193 233 283 343
#     4  11  21  36  58  84 116 150 187 234 296 340
#     4   9  20  35  58  84 112 155 182 235 285 333
#     4  10  21  37  57  83 113 155 187 236 287 336
#
# _framework density 24.800825
#
# number of rings (size 3 to 8) (size 9 to 14) (size 15 to 20)
#    0.000    2.000    1.667    3.000    0.000    5.000 
#    0.000    4.167    3.667    2.000    0.000    0.000 
#    0.000    0.000    0.000    0.000    0.000    0.000 
#
# Total GULP energy -133854.922631 kJ/mol
# GULP energy per Si atom -5577.288443 kJ/mol
# Density = 2.474438 g / cm^3
# Si number density = 24.800825 Si / 1000 Ang^3
#
#
#
# Elastic Constant Matrix: (Units=GPa)
#
#
# Indices 1 2 3 4 5 6 
#
# 1 121.8498 -0.3962 6.1908 0.0000 -32.9214 0.0000
# 2 -0.3962 54.8351 0.9973 -0.0001 -22.6961 0.0000
# 3 6.1908 0.9973 107.1932 0.0003 -10.9979 0.0001
# 4 0.0000 -0.0001 0.0003 9.4996 0.0000 0.9129
# 5 -32.9214 -22.6961 -10.9979 0.0000 42.2795 0.0000
# 6 0.0000 0.0000 0.0001 0.9129 0.0000 15.5714
#
#
#
# Elastic Compliance Matrix: (Units=1/GPa)
#
#
# Indices 1 2 3 4 5 6 
#
# 1 0.011316 0.004850 0.000485 0.000000 0.011541 0.000000
# 2 0.004850 0.025652 0.001317 0.000000 0.017889 0.000000
# 3 0.000485 0.001317 0.009658 0.000000 0.003597 0.000000
# 4 0.000000 0.000000 0.000000 0.105864 0.000000 -0.006206
# 5 0.011541 0.017889 0.003597 0.000000 0.043177 0.000000
# 6 0.000000 0.000000 0.000000 -0.006206 0.000000 0.064584
#
#
# Mechanical properties :
#
#
# Convention : Reuss Voigt Hill
#
# Bulk Modulus (GPa) = 16.68635 33.05132 24.86883
# Shear Modulus (GPa) = 18.73193 31.94252 25.33722
#
# Velocity S-wave (km/s) = 2.75124 3.59271 3.19976
# Velocity P-wave (km/s) = 4.10307 5.52863 4.86831
#
# Compressibility (1/GPa) = 0.05992924
#
# Stress axis : x y z
#
# Youngs Moduli (GPa) = 88.36972 38.98367 103.54416
#
# Poissons Ratio (x) = -0.18906 -0.05026
# Poissons Ratio (y) = -0.42857 -0.13633
# Poissons Ratio (z) = -0.04290 -0.05133
#
# Static dielectric constant tensor:
#      x y z
#    x 2.070670 0.000000 -0.003050 
#    y 0.000000 1.924810 0.000000 
#    z -0.003050 0.000000 1.981580 
# 
# From -- ./inp_files/235571.got.cif
#   From: 2010.05.17/outbox.cif.g08.bks.cpg/sg12_118_cif.got.tgz:235571.got - 2010.06.03 13:09:07.
