data_PCOD9176683
_publ_section_title
;
Structure prediction by ZEFSAII (Michael W. Deem and Ramdas Pophale) SiO2 
 PCOD9176683
Probable space group: C 2/M
;
_chemical_formula_sum "Si O2"
_cell_formula_units_Z 56
_cell_length_a 32.626112
_cell_length_b 8.033936
_cell_length_c 18.095426
_cell_angle_alpha 90.000000
_cell_angle_beta 35.321537
_cell_angle_gamma 90.000000
_cell_volume 2742.292785
_symmetry_space_group_name_H-M "C 2/M"
_symmetry_group_IT_number 12
_symmetry_cell_setting 'monoclinic'
loop_
_space_group_symop_operation_xyz
x,y,z
-x,y,-z
-x,-y,-z
x,-y,z
1/2+x,1/2+y,z
1/2-x,1/2+y,-z
1/2-x,1/2-y,-z
1/2+x,1/2-y,z
loop_
_atom_site_type_symbol
_atom_site_label
_atom_site_fract_x
_atom_site_fract_y
_atom_site_fract_z
Si Si1 0.920713 0.798693 0.593096
Si Si2 0.091046 0.300864 0.558610
Si Si3 0.330441 0.299143 0.864929
Si Si4 0.089089 0.196087 0.801144
Si Si5 0.934589 0.798664 0.842093
Si Si6 0.420244 0.305679 0.025303
Si Si7 0.689177 0.814932 0.535764
O O1 0.905079 0.743784 0.533004
O O2 0.863490 0.741467 0.738188
O O3 0.000000 0.743380 0.500000
O O4 0.921520 0.000000 0.592648
O O5 0.091997 0.500000 0.564869
O O6 0.157607 0.231500 0.508325
O O7 0.015768 0.241564 0.702389
O O8 0.333599 0.500000 0.859747
O O9 0.382875 0.240476 0.853046
O O10 0.250000 0.250000 0.000000
O O11 0.122364 0.305959 0.688785
O O12 0.004811 0.198284 0.914144
O O13 0.109821 0.000000 0.762719
O O14 0.110054 0.258940 0.852325
O O15 0.910188 0.733089 0.958498
O O16 0.930792 0.000000 0.851310
O O17 0.398578 0.500000 0.054879
O O18 0.750000 0.750000 0.500000
O O19 0.711263 0.000000 0.482534
#
# Coordination Sequence:
#
# PCOD9176683 Si02
#       7
#     8   8   8   8   8   8   8
#     4  10  20  39  65  91 119 155 202 244 288 360
#     4  11  23  37  58  90 118 146 194 253 301 344
#     4  10  22  39  60  86 119 158 195 239 294 352
#     4   9  16  31  55  81 108 140 180 226 279 339
#     4  10  18  35  61  84 111 153 196 234 285 353
#     4   8  15  28  54  85 107 136 180 225 274 335
#     4  11  24  40  56  79 113 153 196 242 297 352
#
# _framework density 20.420867999999999
#
# number of rings (size 3 to 8) (size 9 to 14) (size 15 to 20)
#    0.000    2.143    2.857    1.714    0.000    3.143 
#    2.571    2.143    0.000    0.000    0.000    0.000 
#    0.000    0.000    0.000    0.000    0.000    0.000 
#
# Total GULP energy -156052.548317 kJ/mol
# GULP energy per Si atom -5573.305297 kJ/mol
# Density = 2.037439 g / cm^3
# Si number density = 20.420868 Si / 1000 Ang^3
#
#
#
# Elastic Constant Matrix: (Units=GPa)
#
#
# Indices 1 2 3 4 5 6 
#
# 1 189.6337 10.1730 50.9621 -0.0072 18.1504 0.0028
# 2 10.1730 14.3201 -1.7431 -0.0170 -3.2891 0.0046
# 3 50.9621 -1.7431 60.5843 -0.0193 12.1419 0.0045
# 4 -0.0072 -0.0170 -0.0193 21.5128 0.0067 -7.2029
# 5 18.1504 -3.2891 12.1419 0.0067 43.8420 -0.0020
# 6 0.0028 0.0046 0.0045 -7.2029 -0.0020 7.4278
#
#
#
# Elastic Compliance Matrix: (Units=1/GPa)
#
#
# Indices 1 2 3 4 5 6 
#
# 1 0.007426 -0.006445 -0.006055 -0.000009 -0.001881 -0.000004
# 2 -0.006445 0.076711 0.006289 0.000068 0.006681 0.000019
# 3 -0.006055 0.006289 0.022428 0.000028 -0.003233 0.000011
# 4 -0.000009 0.000068 0.000028 0.068833 -0.000006 0.066749
# 5 -0.001881 0.006681 -0.003233 -0.000006 0.024984 -0.000001
# 6 -0.000004 0.000019 0.000011 0.066749 -0.000001 0.199358
#
#
# Mechanical properties :
#
#
# Convention : Reuss Voigt Hill
#
# Bulk Modulus (GPa) = 10.62206 42.59136 26.60671
# Shear Modulus (GPa) = 11.27284 28.23292 19.75288
#
# Velocity S-wave (km/s) = 2.35207 3.72230 3.11350
# Velocity P-wave (km/s) = 3.54812 6.27504 5.09732
#
# Compressibility (1/GPa) = 0.09414368
#
# Stress axis : x y z
#
# Youngs Moduli (GPa) = 134.65425 13.03601 44.58621
#
# Poissons Ratio (x) = 0.08402 0.26999
# Poissons Ratio (y) = 0.86783 -0.28042
# Poissons Ratio (z) = 0.81539 -0.08199
#
# Static dielectric constant tensor:
#      x y z
#    x 1.799620 0.000000 -0.019350 
#    y 0.000000 1.754680 0.000000 
#    z -0.019350 0.000000 1.762910 
# 
# From -- ./inp_files/295110.got.cif
#   From: 2010.05.17/outbox.cif.g08.bks.cpg/sg12_148_cif.got.tgz:295110.got - 2010.06.03 13:09:07.
