data_PCOD9176880
_publ_section_title
;
Structure prediction by ZEFSAII (Michael W. Deem and Ramdas Pophale) SiO2 
 PCOD9176880
Probable space group: C 2/M
;
_chemical_formula_sum "Si O2"
_cell_formula_units_Z 64
_cell_length_a 25.456089
_cell_length_b 7.923073
_cell_length_c 14.816574
_cell_angle_alpha 90.000000
_cell_angle_beta 88.948859
_cell_angle_gamma 90.000000
_cell_volume 2987.858615
_symmetry_space_group_name_H-M "C 2/M"
_symmetry_group_IT_number 12
_symmetry_cell_setting 'monoclinic'
loop_
_space_group_symop_operation_xyz
x,y,z
-x,y,-z
-x,-y,-z
x,-y,z
1/2+x,1/2+y,z
1/2-x,1/2+y,-z
1/2-x,1/2-y,-z
1/2+x,1/2-y,z
loop_
_atom_site_type_symbol
_atom_site_label
_atom_site_fract_x
_atom_site_fract_y
_atom_site_fract_z
Si Si1 0.938190 0.197793 0.793874
Si Si2 0.808334 0.309203 0.975142
Si Si3 0.919242 0.806021 0.995488
Si Si4 0.140214 0.201720 0.355842
Si Si5 0.947958 0.697565 0.188162
Si Si6 0.225618 0.201279 0.207631
Si Si7 0.836743 0.298801 0.264008
Si Si8 0.309178 0.297036 0.468190
O O1 0.904139 0.268630 0.711637
O O2 0.000160 0.213550 0.776254
O O3 0.922569 0.000000 0.801944
O O4 0.928812 0.269319 0.895274
O O5 0.816179 0.500000 0.005705
O O6 0.807834 0.293191 0.867190
O O7 0.750000 0.250000 0.000000
O O8 0.856432 0.202847 0.010919
O O9 0.945486 0.717750 0.079854
O O10 0.936923 0.000000 0.995376
O O11 0.195661 0.222616 0.302475
O O12 0.150280 0.267156 0.456047
O O13 0.130568 0.000000 0.364671
O O14 0.951993 0.500000 0.210179
O O15 0.893046 0.766859 0.229637
O O16 0.285250 0.264274 0.212152
O O17 0.225117 0.000000 0.186816
O O18 0.837585 0.500000 0.248064
O O19 0.824817 0.268709 0.369395
O O20 0.311501 0.500000 0.465582
O O21 0.250000 0.250000 0.500000
#
# Coordination Sequence:
#
# PCOD9176880 Si02
#       8
#     8   8   8   8   8   8   8   8
#     4  10  21  40  63  85 115 158 203 246 293 354
#     4  12  24  36  53  83 121 159 199 243 296 357
#     4  11  22  39  63  88 115 156 205 250 299 355
#     4   9  18  36  61  87 115 150 191 236 294 352
#     4  11  24  40  59  87 122 160 200 249 302 351
#     4  10  18  36  60  81 114 156 193 237 295 356
#     4  10  22  40  60  84 120 160 195 240 300 355
#     4  11  21  36  62  93 121 153 193 241 297 360
#
# _framework density 21.420021999999999
#
# number of rings (size 3 to 8) (size 9 to 14) (size 15 to 20)
#    0.000    1.500    2.500    3.375    0.000    5.000 
#    0.000    1.875    0.000    3.750    0.000    0.000 
#    0.000    0.000    0.000    0.000    0.000    0.000 
#
# Total GULP energy -178772.175334 kJ/mol
# GULP energy per Si atom -5586.630479 kJ/mol
# Density = 2.137127 g / cm^3
# Si number density = 21.420022 Si / 1000 Ang^3
#
#
#
# Elastic Constant Matrix: (Units=GPa)
#
#
# Indices 1 2 3 4 5 6 
#
# 1 137.8903 -2.0355 38.5284 0.0000 20.4249 0.0000
# 2 -2.0355 24.2697 -12.1545 0.0000 -3.1335 0.0000
# 3 38.5284 -12.1545 86.2145 0.0000 15.8168 0.0000
# 4 0.0000 0.0000 0.0000 23.4821 0.0000 0.5169
# 5 20.4249 -3.1335 15.8168 0.0000 27.1425 0.0000
# 6 0.0000 0.0000 0.0000 0.5169 0.0000 23.5290
#
#
#
# Elastic Compliance Matrix: (Units=1/GPa)
#
#
# Indices 1 2 3 4 5 6 
#
# 1 0.008878 -0.001535 -0.003276 0.000000 -0.004949 0.000000
# 2 -0.001535 0.044666 0.006522 0.000000 0.002511 0.000000
# 3 -0.003276 0.006522 0.014995 0.000000 -0.005520 0.000000
# 4 0.000000 0.000000 0.000000 0.042606 0.000000 -0.000936
# 5 -0.004949 0.002511 -0.005520 0.000000 0.044073 0.000000
# 6 0.000000 0.000000 0.000000 -0.000936 0.000000 0.042521
#
#
# Mechanical properties :
#
#
# Convention : Reuss Voigt Hill
#
# Bulk Modulus (GPa) = 13.89635 33.00571 23.45103
# Shear Modulus (GPa) = 22.90386 29.76645 26.33516
#
# Velocity S-wave (km/s) = 3.27352 3.73185 3.51018
# Velocity P-wave (km/s) = 4.55956 5.83191 5.23454
#
# Compressibility (1/GPa) = 0.07196134
#
# Stress axis : x y z
#
# Youngs Moduli (GPa) = 112.63972 22.38863 66.68815
#
# Poissons Ratio (x) = 0.03437 0.21846
# Poissons Ratio (y) = 0.17290 -0.43496
# Poissons Ratio (z) = 0.36900 -0.14603
#
# Static dielectric constant tensor:
#      x y z
#    x 1.787090 0.000000 -0.010240 
#    y 0.000000 1.782220 0.000000 
#    z -0.010240 0.000000 1.813320 
# 
# From -- ./inp_files/238750.got.cif
#   From: 2010.05.17/outbox.cif.g08.bks.cpg/sg12_120_cif.got.tgz:238750.got - 2010.06.03 13:09:07.
