data_PCOD9176287
_publ_section_title
;
Structure prediction by ZEFSAII (Michael W. Deem and Ramdas Pophale) SiO2 
 PCOD9176287
Probable space group: C 2/M
;
_chemical_formula_sum "Si O2"
_cell_formula_units_Z 48
_cell_length_a 9.001297
_cell_length_b 27.475749
_cell_length_c 12.181133
_cell_angle_alpha 90.000000
_cell_angle_beta 127.280987
_cell_angle_gamma 90.000000
_cell_volume 2397.053748
_symmetry_space_group_name_H-M "C 2/M"
_symmetry_group_IT_number 12
_symmetry_cell_setting 'monoclinic'
loop_
_space_group_symop_operation_xyz
x,y,z
-x,y,-z
-x,-y,-z
x,-y,z
1/2+x,1/2+y,z
1/2-x,1/2+y,-z
1/2-x,1/2-y,-z
1/2+x,1/2-y,z
loop_
_atom_site_type_symbol
_atom_site_label
_atom_site_fract_x
_atom_site_fract_y
_atom_site_fract_z
Si Si1 0.961586 0.669268 0.817995
Si Si2 0.957586 0.615629 0.352424
Si Si3 0.045005 0.774018 0.899918
Si Si4 0.303998 0.636862 0.127740
Si Si5 0.590161 0.555626 0.223584
Si Si6 0.319759 0.445157 0.477460
O O1 0.788902 0.639528 0.793598
O O2 0.021027 0.661006 0.719357
O O3 0.921909 0.726453 0.820476
O O4 0.137763 0.651111 0.969685
O O5 0.761934 0.587185 0.252558
O O6 0.000000 0.625646 0.500000
O O7 0.123233 0.581129 0.382853
O O8 0.048320 0.818783 0.818258
O O9 0.250000 0.750000 0.000000
O O10 0.000000 0.793982 0.000000
O O11 0.401633 0.587204 0.135028
O O12 0.579178 0.500000 0.176643
O O13 0.635548 0.552464 0.373484
O O14 0.500000 0.422200 0.500000
O O15 0.300478 0.500000 0.424186
#
# Coordination Sequence:
#
# PCOD9176287 Si02
#       6
#     8   8   8   8   8   8
#     4  10  20  37  56  84 116 142 187 231 277 337
#     4  10  21  35  55  80 113 150 187 229 273 324
#     4  10  18  34  58  87 109 139 184 227 278 331
#     4  10  21  35  59  87 110 147 183 231 285 328
#     4  10  21  35  53  81 115 148 187 232 277 328
#     4   9  17  33  56  76 101 146 196 232 269 324
#
# _framework density 20.024583
#
# number of rings (size 3 to 8) (size 9 to 14) (size 15 to 20)
#    0.000    2.167    3.333    1.500    4.667    2.000 
#    0.000    5.000    0.000   10.000    0.000    0.000 
#    0.000    0.000    0.000    0.000    0.000    0.000 
#
# Total GULP energy -133721.814219 kJ/mol
# GULP energy per Si atom -5571.742259 kJ/mol
# Density = 1.997901 g / cm^3
# Si number density = 20.024583 Si / 1000 Ang^3
#
#
#
# Elastic Constant Matrix: (Units=GPa)
#
#
# Indices 1 2 3 4 5 6 
#
# 1 123.5752 29.1726 17.2952 0.0000 -15.0195 0.0000
# 2 29.1726 79.5260 21.7282 0.0000 -3.5033 0.0000
# 3 17.2952 21.7282 23.7463 0.0000 -8.6430 0.0000
# 4 0.0000 0.0000 0.0000 11.9017 0.0000 -4.5487
# 5 -15.0195 -3.5033 -8.6430 0.0000 28.3618 0.0000
# 6 0.0000 0.0000 0.0000 -4.5487 0.0000 36.8562
#
#
#
# Elastic Compliance Matrix: (Units=1/GPa)
#
#
# Indices 1 2 3 4 5 6 
#
# 1 0.009597 -0.002424 -0.003409 0.000000 0.003744 0.000000
# 2 -0.002424 0.017597 -0.015761 0.000000 -0.003913 0.000000
# 3 -0.003409 -0.015761 0.064842 0.000000 0.016008 0.000000
# 4 0.000000 0.000000 0.000000 0.088181 0.000000 0.010883
# 5 0.003744 -0.003913 0.016008 0.000000 0.041636 0.000000
# 6 0.000000 0.000000 0.000000 0.010883 0.000000 0.028476
#
#
# Mechanical properties :
#
#
# Convention : Reuss Voigt Hill
#
# Bulk Modulus (GPa) = 20.47109 40.35994 30.41551
# Shear Modulus (GPa) = 16.13944 26.00068 21.07006
#
# Velocity S-wave (km/s) = 2.84206 3.60729 3.24730
# Velocity P-wave (km/s) = 4.58420 6.12773 5.41128
#
# Compressibility (1/GPa) = 0.04884939
#
# Stress axis : x y z
#
# Youngs Moduli (GPa) = 104.20342 56.82628 15.42201
#
# Poissons Ratio (x) = 0.13775 0.05257
# Poissons Ratio (y) = 0.25259 0.24306
# Poissons Ratio (z) = 0.35522 0.89562
#
# Static dielectric constant tensor:
#      x y z
#    x 1.733060 0.000000 0.008810 
#    y 0.000000 1.757140 0.000000 
#    z 0.008810 0.000000 1.730190 
# 
# From -- ./inp_files/123904.got.cif
#   From: 2010.05.17/outbox.cif.g08.bks.cpg/sg12_62_cif.got.tgz:123904.got - 2010.06.03 13:09:07.
