data_PCOD9176483
_publ_section_title
;
Structure prediction by ZEFSAII (Michael W. Deem and Ramdas Pophale) SiO2 
 PCOD9176483
Probable space group: C 2/M
;
_chemical_formula_sum "Si O2"
_cell_formula_units_Z 56
_cell_length_a 20.976328
_cell_length_b 15.546652
_cell_length_c 18.257089
_cell_angle_alpha 90.000000
_cell_angle_beta 151.062509
_cell_angle_gamma 90.000000
_cell_volume 2880.800790
_symmetry_space_group_name_H-M "C 2/M"
_symmetry_group_IT_number 12
_symmetry_cell_setting 'monoclinic'
loop_
_space_group_symop_operation_xyz
x,y,z
-x,y,-z
-x,-y,-z
x,-y,z
1/2+x,1/2+y,z
1/2-x,1/2+y,-z
1/2-x,1/2-y,-z
1/2+x,1/2-y,z
loop_
_atom_site_type_symbol
_atom_site_label
_atom_site_fract_x
_atom_site_fract_y
_atom_site_fract_z
Si Si1 0.984015 0.728486 0.170286
Si Si2 0.882110 0.193044 0.821340
Si Si3 0.768872 0.401544 0.890416
Si Si4 0.387054 0.500000 0.824765
Si Si5 0.838429 0.905951 0.060697
Si Si6 0.083750 0.500000 0.510996
Si Si7 0.943264 0.645554 0.278872
Si Si8 0.144972 0.762281 0.677286
O O1 0.907883 0.819832 0.102067
O O2 0.011381 0.693505 0.279107
O O3 0.100258 0.744278 0.229785
O O4 0.887800 0.659008 0.036264
O O5 0.897023 0.096526 0.804066
O O6 0.746504 0.210466 0.727885
O O7 0.000000 0.205192 0.000000
O O8 0.808065 0.500000 0.917021
O O9 0.667475 0.401455 0.857031
O O10 0.706448 0.354373 0.758344
O O11 0.232470 0.500000 0.689135
O O12 0.500000 0.500000 0.000000
O O13 0.892809 0.000000 0.092390
O O14 0.685468 0.903127 0.881999
O O15 0.000000 0.500000 0.500000
O O16 0.041764 0.582156 0.420122
O O17 0.878310 0.711373 0.270631
O O18 0.000000 0.770408 0.500000
#
# Coordination Sequence:
#
# PCOD9176483 Si02
#       8
#     8   8   8   4   8   4   8   8
#     4  11  21  38  65  97 128 166 217 272 330 394
#     4  11  22  41  63  94 128 165 215 272 331 394
#     4  10  20  37  63  91 123 164 220 268 317 383
#     4  10  24  42  60  90 136 172 204 259 338 403
#     4  10  18  34  64  97 126 164 211 272 325 385
#     4  12  24  40  66 102 131 166 219 273 319 379
#     4  11  20  38  62  95 128 167 217 267 324 390
#     4  12  23  40  62  88 127 171 214 268 328 390
#
# _framework density 19.439039999999999
#
# number of rings (size 3 to 8) (size 9 to 14) (size 15 to 20)
#    0.000    1.143    5.000    3.000    2.000    1.429 
#    2.571    4.286    0.000    0.000    0.000    0.000 
#    0.000    0.000    0.000    0.000    0.000    0.000 
#
# Total GULP energy -156169.095894 kJ/mol
# GULP energy per Si atom -5577.467711 kJ/mol
# Density = 1.939480 g / cm^3
# Si number density = 19.439040 Si / 1000 Ang^3
#
#
#
# Elastic Constant Matrix: (Units=GPa)
#
#
# Indices 1 2 3 4 5 6 
#
# 1 110.1634 46.8735 34.8564 -0.0001 -6.8225 0.0000
# 2 46.8735 151.1448 30.3296 -0.0001 -5.6690 -0.0001
# 3 34.8564 30.3296 75.6882 -0.0001 2.6544 -0.0001
# 4 -0.0001 -0.0001 -0.0001 21.8677 -0.0001 -2.2629
# 5 -6.8225 -5.6690 2.6544 -0.0001 17.3084 -0.0001
# 6 0.0000 -0.0001 -0.0001 -2.2629 -0.0001 26.2279
#
#
#
# Elastic Compliance Matrix: (Units=1/GPa)
#
#
# Indices 1 2 3 4 5 6 
#
# 1 0.011925 -0.002603 -0.004609 0.000000 0.004555 0.000000
# 2 -0.002603 0.007902 -0.002033 0.000000 0.001874 0.000000
# 3 -0.004609 -0.002033 0.016324 0.000000 -0.004986 0.000000
# 4 0.000000 0.000000 0.000000 0.046141 0.000000 0.003981
# 5 0.004555 0.001874 -0.004986 0.000000 0.060949 0.000000
# 6 0.000000 0.000000 0.000000 0.003981 0.000000 0.038471
#
#
# Mechanical properties :
#
#
# Convention : Reuss Voigt Hill
#
# Bulk Modulus (GPa) = 56.62038 62.34614 59.48326
# Shear Modulus (GPa) = 24.26136 28.07661 26.16898
#
# Velocity S-wave (km/s) = 3.53664 3.80457 3.67305
# Velocity P-wave (km/s) = 6.77255 7.17231 6.97529
#
# Compressibility (1/GPa) = 0.01766149
#
# Stress axis : x y z
#
# Youngs Moduli (GPa) = 83.85669 126.55607 61.25862
#
# Poissons Ratio (x) = 0.32938 0.28232
# Poissons Ratio (y) = 0.21825 0.12457
# Poissons Ratio (z) = 0.38647 0.25735
#
# Static dielectric constant tensor:
#      x y z
#    x 1.603280 0.000000 -0.012140 
#    y 0.000000 1.717490 0.000000 
#    z -0.012140 0.000000 1.690800 
# 
# From -- ./inp_files/284631.got.cif
#   From: 2010.05.17/outbox.cif.g08.bks.cpg/sg12_143_cif.got.tgz:284631.got - 2010.06.03 13:09:07.
