data_PCOD9176872
_publ_section_title
;
Structure prediction by ZEFSAII (Michael W. Deem and Ramdas Pophale) SiO2 
 PCOD9176872
Probable space group: C 2/M
;
_chemical_formula_sum "Si O2"
_cell_formula_units_Z 24
_cell_length_a 8.975189
_cell_length_b 12.104087
_cell_length_c 11.730581
_cell_angle_alpha 90.000000
_cell_angle_beta 122.416820
_cell_angle_gamma 90.000000
_cell_volume 1075.784740
_symmetry_space_group_name_H-M "C 2/M"
_symmetry_group_IT_number 12
_symmetry_cell_setting 'monoclinic'
loop_
_space_group_symop_operation_xyz
x,y,z
-x,y,-z
-x,-y,-z
x,-y,z
1/2+x,1/2+y,z
1/2-x,1/2+y,-z
1/2-x,1/2-y,-z
1/2+x,1/2-y,z
loop_
_atom_site_type_symbol
_atom_site_label
_atom_site_fract_x
_atom_site_fract_y
_atom_site_fract_z
Si Si1 0.312995 0.800277 0.406757
Si Si2 0.716379 0.872550 0.198046
Si Si3 0.995652 0.169067 0.128215
O O1 0.500000 0.858510 0.500000
O O2 0.250000 0.750000 0.500000
O O3 0.342154 0.692961 0.337527
O O4 0.160926 0.866438 0.276197
O O5 0.538647 0.800744 0.138432
O O6 0.816307 0.858144 0.119024
O O7 0.690176 0.000000 0.212182
O O8 0.000000 0.128923 0.000000
#
# Coordination Sequence:
#
# PCOD9176872 Si02
#       3
#     8   8   8
#     4  10  18  36  59  84 116 152 191 240 287 343
#     4  10  22  38  63  87 116 157 196 238 295 347
#     4  10  21  39  61  86 121 155 192 246 291 341
#
# _framework density 22.309296
#
# number of rings (size 3 to 8) (size 9 to 14) (size 15 to 20)
#    2.000    0.000    3.333    1.000    0.000    2.000 
#    0.000    1.667    0.000    4.000    0.000    0.000 
#    0.000    0.000    0.000    0.000    0.000    0.000 
#
# Total GULP energy -66802.429128 kJ/mol
# GULP energy per Si atom -5566.869094 kJ/mol
# Density = 2.225852 g / cm^3
# Si number density = 22.309296 Si / 1000 Ang^3
#
#
#
# Elastic Constant Matrix: (Units=GPa)
#
#
# Indices 1 2 3 4 5 6 
#
# 1 56.4810 -2.4102 31.0276 0.0000 8.3025 0.0000
# 2 -2.4102 109.2413 -14.4436 0.0000 6.2439 0.0000
# 3 31.0276 -14.4436 146.0054 0.0000 2.5612 0.0000
# 4 0.0000 0.0000 0.0000 -6.6928 0.0000 2.7450
# 5 8.3025 6.2439 2.5612 0.0000 59.0548 0.0000
# 6 0.0000 0.0000 0.0000 2.7450 0.0000 -2.3783
#
#
#
# Elastic Compliance Matrix: (Units=1/GPa)
#
#
# Indices 1 2 3 4 5 6 
#
# 1 0.020464 0.000037 -0.004298 0.000000 -0.002695 0.000000
# 2 0.000037 0.009337 0.000934 0.000000 -0.001033 0.000000
# 3 -0.004298 0.000934 0.007852 0.000000 0.000165 0.000000
# 4 0.000000 0.000000 0.000000 -0.283721 0.000000 -0.327461
# 5 -0.002695 -0.001033 0.000165 0.000000 0.017414 0.000000
# 6 0.000000 0.000000 0.000000 -0.327461 0.000000 -0.798404
#
#
# Mechanical properties :
#
#
# Convention : Reuss Voigt Hill
#
# Bulk Modulus (GPa) = 32.25835 37.78615 35.02225
# Shear Modulus (GPa) = -4.95014 29.83367 12.44176
#
# Velocity S-wave (km/s) = -1.49120 3.66084 2.36412
# Velocity P-wave (km/s) = 3.39501 5.90281 4.81504
#
# Compressibility (1/GPa) = 0.03099972
#
# Stress axis : x y z
#
# Youngs Moduli (GPa) = 48.86698 107.09628 127.35806
#
# Poissons Ratio (x) = -0.00399 0.54736
# Poissons Ratio (y) = -0.00182 -0.11894
# Poissons Ratio (z) = 0.21002 -0.10002
#
# Static dielectric constant tensor:
#      x y z
#    x 1.831920 0.000000 0.049970 
#    y 0.000000 1.793650 0.000000 
#    z 0.049970 0.000000 1.934830 
# 
# From -- ./inp_files/72682.got.cif
#   From: 2010.05.17/outbox.cif.g08.bks.cpg/sg12_37_cif.got.tgz:72682.got - 2010.06.03 13:09:07.
