data_PCOD9176430
_publ_section_title
;
Structure prediction by ZEFSAII (Michael W. Deem and Ramdas Pophale) SiO2 
 PCOD9176430
Probable space group: C 2/M
;
_chemical_formula_sum "Si O2"
_cell_formula_units_Z 60
_cell_length_a 19.428851
_cell_length_b 22.094873
_cell_length_c 11.954927
_cell_angle_alpha 90.000000
_cell_angle_beta 28.943646
_cell_angle_gamma 90.000000
_cell_volume 2483.620755
_symmetry_space_group_name_H-M "C 2/M"
_symmetry_group_IT_number 12
_symmetry_cell_setting 'monoclinic'
loop_
_space_group_symop_operation_xyz
x,y,z
-x,y,-z
-x,-y,-z
x,-y,z
1/2+x,1/2+y,z
1/2-x,1/2+y,-z
1/2-x,1/2-y,-z
1/2+x,1/2-y,z
loop_
_atom_site_type_symbol
_atom_site_label
_atom_site_fract_x
_atom_site_fract_y
_atom_site_fract_z
Si Si1 0.637659 0.718720 0.975094
Si Si2 0.500000 0.809840 0.000000
Si Si3 0.331809 0.433239 0.913412
Si Si4 0.380263 0.177480 0.761179
Si Si5 0.909953 0.141187 0.382813
Si Si6 0.158182 0.110931 0.766906
Si Si7 0.038459 0.382887 0.733229
Si Si8 0.747165 0.566331 0.222073
O O1 0.599511 0.767399 0.935113
O O2 0.775381 0.728769 0.856888
O O3 0.661849 0.659423 0.861701
O O4 0.509126 0.700816 0.243654
O O5 0.572674 0.851012 0.802509
O O6 0.287457 0.500000 0.012599
O O7 0.478953 0.414164 0.759152
O O8 0.343905 0.432664 0.761969
O O9 0.218803 0.381861 0.099997
O O10 0.500000 0.172229 0.500000
O O11 0.463952 0.168058 0.759403
O O12 0.855458 0.142654 0.334261
O O13 0.798635 0.122790 0.636503
O O14 0.321662 0.087183 0.522916
O O15 0.000000 0.078960 0.000000
O O16 0.909511 0.427299 0.949133
O O17 0.730191 0.500000 0.301124
#
# Coordination Sequence:
#
# PCOD9176430 Si02
#       8
#     8   4   8   8   8   8   8   8
#     4  10  21  41  65  93 130 177 212 269 333 388
#     4  12  24  44  67 100 133 176 218 270 332 412
#     4   9  19  34  60  93 127 169 217 271 336 394
#     4  10  20  39  65  92 128 170 221 278 326 384
#     4  10  18  34  61  91 124 169 216 258 318 397
#     4  10  20  40  61  87 122 168 214 263 326 386
#     4  11  24  41  68  98 131 172 227 272 334 399
#     4  10  21  40  63  94 133 173 218 278 336 391
#
# _framework density 24.158277999999999
#
# number of rings (size 3 to 8) (size 9 to 14) (size 15 to 20)
#    0.000    1.867    3.333    1.600    0.000    2.400 
#    2.400    3.667    0.000   26.800    0.000    0.000 
#    0.000    0.000    0.000    0.000    0.000    0.000 
#
# Total GULP energy -167090.911091 kJ/mol
# GULP energy per Si atom -5569.697036 kJ/mol
# Density = 2.410329 g / cm^3
# Si number density = 24.158278 Si / 1000 Ang^3
#
#
#
# Elastic Constant Matrix: (Units=GPa)
#
#
# Indices 1 2 3 4 5 6 
#
# 1 139.0719 15.4028 40.8287 0.0034 14.6557 0.0057
# 2 15.4028 48.0393 20.0128 0.0011 11.1724 0.0038
# 3 40.8287 20.0128 141.0235 -0.0003 -12.4979 0.0059
# 4 0.0034 0.0011 -0.0003 4.4434 -0.0024 1.9319
# 5 14.6557 11.1724 -12.4979 -0.0024 36.9471 -0.0060
# 6 0.0057 0.0038 0.0059 1.9319 -0.0060 -59.2044
#
#
#
# Elastic Compliance Matrix: (Units=1/GPa)
#
#
# Indices 1 2 3 4 5 6 
#
# 1 0.008495 -0.000631 -0.002734 -0.000009 -0.004104 0.000001
# 2 -0.000631 0.024724 -0.004089 -0.000011 -0.008609 0.000002
# 3 -0.002734 -0.004089 0.008936 0.000006 0.005344 0.000000
# 4 -0.000009 -0.000011 0.000006 0.221903 0.000025 0.007241
# 5 -0.004104 -0.008609 0.005344 0.000025 0.033105 -0.000003
# 6 0.000001 0.000002 0.000000 0.007241 -0.000003 -0.016654
#
#
# Mechanical properties :
#
#
# Convention : Reuss Voigt Hill
#
# Bulk Modulus (GPa) = 36.69842 53.40260 45.05051
# Shear Modulus (GPa) = 16.42040 13.22992 14.82516
#
# Velocity S-wave (km/s) = 2.60994 2.34270 2.47992
# Velocity P-wave (km/s) = 4.93013 5.42871 5.18542
#
# Compressibility (1/GPa) = 0.02724913
#
# Stress axis : x y z
#
# Youngs Moduli (GPa) = 117.71035 40.44624 111.90240
#
# Poissons Ratio (x) = 0.02550 0.30592
# Poissons Ratio (y) = 0.07422 0.45758
# Poissons Ratio (z) = 0.32180 0.16539
#
# Static dielectric constant tensor:
#      x y z
#    x 1.980810 0.000000 -0.101280 
#    y 0.000000 2.002300 0.000000 
#    z -0.101280 0.000000 2.037730 
# 
# From -- ./inp_files/170373.got.cif
#   From: 2010.05.17/outbox.cif.g08.bks.cpg/sg12_86_cif.got.tgz:170373.got - 2010.06.03 13:09:07.
