data_PCOD9176188
_publ_section_title
;
Structure prediction by ZEFSAII (Michael W. Deem and Ramdas Pophale) SiO2 
 PCOD9176188
Probable space group: C 2/M
;
_chemical_formula_sum "Si O2"
_cell_formula_units_Z 40
_cell_length_a 18.046296
_cell_length_b 14.455442
_cell_length_c 27.148801
_cell_angle_alpha 90.000000
_cell_angle_beta 19.528130
_cell_angle_gamma 90.000000
_cell_volume 2367.374759
_symmetry_space_group_name_H-M "C 2/M"
_symmetry_group_IT_number 12
_symmetry_cell_setting 'monoclinic'
loop_
_space_group_symop_operation_xyz
x,y,z
-x,y,-z
-x,-y,-z
x,-y,z
1/2+x,1/2+y,z
1/2-x,1/2+y,-z
1/2-x,1/2-y,-z
1/2+x,1/2-y,z
loop_
_atom_site_type_symbol
_atom_site_label
_atom_site_fract_x
_atom_site_fract_y
_atom_site_fract_z
Si Si1 0.431012 0.899519 0.600517
Si Si2 0.663057 0.605706 0.350263
Si Si3 0.419209 0.606716 0.901374
Si Si4 0.515884 0.208414 0.193192
Si Si5 0.670040 0.724389 0.495876
O O1 0.500000 0.896292 0.500000
O O2 0.554119 0.816429 0.548449
O O3 0.166175 0.891637 0.768863
O O4 0.498547 0.000000 0.577897
O O5 0.500000 0.605570 0.500000
O O6 0.735497 0.500000 0.296308
O O7 0.862487 0.671183 0.243873
O O8 0.517454 0.646066 0.396575
O O9 0.375474 0.500000 0.913922
O O10 0.423386 0.684682 0.855901
O O11 0.232780 0.644463 0.055320
O O12 0.374979 0.201022 0.331225
O O13 0.750000 0.750000 0.500000
#
# Coordination Sequence:
#
# PCOD9176188 Si02
#       5
#     8   8   8   8   8
#     4  10  18  34  57  79 103 135 184 228 261 305
#     4   9  17  32  53  75 102 136 177 218 259 307
#     4  10  19  32  58  84 102 131 179 234 272 303
#     4  10  19  34  55  81 106 136 177 224 265 315
#     4  11  21  34  51  78 114 146 174 210 264 324
#
# _framework density 16.896353000000001
#
# number of rings (size 3 to 8) (size 9 to 14) (size 15 to 20)
#    0.000    2.000    4.000    1.200    0.000    1.600 
#    0.000    1.000    0.000    2.400    0.000    4.200 
#    0.000    0.000    0.000    0.000    0.000    0.000 
#
# Total GULP energy -111395.743692 kJ/mol
# GULP energy per Si atom -5569.787185 kJ/mol
# Density = 1.685790 g / cm^3
# Si number density = 16.896353 Si / 1000 Ang^3
#
#
#
# Elastic Constant Matrix: (Units=GPa)
#
#
# Indices 1 2 3 4 5 6 
#
# 1 73.4724 25.0837 27.6339 0.0992 -1.2041 -0.1616
# 2 25.0837 126.8849 31.9027 0.0029 -3.6993 -0.0166
# 3 27.6339 31.9027 106.1998 0.1328 -6.0556 -0.3341
# 4 0.0992 0.0029 0.1328 95.3325 -0.0692 -107.3568
# 5 -1.2041 -3.6993 -6.0556 -0.0692 10.9295 0.1134
# 6 -0.1616 -0.0166 -0.3341 -107.3568 0.1134 169.8702
#
#
#
# Elastic Compliance Matrix: (Units=1/GPa)
#
#
# Indices 1 2 3 4 5 6 
#
# 1 0.015664 -0.002256 -0.003452 -0.000009 -0.000951 0.000003
# 2 -0.002256 0.008874 -0.001984 -0.000004 0.001656 -0.000009
# 3 -0.003452 -0.001984 0.011205 0.000031 0.005156 0.000034
# 4 -0.000009 -0.000004 0.000031 0.036385 0.000007 0.022995
# 5 -0.000951 0.001656 0.005156 0.000007 0.094808 -0.000050
# 6 0.000003 -0.000009 0.000034 0.022995 -0.000050 0.020420
#
#
# Mechanical properties :
#
#
# Convention : Reuss Voigt Hill
#
# Bulk Modulus (GPa) = 49.12310 52.86641 50.99476
# Shear Modulus (GPa) = 23.86319 70.02223 46.94271
#
# Velocity S-wave (km/s) = 3.76217 6.44455 5.27665
# Velocity P-wave (km/s) = 6.92880 9.31305 8.20796
#
# Compressibility (1/GPa) = 0.02035702
#
# Stress axis : x y z
#
# Youngs Moduli (GPa) = 63.84186 112.68361 89.24837
#
# Poissons Ratio (x) = 0.25424 0.30810
# Poissons Ratio (y) = 0.14404 0.17711
# Poissons Ratio (z) = 0.22040 0.22361
#
# Static dielectric constant tensor:
#      x y z
#    x 1.509510 0.000030 -0.024410 
#    y 0.000030 1.607850 0.000050 
#    z -0.024410 0.000050 1.591730 
# 
# From -- ./inp_files/142522.got.cif
#   From: 2010.05.17/outbox.cif.g08.bks.cpg/sg12_72_cif.got.tgz:142522.got - 2010.06.03 13:09:07.
