data_PCOD9176412
_publ_section_title
;
Structure prediction by ZEFSAII (Michael W. Deem and Ramdas Pophale) SiO2 
 PCOD9176412
Probable space group: C 2/M
;
_chemical_formula_sum "Si O2"
_cell_formula_units_Z 52
_cell_length_a 11.261510
_cell_length_b 14.108066
_cell_length_c 20.386511
_cell_angle_alpha 90.000000
_cell_angle_beta 59.784002
_cell_angle_gamma 90.000000
_cell_volume 2798.905705
_symmetry_space_group_name_H-M "C 2/M"
_symmetry_group_IT_number 12
_symmetry_cell_setting 'monoclinic'
loop_
_space_group_symop_operation_xyz
x,y,z
-x,y,-z
-x,-y,-z
x,-y,z
1/2+x,1/2+y,z
1/2-x,1/2+y,-z
1/2-x,1/2-y,-z
1/2+x,1/2-y,z
loop_
_atom_site_type_symbol
_atom_site_label
_atom_site_fract_x
_atom_site_fract_y
_atom_site_fract_z
Si Si1 0.259240 0.500000 0.934678
Si Si2 0.409569 0.109692 0.586014
Si Si3 0.987592 0.394423 0.296474
Si Si4 0.128958 0.193099 0.713606
Si Si5 0.220971 0.830998 0.835023
Si Si6 0.510417 0.500000 0.230269
Si Si7 0.946365 0.000000 0.101073
Si Si8 0.661916 0.206799 0.964308
O O1 0.336470 0.500000 0.842149
O O2 0.174671 0.594394 0.967173
O O3 0.390223 0.500000 0.947871
O O4 0.500000 0.144268 0.500000
O O5 0.494483 0.109073 0.629982
O O6 0.272535 0.167419 0.639267
O O7 0.370188 0.000000 0.583356
O O8 0.932787 0.500000 0.294334
O O9 0.914607 0.297550 0.296003
O O10 0.138724 0.383235 0.222641
O O11 0.149929 0.197325 0.786483
O O12 0.029741 0.101459 0.726871
O O13 0.239130 0.742038 0.877154
O O14 0.125606 0.904816 0.901052
O O15 0.419602 0.500000 0.187983
O O16 0.500000 0.230251 0.000000
O O17 0.750000 0.250000 0.000000
#
# Coordination Sequence:
#
# PCOD9176412 Si02
#       8
#     4   8   8   8   8   4   4   8
#     4  10  21  41  59  82 119 151 185 252 303 371
#     4   9  18  34  56  86 117 153 199 246 295 350
#     4  10  20  34  58  87 116 149 195 248 297 357
#     4  10  18  34  61  85 114 151 197 249 291 359
#     4  10  20  38  59  82 108 150 200 246 293 353
#     4   8  16  31  63  83 109 145 202 240 295 346
#     4   8  16  34  63  80 105 144 194 248 277 354
#     4  12  27  43  61  87 121 159 201 251 316 375
#
# _framework density 18.578689000000001
#
# number of rings (size 3 to 8) (size 9 to 14) (size 15 to 20)
#    0.462    1.692    1.538    2.077    2.154    1.231 
#    1.385    1.538    5.077    0.462    0.000    0.000 
#    0.000    0.000    0.000    0.000    0.000    0.000 
#
# Total GULP energy -144803.641466 kJ/mol
# GULP energy per Si atom -5569.370826 kJ/mol
# Density = 1.853640 g / cm^3
# Si number density = 18.578689 Si / 1000 Ang^3
#
#
#
# Elastic Constant Matrix: (Units=GPa)
#
#
# Indices 1 2 3 4 5 6 
#
# 1 64.6983 47.1522 31.1350 0.0000 -6.2830 0.0000
# 2 47.1522 158.8102 37.8078 0.0000 0.9142 0.0000
# 3 31.1350 37.8078 88.3670 0.0000 3.3823 0.0000
# 4 0.0000 0.0000 0.0000 15.1269 0.0000 -4.1464
# 5 -6.2830 0.9142 3.3823 0.0000 8.1706 0.0000
# 6 0.0000 0.0000 0.0000 -4.1464 0.0000 30.2929
#
#
#
# Elastic Compliance Matrix: (Units=1/GPa)
#
#
# Indices 1 2 3 4 5 6 
#
# 1 0.025650 -0.005996 -0.007369 0.000000 0.023445 0.000000
# 2 -0.005996 0.008414 -0.001295 0.000000 -0.005016 0.000000
# 3 -0.007369 -0.001295 0.014915 0.000000 -0.011696 0.000000
# 4 0.000000 0.000000 0.000000 0.068684 0.000000 0.009401
# 5 0.023445 -0.005016 -0.011696 0.000000 0.145822 0.000000
# 6 0.000000 0.000000 0.000000 0.009401 0.000000 0.034298
#
#
# Mechanical properties :
#
#
# Convention : Reuss Voigt Hill
#
# Bulk Modulus (GPa) = 50.87215 60.45173 55.66194
# Shear Modulus (GPa) = 14.98545 23.77011 19.37778
#
# Velocity S-wave (km/s) = 2.84314 3.58079 3.23307
# Velocity P-wave (km/s) = 6.18218 7.05017 6.63040
#
# Compressibility (1/GPa) = 0.01965712
#
# Stress axis : x y z
#
# Youngs Moduli (GPa) = 38.98706 118.84361 67.04741
#
# Poissons Ratio (x) = 0.71261 0.49409
# Poissons Ratio (y) = 0.23377 0.08686
# Poissons Ratio (z) = 0.28730 0.15395
#
# Static dielectric constant tensor:
#      x y z
#    x 1.660900 0.000000 -0.008500 
#    y 0.000000 1.686050 0.000000 
#    z -0.008500 0.000000 1.645350 
# 
# From -- ./inp_files/262516.got.cif
#   From: 2010.05.17/outbox.cif.g08.bks.cpg/sg12_132_cif.got.tgz:262516.got - 2010.06.03 13:09:07.
