data_PCOD9176353
_publ_section_title
;
Structure prediction by ZEFSAII (Michael W. Deem and Ramdas Pophale) SiO2 
 PCOD9176353
Probable space group: C 2/M
;
_chemical_formula_sum "Si O2"
_cell_formula_units_Z 36
_cell_length_a 15.180279
_cell_length_b 16.570340
_cell_length_c 19.228130
_cell_angle_alpha 90.000000
_cell_angle_beta 18.203377
_cell_angle_gamma 90.000000
_cell_volume 1510.937882
_symmetry_space_group_name_H-M "C 2/M"
_symmetry_group_IT_number 12
_symmetry_cell_setting 'monoclinic'
loop_
_space_group_symop_operation_xyz
x,y,z
-x,y,-z
-x,-y,-z
x,-y,z
1/2+x,1/2+y,z
1/2-x,1/2+y,-z
1/2-x,1/2-y,-z
1/2+x,1/2-y,z
loop_
_atom_site_type_symbol
_atom_site_label
_atom_site_fract_x
_atom_site_fract_y
_atom_site_fract_z
Si Si1 0.000000 0.130346 0.000000
Si Si2 0.325886 0.357532 0.267826
Si Si3 0.348886 0.821773 0.187582
Si Si4 0.736234 0.591738 0.398641
Si Si5 0.365375 0.165743 0.442359
O O1 0.978966 0.091929 0.092647
O O2 0.689634 0.172781 0.225386
O O3 0.386009 0.264623 0.198370
O O4 0.339502 0.361751 0.340847
O O5 0.000000 0.376108 0.500000
O O6 0.431620 0.885195 0.186336
O O7 0.027421 0.846939 0.410549
O O8 0.500000 0.827251 0.000000
O O9 0.639832 0.500000 0.465397
O O10 0.865529 0.606602 0.376779
O O11 0.250000 0.250000 0.500000
#
# Coordination Sequence:
#
# PCOD9176353 Si02
#       5
#     4   8   8   8   8
#     4  10  22  36  59  90 121 156 200 258 304 344
#     4  10  18  34  59  91 121 149 199 247 301 356
#     4  11  20  36  62  90 124 161 196 242 311 369
#     4  11  24  41  58  87 127 162 200 251 300 364
#     4  11  22  39  61  91 120 162 205 252 302 360
#
# _framework density 23.826260000000001
#
# number of rings (size 3 to 8) (size 9 to 14) (size 15 to 20)
#    0.000    1.333    5.556    2.667    0.000    4.444 
#    0.000    0.556    0.000    6.000    0.000    0.000 
#    0.000    0.000    0.000    0.000    0.000    0.000 
#
# Total GULP energy -100212.837261 kJ/mol
# GULP energy per Si atom -5567.379848 kJ/mol
# Density = 2.377203 g / cm^3
# Si number density = 23.826260 Si / 1000 Ang^3
#
#
#
# Elastic Constant Matrix: (Units=GPa)
#
#
# Indices 1 2 3 4 5 6 
#
# 1 185.0889 25.0288 61.7415 -0.0669 57.5836 -0.0302
# 2 25.0288 81.7036 13.1846 -0.1898 4.6269 0.0570
# 3 61.7415 13.1846 132.5948 -0.2492 40.7993 0.1317
# 4 -0.0669 -0.1898 -0.2492 -1.5758 0.0975 -1.5440
# 5 57.5836 4.6269 40.7993 0.0975 67.7712 -0.0029
# 6 -0.0302 0.0570 0.1317 -1.5440 -0.0029 -7.8460
#
#
#
# Elastic Compliance Matrix: (Units=1/GPa)
#
#
# Indices 1 2 3 4 5 6 
#
# 1 0.007992 -0.001839 -0.001826 -0.000127 -0.005566 -0.000048
# 2 -0.001839 0.012859 -0.000782 -0.001685 0.001158 0.000419
# 3 -0.001826 -0.000782 0.009782 -0.002234 -0.004281 0.000607
# 4 -0.000127 -0.001685 -0.002234 -0.785189 0.002704 0.154463
# 5 -0.005566 0.001158 -0.004281 0.002704 0.021979 -0.000582
# 6 -0.000048 0.000419 0.000607 0.154463 -0.000582 -0.157836
#
#
# Mechanical properties :
#
#
# Convention : Reuss Voigt Hill
#
# Bulk Modulus (GPa) = 46.00033 66.58857 56.29445
# Shear Modulus (GPa) = -5.71904 31.63204 12.95650
#
# Velocity S-wave (km/s) = -1.55097 3.64759 2.33446
# Velocity P-wave (km/s) = 4.01760 6.76374 5.56279
#
# Compressibility (1/GPa) = 0.02173897
#
# Stress axis : x y z
#
# Youngs Moduli (GPa) = 125.12339 77.76605 102.22512
#
# Poissons Ratio (x) = 0.14298 0.18669
# Poissons Ratio (y) = 0.23006 0.07997
# Poissons Ratio (z) = 0.22851 0.06084
#
# Static dielectric constant tensor:
#      x y z
#    x 2.033270 0.000090 0.056240 
#    y 0.000090 1.975670 0.000080 
#    z 0.056240 0.000080 1.974850 
# 
# From -- ./inp_files/272165.got.cif
#   From: 2010.05.17/outbox.cif.g08.bks.cpg/sg12_137_cif.got.tgz:272165.got - 2010.06.03 13:09:07.
