data_PCOD9176710
_publ_section_title
;
Structure prediction by ZEFSAII (Michael W. Deem and Ramdas Pophale) SiO2 
 PCOD9176710
Probable space group: C 2/M
;
_chemical_formula_sum "Si O2"
_cell_formula_units_Z 34
_cell_length_a 21.921485
_cell_length_b 13.750908
_cell_length_c 16.589280
_cell_angle_alpha 90.000000
_cell_angle_beta 163.645880
_cell_angle_gamma 90.000000
_cell_volume 1408.056832
_symmetry_space_group_name_H-M "C 2/M"
_symmetry_group_IT_number 12
_symmetry_cell_setting 'monoclinic'
loop_
_space_group_symop_operation_xyz
x,y,z
-x,y,-z
-x,-y,-z
x,-y,z
1/2+x,1/2+y,z
1/2-x,1/2+y,-z
1/2-x,1/2-y,-z
1/2+x,1/2-y,z
loop_
_atom_site_type_symbol
_atom_site_label
_atom_site_fract_x
_atom_site_fract_y
_atom_site_fract_z
Si Si1 0.802992 0.658883 0.297933
Si Si2 0.442041 0.207919 0.828987
Si Si3 0.492349 0.286773 0.310871
Si Si4 0.495522 0.500000 0.362540
Si Si5 0.123092 0.500000 0.023613
Si Si6 0.500000 0.500000 0.000000
O O1 0.000000 0.610550 0.500000
O O2 0.926248 0.746366 0.499853
O O3 0.612010 0.714826 0.008243
O O4 0.675024 0.584675 0.192635
O O5 0.194890 0.244467 0.512499
O O6 0.500000 0.202666 0.000000
O O7 0.485630 0.099298 0.851938
O O8 0.491979 0.402589 0.307375
O O9 0.250000 0.250000 0.000000
O O10 0.285355 0.500000 0.153596
O O11 0.713347 0.500000 0.692610
#
# Coordination Sequence:
#
# PCOD9176710 Si02
#       6
#     8   8   8   4   4   2
#     4  11  22  41  67  93 119 168 223 264 308 378
#     4  10  18  35  61  93 122 157 204 256 314 377
#     4  11  23  40  62  93 134 167 203 260 332 379
#     4  11  21  35  62  97 121 162 201 267 312 375
#     4  11  18  33  67  97 118 145 221 264 308 365
#     4  12  22  42  64  90 122 170 228 266 302 372
#
# _framework density 24.146753
#
# number of rings (size 3 to 8) (size 9 to 14) (size 15 to 20)
#    0.000    1.176    8.235    2.824    0.000    0.941 
#    0.000    4.706    0.000    0.000    0.000    0.000 
#    0.000    0.000    0.000    0.000    0.000    0.000 
#
# Total GULP energy -94741.993431 kJ/mol
# GULP energy per Si atom -5573.058437 kJ/mol
# Density = 2.409179 g / cm^3
# Si number density = 24.146753 Si / 1000 Ang^3
#
#
#
# Elastic Constant Matrix: (Units=GPa)
#
#
# Indices 1 2 3 4 5 6 
#
# 1 44.9222 0.0111 43.9803 0.0001 32.7776 -0.0004
# 2 0.0111 158.7052 54.2845 0.0001 20.4968 -0.0005
# 3 43.9803 54.2845 243.1623 0.0012 45.5509 -0.0018
# 4 0.0001 0.0001 0.0012 41.1878 -0.0001 15.2971
# 5 32.7776 20.4968 45.5509 -0.0001 52.2101 -0.0003
# 6 -0.0004 -0.0005 -0.0018 15.2971 -0.0003 33.5626
#
#
#
# Elastic Compliance Matrix: (Units=1/GPa)
#
#
# Indices 1 2 3 4 5 6 
#
# 1 0.046532 0.005039 -0.004421 0.000000 -0.027334 0.000000
# 2 0.005039 0.007483 -0.001720 0.000000 -0.004600 0.000000
# 3 -0.004421 -0.001720 0.005558 0.000000 -0.001399 0.000000
# 4 0.000000 0.000000 0.000000 0.029226 0.000000 -0.013321
# 5 -0.027334 -0.004600 -0.001399 0.000000 0.039340 0.000000
# 6 0.000000 0.000000 0.000000 -0.013321 0.000000 0.035866
#
#
# Mechanical properties :
#
#
# Convention : Reuss Voigt Hill
#
# Bulk Modulus (GPa) = 17.43086 71.48238 44.45662
# Shear Modulus (GPa) = 26.97852 48.62635 37.80243
#
# Velocity S-wave (km/s) = 3.34619 4.49239 3.96097
# Velocity P-wave (km/s) = 4.70783 7.52172 6.27455
#
# Compressibility (1/GPa) = 0.05736952
#
# Stress axis : x y z
#
# Youngs Moduli (GPa) = 21.49066 133.63320 179.91978
#
# Poissons Ratio (x) = -0.67338 0.79535
# Poissons Ratio (y) = -0.10829 0.30949
# Poissons Ratio (z) = 0.09500 0.22987
#
# Static dielectric constant tensor:
#      x y z
#    x 2.099880 0.000000 -0.015550 
#    y 0.000000 1.828200 0.000000 
#    z -0.015550 0.000000 1.968270 
# 
# From -- ./inp_files/70879.got.cif
#   From: 2010.05.17/outbox.cif.g08.bks.cpg/sg12_36_cif.got.tgz:70879.got - 2010.06.03 13:09:07.
