data_PCOD9176724
_publ_section_title
;
Structure prediction by ZEFSAII (Michael W. Deem and Ramdas Pophale) SiO2 
 PCOD9176724
Probable space group: C 2/M
;
_chemical_formula_sum "Si O2"
_cell_formula_units_Z 48
_cell_length_a 17.917373
_cell_length_b 29.083390
_cell_length_c 8.189032
_cell_angle_alpha 90.000000
_cell_angle_beta 34.989492
_cell_angle_gamma 90.000000
_cell_volume 2446.974583
_symmetry_space_group_name_H-M "C 2/M"
_symmetry_group_IT_number 12
_symmetry_cell_setting 'monoclinic'
loop_
_space_group_symop_operation_xyz
x,y,z
-x,y,-z
-x,-y,-z
x,-y,z
1/2+x,1/2+y,z
1/2-x,1/2+y,-z
1/2-x,1/2-y,-z
1/2+x,1/2-y,z
loop_
_atom_site_type_symbol
_atom_site_label
_atom_site_fract_x
_atom_site_fract_y
_atom_site_fract_z
Si Si1 0.628009 0.947319 0.159632
Si Si2 0.120107 0.798975 0.184193
Si Si3 0.792661 0.646027 0.139137
Si Si4 0.475710 0.629043 0.220271
Si Si5 0.090467 0.052952 0.187321
Si Si6 0.638337 0.760867 0.833220
O O1 0.500000 0.946738 0.500000
O O2 0.635091 0.000000 0.072914
O O3 0.630563 0.900094 0.050081
O O4 0.760015 0.942548 0.029569
O O5 0.227107 0.824543 0.105789
O O6 0.000000 0.775501 0.500000
O O7 0.046574 0.839786 0.224756
O O8 0.167001 0.766444 0.952029
O O9 0.673457 0.627888 0.462845
O O10 0.864706 0.685365 0.112341
O O11 0.547750 0.580732 0.106887
O O12 0.500000 0.648628 0.000000
O O13 0.000000 0.069738 0.500000
O O14 0.059958 0.000000 0.219201
O O15 0.750000 0.750000 0.500000
O O16 0.500000 0.749059 0.000000
#
# Coordination Sequence:
#
# PCOD9176724 Si02
#       6
#     8   8   8   8   8   8
#     4  10  21  38  62  93 127 160 206 264 312 358
#     4  10  20  39  64  91 120 161 211 260 308 377
#     4  11  22  39  64  93 121 165 218 252 308 385
#     4  11  20  35  59  90 124 158 195 262 323 363
#     4  10  18  35  62  88 117 158 210 258 303 370
#     4  12  26  44  63  93 131 166 204 266 330 380
#
# _framework density 19.616059
#
# number of rings (size 3 to 8) (size 9 to 14) (size 15 to 20)
#    0.000    1.333    3.333    4.500    0.000    2.333 
#    3.000    0.000    0.000    0.500    0.000    0.000 
#    0.000    0.000    0.000    0.000    0.000    0.000 
#
# Total GULP energy -133779.963634 kJ/mol
# GULP energy per Si atom -5574.165151 kJ/mol
# Density = 1.957141 g / cm^3
# Si number density = 19.616059 Si / 1000 Ang^3
#
#
#
# Elastic Constant Matrix: (Units=GPa)
#
#
# Indices 1 2 3 4 5 6 
#
# 1 60.8136 26.3990 36.0070 0.0000 8.8224 0.0000
# 2 26.3990 146.6945 44.1078 0.0000 9.0351 0.0000
# 3 36.0070 44.1078 118.9333 0.0000 5.4014 0.0000
# 4 0.0000 0.0000 0.0000 23.5554 0.0000 -7.9880
# 5 8.8224 9.0351 5.4014 0.0000 25.7069 0.0000
# 6 0.0000 0.0000 0.0000 -7.9880 0.0000 2.1019
#
#
#
# Elastic Compliance Matrix: (Units=1/GPa)
#
#
# Indices 1 2 3 4 5 6 
#
# 1 0.021308 -0.001836 -0.005520 0.000000 -0.005508 0.000000
# 2 -0.001836 0.007947 -0.002315 0.000000 -0.001677 0.000000
# 3 -0.005520 -0.002315 0.010919 0.000000 0.000414 0.000000
# 4 0.000000 0.000000 0.000000 -0.147018 0.000000 -0.558722
# 5 -0.005508 -0.001677 0.000414 0.000000 0.041292 0.000000
# 6 0.000000 0.000000 0.000000 -0.558722 0.000000 -1.647586
#
#
# Mechanical properties :
#
#
# Convention : Reuss Voigt Hill
#
# Bulk Modulus (GPa) = 48.00341 59.94101 53.97221
# Shear Modulus (GPa) = -2.96410 24.93469 10.98529
#
# Velocity S-wave (km/s) = -1.23058 3.56917 2.36903
# Velocity P-wave (km/s) = 4.74400 6.89991 5.92090
#
# Compressibility (1/GPa) = 0.02083185
#
# Stress axis : x y z
#
# Youngs Moduli (GPa) = 46.93095 125.83968 91.58251
#
# Poissons Ratio (x) = 0.23099 0.50554
# Poissons Ratio (y) = 0.08614 0.21204
# Poissons Ratio (z) = 0.25906 0.29135
#
# Static dielectric constant tensor:
#      x y z
#    x 1.702060 0.000000 0.023570 
#    y 0.000000 1.736780 0.000000 
#    z 0.023570 0.000000 1.700670 
# 
# From -- ./inp_files/80603.got.cif
#   From: 2010.05.17/outbox.cif.g08.bks.cpg/sg12_41_cif.got.tgz:80603.got - 2010.06.03 13:09:07.
