data_PCOD9176850
_publ_section_title
;
Structure prediction by ZEFSAII (Michael W. Deem and Ramdas Pophale) SiO2 
 PCOD9176850
Probable space group: C 2/M
;
_chemical_formula_sum "Si O2"
_cell_formula_units_Z 64
_cell_length_a 18.407462
_cell_length_b 26.795553
_cell_length_c 12.219912
_cell_angle_alpha 90.000000
_cell_angle_beta 28.449678
_cell_angle_gamma 90.000000
_cell_volume 2871.338314
_symmetry_space_group_name_H-M "C 2/M"
_symmetry_group_IT_number 12
_symmetry_cell_setting 'monoclinic'
loop_
_space_group_symop_operation_xyz
x,y,z
-x,y,-z
-x,-y,-z
x,-y,z
1/2+x,1/2+y,z
1/2-x,1/2+y,-z
1/2-x,1/2-y,-z
1/2+x,1/2-y,z
loop_
_atom_site_type_symbol
_atom_site_label
_atom_site_fract_x
_atom_site_fract_y
_atom_site_fract_z
Si Si1 0.818079 0.295581 0.731280
Si Si2 0.171083 0.695687 0.953793
Si Si3 0.087165 0.118804 0.277455
Si Si4 0.297074 0.660389 0.567748
Si Si5 0.829146 0.689320 0.480864
Si Si6 0.146308 0.554283 0.726242
Si Si7 0.224557 0.589355 0.151279
Si Si8 0.900833 0.422761 0.460381
O O1 0.756038 0.246678 0.871009
O O2 0.775882 0.284642 0.660897
O O3 0.766157 0.350567 0.837238
O O4 0.000000 0.297159 0.500000
O O5 0.260744 0.648738 0.888356
O O6 0.184551 0.681552 0.808363
O O7 0.998328 0.702378 0.218510
O O8 0.000000 0.097787 0.500000
O O9 0.966455 0.158947 0.390992
O O10 0.137051 0.080901 0.115928
O O11 0.282064 0.689648 0.474493
O O12 0.250115 0.602720 0.607848
O O13 0.851514 0.632983 0.494561
O O14 0.215758 0.500000 0.660698
O O15 0.101874 0.552941 0.655928
O O16 0.000000 0.560112 0.000000
O O17 0.209264 0.563411 0.290756
O O18 0.068371 0.577413 0.292859
#
# Coordination Sequence:
#
# PCOD9176850 Si02
#       8
#     8   8   8   8   8   8   8   8
#     4  11  20  33  52  79 113 153 206 248 289 330
#     4  11  21  33  54  80 111 159 203 246 285 345
#     4  10  21  34  55  86 115 155 199 238 293 354
#     4  10  21  37  56  82 116 148 193 241 301 351
#     4  10  19  36  54  74 109 157 198 249 290 339
#     4  10  21  37  65  93 116 147 193 243 294 362
#     4  10  18  36  58  84 116 160 196 240 289 340
#     4   9  17  36  62  86 112 150 195 240 290 351
#
# _framework density 22.289256999999999
#
# number of rings (size 3 to 8) (size 9 to 14) (size 15 to 20)
#    0.000    1.875    3.750    3.000    1.750    4.500 
#    0.000    8.125    0.000    5.625    0.000    0.000 
#    0.000    0.000    0.000    0.000    0.000    0.000 
#
# Total GULP energy -178539.724634 kJ/mol
# GULP energy per Si atom -5579.366395 kJ/mol
# Density = 2.223853 g / cm^3
# Si number density = 22.289257 Si / 1000 Ang^3
#
#
#
# Elastic Constant Matrix: (Units=GPa)
#
#
# Indices 1 2 3 4 5 6 
#
# 1 105.9090 3.3811 33.1959 -0.0121 35.9523 -0.0017
# 2 3.3811 70.5708 5.4410 0.0042 11.4772 -0.0005
# 3 33.1959 5.4410 95.8010 0.0007 36.2352 0.0018
# 4 -0.0121 0.0042 0.0007 4.8422 0.0167 -4.1538
# 5 35.9523 11.4772 36.2352 0.0167 38.6944 0.0017
# 6 -0.0017 -0.0005 0.0018 -4.1538 0.0017 5.7025
#
#
#
# Elastic Compliance Matrix: (Units=1/GPa)
#
#
# Indices 1 2 3 4 5 6 
#
# 1 0.013948 0.001531 0.000238 0.000234 -0.013636 0.000179
# 2 0.001531 0.015158 0.001312 0.000049 -0.007147 0.000039
# 3 0.000238 0.001312 0.016278 0.000137 -0.015853 0.000100
# 4 0.000234 0.000049 0.000137 0.550518 -0.000616 0.401012
# 5 -0.013636 -0.007147 -0.015853 -0.000616 0.055479 -0.000465
# 6 0.000179 0.000039 0.000100 0.401012 -0.000465 0.467470
#
#
# Mechanical properties :
#
#
# Convention : Reuss Voigt Hill
#
# Bulk Modulus (GPa) = 19.40063 39.59074 29.49569
# Shear Modulus (GPa) = 4.42528 25.19867 14.81198
#
# Velocity S-wave (km/s) = 1.41057 3.36598 2.58065
# Velocity P-wave (km/s) = 3.37281 5.73649 4.70548
#
# Compressibility (1/GPa) = 0.05154471
#
# Stress axis : x y z
#
# Youngs Moduli (GPa) = 71.69649 65.97154 61.43393
#
# Poissons Ratio (x) = -0.10101 -0.01460
# Poissons Ratio (y) = -0.10978 -0.08059
# Poissons Ratio (z) = -0.01704 -0.08655
#
# Static dielectric constant tensor:
#      x y z
#    x 1.872300 0.000000 0.067530 
#    y 0.000000 1.820960 0.000010 
#    z 0.067530 0.000010 1.825960 
# 
# From -- ./inp_files/161178.got.cif
#   From: 2010.05.17/outbox.cif.g08.bks.cpg/sg12_81_cif.got.tgz:161178.got - 2010.06.03 13:09:07.
