data_PCOD9176085
_publ_section_title
;
Structure prediction by ZEFSAII (Michael W. Deem and Ramdas Pophale) SiO2 
 PCOD9176085
Probable space group: C 2/M
;
_chemical_formula_sum "Si O2"
_cell_formula_units_Z 64
_cell_length_a 26.576255
_cell_length_b 9.391241
_cell_length_c 16.522762
_cell_angle_alpha 90.000000
_cell_angle_beta 65.316461
_cell_angle_gamma 90.000000
_cell_volume 3747.016650
_symmetry_space_group_name_H-M "C 2/M"
_symmetry_group_IT_number 12
_symmetry_cell_setting 'monoclinic'
loop_
_space_group_symop_operation_xyz
x,y,z
-x,y,-z
-x,-y,-z
x,-y,z
1/2+x,1/2+y,z
1/2-x,1/2+y,-z
1/2-x,1/2-y,-z
1/2+x,1/2-y,z
loop_
_atom_site_type_symbol
_atom_site_label
_atom_site_fract_x
_atom_site_fract_y
_atom_site_fract_z
Si Si1 0.775424 0.170345 0.604043
Si Si2 0.440756 0.341527 0.081368
Si Si3 0.950411 0.171923 0.262450
Si Si4 0.924765 0.173295 0.794220
Si Si5 0.114094 0.661571 0.018570
Si Si6 0.328144 0.329677 0.392425
Si Si7 0.830465 0.827529 0.732939
Si Si8 0.743986 0.839786 0.924354
O O1 0.716553 0.250088 0.634319
O O2 0.808001 0.193464 0.498048
O O3 0.813055 0.219293 0.654626
O O4 0.765508 0.000000 0.618840
O O5 0.414184 0.500000 0.099427
O O6 0.448298 0.294404 0.168474
O O7 0.410827 0.231395 0.044310
O O8 0.500000 0.356416 0.000000
O O9 0.891740 0.219836 0.338884
O O10 0.010467 0.217020 0.256217
O O11 0.950676 0.000000 0.269401
O O12 0.886787 0.214358 0.742344
O O13 0.922501 0.000000 0.804580
O O14 0.899970 0.244703 0.892377
O O15 0.094327 0.500000 0.045934
O O16 0.178926 0.656190 0.955252
O O17 0.325887 0.500000 0.377888
O O18 0.780139 0.784281 0.825867
O O19 0.832527 0.000000 0.727326
O O20 0.764661 0.000000 0.925835
O O21 0.750000 0.750000 0.000000
#
# Coordination Sequence:
#
# PCOD9176085 Si02
#       8
#     8   8   8   8   8   8   8   8
#     4   9  18  34  55  77 102 129 160 199 250 304
#     4  10  19  33  51  69  94 135 177 204 238 294
#     4   9  18  32  51  75  98 126 170 210 240 287
#     4  10  18  34  55  69  94 138 173 200 243 298
#     4  11  22  32  45  71 104 132 163 211 258 288
#     4   9  18  34  54  77 103 128 158 205 251 291
#     4   9  18  32  52  74  96 129 167 201 242 295
#     4  10  20  33  48  69  99 132 168 204 243 291
#
# _framework density 17.080255000000001
#
# number of rings (size 3 to 8) (size 9 to 14) (size 15 to 20)
#    0.000    2.375    2.500    0.375    1.750    0.750 
#    0.000    2.500    0.000    3.750    0.000    0.000 
#    0.000    5.000    0.000    0.000    0.000    0.000 
#
# Total GULP energy -178135.337752 kJ/mol
# GULP energy per Si atom -5566.729305 kJ/mol
# Density = 1.704138 g / cm^3
# Si number density = 17.080255 Si / 1000 Ang^3
#
#
#
# Elastic Constant Matrix: (Units=GPa)
#
#
# Indices 1 2 3 4 5 6 
#
# 1 151.3630 38.0899 67.6423 0.0000 6.3564 0.0000
# 2 38.0899 35.6066 21.7207 0.0000 8.6837 0.0000
# 3 67.6423 21.7207 75.9684 0.0000 4.5442 0.0000
# 4 0.0000 0.0000 0.0000 16.3466 0.0000 2.3337
# 5 6.3564 8.6837 4.5442 0.0000 31.0465 0.0000
# 6 0.0000 0.0000 0.0000 2.3337 0.0000 27.8592
#
#
#
# Elastic Compliance Matrix: (Units=1/GPa)
#
#
# Indices 1 2 3 4 5 6 
#
# 1 0.012662 -0.008340 -0.008953 0.000000 0.001051 0.000000
# 2 -0.008340 0.041693 -0.003934 0.000000 -0.009378 0.000000
# 3 -0.008953 -0.003934 0.022279 0.000000 -0.000328 0.000000
# 4 0.000000 0.000000 0.000000 0.061915 0.000000 -0.005186
# 5 0.001051 -0.009378 -0.000328 0.000000 0.034666 0.000000
# 6 0.000000 0.000000 0.000000 -0.005186 0.000000 0.036329
#
#
# Mechanical properties :
#
#
# Convention : Reuss Voigt Hill
#
# Bulk Modulus (GPa) = 29.25563 57.53818 43.39691
# Shear Modulus (GPa) = 18.98315 24.08281 21.53298
#
# Velocity S-wave (km/s) = 3.33740 3.75904 3.55448
# Velocity P-wave (km/s) = 5.65831 7.25263 6.50450
#
# Compressibility (1/GPa) = 0.03418146
#
# Stress axis : x y z
#
# Youngs Moduli (GPa) = 78.97608 23.98461 44.88516
#
# Poissons Ratio (x) = 0.20004 0.40184
# Poissons Ratio (y) = 0.65867 0.17657
# Poissons Ratio (z) = 0.70704 0.09435
#
# Static dielectric constant tensor:
#      x y z
#    x 1.585230 0.000000 -0.010220 
#    y 0.000000 1.595670 0.000000 
#    z -0.010220 0.000000 1.561320 
# 
# From -- ./inp_files/243803.got.cif
#   From: 2010.05.17/outbox.cif.g08.bks.cpg/sg12_122_cif.got.tgz:243803.got - 2010.06.03 13:09:07.
