data_PCOD9176025
_publ_section_title
;
Structure prediction by ZEFSAII (Michael W. Deem and Ramdas Pophale) SiO2 
 PCOD9176025
Probable space group: C 2/M
;
_chemical_formula_sum "Si O2"
_cell_formula_units_Z 56
_cell_length_a 8.460263
_cell_length_b 19.934127
_cell_length_c 17.364548
_cell_angle_alpha 90.000000
_cell_angle_beta 59.497654
_cell_angle_gamma 90.000000
_cell_volume 2523.216298
_symmetry_space_group_name_H-M "C 2/M"
_symmetry_group_IT_number 12
_symmetry_cell_setting 'monoclinic'
loop_
_space_group_symop_operation_xyz
x,y,z
-x,y,-z
-x,-y,-z
x,-y,z
1/2+x,1/2+y,z
1/2-x,1/2+y,-z
1/2-x,1/2-y,-z
1/2+x,1/2-y,z
loop_
_atom_site_type_symbol
_atom_site_label
_atom_site_fract_x
_atom_site_fract_y
_atom_site_fract_z
Si Si1 0.852740 0.776988 0.843169
Si Si2 0.738528 0.662266 0.759984
Si Si3 0.244839 0.577266 0.718106
Si Si4 0.529299 0.077919 0.607077
Si Si5 0.199589 0.920689 0.924845
Si Si6 0.008841 0.342538 0.900232
Si Si7 0.103455 0.918634 0.551444
O O1 0.814991 0.732683 0.775535
O O2 0.668973 0.815243 0.915206
O O3 0.028321 0.824056 0.790805
O O4 0.904837 0.722171 0.893817
O O5 0.743056 0.612100 0.831879
O O6 0.862543 0.628189 0.664034
O O7 0.236392 0.500000 0.747997
O O8 0.144237 0.577607 0.659637
O O9 0.137743 0.626233 0.800442
O O10 0.457788 0.597007 0.653821
O O11 0.682797 0.099893 0.506574
O O12 0.471762 0.000000 0.607358
O O13 0.356124 0.899489 0.946397
O O14 0.195400 0.000000 0.917639
O O15 0.000000 0.895965 0.000000
O O16 0.000000 0.893692 0.500000
O O17 0.106272 0.000000 0.546603
#
# Coordination Sequence:
#
# PCOD9176025 Si02
#       7
#     8   8   8   8   8   8   8
#     4   9  20  33  51  72  95 131 171 202 230 275
#     4  10  18  34  52  71  98 131 164 199 239 283
#     4   9  14  24  46  71  95 124 159 202 248 290
#     4   9  14  24  46  71  95 124 159 202 248 290
#     4  10  20  35  56  80 102 124 153 191 238 289
#     4  10  18  34  52  71  98 131 164 199 239 283
#     4   7  12  20  36  68  96 117 156 203 241 283
#
# _framework density 22.193895999999999
#
# number of rings (size 3 to 8) (size 9 to 14) (size 15 to 20)
#    0.000    2.857    2.857    2.571    0.000    0.000 
#    0.000   15.000    0.000    7.714    0.000    3.000 
#    0.000    0.000    0.000    0.000    0.000    0.000 
#
# Total GULP energy -156242.322923 kJ/mol
# GULP energy per Si atom -5580.082962 kJ/mol
# Density = 2.214338 g / cm^3
# Si number density = 22.193896 Si / 1000 Ang^3
#
#
#
# Elastic Constant Matrix: (Units=GPa)
#
#
# Indices 1 2 3 4 5 6 
#
# 1 88.5931 31.1058 38.0889 0.0000 -32.5753 0.0000
# 2 31.1058 60.0422 30.8534 0.0000 -10.1526 0.0000
# 3 38.0889 30.8534 91.4868 0.0000 -30.7185 0.0000
# 4 0.0000 0.0000 0.0000 27.0745 0.0000 -17.4268
# 5 -32.5753 -10.1526 -30.7185 0.0000 50.3072 0.0000
# 6 0.0000 0.0000 0.0000 -17.4268 0.0000 28.6614
#
#
#
# Elastic Compliance Matrix: (Units=1/GPa)
#
#
# Indices 1 2 3 4 5 6 
#
# 1 0.017808 -0.006588 -0.002223 0.000000 0.008845 0.000000
# 2 -0.006588 0.022584 -0.006007 0.000000 -0.003376 0.000000
# 3 -0.002223 -0.006007 0.016342 0.000000 0.007327 0.000000
# 4 0.000000 0.000000 0.000000 0.060685 0.000000 0.036898
# 5 0.008845 -0.003376 0.007327 0.000000 0.029398 0.000000
# 6 0.000000 0.000000 0.000000 0.036898 0.000000 0.057325
#
#
# Mechanical properties :
#
#
# Convention : Reuss Voigt Hill
#
# Bulk Modulus (GPa) = 36.90238 48.91315 42.90776
# Shear Modulus (GPa) = 20.59219 30.54688 25.56953
#
# Velocity S-wave (km/s) = 3.04934 3.71396 3.39794
# Velocity P-wave (km/s) = 5.39085 6.36225 5.89659
#
# Compressibility (1/GPa) = 0.02709853
#
# Stress axis : x y z
#
# Youngs Moduli (GPa) = 56.15298 44.27907 61.19197
#
# Poissons Ratio (x) = 0.29172 0.13600
# Poissons Ratio (y) = 0.36995 0.36759
# Poissons Ratio (z) = 0.12480 0.26599
#
# Static dielectric constant tensor:
#      x y z
#    x 1.918030 0.000000 0.030250 
#    y 0.000000 1.770750 0.000000 
#    z 0.030250 0.000000 1.888810 
# 
# From -- ./inp_files/333570.got.cif
#   From: 2010.05.17/outbox.cif.g08.bks.cpg/sg12_167_cif.got.tgz:333570.got - 2010.06.03 13:09:07.
