data_PCOD9176566
_publ_section_title
;
Structure prediction by ZEFSAII (Michael W. Deem and Ramdas Pophale) SiO2 
 PCOD9176566
Probable space group: C 2/M
;
_chemical_formula_sum "Si O2"
_cell_formula_units_Z 48
_cell_length_a 9.664556
_cell_length_b 18.517185
_cell_length_c 14.543503
_cell_angle_alpha 90.000000
_cell_angle_beta 98.089807
_cell_angle_gamma 90.000000
_cell_volume 2576.810366
_symmetry_space_group_name_H-M "C 2/M"
_symmetry_group_IT_number 12
_symmetry_cell_setting 'monoclinic'
loop_
_space_group_symop_operation_xyz
x,y,z
-x,y,-z
-x,-y,-z
x,-y,z
1/2+x,1/2+y,z
1/2-x,1/2+y,-z
1/2-x,1/2-y,-z
1/2+x,1/2-y,z
loop_
_atom_site_type_symbol
_atom_site_label
_atom_site_fract_x
_atom_site_fract_y
_atom_site_fract_z
Si Si1 0.193116 0.787323 0.903523
Si Si2 0.850257 0.586622 0.526560
Si Si3 0.094821 0.215080 0.212517
Si Si4 0.531042 0.137023 0.285357
Si Si5 0.889676 0.415045 0.909797
Si Si6 0.272318 0.586232 0.671270
O O1 0.267232 0.745176 0.825624
O O2 0.251563 0.868248 0.909653
O O3 0.028164 0.787771 0.874080
O O4 0.250000 0.750000 0.000000
O O5 0.855213 0.500000 0.530260
O O6 0.849884 0.613575 0.630705
O O7 0.735576 0.604718 0.438675
O O8 0.000000 0.612264 0.500000
O O9 0.043263 0.276729 0.278200
O O10 0.125050 0.139262 0.264397
O O11 0.553486 0.105970 0.185380
O O12 0.383290 0.105275 0.305700
O O13 0.865724 0.500000 0.913109
O O14 0.000000 0.394783 0.000000
O O15 0.297117 0.500000 0.684258
#
# Coordination Sequence:
#
# PCOD9176566 Si02
#       6
#     8   8   8   8   8   8
#     4  11  22  40  57  80 114 153 193 232 289 351
#     4   8  15  29  53  82 113 151 190 231 285 340
#     4  11  22  36  59  84 113 152 191 239 289 340
#     4  10  18  35  57  82 116 152 195 236 280 345
#     4  10  21  35  57  85 111 145 192 242 288 344
#     4  10  20  35  57  87 118 151 192 240 288 342
#
# _framework density 18.627680000000002
#
# number of rings (size 3 to 8) (size 9 to 14) (size 15 to 20)
#    0.000    2.000    1.667    5.000    0.000    1.333 
#    0.000    0.000    0.000    2.000    0.000   10.500 
#    0.000    0.000    0.000    0.000    0.000    0.000 
#
# Total GULP energy -133778.386659 kJ/mol
# GULP energy per Si atom -5574.099444 kJ/mol
# Density = 1.858528 g / cm^3
# Si number density = 18.627680 Si / 1000 Ang^3
#
#
#
# Elastic Constant Matrix: (Units=GPa)
#
#
# Indices 1 2 3 4 5 6 
#
# 1 39.4681 14.8529 17.7423 0.0000 13.4671 0.0000
# 2 14.8529 96.2433 44.4523 0.0000 17.3671 0.0000
# 3 17.7423 44.4523 128.9952 0.0000 12.2863 0.0000
# 4 0.0000 0.0000 0.0000 26.2833 0.0000 6.1287
# 5 13.4671 17.3671 12.2863 0.0000 22.0669 0.0000
# 6 0.0000 0.0000 0.0000 6.1287 0.0000 20.5680
#
#
#
# Elastic Compliance Matrix: (Units=1/GPa)
#
#
# Indices 1 2 3 4 5 6 
#
# 1 0.032932 -0.000606 -0.002589 0.000000 -0.018179 0.000000
# 2 -0.000606 0.013772 -0.003871 0.000000 -0.008314 0.000000
# 3 -0.002589 -0.003871 0.009506 0.000000 -0.000666 0.000000
# 4 0.000000 0.000000 0.000000 0.040888 0.000000 -0.012184
# 5 -0.018179 -0.008314 -0.000666 0.000000 0.063325 0.000000
# 6 0.000000 0.000000 0.000000 -0.012184 0.000000 0.052250
#
#
# Mechanical properties :
#
#
# Convention : Reuss Voigt Hill
#
# Bulk Modulus (GPa) = 23.76547 46.53351 35.14949
# Shear Modulus (GPa) = 20.76156 26.29425 23.52791
#
# Velocity S-wave (km/s) = 3.34212 3.76116 3.55781
# Velocity P-wave (km/s) = 5.26107 6.62547 5.98229
#
# Compressibility (1/GPa) = 0.04207785
#
# Stress axis : x y z
#
# Youngs Moduli (GPa) = 30.36564 72.61204 105.20083
#
# Poissons Ratio (x) = 0.04400 0.27239
# Poissons Ratio (y) = 0.01840 0.40719
# Poissons Ratio (z) = 0.07862 0.28105
#
# Static dielectric constant tensor:
#      x y z
#    x 1.646070 0.000000 0.003070 
#    y 0.000000 1.637960 0.000000 
#    z 0.003070 0.000000 1.691600 
# 
# From -- ./inp_files/205708.got.cif
#   From: 2010.05.17/outbox.cif.g08.bks.cpg/sg12_103_cif.got.tgz:205708.got - 2010.06.03 13:09:07.
