data_PCOD9176633
_publ_section_title
;
Structure prediction by ZEFSAII (Michael W. Deem and Ramdas Pophale) SiO2 
 PCOD9176633
Probable space group: C 2/M
;
_chemical_formula_sum "Si O2"
_cell_formula_units_Z 58
_cell_length_a 13.930836
_cell_length_b 15.092268
_cell_length_c 14.951961
_cell_angle_alpha 90.000000
_cell_angle_beta 71.417174
_cell_angle_gamma 90.000000
_cell_volume 2979.722775
_symmetry_space_group_name_H-M "C 2/M"
_symmetry_group_IT_number 12
_symmetry_cell_setting 'monoclinic'
loop_
_space_group_symop_operation_xyz
x,y,z
-x,y,-z
-x,-y,-z
x,-y,z
1/2+x,1/2+y,z
1/2-x,1/2+y,-z
1/2-x,1/2-y,-z
1/2+x,1/2-y,z
loop_
_atom_site_type_symbol
_atom_site_label
_atom_site_fract_x
_atom_site_fract_y
_atom_site_fract_z
Si Si1 0.588801 0.768718 0.046214
Si Si2 0.894156 0.642152 0.410702
Si Si3 0.000000 0.500000 0.500000
Si Si4 0.664849 0.398921 0.441414
Si Si5 0.573673 0.397998 0.167989
Si Si6 0.515424 0.663122 0.625399
Si Si7 0.802198 0.399771 0.106822
Si Si8 0.481340 0.098012 0.194780
O O1 0.584595 0.667812 0.080478
O O2 0.559734 0.827616 0.141026
O O3 0.500000 0.779240 0.000000
O O4 0.679553 0.820559 0.969436
O O5 0.773925 0.643477 0.427994
O O6 0.949435 0.603500 0.306364
O O7 0.923716 0.577903 0.482608
O O8 0.940306 0.739727 0.405082
O O9 0.681740 0.500000 0.406138
O O10 0.592499 0.349999 0.391715
O O11 0.596480 0.398896 0.551367
O O12 0.548208 0.500000 0.153192
O O13 0.499535 0.360263 0.266149
O O14 0.687494 0.397595 0.173508
O O15 0.819737 0.500000 0.063908
O O16 0.880760 0.389587 0.164469
O O17 0.521721 0.000000 0.162579
#
# Coordination Sequence:
#
# PCOD9176633 Si02
#       8
#     8   8   2   8   8   8   8   8
#     4  10  20  35  57  85 118 155 197 247 306 369
#     4  12  23  40  62  92 128 166 202 257 317 382
#     4  12  24  40  64  94 132 164 202 248 334 386
#     4  11  22  42  65  89 120 165 212 261 310 365
#     4  11  21  36  57  85 120 160 203 254 300 363
#     4  11  23  39  64  93 123 162 217 262 309 371
#     4   9  19  34  60  89 115 147 201 255 307 365
#     4  10  18  35  59  87 116 151 192 249 311 366
#
# _framework density 19.464898000000002
#
# number of rings (size 3 to 8) (size 9 to 14) (size 15 to 20)
#    0.000    1.379    2.759    4.552    0.000    3.034 
#    0.000    0.000    0.000    0.000    0.000    0.000 
#    0.000    0.000    0.000    0.000    0.000    0.000 
#
# Total GULP energy -161466.752787 kJ/mol
# GULP energy per Si atom -5567.819062 kJ/mol
# Density = 1.942059 g / cm^3
# Si number density = 19.464898 Si / 1000 Ang^3
#
#
#
# Elastic Constant Matrix: (Units=GPa)
#
#
# Indices 1 2 3 4 5 6 
#
# 1 69.6354 24.8647 -1.4241 0.0000 -5.8064 0.0000
# 2 24.8647 129.2459 2.7708 0.0000 -0.0246 0.0000
# 3 -1.4241 2.7708 39.0325 0.0000 -10.4717 0.0000
# 4 0.0000 0.0000 0.0000 23.1821 0.0000 2.1247
# 5 -5.8064 -0.0246 -10.4717 0.0000 17.1614 0.0000
# 6 0.0000 0.0000 0.0000 2.1247 0.0000 23.7059
#
#
#
# Elastic Compliance Matrix: (Units=1/GPa)
#
#
# Indices 1 2 3 4 5 6 
#
# 1 0.016139 -0.003162 0.002723 0.000000 0.007117 0.000000
# 2 -0.003162 0.008371 -0.001188 0.000000 -0.001783 0.000000
# 3 0.002723 -0.001188 0.031149 0.000000 0.019926 0.000000
# 4 0.000000 0.000000 0.000000 0.043494 0.000000 -0.003898
# 5 0.007117 -0.001783 0.019926 0.000000 0.072835 0.000000
# 6 0.000000 0.000000 0.000000 -0.003898 0.000000 0.042533
#
#
# Mechanical properties :
#
#
# Convention : Reuss Voigt Hill
#
# Bulk Modulus (GPa) = 19.08232 32.25962 25.67097
# Shear Modulus (GPa) = 21.25470 26.92337 24.08904
#
# Velocity S-wave (km/s) = 3.30805 3.72314 3.52172
# Velocity P-wave (km/s) = 4.94122 5.92382 5.45469
#
# Compressibility (1/GPa) = 0.05240454
#
# Stress axis : x y z
#
# Youngs Moduli (GPa) = 61.96310 119.46581 32.10357
#
# Poissons Ratio (x) = 0.37773 -0.08741
# Poissons Ratio (y) = 0.19592 0.03813
# Poissons Ratio (z) = -0.16870 0.14190
#
# Static dielectric constant tensor:
#      x y z
#    x 1.664950 0.000000 -0.000420 
#    y 0.000000 1.701080 0.000000 
#    z -0.000420 0.000000 1.699940 
# 
# From -- ./inp_files/214778.got.cif
#   From: 2010.05.17/outbox.cif.g08.bks.cpg/sg12_108_cif.got.tgz:214778.got - 2010.06.03 13:09:07.
