data_PCOD9176740
_publ_section_title
;
Structure prediction by ZEFSAII (Michael W. Deem and Ramdas Pophale) SiO2 
 PCOD9176740
Probable space group: C 2/M
;
_chemical_formula_sum "Si O2"
_cell_formula_units_Z 36
_cell_length_a 13.777503
_cell_length_b 20.621373
_cell_length_c 10.766259
_cell_angle_alpha 90.000000
_cell_angle_beta 36.343971
_cell_angle_gamma 90.000000
_cell_volume 1812.748902
_symmetry_space_group_name_H-M "C 2/M"
_symmetry_group_IT_number 12
_symmetry_cell_setting 'monoclinic'
loop_
_space_group_symop_operation_xyz
x,y,z
-x,y,-z
-x,-y,-z
x,-y,z
1/2+x,1/2+y,z
1/2-x,1/2+y,-z
1/2-x,1/2-y,-z
1/2+x,1/2-y,z
loop_
_atom_site_type_symbol
_atom_site_label
_atom_site_fract_x
_atom_site_fract_y
_atom_site_fract_z
Si Si1 0.821401 0.681249 0.169734
Si Si2 0.921506 0.926261 0.944645
Si Si3 0.000000 0.271198 0.500000
Si Si4 0.677089 0.821772 0.105324
Si Si5 0.869947 0.074731 0.520771
O O1 0.665846 0.728990 0.338014
O O2 0.777933 0.624514 0.309891
O O3 0.833904 0.649408 0.020424
O O4 0.000000 0.713360 0.000000
O O5 0.793494 0.868445 0.062880
O O6 0.853892 0.000000 0.000355
O O7 0.000000 0.922858 0.000000
O O8 0.044606 0.917244 0.701086
O O9 0.018962 0.310903 0.353188
O O10 0.750000 0.750000 0.000000
O O11 0.000000 0.088029 0.500000
O O12 0.819950 0.000000 0.585257
#
# Coordination Sequence:
#
# PCOD9176740 Si02
#       5
#     8   8   4   8   8
#     4  11  22  37  60  89 121 161 215 270 320 382
#     4  10  21  38  65  98 132 173 216 265 330 392
#     4  10  22  40  56  84 124 166 212 266 328 378
#     4  10  21  38  60  88 125 169 217 266 318 387
#     4  10  18  35  63  88 121 165 206 262 322 379
#
# _framework density 19.859341000000001
#
# number of rings (size 3 to 8) (size 9 to 14) (size 15 to 20)
#    0.000    1.778    3.333    1.333    0.000    6.667 
#    0.000    0.556    0.000    0.000    0.000    0.000 
#    0.000    0.000    0.000    0.000    0.000    0.000 
#
# Total GULP energy -100281.605193 kJ/mol
# GULP energy per Si atom -5571.200289 kJ/mol
# Density = 1.981414 g / cm^3
# Si number density = 19.859341 Si / 1000 Ang^3
#
#
#
# Elastic Constant Matrix: (Units=GPa)
#
#
# Indices 1 2 3 4 5 6 
#
# 1 71.6730 27.5102 44.1125 0.0001 11.9131 -0.0025
# 2 27.5102 84.5761 54.6285 0.0001 -2.6583 -0.0035
# 3 44.1125 54.6285 138.4317 0.0002 12.4034 -0.0032
# 4 0.0001 0.0001 0.0002 25.4619 -0.0003 0.1557
# 5 11.9131 -2.6583 12.4034 -0.0003 45.2469 0.0054
# 6 -0.0025 -0.0035 -0.0032 0.1557 0.0054 10.9218
#
#
#
# Elastic Compliance Matrix: (Units=1/GPa)
#
#
# Indices 1 2 3 4 5 6 
#
# 1 0.018501 -0.003436 -0.004188 0.000000 -0.003925 0.000004
# 2 -0.003436 0.016839 -0.005864 0.000000 0.003501 0.000001
# 3 -0.004188 -0.005864 0.011076 0.000000 -0.002278 0.000002
# 4 0.000000 0.000000 0.000000 0.039278 0.000000 -0.000560
# 5 -0.003925 0.003501 -0.002278 0.000000 0.023965 -0.000012
# 6 0.000004 0.000001 0.000002 -0.000560 -0.000012 0.091568
#
#
# Mechanical properties :
#
#
# Convention : Reuss Voigt Hill
#
# Bulk Modulus (GPa) = 51.43866 60.79813 56.11840
# Shear Modulus (GPa) = 21.30540 27.55477 24.43009
#
# Velocity S-wave (km/s) = 3.27894 3.72895 3.51116
# Velocity P-wave (km/s) = 6.34767 7.01577 6.69006
#
# Compressibility (1/GPa) = 0.01944063
#
# Stress axis : x y z
#
# Youngs Moduli (GPa) = 54.05087 59.38626 90.28233
#
# Poissons Ratio (x) = 0.20407 0.37808
# Poissons Ratio (y) = 0.18574 0.52939
# Poissons Ratio (z) = 0.22635 0.34823
#
# Static dielectric constant tensor:
#      x y z
#    x 1.796500 0.000000 -0.000490 
#    y 0.000000 1.778310 0.000000 
#    z -0.000490 0.000000 1.713280 
# 
# From -- ./inp_files/62534.got.cif
#   From: 2010.05.17/outbox.cif.g08.bks.cpg/sg12_32_cif.got.tgz:62534.got - 2010.06.03 13:09:07.
