data_PCOD9176533
_publ_section_title
;
Structure prediction by ZEFSAII (Michael W. Deem and Ramdas Pophale) SiO2 
 PCOD9176533
Probable space group: C 2/M
;
_chemical_formula_sum "Si O2"
_cell_formula_units_Z 48
_cell_length_a 15.617172
_cell_length_b 16.280447
_cell_length_c 14.527028
_cell_angle_alpha 90.000000
_cell_angle_beta 37.129747
_cell_angle_gamma 90.000000
_cell_volume 2229.515781
_symmetry_space_group_name_H-M "C 2/M"
_symmetry_group_IT_number 12
_symmetry_cell_setting 'monoclinic'
loop_
_space_group_symop_operation_xyz
x,y,z
-x,y,-z
-x,-y,-z
x,-y,z
1/2+x,1/2+y,z
1/2-x,1/2+y,-z
1/2-x,1/2-y,-z
1/2+x,1/2-y,z
loop_
_atom_site_type_symbol
_atom_site_label
_atom_site_fract_x
_atom_site_fract_y
_atom_site_fract_z
Si Si1 0.817406 0.091076 0.469849
Si Si2 0.876343 0.405510 0.947768
Si Si3 0.896859 0.715452 0.252685
Si Si4 0.414206 0.687272 0.762504
Si Si5 0.592840 0.866361 0.293064
Si Si6 0.773476 0.629278 0.645028
O O1 0.705034 0.160612 0.595061
O O2 0.817079 0.088087 0.358566
O O3 0.968342 0.124133 0.375293
O O4 0.781626 0.000000 0.534816
O O5 0.877758 0.500000 0.975278
O O6 0.895901 0.400889 0.819400
O O7 0.003810 0.351379 0.881206
O O8 0.728242 0.360900 0.094274
O O9 0.794495 0.779672 0.290880
O O10 0.007933 0.770694 0.215976
O O11 0.384490 0.767955 0.728389
O O12 0.704779 0.902305 0.270159
O O13 0.433019 0.876085 0.467344
#
# Coordination Sequence:
#
# PCOD9176533 Si02
#       6
#     8   8   8   8   8   8
#     4  11  19  32  55  82 110 139 175 222 267 310
#     4  11  22  35  55  83 110 140 177 220 269 315
#     4  10  18  35  55  78 105 141 188 218 245 317
#     4  10  19  37  54  75 108 147 184 212 251 322
#     4  10  19  34  56  81 108 141 175 221 265 319
#     4  10  19  33  56  83 109 135 179 219 270 314
#
# _framework density 21.529337999999999
#
# number of rings (size 3 to 8) (size 9 to 14) (size 15 to 20)
#    0.000    1.667    5.000    4.000    0.000    0.667 
#    0.000    9.167    0.000   11.000    0.000    0.000 
#    0.000    0.000    0.000    0.000    0.000    0.000 
#
# Total GULP energy -133776.953999 kJ/mol
# GULP energy per Si atom -5574.039750 kJ/mol
# Density = 2.148034 g / cm^3
# Si number density = 21.529338 Si / 1000 Ang^3
#
#
#
# Elastic Constant Matrix: (Units=GPa)
#
#
# Indices 1 2 3 4 5 6 
#
# 1 41.3091 -2.0463 -4.6088 0.0000 -3.4620 0.0000
# 2 -2.0463 113.1894 2.5175 0.0000 -10.9712 0.0000
# 3 -4.6088 2.5175 54.6119 -0.0001 -16.9800 0.0001
# 4 0.0000 0.0000 -0.0001 17.0539 0.0000 3.0090
# 5 -3.4620 -10.9712 -16.9800 0.0000 13.7229 0.0000
# 6 0.0000 0.0000 0.0001 3.0090 0.0000 0.2158
#
#
#
# Elastic Compliance Matrix: (Units=1/GPa)
#
#
# Indices 1 2 3 4 5 6 
#
# 1 0.026675 0.002049 0.007734 0.000000 0.017937 0.000003
# 2 0.002049 0.010080 0.003859 0.000000 0.013351 0.000001
# 3 0.007734 0.003859 0.033077 -0.000001 0.045964 0.000006
# 4 0.000000 0.000000 -0.000001 -0.040169 0.000000 0.560001
# 5 0.017937 0.013351 0.045964 0.000000 0.144944 0.000000
# 6 0.000003 0.000001 0.000006 0.560001 0.000000 -3.173895
#
#
# Mechanical properties :
#
#
# Convention : Reuss Voigt Hill
#
# Bulk Modulus (GPa) = 10.29694 22.31503 16.30598
# Shear Modulus (GPa) = -1.66990 20.41507 9.37259
#
# Velocity S-wave (km/s) = -0.88166 3.08270 2.08874
# Velocity P-wave (km/s) = 1.93822 4.80189 3.66161
#
# Compressibility (1/GPa) = 0.09711627
#
# Stress axis : x y z
#
# Youngs Moduli (GPa) = 37.48782 99.20601 30.23246
#
# Poissons Ratio (x) = -0.20326 -0.23381
# Poissons Ratio (y) = -0.07681 -0.11668
# Poissons Ratio (z) = -0.28992 -0.38287
#
# Static dielectric constant tensor:
#      x y z
#    x 1.829630 0.000000 0.016460 
#    y 0.000000 1.828440 0.000000 
#    z 0.016460 0.000000 1.781840 
# 
# From -- ./inp_files/97577.got.cif
#   From: 2010.05.17/outbox.cif.g08.bks.cpg/sg12_49_cif.got.tgz:97577.got - 2010.06.03 13:09:07.
