data_PCOD9176982
_publ_section_title
;
Structure prediction by ZEFSAII (Michael W. Deem and Ramdas Pophale) SiO2 
 PCOD9176982
Probable space group: C 2/M
;
_chemical_formula_sum "Si O2"
_cell_formula_units_Z 40
_cell_length_a 11.002135
_cell_length_b 22.609190
_cell_length_c 7.388743
_cell_angle_alpha 90.000000
_cell_angle_beta 81.044336
_cell_angle_gamma 90.000000
_cell_volume 1815.538884
_symmetry_space_group_name_H-M "C 2/M"
_symmetry_group_IT_number 12
_symmetry_cell_setting 'monoclinic'
loop_
_space_group_symop_operation_xyz
x,y,z
-x,y,-z
-x,-y,-z
x,-y,z
1/2+x,1/2+y,z
1/2-x,1/2+y,-z
1/2-x,1/2-y,-z
1/2+x,1/2-y,z
loop_
_atom_site_type_symbol
_atom_site_label
_atom_site_fract_x
_atom_site_fract_y
_atom_site_fract_z
Si Si1 0.348274 0.500000 0.506391
Si Si2 0.534316 0.872107 0.278154
Si Si3 0.137955 0.130809 0.521415
Si Si4 0.892937 0.500000 0.681582
Si Si5 0.796309 0.312074 0.214652
Si Si6 0.290421 0.321755 0.139521
O O1 0.500000 0.500000 0.500000
O O2 0.322440 0.567512 0.573045
O O3 0.246944 0.500000 0.363317
O O4 0.500000 0.870131 0.500000
O O5 0.582113 0.938169 0.224704
O O6 0.414967 0.853311 0.195991
O O7 0.644857 0.827133 0.214738
O O8 0.227004 0.179760 0.419380
O O9 0.148209 0.132671 0.736140
O O10 0.000000 0.143498 0.500000
O O11 0.000000 0.500000 0.500000
O O12 0.833504 0.244567 0.171018
O O13 0.703509 0.331393 0.076092
#
# Coordination Sequence:
#
# PCOD9176982 Si02
#       6
#     4   8   8   4   8   8
#     4  10  20  40  64  93 125 166 212 265 320 385
#     4  11  21  39  67  92 127 166 213 259 324 378
#     4  11  23  41  66  88 122 167 210 254 318 378
#     4  10  18  36  65  96 128 164 212 272 316 379
#     4  11  25  40  61  94 128 166 208 263 317 379
#     4  11  24  41  61  91 131 162 209 263 314 379
#
# _framework density 22.032025000000001
#
# number of rings (size 3 to 8) (size 9 to 14) (size 15 to 20)
#    0.000    1.200    4.000    2.400    2.800    0.800 
#    0.000    5.000    0.000    3.600    0.000    0.000 
#    0.000    0.000    0.000    0.000    0.000    0.000 
#
# Total GULP energy -111459.846749 kJ/mol
# GULP energy per Si atom -5572.992337 kJ/mol
# Density = 2.198188 g / cm^3
# Si number density = 22.032025 Si / 1000 Ang^3
#
#
#
# Elastic Constant Matrix: (Units=GPa)
#
#
# Indices 1 2 3 4 5 6 
#
# 1 99.7553 43.4659 6.6141 0.0000 30.2192 0.0000
# 2 43.4659 101.7514 18.1129 0.0000 13.3505 0.0000
# 3 6.6141 18.1129 55.1643 0.0000 16.3658 0.0000
# 4 0.0000 0.0000 0.0000 11.8223 0.0000 6.7512
# 5 30.2192 13.3505 16.3658 0.0000 28.5837 0.0000
# 6 0.0000 0.0000 0.0000 6.7512 0.0000 27.6154
#
#
#
# Elastic Compliance Matrix: (Units=1/GPa)
#
#
# Indices 1 2 3 4 5 6 
#
# 1 0.018363 -0.006270 0.005719 0.000000 -0.019760 0.000000
# 2 -0.006270 0.012879 -0.004408 0.000000 0.003137 0.000000
# 3 0.005719 -0.004408 0.024179 0.000000 -0.017832 0.000000
# 4 0.000000 0.000000 0.000000 0.098310 0.000000 -0.024034
# 5 -0.019760 0.003137 -0.017832 0.000000 0.064620 0.000000
# 6 0.000000 0.000000 0.000000 -0.024034 0.000000 0.042087
#
#
# Mechanical properties :
#
#
# Convention : Reuss Voigt Hill
#
# Bulk Modulus (GPa) = 21.97536 43.67299 32.82418
# Shear Modulus (GPa) = 17.51161 26.16949 21.84055
#
# Velocity S-wave (km/s) = 2.82232 3.45018 3.15192
# Velocity P-wave (km/s) = 4.54055 5.97806 5.30819
#
# Compressibility (1/GPa) = 0.04550550
#
# Stress axis : x y z
#
# Youngs Moduli (GPa) = 54.45672 77.64439 41.35744
#
# Poissons Ratio (x) = 0.48681 -0.23653
# Poissons Ratio (y) = 0.34143 0.18229
# Poissons Ratio (z) = -0.31145 0.34223
#
# Static dielectric constant tensor:
#      x y z
#    x 1.788160 0.000000 0.021450 
#    y 0.000000 1.802180 0.000000 
#    z 0.021450 0.000000 1.845250 
# 
# From -- ./inp_files/48727.got.cif
#   From: 2010.05.17/outbox.cif.g08.bks.cpg/sg12_25_cif.got.tgz:48727.got - 2010.06.03 13:09:07.
