data_PCOD9176252
_publ_section_title
;
Structure prediction by ZEFSAII (Michael W. Deem and Ramdas Pophale) SiO2 
 PCOD9176252
Probable space group: C 2/M
;
_chemical_formula_sum "Si O2"
_cell_formula_units_Z 64
_cell_length_a 14.178787
_cell_length_b 7.550721
_cell_length_c 25.077586
_cell_angle_alpha 90.000000
_cell_angle_beta 62.090009
_cell_angle_gamma 90.000000
_cell_volume 2372.521912
_symmetry_space_group_name_H-M "C 2/M"
_symmetry_group_IT_number 12
_symmetry_cell_setting 'monoclinic'
loop_
_space_group_symop_operation_xyz
x,y,z
-x,y,-z
-x,-y,-z
x,-y,z
1/2+x,1/2+y,z
1/2-x,1/2+y,-z
1/2-x,1/2-y,-z
1/2+x,1/2-y,z
loop_
_atom_site_type_symbol
_atom_site_label
_atom_site_fract_x
_atom_site_fract_y
_atom_site_fract_z
Si Si1 0.867392 0.200999 0.349491
Si Si2 0.818204 0.718050 0.184482
Si Si3 0.597501 0.697430 0.267958
Si Si4 0.150090 0.208949 0.043073
Si Si5 0.100640 0.713135 0.952892
Si Si6 0.411918 0.214176 0.451026
Si Si7 0.645641 0.216048 0.414037
Si Si8 0.535696 0.801332 0.176761
O O1 0.983452 0.284573 0.310760
O O2 0.852809 0.199998 0.417365
O O3 0.756230 0.283421 0.360376
O O4 0.875975 0.000000 0.326831
O O5 0.814086 0.500000 0.184408
O O6 0.712429 0.784714 0.242485
O O7 0.842404 0.779544 0.117151
O O8 0.919564 0.767730 0.192970
O O9 0.598371 0.500000 0.291394
O O10 0.593649 0.685445 0.204658
O O11 0.289935 0.240379 0.030108
O O12 0.099306 0.308899 0.105282
O O13 0.145276 0.000000 0.051132
O O14 0.035894 0.238482 0.029800
O O15 0.099819 0.500000 0.949390
O O16 0.537043 0.262271 0.413089
O O17 0.373810 0.271211 0.519491
O O18 0.402638 0.000000 0.450594
O O19 0.651070 0.000000 0.412793
O O20 0.527886 0.000000 0.199930
#
# Coordination Sequence:
#
# PCOD9176252 Si02
#       8
#     8   8   8   8   8   8   8   8
#     4  10  20  34  53  78 112 146 184 228 279 326
#     4   9  19  37  59  78 107 144 178 217 277 338
#     4  10  22  39  56  79 110 150 186 224 275 337
#     4  12  24  37  56  84 114 142 177 224 278 339
#     4  10  18  34  58  81 105 137 176 220 279 339
#     4   9  17  32  55  79 107 145 190 227 276 331
#     4   8  16  32  53  79 111 148 182 226 279 334
#     4  11  22  40  61  81 105 143 187 231 276 326
#
# _framework density 26.975517
#
# number of rings (size 3 to 8) (size 9 to 14) (size 15 to 20)
#    0.000    2.125    1.250    3.375    0.000    2.750 
#    0.000    3.125    0.000    0.000    0.000    0.000 
#    0.000    0.000    0.000    0.000    0.000    0.000 
#
# Total GULP energy -178636.317787 kJ/mol
# GULP energy per Si atom -5582.384931 kJ/mol
# Density = 2.691412 g / cm^3
# Si number density = 26.975517 Si / 1000 Ang^3
#
#
#
# Elastic Constant Matrix: (Units=GPa)
#
#
# Indices 1 2 3 4 5 6 
#
# 1 141.0458 7.5460 49.3482 0.0000 -52.6184 0.0000
# 2 7.5460 101.2728 11.4325 0.0000 2.7920 0.0000
# 3 49.3482 11.4325 72.1277 0.0000 -31.1869 0.0000
# 4 0.0000 0.0000 0.0000 9.6437 0.0000 16.0679
# 5 -52.6184 2.7920 -31.1869 0.0000 81.2273 0.0000
# 6 0.0000 0.0000 0.0000 16.0679 0.0000 14.7623
#
#
#
# Elastic Compliance Matrix: (Units=1/GPa)
#
#
# Indices 1 2 3 4 5 6 
#
# 1 0.010784 -0.000361 -0.005150 0.000000 0.005021 0.000000
# 2 -0.000361 0.010156 -0.001937 0.000000 -0.001326 0.000000
# 3 -0.005150 -0.001937 0.019522 0.000000 0.004226 0.000000
# 4 0.000000 0.000000 0.000000 -0.127467 0.000000 0.138740
# 5 0.005021 -0.001326 0.004226 0.000000 0.017232 0.000000
# 6 0.000000 0.000000 0.000000 0.138740 0.000000 -0.083269
#
#
# Mechanical properties :
#
#
# Convention : Reuss Voigt Hill
#
# Bulk Modulus (GPa) = 39.11145 50.12218 44.61681
# Shear Modulus (GPa) = -38.57295 37.53463 -0.51916
#
# Velocity S-wave (km/s) = -3.78554 3.73424 -0.43917
# Velocity P-wave (km/s) = 2.13932 6.10030 4.03961
#
# Compressibility (1/GPa) = 0.02556796
#
# Stress axis : x y z
#
# Youngs Moduli (GPa) = 92.72827 98.46040 51.22411
#
# Poissons Ratio (x) = 0.03550 0.26381
# Poissons Ratio (y) = 0.03344 0.09920
# Poissons Ratio (z) = 0.47757 0.19067
#
# Static dielectric constant tensor:
#      x y z
#    x 2.745670 0.000000 -0.102680 
#    y 0.000000 1.984710 0.000000 
#    z -0.102680 0.000000 2.095340 
# 
# From -- ./inp_files/375025.got.cif
#   From: 2010.05.17/outbox.cif.g08.bks.cpg/sg12_188_cif.got.tgz:375025.got - 2010.06.03 13:09:07.
