data_PCOD9176879
_publ_section_title
;
Structure prediction by ZEFSAII (Michael W. Deem and Ramdas Pophale) SiO2 
 PCOD9176879
Probable space group: C 2/M
;
_chemical_formula_sum "Si O2"
_cell_formula_units_Z 64
_cell_length_a 23.337734
_cell_length_b 16.605691
_cell_length_c 20.481062
_cell_angle_alpha 90.000000
_cell_angle_beta 26.698283
_cell_angle_gamma 90.000000
_cell_volume 3566.128717
_symmetry_space_group_name_H-M "C 2/M"
_symmetry_group_IT_number 12
_symmetry_cell_setting 'monoclinic'
loop_
_space_group_symop_operation_xyz
x,y,z
-x,y,-z
-x,-y,-z
x,-y,z
1/2+x,1/2+y,z
1/2-x,1/2+y,-z
1/2-x,1/2-y,-z
1/2+x,1/2-y,z
loop_
_atom_site_type_symbol
_atom_site_label
_atom_site_fract_x
_atom_site_fract_y
_atom_site_fract_z
Si Si1 0.473729 0.705581 0.838037
Si Si2 0.269863 0.346510 0.468571
Si Si3 0.011877 0.204544 0.562474
Si Si4 0.773690 0.906148 0.846164
Si Si5 0.993055 0.669479 0.316246
Si Si6 0.239742 0.093031 0.375160
Si Si7 0.511671 0.833885 0.063663
Si Si8 0.750799 0.091913 0.025805
O O1 0.596975 0.648588 0.704305
O O2 0.478038 0.767858 0.772632
O O3 0.484183 0.757474 0.892641
O O4 0.346285 0.654441 0.961738
O O5 0.250000 0.250000 0.500000
O O6 0.278565 0.389569 0.529193
O O7 0.142430 0.371543 0.560922
O O8 0.139536 0.151148 0.441379
O O9 0.000000 0.231275 0.500000
O O10 0.890409 0.149069 0.704391
O O11 0.015576 0.277706 0.609768
O O12 0.802437 0.000000 0.805104
O O13 0.641944 0.882311 0.945007
O O14 0.754387 0.894691 0.943739
O O15 0.109538 0.608313 0.195739
O O16 0.385358 0.115517 0.210393
O O17 0.214570 0.000000 0.385650
O O18 0.500000 0.811694 0.000000
O O19 0.789805 0.000000 0.997671
#
# Coordination Sequence:
#
# PCOD9176879 Si02
#       8
#     8   8   8   8   8   8   8   8
#     4  11  19  38  62  80 114 151 191 242 279 328
#     4  10  18  36  60  79 104 152 197 238 277 315
#     4  12  24  37  56  84 116 157 194 225 277 344
#     4  11  22  36  53  81 120 156 187 224 277 343
#     4  11  19  38  62  80 114 151 191 242 279 328
#     4  12  23  37  57  85 119 155 191 231 280 337
#     4  12  24  37  56  84 116 157 194 225 277 344
#     4  11  22  36  61  92 113 143 193 243 293 333
#
# _framework density 17.946632000000001
#
# number of rings (size 3 to 8) (size 9 to 14) (size 15 to 20)
#    0.000    0.750    7.500    2.625    0.000    6.000 
#    0.000    0.000    0.000    0.750    0.000    1.750 
#    0.000    0.000    0.000    0.000    0.000    0.000 
#
# Total GULP energy -178832.877608 kJ/mol
# GULP energy per Si atom -5588.527425 kJ/mol
# Density = 1.790578 g / cm^3
# Si number density = 17.946632 Si / 1000 Ang^3
#
#
#
# Elastic Constant Matrix: (Units=GPa)
#
#
# Indices 1 2 3 4 5 6 
#
# 1 75.8915 20.4613 4.4544 0.0002 19.5552 -0.0002
# 2 20.4613 22.7454 -6.5523 0.0001 13.5774 -0.0001
# 3 4.4544 -6.5523 25.4076 0.0003 -12.3034 -0.0001
# 4 0.0002 0.0001 0.0003 7.5129 -0.0001 -2.5336
# 5 19.5552 13.5774 -12.3034 -0.0001 34.8735 0.0000
# 6 -0.0002 -0.0001 -0.0001 -2.5336 0.0000 8.2010
#
#
#
# Elastic Compliance Matrix: (Units=1/GPa)
#
#
# Indices 1 2 3 4 5 6 
#
# 1 0.020916 -0.016670 -0.012666 0.000000 -0.009707 0.000000
# 2 -0.016670 0.071050 0.014927 -0.000001 -0.013048 0.000000
# 3 -0.012666 0.014927 0.055543 -0.000002 0.020887 0.000000
# 4 0.000000 -0.000001 -0.000002 0.148584 0.000000 0.045902
# 5 -0.009707 -0.013048 0.020887 0.000000 0.046567 0.000000
# 6 0.000000 0.000000 0.000000 0.045902 0.000000 0.136117
#
#
# Mechanical properties :
#
#
# Convention : Reuss Voigt Hill
#
# Bulk Modulus (GPa) = 8.42534 17.86346 13.14440
# Shear Modulus (GPa) = 9.13812 17.16288 13.15050
#
# Velocity S-wave (km/s) = 2.25896 3.09581 2.70988
# Velocity P-wave (km/s) = 3.39245 4.77011 4.13900
#
# Compressibility (1/GPa) = 0.11868959
#
# Stress axis : x y z
#
# Youngs Moduli (GPa) = 47.81070 14.07465 18.00416
#
# Poissons Ratio (x) = 0.23462 0.22805
# Poissons Ratio (y) = 0.79700 -0.26875
# Poissons Ratio (z) = 0.60559 -0.21009
#
# Static dielectric constant tensor:
#      x y z
#    x 1.618900 0.000000 -0.032330 
#    y 0.000000 1.601830 0.000000 
#    z -0.032330 0.000000 1.644450 
# 
# From -- ./inp_files/285187.got.cif
#   From: 2010.05.17/outbox.cif.g08.bks.cpg/sg12_143_cif.got.tgz:285187.got - 2010.06.03 13:09:07.
