data_PCOD9176108
_publ_section_title
;
Structure prediction by ZEFSAII (Michael W. Deem and Ramdas Pophale) SiO2 
 PCOD9176108
Probable space group: C 2/M
;
_chemical_formula_sum "Si O2"
_cell_formula_units_Z 50
_cell_length_a 13.468643
_cell_length_b 12.458620
_cell_length_c 16.679401
_cell_angle_alpha 90.000000
_cell_angle_beta 65.488672
_cell_angle_gamma 90.000000
_cell_volume 2546.583957
_symmetry_space_group_name_H-M "C 2/M"
_symmetry_group_IT_number 12
_symmetry_cell_setting 'monoclinic'
loop_
_space_group_symop_operation_xyz
x,y,z
-x,y,-z
-x,-y,-z
x,-y,z
1/2+x,1/2+y,z
1/2-x,1/2+y,-z
1/2-x,1/2-y,-z
1/2+x,1/2-y,z
loop_
_atom_site_type_symbol
_atom_site_label
_atom_site_fract_x
_atom_site_fract_y
_atom_site_fract_z
Si Si1 0.467455 0.629770 0.742268
Si Si2 0.000000 0.500000 0.500000
Si Si3 0.115137 0.126858 0.547393
Si Si4 0.259862 0.622284 0.909292
Si Si5 0.175224 0.686516 0.413093
Si Si6 0.680599 0.376127 0.767605
Si Si7 0.371848 0.327545 0.039002
O O1 0.463565 0.500000 0.742156
O O2 0.515808 0.661790 0.639562
O O3 0.350196 0.663234 0.814995
O O4 0.561412 0.659401 0.775238
O O5 0.914195 0.594495 0.556419
O O6 0.130292 0.203546 0.466257
O O7 0.224779 0.146011 0.563310
O O8 0.105349 0.000000 0.531963
O O9 0.230374 0.500000 0.900437
O O10 0.158104 0.701564 0.948359
O O11 0.320118 0.626821 0.975260
O O12 0.229877 0.694396 0.307694
O O13 0.695567 0.500000 0.736218
O O14 0.681533 0.372933 0.862459
O O15 0.500000 0.348564 0.000000
#
# Coordination Sequence:
#
# PCOD9176108 Si02
#       7
#     8   2   8   8   8   8   8
#     4   8  15  30  56  80 106 141 188 231 275 328
#     4  12  20  36  50  84 114 146 188 232 294 332
#     4   9  17  35  58  83 109 153 193 231 279 345
#     4  10  21  37  56  84 114 145 186 230 284 347
#     4  10  20  33  56  81 117 151 185 235 289 341
#     4  10  18  34  55  81 110 147 189 231 279 334
#     4  11  22  35  59  86 110 146 189 235 286 334
#
# _framework density 19.634146000000001
#
# number of rings (size 3 to 8) (size 9 to 14) (size 15 to 20)
#    0.000    2.240    3.200    1.440    0.000    2.240 
#    0.000    1.200    0.000    0.000    0.000    0.000 
#    0.000    0.000    0.000    0.000    0.000    0.000 
#
# Total GULP energy -139242.684795 kJ/mol
# GULP energy per Si atom -5569.707392 kJ/mol
# Density = 1.958946 g / cm^3
# Si number density = 19.634146 Si / 1000 Ang^3
#
#
#
# Elastic Constant Matrix: (Units=GPa)
#
#
# Indices 1 2 3 4 5 6 
#
# 1 20.5405 -6.2508 10.2338 0.0000 4.6840 0.0000
# 2 -6.2508 82.4932 31.7372 0.0000 4.6795 0.0000
# 3 10.2338 31.7372 121.5580 0.0000 0.6247 0.0000
# 4 0.0000 0.0000 0.0000 30.1095 0.0000 -5.9995
# 5 4.6840 4.6795 0.6247 0.0000 22.9866 0.0000
# 6 0.0000 0.0000 0.0000 -5.9995 0.0000 6.0972
#
#
#
# Elastic Compliance Matrix: (Units=1/GPa)
#
#
# Indices 1 2 3 4 5 6 
#
# 1 0.057382 0.007696 -0.006773 0.000000 -0.013075 0.000000
# 2 0.007696 0.014671 -0.004455 0.000000 -0.004434 0.000000
# 3 -0.006773 -0.004455 0.009950 0.000000 0.002017 0.000000
# 4 0.000000 0.000000 0.000000 0.041312 0.000000 0.040650
# 5 -0.013075 -0.004434 0.002017 0.000000 0.047016 0.000000
# 6 0.000000 0.000000 0.000000 0.040650 0.000000 0.204007
#
#
# Mechanical properties :
#
#
# Convention : Reuss Voigt Hill
#
# Bulk Modulus (GPa) = 13.34453 32.89246 23.11850
# Shear Modulus (GPa) = 12.30368 24.43011 18.36689
#
# Velocity S-wave (km/s) = 2.50601 3.53124 3.06184
# Velocity P-wave (km/s) = 3.89677 5.78060 4.92951
#
# Compressibility (1/GPa) = 0.07493705
#
# Stress axis : x y z
#
# Youngs Moduli (GPa) = 17.42699 68.16175 100.50615
#
# Poissons Ratio (x) = -0.52454 0.68072
# Poissons Ratio (y) = -0.13411 0.44780
# Poissons Ratio (z) = 0.11803 0.30369
#
# Static dielectric constant tensor:
#      x y z
#    x 1.692100 0.000000 0.007350 
#    y 0.000000 1.678510 0.000000 
#    z 0.007350 0.000000 1.711100 
# 
# From -- ./inp_files/268562.got.cif
#   From: 2010.05.17/outbox.cif.g08.bks.cpg/sg12_135_cif.got.tgz:268562.got - 2010.06.03 13:09:07.
