data_PCOD9176981
_publ_section_title
;
Structure prediction by ZEFSAII (Michael W. Deem and Ramdas Pophale) SiO2 
 PCOD9176981
Probable space group: C 2/M
;
_chemical_formula_sum "Si O2"
_cell_formula_units_Z 64
_cell_length_a 15.832820
_cell_length_b 18.622632
_cell_length_c 18.425008
_cell_angle_alpha 90.000000
_cell_angle_beta 33.538921
_cell_angle_gamma 90.000000
_cell_volume 3001.524619
_symmetry_space_group_name_H-M "C 2/M"
_symmetry_group_IT_number 12
_symmetry_cell_setting 'monoclinic'
loop_
_space_group_symop_operation_xyz
x,y,z
-x,y,-z
-x,-y,-z
x,-y,z
1/2+x,1/2+y,z
1/2-x,1/2+y,-z
1/2-x,1/2-y,-z
1/2+x,1/2-y,z
loop_
_atom_site_type_symbol
_atom_site_label
_atom_site_fract_x
_atom_site_fract_y
_atom_site_fract_z
Si Si1 0.381145 0.420833 0.650540
Si Si2 0.331564 0.845156 0.592258
Si Si3 0.052562 0.168922 0.265873
Si Si4 0.160044 0.308066 0.015397
Si Si5 0.203252 0.584912 0.109028
Si Si6 0.474336 0.584917 0.174124
Si Si7 0.928916 0.671783 0.363831
Si Si8 0.318178 0.806846 0.283508
O O1 0.500000 0.424618 0.500000
O O2 0.323755 0.500000 0.709745
O O3 0.469100 0.386794 0.655007
O O4 0.249258 0.368647 0.717674
O O5 0.500000 0.862140 0.500000
O O6 0.197361 0.892884 0.723134
O O7 0.337915 0.852346 0.499987
O O8 0.290434 0.762330 0.638213
O O9 0.008333 0.133560 0.220791
O O10 0.968680 0.243698 0.340038
O O11 0.234802 0.184390 0.129722
O O12 0.161464 0.382683 0.059462
O O13 0.985842 0.284828 0.134815
O O14 0.250000 0.250000 0.000000
O O15 0.176221 0.500000 0.133459
O O16 0.088986 0.628487 0.242780
O O17 0.386267 0.598284 0.982041
O O18 0.481410 0.500000 0.186320
O O19 0.842502 0.665407 0.348815
#
# Coordination Sequence:
#
# PCOD9176981 Si02
#       8
#     8   8   8   8   8   8   8   8
#     4  11  26  43  60  91 140 182 215 266 329 398
#     4  12  25  40  61  94 129 164 215 275 328 382
#     4  11  20  40  67  94 127 166 228 265 321 391
#     4  10  18  36  65  96 123 166 219 272 318 385
#     4   9  19  37  61  95 126 158 206 264 326 385
#     4  10  22  40  66  90 122 167 214 268 327 389
#     4  11  22  37  68  95 124 171 215 271 319 388
#     4  11  21  39  63  91 129 168 217 261 322 385
#
# _framework density 21.322496999999998
#
# number of rings (size 3 to 8) (size 9 to 14) (size 15 to 20)
#    0.000    1.375    3.750    3.375    1.750    3.750 
#    0.000    1.250    0.000    1.500    0.000    0.000 
#    0.000    0.000    0.000    0.000    0.000    0.000 
#
# Total GULP energy -178800.888952 kJ/mol
# GULP energy per Si atom -5587.527780 kJ/mol
# Density = 2.127397 g / cm^3
# Si number density = 21.322497 Si / 1000 Ang^3
#
#
#
# Elastic Constant Matrix: (Units=GPa)
#
#
# Indices 1 2 3 4 5 6 
#
# 1 36.4072 16.6342 5.9585 0.0004 -18.1103 0.0002
# 2 16.6342 108.7773 29.2892 0.0014 -13.7305 -0.0005
# 3 5.9585 29.2892 93.6904 0.0035 -19.8371 -0.0017
# 4 0.0004 0.0014 0.0035 24.8702 -0.0006 -4.9806
# 5 -18.1103 -13.7305 -19.8371 -0.0006 28.7653 0.0001
# 6 0.0002 -0.0005 -0.0017 -4.9806 0.0001 10.2279
#
#
#
# Elastic Compliance Matrix: (Units=1/GPa)
#
#
# Indices 1 2 3 4 5 6 
#
# 1 0.042511 -0.004197 0.004510 0.000000 0.027871 -0.000001
# 2 -0.004197 0.010690 -0.002991 0.000000 0.000398 0.000000
# 3 0.004510 -0.002991 0.013607 -0.000001 0.010795 0.000001
# 4 0.000000 0.000000 -0.000001 0.044554 0.000000 0.021696
# 5 0.027871 0.000398 0.010795 0.000000 0.059946 0.000000
# 6 -0.000001 0.000000 0.000001 0.021696 0.000000 0.108336
#
#
# Mechanical properties :
#
#
# Convention : Reuss Voigt Hill
#
# Bulk Modulus (GPa) = 16.27288 38.07099 27.17194
# Shear Modulus (GPa) = 16.36741 25.23888 20.80315
#
# Velocity S-wave (km/s) = 2.77359 3.44419 3.12692
# Velocity P-wave (km/s) = 4.23148 5.80605 5.08014
#
# Compressibility (1/GPa) = 0.06145192
#
# Stress axis : x y z
#
# Youngs Moduli (GPa) = 23.52351 93.54163 73.48967
#
# Poissons Ratio (x) = 0.39259 -0.33140
# Poissons Ratio (y) = 0.09873 0.21980
# Poissons Ratio (z) = -0.10608 0.27977
#
# Static dielectric constant tensor:
#      x y z
#    x 1.796200 0.000000 -0.023660 
#    y 0.000000 1.758590 0.000000 
#    z -0.023660 0.000000 1.829650 
# 
# From -- ./inp_files/317365.got.cif
#   From: 2010.05.17/outbox.cif.g08.bks.cpg/sg12_159_cif.got.tgz:317365.got - 2010.06.03 13:09:07.
