data_PCOD9176335
_publ_section_title
;
Structure prediction by ZEFSAII (Michael W. Deem and Ramdas Pophale) SiO2 
 PCOD9176335
Probable space group: C 2/M
;
_chemical_formula_sum "Si O2"
_cell_formula_units_Z 56
_cell_length_a 16.893367
_cell_length_b 23.707683
_cell_length_c 9.228529
_cell_angle_alpha 90.000000
_cell_angle_beta 53.304625
_cell_angle_gamma 90.000000
_cell_volume 2963.580972
_symmetry_space_group_name_H-M "C 2/M"
_symmetry_group_IT_number 12
_symmetry_cell_setting 'monoclinic'
loop_
_space_group_symop_operation_xyz
x,y,z
-x,y,-z
-x,-y,-z
x,-y,z
1/2+x,1/2+y,z
1/2-x,1/2+y,-z
1/2-x,1/2-y,-z
1/2+x,1/2-y,z
loop_
_atom_site_type_symbol
_atom_site_label
_atom_site_fract_x
_atom_site_fract_y
_atom_site_fract_z
Si Si1 0.727491 0.857523 0.016149
Si Si2 0.749074 0.065530 0.281207
Si Si3 0.550804 0.563997 0.787643
Si Si4 0.531598 0.787616 0.296554
Si Si5 0.045774 0.836256 0.288800
Si Si6 0.409121 0.937406 0.997862
Si Si7 0.542457 0.097795 0.614156
O O1 0.743283 0.895775 0.143834
O O2 0.643768 0.810896 0.149985
O O3 0.678991 0.894840 0.939926
O O4 0.834788 0.837225 0.847755
O O5 0.837882 0.080159 0.292153
O O6 0.649783 0.073182 0.481482
O O7 0.761343 0.000000 0.223572
O O8 0.547496 0.500000 0.729920
O O9 0.496850 0.610537 0.751173
O O10 0.500000 0.561948 0.000000
O O11 0.500000 0.782138 0.500000
O O12 0.517932 0.724866 0.251484
O O13 0.464075 0.839030 0.313043
O O14 0.000000 0.839494 0.500000
O O15 0.465370 0.939879 0.783338
O O16 0.377055 0.000000 0.079613
O O17 0.500000 0.918532 0.000000
O O18 0.500000 0.102740 0.500000
#
# Coordination Sequence:
#
# PCOD9176335 Si02
#       7
#     8   8   8   8   8   8   8
#     4  11  20  36  62  85 115 159 202 239 293 352
#     4  11  20  33  62  93 117 147 195 251 298 344
#     4  10  22  40  59  85 118 152 202 257 288 333
#     4   9  18  37  60  88 116 149 193 255 291 348
#     4  11  24  40  61  84 119 162 204 236 297 350
#     4  10  21  34  52  84 125 152 180 236 304 363
#     4  10  18  34  59  86 115 145 195 240 291 353
#
# _framework density 18.896059000000001
#
# number of rings (size 3 to 8) (size 9 to 14) (size 15 to 20)
#    0.000    1.714    5.714    1.286    0.000    2.571 
#    0.000    5.000    0.000    0.000    0.000    0.000 
#    0.000    0.000    0.000    0.000    0.000    0.000 
#
# Total GULP energy -155924.985358 kJ/mol
# GULP energy per Si atom -5568.749477 kJ/mol
# Density = 1.885305 g / cm^3
# Si number density = 18.896059 Si / 1000 Ang^3
#
#
#
# Elastic Constant Matrix: (Units=GPa)
#
#
# Indices 1 2 3 4 5 6 
#
# 1 70.8057 39.1555 11.6978 0.0000 -11.6384 0.0000
# 2 39.1555 113.2113 7.9664 0.0000 14.6336 0.0000
# 3 11.6978 7.9664 56.3570 0.0000 -16.6385 0.0000
# 4 0.0000 0.0000 0.0000 14.0730 0.0000 -3.2267
# 5 -11.6384 14.6336 -16.6385 0.0000 29.8174 0.0000
# 6 0.0000 0.0000 0.0000 -3.2267 0.0000 15.2973
#
#
#
# Elastic Compliance Matrix: (Units=1/GPa)
#
#
# Indices 1 2 3 4 5 6 
#
# 1 0.021178 -0.009079 0.000770 0.000000 0.013152 0.000000
# 2 -0.009079 0.013842 -0.003740 0.000000 -0.012424 0.000000
# 3 0.000770 -0.003740 0.022440 0.000000 0.014658 0.000000
# 4 0.000000 0.000000 0.000000 0.074669 0.000000 0.015750
# 5 0.013152 -0.012424 0.014658 0.000000 0.052948 0.000000
# 6 0.000000 0.000000 0.000000 0.015750 0.000000 0.068693
#
#
# Mechanical properties :
#
#
# Convention : Reuss Voigt Hill
#
# Bulk Modulus (GPa) = 29.97303 39.77925 34.87614
# Shear Modulus (GPa) = 17.30161 23.94116 20.62139
#
# Velocity S-wave (km/s) = 3.02920 3.56335 3.30708
# Velocity P-wave (km/s) = 5.30389 6.16662 5.75146
#
# Compressibility (1/GPa) = 0.03336332
#
# Stress axis : x y z
#
# Youngs Moduli (GPa) = 47.21797 72.24256 44.56237
#
# Poissons Ratio (x) = 0.65589 -0.03433
# Poissons Ratio (y) = 0.42869 0.16667
# Poissons Ratio (z) = -0.03637 0.27020
#
# Static dielectric constant tensor:
#      x y z
#    x 1.649690 0.000000 -0.091890 
#    y 0.000000 1.712780 0.000000 
#    z -0.091890 0.000000 1.607960 
# 
# From -- ./inp_files/65763.got.cif
#   From: 2010.05.17/outbox.cif.g08.bks.cpg/sg12_33_cif.got.tgz:65763.got - 2010.06.03 13:09:07.
