data_PCOD9176026
_publ_section_title
;
Structure prediction by ZEFSAII (Michael W. Deem and Ramdas Pophale) SiO2 
 PCOD9176026
Probable space group: C 2/M
;
_chemical_formula_sum "Si O2"
_cell_formula_units_Z 52
_cell_length_a 26.282541
_cell_length_b 13.685134
_cell_length_c 8.197384
_cell_angle_alpha 90.000000
_cell_angle_beta 65.331877
_cell_angle_gamma 90.000000
_cell_volume 2679.363139
_symmetry_space_group_name_H-M "C 2/M"
_symmetry_group_IT_number 12
_symmetry_cell_setting 'monoclinic'
loop_
_space_group_symop_operation_xyz
x,y,z
-x,y,-z
-x,-y,-z
x,-y,z
1/2+x,1/2+y,z
1/2-x,1/2+y,-z
1/2-x,1/2-y,-z
1/2+x,1/2-y,z
loop_
_atom_site_type_symbol
_atom_site_label
_atom_site_fract_x
_atom_site_fract_y
_atom_site_fract_z
Si Si1 0.909924 0.302652 0.853018
Si Si2 0.776117 0.889117 0.102325
Si Si3 0.000000 0.262886 0.500000
Si Si4 0.403495 0.392028 0.049188
Si Si5 0.935409 0.389449 0.140286
Si Si6 0.187609 0.769555 0.247861
Si Si7 0.908769 0.201491 0.382949
O O1 0.962094 0.328457 0.669433
O O2 0.855851 0.287114 0.814000
O O3 0.925964 0.197030 0.910589
O O4 0.901711 0.372668 0.016966
O O5 0.836490 0.887099 0.109305
O O6 0.734934 0.808203 0.231676
O O7 0.754748 0.000000 0.137655
O O8 0.786754 0.853996 0.901245
O O9 0.956927 0.197588 0.454334
O O10 0.422905 0.500000 0.975339
O O11 0.415843 0.370290 0.221326
O O12 0.930681 0.500000 0.205308
O O13 0.915027 0.309661 0.296067
O O14 0.000000 0.370908 0.000000
O O15 0.150486 0.808059 0.446574
#
# Coordination Sequence:
#
# PCOD9176026 Si02
#       7
#     8   8   4   8   8   8   8
#     4   9  18  34  53  73 105 136 172 211 249 307
#     4   9  18  35  55  75 105 136 169 213 262 309
#     4  10  18  34  52  72 104 138 164 212 262 290
#     4   9  19  35  54  74  99 137 173 211 261 308
#     4  10  19  33  51  72 102 142 174 202 247 301
#     4   9  19  33  54  81 102 135 171 212 261 299
#     4  10  20  34  54  76 106 135 173 215 249 308
#
# _framework density 19.407596000000002
#
# number of rings (size 3 to 8) (size 9 to 14) (size 15 to 20)
#    0.000    2.615    1.538    0.000    0.000    2.462 
#    0.000    7.692    0.000    0.000    0.000    0.000 
#    0.000    0.000    0.000    0.000    0.000    0.000 
#
# Total GULP energy -144976.817547 kJ/mol
# GULP energy per Si atom -5576.031444 kJ/mol
# Density = 1.936342 g / cm^3
# Si number density = 19.407596 Si / 1000 Ang^3
#
#
#
# Elastic Constant Matrix: (Units=GPa)
#
#
# Indices 1 2 3 4 5 6 
#
# 1 22.7318 6.7750 7.9710 0.0000 10.7491 0.0000
# 2 6.7750 58.3966 -3.3709 0.0000 3.4270 0.0000
# 3 7.9710 -3.3709 53.5346 0.0000 1.0451 0.0000
# 4 0.0000 0.0000 0.0000 7.7212 0.0000 -1.5842
# 5 10.7491 3.4270 1.0451 0.0000 24.7483 0.0000
# 6 0.0000 0.0000 0.0000 -1.5842 0.0000 12.5091
#
#
#
# Elastic Compliance Matrix: (Units=1/GPa)
#
#
# Indices 1 2 3 4 5 6 
#
# 1 0.060874 -0.006099 -0.008955 0.000000 -0.025217 0.000000
# 2 -0.006099 0.017945 0.002037 0.000000 0.000078 0.000000
# 3 -0.008955 0.002037 0.020087 0.000000 0.002759 0.000000
# 4 0.000000 0.000000 0.000000 0.132969 0.000000 0.016840
# 5 -0.025217 0.000078 0.002759 0.000000 0.051232 0.000000
# 6 0.000000 0.000000 0.000000 0.016840 0.000000 0.082074
#
#
# Mechanical properties :
#
#
# Convention : Reuss Voigt Hill
#
# Bulk Modulus (GPa) = 13.72323 17.49034 15.60679
# Shear Modulus (GPa) = 12.03347 17.21492 14.62420
#
# Velocity S-wave (km/s) = 2.49276 2.98152 2.74803
# Velocity P-wave (km/s) = 3.92066 4.56993 4.25769
#
# Compressibility (1/GPa) = 0.07286914
#
# Stress axis : x y z
#
# Youngs Moduli (GPa) = 16.42747 55.72623 49.78276
#
# Poissons Ratio (x) = 0.33990 0.44583
# Poissons Ratio (y) = 0.10020 -0.10139
# Poissons Ratio (z) = 0.14712 -0.11349
#
# Static dielectric constant tensor:
#      x y z
#    x 1.710890 0.000000 0.005840 
#    y 0.000000 1.653270 0.000000 
#    z 0.005840 0.000000 1.674120 
# 
# From -- ./inp_files/103952.got.cif
#   From: 2010.05.17/outbox.cif.g08.bks.cpg/sg12_52_cif.got.tgz:103952.got - 2010.06.03 13:09:07.
