data_PCOD9176136
_publ_section_title
;
Structure prediction by ZEFSAII (Michael W. Deem and Ramdas Pophale) SiO2 
 PCOD9176136
Probable space group: C 2/M
;
_chemical_formula_sum "Si O2"
_cell_formula_units_Z 40
_cell_length_a 16.050495
_cell_length_b 12.478623
_cell_length_c 21.293659
_cell_angle_alpha 90.000000
_cell_angle_beta 154.868647
_cell_angle_gamma 90.000000
_cell_volume 1811.266829
_symmetry_space_group_name_H-M "C 2/M"
_symmetry_group_IT_number 12
_symmetry_cell_setting 'monoclinic'
loop_
_space_group_symop_operation_xyz
x,y,z
-x,y,-z
-x,-y,-z
x,-y,z
1/2+x,1/2+y,z
1/2-x,1/2+y,-z
1/2-x,1/2-y,-z
1/2+x,1/2-y,z
loop_
_atom_site_type_symbol
_atom_site_label
_atom_site_fract_x
_atom_site_fract_y
_atom_site_fract_z
Si Si1 0.154477 0.763755 0.702982
Si Si2 0.297439 0.378751 0.903184
Si Si3 0.177780 0.000000 0.704472
Si Si4 0.727262 0.000000 0.378420
Si Si5 0.565357 0.372299 0.196530
Si Si6 0.292937 0.770405 0.601808
O O1 0.163000 0.705830 0.776211
O O2 0.276908 0.691641 0.738180
O O3 0.932685 0.771344 0.526583
O O4 0.244118 0.882885 0.772234
O O5 0.224480 0.500000 0.846663
O O6 0.500000 0.375299 0.000000
O O7 0.363653 0.357838 0.019760
O O8 0.228911 0.000000 0.665614
O O9 0.943453 0.000000 0.557463
O O10 0.626884 0.110946 0.328861
O O11 0.604423 0.500000 0.224642
O O12 0.584472 0.319183 0.277762
O O13 0.250000 0.750000 0.500000
#
# Coordination Sequence:
#
# PCOD9176136 Si02
#       6
#     8   8   4   4   8   8
#     4  10  18  34  56  79 104 136 177 213 261 310
#     4   8  16  32  53  78 107 133 165 219 272 306
#     4   9  16  30  56  75  98 141 170 207 256 316
#     4   9  18  36  49  70 110 138 167 208 268 303
#     4  10  20  35  56  81 106 135 174 221 268 306
#     4  11  23  35  52  79 107 141 175 216 258 310
#
# _framework density 22.08399
#
# number of rings (size 3 to 8) (size 9 to 14) (size 15 to 20)
#    0.000    2.400    2.000    2.400    1.400    2.400 
#    0.000    6.500    0.000    0.000    0.000    0.000 
#    0.000    0.000    0.000    0.000    0.000    0.000 
#
# Total GULP energy -111603.229059 kJ/mol
# GULP energy per Si atom -5580.161453 kJ/mol
# Density = 2.203373 g / cm^3
# Si number density = 22.083990 Si / 1000 Ang^3
#
#
#
# Elastic Constant Matrix: (Units=GPa)
#
#
# Indices 1 2 3 4 5 6 
#
# 1 57.7100 34.6701 21.1200 -0.0008 -21.7940 0.0030
# 2 34.6701 195.7106 78.7891 0.0033 -30.0298 -0.0010
# 3 21.1200 78.7891 89.0088 0.0065 -30.5410 -0.0018
# 4 -0.0008 0.0033 0.0065 28.9585 -0.0005 -2.9907
# 5 -21.7940 -30.0298 -30.5410 -0.0005 41.6270 -0.0010
# 6 0.0030 -0.0010 -0.0018 -2.9907 -0.0010 26.4506
#
#
#
# Elastic Compliance Matrix: (Units=1/GPa)
#
#
# Indices 1 2 3 4 5 6 
#
# 1 0.022617 -0.002623 0.000493 0.000001 0.010311 -0.000002
# 2 -0.002623 0.008261 -0.006838 0.000001 -0.000431 0.000000
# 3 0.000493 -0.006838 0.020804 -0.000004 0.010589 0.000001
# 4 0.000001 0.000001 -0.000004 0.034940 -0.000001 0.003951
# 5 0.010311 -0.000431 0.010589 -0.000001 0.036879 0.000001
# 6 -0.000002 0.000000 0.000001 0.003951 0.000001 0.038253
#
#
# Mechanical properties :
#
#
# Convention : Reuss Voigt Hill
#
# Bulk Modulus (GPa) = 29.63260 67.95422 48.79341
# Shear Modulus (GPa) = 26.18640 33.26391 29.72515
#
# Velocity S-wave (km/s) = 3.44723 3.88525 3.67277
# Velocity P-wave (km/s) = 5.41219 7.13894 6.33468
#
# Compressibility (1/GPa) = 0.03374662
#
# Stress axis : x y z
#
# Youngs Moduli (GPa) = 44.21402 121.05138 48.06811
#
# Poissons Ratio (x) = 0.31753 -0.02371
# Poissons Ratio (y) = 0.11598 0.32868
# Poissons Ratio (z) = -0.02181 0.82773
#
# Static dielectric constant tensor:
#      x y z
#    x 1.896650 0.000000 0.042330 
#    y 0.000000 1.808830 0.000000 
#    z 0.042330 0.000000 1.828500 
# 
# From -- ./inp_files/315850.got.cif
#   From: 2010.05.17/outbox.cif.g08.bks.cpg/sg12_158_cif.got.tgz:315850.got - 2010.06.03 13:09:07.
