data_PCOD9176370
_publ_section_title
;
Structure prediction by ZEFSAII (Michael W. Deem and Ramdas Pophale) SiO2 
 PCOD9176370
Probable space group: C 2/M
;
_chemical_formula_sum "Si O2"
_cell_formula_units_Z 64
_cell_length_a 19.568129
_cell_length_b 16.962615
_cell_length_c 16.790293
_cell_angle_alpha 90.000000
_cell_angle_beta 142.115551
_cell_angle_gamma 90.000000
_cell_volume 3422.307080
_symmetry_space_group_name_H-M "C 2/M"
_symmetry_group_IT_number 12
_symmetry_cell_setting 'monoclinic'
loop_
_space_group_symop_operation_xyz
x,y,z
-x,y,-z
-x,-y,-z
x,-y,z
1/2+x,1/2+y,z
1/2-x,1/2+y,-z
1/2-x,1/2-y,-z
1/2+x,1/2-y,z
loop_
_atom_site_type_symbol
_atom_site_label
_atom_site_fract_x
_atom_site_fract_y
_atom_site_fract_z
Si Si1 0.760287 0.777618 0.138973
Si Si2 0.105120 0.912106 0.321423
Si Si3 0.373266 0.248548 0.400398
Si Si4 0.355060 0.911562 0.484325
Si Si5 0.429357 0.282838 0.150951
Si Si6 0.906482 0.588331 0.976814
Si Si7 0.204048 0.908683 0.585393
Si Si8 0.449209 0.118283 0.739989
O O1 0.808068 0.732323 0.258553
O O2 0.860121 0.793706 0.168857
O O3 0.663479 0.732791 0.001555
O O4 0.700198 0.856503 0.115321
O O5 0.226846 0.902335 0.394860
O O6 0.126961 0.903636 0.435875
O O7 0.010623 0.853785 0.206740
O O8 0.067571 0.000000 0.270070
O O9 0.500000 0.269538 0.500000
O O10 0.375963 0.167813 0.453773
O O11 0.322191 0.328931 0.390420
O O12 0.432319 0.911420 0.634550
O O13 0.366341 0.000000 0.457921
O O14 0.511951 0.208379 0.232839
O O15 0.878222 0.500000 0.924655
O O16 0.960465 0.585581 0.114622
O O17 0.000000 0.618643 0.000000
O O18 0.331307 0.898493 0.673369
O O19 0.191621 0.000000 0.605162
#
# Coordination Sequence:
#
# PCOD9176370 Si02
#       8
#     8   8   8   8   8   8   8   8
#     4  10  23  37  53  79 108 142 186 227 270 331
#     4   9  18  34  57  83 108 139 180 224 272 324
#     4  12  24  38  56  80 112 150 185 223 279 331
#     4  10  21  37  58  84 111 142 189 238 271 315
#     4  10  20  38  57  76 107 144 182 227 275 326
#     4  10  20  34  54  81 113 146 179 223 279 333
#     4  10  20  34  56  87 117 142 178 224 269 329
#     4  10  18  34  60  83 108 143 183 227 276 327
#
# _framework density 18.700835000000001
#
# number of rings (size 3 to 8) (size 9 to 14) (size 15 to 20)
#    0.000    1.875    0.000    5.625    0.000    5.500 
#    0.000    0.625    0.000    2.250    0.000    0.000 
#    0.000    0.000    0.000    0.000    0.000    0.000 
#
# Total GULP energy -178356.652778 kJ/mol
# GULP energy per Si atom -5573.645399 kJ/mol
# Density = 1.865827 g / cm^3
# Si number density = 18.700835 Si / 1000 Ang^3
#
#
#
# Elastic Constant Matrix: (Units=GPa)
#
#
# Indices 1 2 3 4 5 6 
#
# 1 36.1267 36.1088 10.3374 0.0000 -9.3823 0.0000
# 2 36.1088 87.3571 22.4806 0.0000 1.2057 0.0000
# 3 10.3374 22.4806 59.0404 0.0000 -0.0996 0.0000
# 4 0.0000 0.0000 0.0000 2.4047 0.0000 9.4845
# 5 -9.3823 1.2057 -0.0996 0.0000 20.9217 0.0000
# 6 0.0000 0.0000 0.0000 9.4845 0.0000 18.9808
#
#
#
# Elastic Compliance Matrix: (Units=1/GPa)
#
#
# Indices 1 2 3 4 5 6 
#
# 1 0.060542 -0.025170 -0.000968 0.000000 0.028596 0.000000
# 2 -0.025170 0.023167 -0.004436 0.000000 -0.012644 0.000000
# 3 -0.000968 -0.004436 0.018796 0.000000 -0.000089 0.000000
# 4 0.000000 0.000000 0.000000 -0.428335 0.000000 0.214035
# 5 0.028596 -0.012644 -0.000089 0.000000 0.061349 0.000000
# 6 0.000000 0.000000 0.000000 0.214035 0.000000 -0.054266
#
#
# Mechanical properties :
#
#
# Convention : Reuss Voigt Hill
#
# Bulk Modulus (GPa) = 24.17971 35.59754 29.88863
# Shear Modulus (GPa) = -20.50747 16.03460 -2.23643
#
# Velocity S-wave (km/s) = -3.31510 2.93136 -1.09476
# Velocity P-wave (km/s) = 1.30206 5.52574 3.79726
#
# Compressibility (1/GPa) = 0.04135698
#
# Stress axis : x y z
#
# Youngs Moduli (GPa) = 16.51756 43.16426 53.20336
#
# Poissons Ratio (x) = 1.08646 0.05150
# Poissons Ratio (y) = 0.41575 0.23599
# Poissons Ratio (z) = 0.01599 0.19146
#
# Static dielectric constant tensor:
#      x y z
#    x 1.648760 0.000000 -0.026790 
#    y 0.000000 1.679430 0.000000 
#    z -0.026790 0.000000 1.645190 
# 
# From -- ./inp_files/226876.got.cif
#   From: 2010.05.17/outbox.cif.g08.bks.cpg/sg12_114_cif.got.tgz:226876.got - 2010.06.03 13:09:07.
