data_PCOD9176128
_publ_section_title
;
Structure prediction by ZEFSAII (Michael W. Deem and Ramdas Pophale) SiO2 
 PCOD9176128
Probable space group: C 2/M
;
_chemical_formula_sum "Si O2"
_cell_formula_units_Z 52
_cell_length_a 21.587269
_cell_length_b 10.556038
_cell_length_c 11.094714
_cell_angle_alpha 90.000000
_cell_angle_beta 92.766917
_cell_angle_gamma 90.000000
_cell_volume 2525.271945
_symmetry_space_group_name_H-M "C 2/M"
_symmetry_group_IT_number 12
_symmetry_cell_setting 'monoclinic'
loop_
_space_group_symop_operation_xyz
x,y,z
-x,y,-z
-x,-y,-z
x,-y,z
1/2+x,1/2+y,z
1/2-x,1/2+y,-z
1/2-x,1/2-y,-z
1/2+x,1/2-y,z
loop_
_atom_site_type_symbol
_atom_site_label
_atom_site_fract_x
_atom_site_fract_y
_atom_site_fract_z
Si Si1 0.134103 0.637087 0.574017
Si Si2 0.824671 0.145072 0.587941
Si Si3 0.000000 0.703346 0.500000
Si Si4 0.135496 0.648396 0.860701
Si Si5 0.462257 0.642567 0.720919
Si Si6 0.594441 0.348013 0.035516
Si Si7 0.227770 0.151350 0.171282
O O1 0.164296 0.500000 0.554268
O O2 0.169204 0.754244 0.517364
O O3 0.126147 0.650648 0.716279
O O4 0.065583 0.634247 0.508841
O O5 0.892722 0.139098 0.657878
O O6 0.780538 0.193661 0.691283
O O7 0.810639 0.000000 0.550344
O O8 0.000291 0.782064 0.624797
O O9 0.127997 0.500000 0.899357
O O10 0.207668 0.691033 0.881238
O O11 0.092779 0.749164 0.925887
O O12 0.486839 0.500000 0.727825
O O13 0.452055 0.683663 0.858387
O O14 0.588075 0.500000 0.007865
O O15 0.663734 0.326612 0.096206
O O16 0.233100 0.000000 0.181360
#
# Coordination Sequence:
#
# PCOD9176128 Si02
#       7
#     8   8   4   8   8   8   8
#     4  10  21  34  48  70 100 129 161 206 249 284
#     4   8  15  30  51  73  96 125 160 197 242 291
#     4  10  18  34  56  70  89 126 167 200 245 300
#     4  10  20  33  48  70 102 136 165 194 235 286
#     4   8  15  29  52  78  97 117 154 203 246 287
#     4   9  17  32  52  75 102 128 158 196 235 281
#     4   8  15  30  52  74  99 131 162 195 236 283
#
# _framework density 20.591842
#
# number of rings (size 3 to 8) (size 9 to 14) (size 15 to 20)
#    0.000    3.077    0.000    2.769    0.000    1.846 
#    0.000    9.231    0.000    3.692    0.000    0.000 
#    0.000    0.000    0.000    0.000    0.000    0.000 
#
# Total GULP energy -144853.027017 kJ/mol
# GULP energy per Si atom -5571.270270 kJ/mol
# Density = 2.054497 g / cm^3
# Si number density = 20.591842 Si / 1000 Ang^3
#
#
#
# Elastic Constant Matrix: (Units=GPa)
#
#
# Indices 1 2 3 4 5 6 
#
# 1 65.3696 22.3156 5.8429 0.0000 -5.8057 0.0000
# 2 22.3156 120.2594 90.2515 0.0000 -27.3778 0.0000
# 3 5.8429 90.2515 109.0142 0.0000 -30.2717 0.0000
# 4 0.0000 0.0000 0.0000 34.4566 0.0000 1.4431
# 5 -5.8057 -27.3778 -30.2717 0.0000 30.0889 0.0000
# 6 0.0000 0.0000 0.0000 1.4431 0.0000 3.9583
#
#
#
# Elastic Compliance Matrix: (Units=1/GPa)
#
#
# Indices 1 2 3 4 5 6 
#
# 1 0.017288 -0.006501 0.005188 0.000000 0.002641 0.000000
# 2 -0.006501 0.024522 -0.019574 0.000000 0.001365 0.000000
# 3 0.005188 -0.019574 0.028354 0.000000 0.011717 0.000000
# 4 0.000000 0.000000 0.000000 0.029472 0.000000 -0.010745
# 5 0.002641 0.001365 0.011717 0.000000 0.046775 0.000000
# 6 0.000000 0.000000 0.000000 -0.010745 0.000000 0.256551
#
#
# Mechanical properties :
#
#
# Convention : Reuss Voigt Hill
#
# Bulk Modulus (GPa) = 35.22213 59.05145 47.13679
# Shear Modulus (GPa) = 11.00842 25.44964 18.22903
#
# Velocity S-wave (km/s) = 2.31465 3.51936 2.97855
# Velocity P-wave (km/s) = 4.92803 6.72710 5.89659
#
# Compressibility (1/GPa) = 0.02839124
#
# Stress axis : x y z
#
# Youngs Moduli (GPa) = 57.84512 40.77902 35.26856
#
# Poissons Ratio (x) = 0.26508 -0.18299
# Poissons Ratio (y) = 0.37602 0.69036
# Poissons Ratio (z) = -0.30013 0.79822
#
# Static dielectric constant tensor:
#      x y z
#    x 1.830470 0.000000 0.011790 
#    y 0.000000 1.705350 0.000000 
#    z 0.011790 0.000000 1.749800 
# 
# From -- ./inp_files/179932.got.cif
#   From: 2010.05.17/outbox.cif.g08.bks.cpg/sg12_90_cif.got.tgz:179932.got - 2010.06.03 13:09:07.
