data_PCOD9176814
_publ_section_title
;
Structure prediction by ZEFSAII (Michael W. Deem and Ramdas Pophale) SiO2 
 PCOD9176814
Probable space group: C 2/M
;
_chemical_formula_sum "Si O2"
_cell_formula_units_Z 38
_cell_length_a 22.188112
_cell_length_b 10.560802
_cell_length_c 8.716516
_cell_angle_alpha 90.000000
_cell_angle_beta 99.039115
_cell_angle_gamma 90.000000
_cell_volume 2017.126086
_symmetry_space_group_name_H-M "C 2/M"
_symmetry_group_IT_number 12
_symmetry_cell_setting 'monoclinic'
loop_
_space_group_symop_operation_xyz
x,y,z
-x,y,-z
-x,-y,-z
x,-y,z
1/2+x,1/2+y,z
1/2-x,1/2+y,-z
1/2-x,1/2-y,-z
1/2+x,1/2-y,z
loop_
_atom_site_type_symbol
_atom_site_label
_atom_site_fract_x
_atom_site_fract_y
_atom_site_fract_z
Si Si1 0.324743 0.000000 0.600905
Si Si2 0.708912 0.500000 0.365621
Si Si3 0.168323 0.500000 0.744504
Si Si4 0.002321 0.148345 0.318235
Si Si5 0.870434 0.762554 0.755043
Si Si6 0.000000 0.500000 0.000000
Si Si7 0.097204 0.294200 0.904137
O O1 0.344862 0.125725 0.696751
O O2 0.252563 0.000000 0.532763
O O3 0.354686 0.000000 0.442041
O O4 0.758928 0.500000 0.248694
O O5 0.668403 0.374818 0.336701
O O6 0.143591 0.377303 0.822047
O O7 0.060293 0.223029 0.275405
O O8 0.000000 0.164925 0.500000
O O9 0.940817 0.198826 0.216584
O O10 0.010831 0.000000 0.287114
O O11 0.870765 0.772491 0.938981
O O12 0.047874 0.390589 0.957223
#
# Coordination Sequence:
#
# PCOD9176814 Si02
#       7
#     4   4   4   8   8   2   8
#     4  10  23  42  64  93 123 171 223 259 316 364
#     4  10  25  43  65  92 131 170 226 255 321 375
#     4   9  23  42  62  90 133 167 213 267 308 377
#     4  11  24  40  63  99 131 165 205 260 336 388
#     4  12  22  41  70  94 128 174 211 271 313 386
#     4  10  18  36  56  92 120 156 196 258 294 388
#     4  11  22  39  65  95 130 158 217 257 325 379
#
# _framework density 18.838681999999999
#
# number of rings (size 3 to 8) (size 9 to 14) (size 15 to 20)
#    0.632    0.632    3.158    3.158    1.474    1.684 
#    0.000    2.632    0.000    0.000    0.000    0.000 
#    0.000    0.000    0.000    0.000    0.000    0.000 
#
# Total GULP energy -105802.621323 kJ/mol
# GULP energy per Si atom -5568.559017 kJ/mol
# Density = 1.879580 g / cm^3
# Si number density = 18.838682 Si / 1000 Ang^3
#
#
#
# Elastic Constant Matrix: (Units=GPa)
#
#
# Indices 1 2 3 4 5 6 
#
# 1 49.7051 17.0349 4.5536 0.0000 3.7484 0.0000
# 2 17.0349 110.6794 38.1521 0.0000 28.8177 0.0000
# 3 4.5536 38.1521 82.9188 0.0000 26.0746 0.0000
# 4 0.0000 0.0000 0.0000 -82.7882 0.0000 -59.4677
# 5 3.7484 28.8177 26.0746 0.0000 25.8176 0.0000
# 6 0.0000 0.0000 0.0000 -59.4677 0.0000 -6.7757
#
#
#
# Elastic Compliance Matrix: (Units=1/GPa)
#
#
# Indices 1 2 3 4 5 6 
#
# 1 0.021255 -0.003510 0.000273 0.000000 0.000557 0.000000
# 2 -0.003510 0.013556 -0.002120 0.000000 -0.012480 0.000000
# 3 0.000273 -0.002120 0.018008 0.000000 -0.015861 0.000000
# 4 0.000000 0.000000 0.000000 0.002277 0.000000 -0.019986
# 5 0.000557 -0.012480 -0.015861 0.000000 0.068601 0.000000
# 6 0.000000 0.000000 0.000000 -0.019986 0.000000 0.027824
#
#
# Mechanical properties :
#
#
# Convention : Reuss Voigt Hill
#
# Bulk Modulus (GPa) = 23.75101 40.30938 32.03019
# Shear Modulus (GPa) = 28.36562 -0.51175 13.92694
#
# Velocity S-wave (km/s) = 3.88456 -0.52176 2.72191
# Velocity P-wave (km/s) = 5.72317 4.59136 5.18822
#
# Compressibility (1/GPa) = 0.04210348
#
# Stress axis : x y z
#
# Youngs Moduli (GPa) = 47.04829 73.77021 55.53128
#
# Poissons Ratio (x) = 0.25896 -0.01515
# Poissons Ratio (y) = 0.16516 0.11772
# Poissons Ratio (z) = -0.01284 0.15638
#
# Static dielectric constant tensor:
#      x y z
#    x 1.624880 0.000000 0.012990 
#    y 0.000000 1.623670 0.000000 
#    z 0.012990 0.000000 1.659150 
# 
# From -- ./inp_files/83437.got.cif
#   From: 2010.05.17/outbox.cif.g08.bks.cpg/sg12_42_cif.got.tgz:83437.got - 2010.06.03 13:09:07.
