data_PCOD9176828
_publ_section_title
;
Structure prediction by ZEFSAII (Michael W. Deem and Ramdas Pophale) SiO2 
 PCOD9176828
Probable space group: C 2/M
;
_chemical_formula_sum "Si O2"
_cell_formula_units_Z 56
_cell_length_a 5.620001
_cell_length_b 27.854825
_cell_length_c 23.368005
_cell_angle_alpha 90.000000
_cell_angle_beta 131.066743
_cell_angle_gamma 90.000000
_cell_volume 2758.023958
_symmetry_space_group_name_H-M "C 2/M"
_symmetry_group_IT_number 12
_symmetry_cell_setting 'monoclinic'
loop_
_space_group_symop_operation_xyz
x,y,z
-x,y,-z
-x,-y,-z
x,-y,z
1/2+x,1/2+y,z
1/2-x,1/2+y,-z
1/2-x,1/2-y,-z
1/2+x,1/2-y,z
loop_
_atom_site_type_symbol
_atom_site_label
_atom_site_fract_x
_atom_site_fract_y
_atom_site_fract_z
Si Si1 0.645406 0.854122 0.426685
Si Si2 0.706614 0.052420 0.606210
Si Si3 0.761010 0.352836 0.797895
Si Si4 0.947936 0.946694 0.776748
Si Si5 0.210010 0.221347 0.314493
Si Si6 0.679749 0.097900 0.311474
Si Si7 0.259351 0.277481 0.909593
O O1 0.519221 0.902235 0.437585
O O2 0.413685 0.809144 0.392747
O O3 0.625939 0.868969 0.357182
O O4 0.000000 0.843043 0.500000
O O5 0.826742 0.052297 0.691397
O O6 0.034452 0.062858 0.626205
O O7 0.570984 0.000000 0.573155
O O8 0.684876 0.401993 0.819556
O O9 0.481183 0.314244 0.758058
O O10 0.739327 0.368259 0.728351
O O11 0.084097 0.326000 0.862679
O O12 0.622138 0.932640 0.755928
O O13 0.062355 0.000000 0.809336
O O14 0.449621 0.250371 0.311192
O O15 0.475768 0.255184 0.892742
O O16 0.500000 0.285984 0.000000
#
# Coordination Sequence:
#
# PCOD9176828 Si02
#       7
#     8   8   8   8   8   8   8
#     4  11  24  40  55  78 117 155 201 259 315 371
#     4   9  18  35  57  82 111 148 197 252 314 377
#     4  11  21  37  64  90 121 157 202 252 301 361
#     4   9  18  32  57  89 120 151 196 252 303 363
#     4  12  25  41  61  85 112 150 205 251 298 355
#     4  10  18  36  57  85 115 155 202 249 307 366
#     4  10  23  41  64  99 136 168 204 249 307 364
#
# _framework density 20.304393000000001
#
# number of rings (size 3 to 8) (size 9 to 14) (size 15 to 20)
#    0.000    1.714    4.286    2.143    2.000    2.571 
#    0.000    0.714    0.000    0.429    0.000    1.000 
#    0.000    0.000    0.000    0.000    0.000    0.000 
#
# Total GULP energy -156171.846110 kJ/mol
# GULP energy per Si atom -5577.565932 kJ/mol
# Density = 2.025818 g / cm^3
# Si number density = 20.304393 Si / 1000 Ang^3
#
#
#
# Elastic Constant Matrix: (Units=GPa)
#
#
# Indices 1 2 3 4 5 6 
#
# 1 84.9088 46.4570 14.9613 0.0000 19.9942 0.0000
# 2 46.4570 140.9523 49.3771 0.0000 25.6996 0.0000
# 3 14.9613 49.3771 65.6357 0.0000 22.1728 0.0000
# 4 0.0000 0.0000 0.0000 -1.0089 0.0000 17.2553
# 5 19.9942 25.6996 22.1728 0.0000 28.3673 0.0000
# 6 0.0000 0.0000 0.0000 17.2553 0.0000 20.2188
#
#
#
# Elastic Compliance Matrix: (Units=1/GPa)
#
#
# Indices 1 2 3 4 5 6 
#
# 1 0.015991 -0.004601 0.003011 0.000000 -0.009456 0.000000
# 2 -0.004601 0.011333 -0.006935 0.000000 -0.001603 0.000000
# 3 0.003011 -0.006935 0.024949 0.000000 -0.015340 0.000000
# 4 0.000000 0.000000 0.000000 -0.063552 0.000000 0.054237
# 5 -0.009456 -0.001603 -0.015340 0.000000 0.055359 0.000000
# 6 0.000000 0.000000 0.000000 0.054237 0.000000 0.003171
#
#
# Mechanical properties :
#
#
# Convention : Reuss Voigt Hill
#
# Bulk Modulus (GPa) = 28.39207 57.00973 42.70090
# Shear Modulus (GPa) = 65.75259 21.56219 43.65739
#
# Velocity S-wave (km/s) = 5.69682 3.26229 4.64200
# Velocity P-wave (km/s) = 7.56870 6.50604 7.05740
#
# Compressibility (1/GPa) = 0.03522110
#
# Stress axis : x y z
#
# Youngs Moduli (GPa) = 62.53543 88.23866 40.08234
#
# Poissons Ratio (x) = 0.40600 -0.12067
# Poissons Ratio (y) = 0.28773 0.27798
# Poissons Ratio (z) = -0.18827 0.61195
#
# Static dielectric constant tensor:
#      x y z
#    x 1.883190 0.000000 0.046700 
#    y 0.000000 1.789780 0.000000 
#    z 0.046700 0.000000 1.713700 
# 
# From -- ./inp_files/253590.got.cif
#   From: 2010.05.17/outbox.cif.g08.bks.cpg/sg12_127_cif.got.tgz:253590.got - 2010.06.03 13:09:07.
