data_PCOD9176908
_publ_section_title
;
Structure prediction by ZEFSAII (Michael W. Deem and Ramdas Pophale) SiO2 
 PCOD9176908
Probable space group: C 2/M
;
_chemical_formula_sum "Si O2"
_cell_formula_units_Z 40
_cell_length_a 15.457397
_cell_length_b 18.726415
_cell_length_c 9.727520
_cell_angle_alpha 90.000000
_cell_angle_beta 37.185930
_cell_angle_gamma 90.000000
_cell_volume 1701.845396
_symmetry_space_group_name_H-M "C 2/M"
_symmetry_group_IT_number 12
_symmetry_cell_setting 'monoclinic'
loop_
_space_group_symop_operation_xyz
x,y,z
-x,y,-z
-x,-y,-z
x,-y,z
1/2+x,1/2+y,z
1/2-x,1/2+y,-z
1/2-x,1/2-y,-z
1/2+x,1/2-y,z
loop_
_atom_site_type_symbol
_atom_site_label
_atom_site_fract_x
_atom_site_fract_y
_atom_site_fract_z
Si Si1 0.335450 0.800923 0.688951
Si Si2 0.206904 0.652944 0.835771
Si Si3 0.178472 0.500000 0.765697
Si Si4 0.536234 0.350836 0.117190
Si Si5 0.081938 0.302070 0.699233
Si Si6 0.076110 0.000000 0.747326
O O1 0.500000 0.819779 0.500000
O O2 0.314313 0.716017 0.742281
O O3 0.314508 0.821297 0.554725
O O4 0.205386 0.840802 0.926254
O O5 0.235500 0.570622 0.770743
O O6 0.149418 0.682130 0.760695
O O7 0.069175 0.657501 0.109239
O O8 0.254410 0.500000 0.516008
O O9 0.000000 0.500000 0.000000
O O10 0.459650 0.280398 0.269987
O O11 0.482513 0.426102 0.239278
O O12 0.500000 0.348204 0.000000
O O13 0.000000 0.000000 0.000000
#
# Coordination Sequence:
#
# PCOD9176908 Si02
#       6
#     8   8   4   8   8   4
#     4  11  23  37  62  91 123 167 213 260 311 373
#     4  10  21  35  61  93 118 159 203 267 313 362
#     4  12  22  38  63 101 124 157 218 267 314 371
#     4  10  20  37  57  89 119 164 205 251 323 367
#     4  10  18  36  61  84 122 154 206 262 306 368
#     4  10  24  34  57  91 130 167 199 258 320 379
#
# _framework density 23.503898
#
# number of rings (size 3 to 8) (size 9 to 14) (size 15 to 20)
#    0.000    1.600    6.000    1.800    5.600    3.200 
#    0.000    1.000    0.000    2.400    0.000    0.000 
#    0.000    0.000    0.000    0.000    0.000    0.000 
#
# Total GULP energy -111567.703556 kJ/mol
# GULP energy per Si atom -5578.385178 kJ/mol
# Density = 2.345040 g / cm^3
# Si number density = 23.503898 Si / 1000 Ang^3
#
#
#
# Elastic Constant Matrix: (Units=GPa)
#
#
# Indices 1 2 3 4 5 6 
#
# 1 55.9581 0.7618 22.7988 0.0003 -22.0589 0.0000
# 2 0.7618 152.2728 31.5182 0.0002 -6.2747 -0.0001
# 3 22.7988 31.5182 163.6029 0.0007 -14.7725 -0.0002
# 4 0.0003 0.0002 0.0007 -14.4076 -0.0005 -7.1827
# 5 -22.0589 -6.2747 -14.7725 -0.0005 41.4282 0.0001
# 6 0.0000 -0.0001 -0.0002 -7.1827 0.0001 0.8731
#
#
#
# Elastic Compliance Matrix: (Units=1/GPa)
#
#
# Indices 1 2 3 4 5 6 
#
# 1 0.023469 0.000859 -0.002372 0.000000 0.011781 0.000000
# 2 0.000859 0.006885 -0.001354 0.000000 0.001017 0.000000
# 3 -0.002372 -0.001354 0.006790 0.000000 0.000953 0.000001
# 4 0.000000 0.000000 0.000000 -0.013607 0.000000 -0.111931
# 5 0.011781 0.001017 0.000953 0.000000 0.030905 -0.000002
# 6 0.000000 0.000000 0.000001 -0.111931 -0.000002 0.224519
#
#
# Mechanical properties :
#
#
# Convention : Reuss Voigt Hill
#
# Bulk Modulus (GPa) = 31.83771 53.55459 42.69615
# Shear Modulus (GPa) = 16.93960 26.69575 21.81768
#
# Velocity S-wave (km/s) = 2.68753 3.37382 3.05004
# Velocity P-wave (km/s) = 4.81721 6.16537 5.53251
#
# Compressibility (1/GPa) = 0.03140930
#
# Stress axis : x y z
#
# Youngs Moduli (GPa) = 42.60876 145.24116 147.27772
#
# Poissons Ratio (x) = -0.12477 0.34939
# Poissons Ratio (y) = -0.03660 0.19945
# Poissons Ratio (z) = 0.10108 0.19670
#
# Static dielectric constant tensor:
#      x y z
#    x 1.993370 0.000000 0.029830 
#    y 0.000000 1.880190 0.000000 
#    z 0.029830 0.000000 1.942430 
# 
# From -- ./inp_files/169112.got.cif
#   From: 2010.05.17/outbox.cif.g08.bks.cpg/sg12_85_cif.got.tgz:169112.got - 2010.06.03 13:09:07.
