data_PCOD9176316
_publ_section_title
;
Structure prediction by ZEFSAII (Michael W. Deem and Ramdas Pophale) SiO2 
 PCOD9176316
Probable space group: C 2/M
;
_chemical_formula_sum "Si O2"
_cell_formula_units_Z 64
_cell_length_a 20.812128
_cell_length_b 8.664508
_cell_length_c 26.070549
_cell_angle_alpha 90.000000
_cell_angle_beta 128.926121
_cell_angle_gamma 90.000000
_cell_volume 3657.345952
_symmetry_space_group_name_H-M "C 2/M"
_symmetry_group_IT_number 12
_symmetry_cell_setting 'monoclinic'
loop_
_space_group_symop_operation_xyz
x,y,z
-x,y,-z
-x,-y,-z
x,-y,z
1/2+x,1/2+y,z
1/2-x,1/2+y,-z
1/2-x,1/2-y,-z
1/2+x,1/2-y,z
loop_
_atom_site_type_symbol
_atom_site_label
_atom_site_fract_x
_atom_site_fract_y
_atom_site_fract_z
Si Si1 0.791628 0.687993 0.678253
Si Si2 0.426476 0.315209 0.925499
Si Si3 0.047864 0.686768 0.175212
Si Si4 0.411944 0.185985 0.186508
Si Si5 0.184902 0.313002 0.426903
Si Si6 0.747590 0.315549 0.846586
Si Si7 0.503118 0.185572 0.663094
Si Si8 0.162062 0.185840 0.696008
O O1 0.791673 0.500000 0.677901
O O2 0.874112 0.733618 0.750438
O O3 0.794219 0.738031 0.620697
O O4 0.712293 0.738285 0.671287
O O5 0.424444 0.500000 0.923672
O O6 0.442912 0.254089 0.876535
O O7 0.337735 0.253955 0.899323
O O8 0.500000 0.264308 0.000000
O O9 0.049637 0.500000 0.172806
O O10 0.964302 0.732196 0.163020
O O11 0.321972 0.258099 0.148845
O O12 0.465160 0.229422 0.263901
O O13 0.404742 0.000000 0.182967
O O14 0.186489 0.500000 0.428444
O O15 0.250000 0.250000 0.500000
O O16 0.090879 0.263505 0.391843
O O17 0.752506 0.500000 0.850065
O O18 0.714073 0.268914 0.773032
O O19 0.570390 0.250276 0.657504
O O20 0.504712 0.000000 0.661774
O O21 0.158518 0.000000 0.693789
#
# Coordination Sequence:
#
# PCOD9176316 Si02
#       8
#     8   8   8   8   8   8   8   8
#     4   9  16  32  55  78 104 135 175 220 262 308
#     4  11  24  39  54  77 112 147 178 219 270 321
#     4  10  18  34  59  83 106 138 182 224 267 319
#     4   9  17  31  55  83 109 137 173 220 273 321
#     4  10  20  35  54  75 105 143 177 214 261 314
#     4  10  19  33  55  81 109 140 178 221 265 318
#     4   9  17  31  51  75 105 139 171 209 263 317
#     4   9  17  30  52  79 104 130 169 221 263 306
#
# _framework density 17.499030000000001
#
# number of rings (size 3 to 8) (size 9 to 14) (size 15 to 20)
#    0.000    2.375    2.500    0.750    0.000    2.500 
#    0.000    2.500    0.000    3.750    0.000    0.000 
#    0.000    0.000    0.000    0.000    0.000    0.000 
#
# Total GULP energy -178492.638342 kJ/mol
# GULP energy per Si atom -5577.894948 kJ/mol
# Density = 1.745920 g / cm^3
# Si number density = 17.499030 Si / 1000 Ang^3
#
#
#
# Elastic Constant Matrix: (Units=GPa)
#
#
# Indices 1 2 3 4 5 6 
#
# 1 167.2064 29.0427 67.4226 0.0000 18.0500 0.0000
# 2 29.0427 11.9728 20.7745 0.0000 5.0353 0.0000
# 3 67.4226 20.7745 98.8044 0.0000 11.5919 0.0000
# 4 0.0000 0.0000 0.0000 22.2097 0.0000 1.4541
# 5 18.0500 5.0353 11.5919 0.0000 26.8555 0.0000
# 6 0.0000 0.0000 0.0000 1.4541 0.0000 30.6377
#
#
#
# Elastic Compliance Matrix: (Units=1/GPa)
#
#
# Indices 1 2 3 4 5 6 
#
# 1 0.010978 -0.020689 -0.002876 0.000000 -0.002258 0.000000
# 2 -0.020689 0.175230 -0.021596 0.000000 -0.009628 0.000000
# 3 -0.002876 -0.021596 0.016772 0.000000 -0.001257 0.000000
# 4 0.000000 0.000000 0.000000 0.045166 0.000000 -0.002144
# 5 -0.002258 -0.009628 -0.001257 0.000000 0.041102 0.000000
# 6 0.000000 0.000000 0.000000 -0.002144 0.000000 0.032741
#
#
# Mechanical properties :
#
#
# Convention : Reuss Voigt Hill
#
# Bulk Modulus (GPa) = 8.87649 56.94036 32.90842
# Shear Modulus (GPa) = 11.11449 26.65683 18.88566
#
# Velocity S-wave (km/s) = 2.52295 3.90722 3.28874
# Velocity P-wave (km/s) = 3.68383 7.27770 5.76782
#
# Compressibility (1/GPa) = 0.11265714
#
# Stress axis : x y z
#
# Youngs Moduli (GPa) = 91.09479 5.70678 59.62353
#
# Poissons Ratio (x) = 0.11807 0.17148
# Poissons Ratio (y) = 1.88464 1.28765
# Poissons Ratio (z) = 0.26199 0.12325
#
# Static dielectric constant tensor:
#      x y z
#    x 1.600360 0.000000 0.001450 
#    y 0.000000 1.597260 0.000000 
#    z 0.001450 0.000000 1.570090 
# 
# From -- ./inp_files/281396.got.cif
#   From: 2010.05.17/outbox.cif.g08.bks.cpg/sg12_141_cif.got.tgz:281396.got - 2010.06.03 13:09:07.
