data_PCOD9176437
_publ_section_title
;
Structure prediction by ZEFSAII (Michael W. Deem and Ramdas Pophale) SiO2 
 PCOD9176437
Probable space group: C 2/M
;
_chemical_formula_sum "Si O2"
_cell_formula_units_Z 48
_cell_length_a 20.437418
_cell_length_b 10.925188
_cell_length_c 14.965891
_cell_angle_alpha 90.000000
_cell_angle_beta 41.994333
_cell_angle_gamma 90.000000
_cell_volume 2235.736970
_symmetry_space_group_name_H-M "C 2/M"
_symmetry_group_IT_number 12
_symmetry_cell_setting 'monoclinic'
loop_
_space_group_symop_operation_xyz
x,y,z
-x,y,-z
-x,-y,-z
x,-y,z
1/2+x,1/2+y,z
1/2-x,1/2+y,-z
1/2-x,1/2-y,-z
1/2+x,1/2-y,z
loop_
_atom_site_type_symbol
_atom_site_label
_atom_site_fract_x
_atom_site_fract_y
_atom_site_fract_z
Si Si1 0.571569 0.242133 0.653704
Si Si2 0.883854 0.728194 0.594316
Si Si3 0.882716 0.500000 0.105889
Si Si4 0.280968 0.765710 0.118880
Si Si5 0.127182 0.140730 0.133810
Si Si6 0.107625 0.000000 0.428786
Si Si7 0.853733 0.000000 0.400292
Si Si8 0.863175 0.500000 0.328034
O O1 0.623682 0.215134 0.505295
O O2 0.460560 0.274471 0.743166
O O3 0.611039 0.364485 0.663714
O O4 0.579832 0.122580 0.705059
O O5 0.793721 0.680465 0.745467
O O6 0.000000 0.703524 0.500000
O O7 0.856279 0.870759 0.640635
O O8 0.845837 0.373722 0.097877
O O9 0.836450 0.500000 0.251690
O O10 0.000000 0.500000 0.000000
O O11 0.218141 0.833272 0.105246
O O12 0.349859 0.676110 0.991060
O O13 0.097728 0.000000 0.171562
O O14 0.112930 0.000000 0.529483
O O15 0.000000 0.000000 0.500000
O O16 0.737372 0.000000 0.515308
#
# Coordination Sequence:
#
# PCOD9176437 Si02
#       8
#     8   8   4   8   8   4   4   4
#     4  11  22  42  68 100 139 184 228 288 348 410
#     4  10  18  34  61  98 131 169 219 279 348 407
#     4  12  24  43  66  91 132 186 236 279 334 423
#     4  11  23  40  66 101 138 176 228 288 346 417
#     4  11  23  42  68 101 138 177 228 290 355 409
#     4   8  16  26  56  92 121 153 211 275 320 376
#     4  10  20  37  64  92 134 175 225 275 337 408
#     4  12  26  42  64 103 139 183 233 284 345 409
#
# _framework density 21.469429999999999
#
# number of rings (size 3 to 8) (size 9 to 14) (size 15 to 20)
#    0.000    1.333    3.333    4.000    0.000    0.000 
#    3.000    0.417    1.833    1.500    0.000    0.000 
#    0.000    0.000    0.000    0.000    0.000    0.000 
#
# Total GULP energy -133766.937752 kJ/mol
# GULP energy per Si atom -5573.622406 kJ/mol
# Density = 2.142056 g / cm^3
# Si number density = 21.469430 Si / 1000 Ang^3
#
#
#
# Elastic Constant Matrix: (Units=GPa)
#
#
# Indices 1 2 3 4 5 6 
#
# 1 76.3764 41.5405 14.4178 0.0000 -11.1111 0.0000
# 2 41.5405 92.6563 3.0874 0.0000 1.1908 0.0000
# 3 14.4178 3.0874 101.0065 0.0000 2.7047 0.0000
# 4 0.0000 0.0000 0.0000 -10.6419 0.0000 -1.8779
# 5 -11.1111 1.1908 2.7047 0.0000 41.0144 0.0000
# 6 0.0000 0.0000 0.0000 -1.8779 0.0000 28.2157
#
#
#
# Elastic Compliance Matrix: (Units=1/GPa)
#
#
# Indices 1 2 3 4 5 6 
#
# 1 0.019027 -0.008515 -0.002605 0.000000 0.005574 0.000000
# 2 -0.008515 0.014618 0.000843 0.000000 -0.002787 0.000000
# 3 -0.002605 0.000843 0.010284 0.000000 -0.001408 0.000000
# 4 0.000000 0.000000 0.000000 -0.092878 0.000000 -0.006181
# 5 0.005574 -0.002787 -0.001408 0.000000 0.026065 0.000000
# 6 0.000000 0.000000 0.000000 -0.006181 0.000000 0.035030
#
#
# Mechanical properties :
#
#
# Convention : Reuss Voigt Hill
#
# Bulk Modulus (GPa) = 42.78007 43.12562 42.95284
# Shear Modulus (GPa) = 123.48143 25.78389 74.63266
#
# Velocity S-wave (km/s) = 7.59209 3.46924 5.90235
# Velocity P-wave (km/s) = 9.83984 6.01483 8.15477
#
# Compressibility (1/GPa) = 0.02337537
#
# Stress axis : x y z
#
# Youngs Moduli (GPa) = 52.55712 68.40939 97.23731
#
# Poissons Ratio (x) = 0.58252 0.25329
# Poissons Ratio (y) = 0.44753 -0.08200
# Poissons Ratio (z) = 0.13691 -0.05769
#
# Static dielectric constant tensor:
#      x y z
#    x 1.781280 0.000000 -0.020780 
#    y 0.000000 1.920770 0.000000 
#    z -0.020780 0.000000 1.883000 
# 
# From -- ./inp_files/232843.got.cif
#   From: 2010.05.17/outbox.cif.g08.bks.cpg/sg12_117_cif.got.tgz:232843.got - 2010.06.03 13:09:07.
