data_PCOD9176302
_publ_section_title
;
Structure prediction by ZEFSAII (Michael W. Deem and Ramdas Pophale) SiO2 
 PCOD9176302
Probable space group: C 2/M
;
_chemical_formula_sum "Si O2"
_cell_formula_units_Z 40
_cell_length_a 19.820270
_cell_length_b 7.394196
_cell_length_c 18.075233
_cell_angle_alpha 90.000000
_cell_angle_beta 141.561005
_cell_angle_gamma 90.000000
_cell_volume 1646.842367
_symmetry_space_group_name_H-M "C 2/M"
_symmetry_group_IT_number 12
_symmetry_cell_setting 'monoclinic'
loop_
_space_group_symop_operation_xyz
x,y,z
-x,y,-z
-x,-y,-z
x,-y,z
1/2+x,1/2+y,z
1/2-x,1/2+y,-z
1/2-x,1/2-y,-z
1/2+x,1/2-y,z
loop_
_atom_site_type_symbol
_atom_site_label
_atom_site_fract_x
_atom_site_fract_y
_atom_site_fract_z
Si Si1 0.285649 0.720587 0.683302
Si Si2 0.358347 0.706976 0.181642
Si Si3 0.656223 0.705144 0.104175
Si Si4 0.480190 0.721390 0.144616
Si Si5 0.456250 0.219013 0.543833
O O1 0.280749 0.500000 0.679385
O O2 0.305226 0.783455 0.784817
O O3 0.395150 0.773455 0.734799
O O4 0.168216 0.780063 0.554667
O O5 0.324259 0.500000 0.141392
O O6 0.260303 0.799990 0.139801
O O7 0.398450 0.783174 0.138002
O O8 0.462815 0.711412 0.324607
O O9 0.623625 0.500000 0.094086
O O10 0.560963 0.782918 0.971303
O O11 0.476365 0.500000 0.141602
O O12 0.500000 0.270049 0.500000
O O13 0.459769 0.000000 0.550283
#
# Coordination Sequence:
#
# PCOD9176302 Si02
#       5
#     8   8   8   8   8
#     4   9  17  32  56  81 103 131 177 227 258 294
#     4  11  22  34  51  79 113 142 169 209 266 319
#     4  10  18  34  59  80 101 137 183 219 252 301
#     4   9  19  33  52  81 110 136 171 217 265 310
#     4  10  19  35  57  80 101 132 181 223 255 301
#
# _framework density 24.288905
#
# number of rings (size 3 to 8) (size 9 to 14) (size 15 to 20)
#    0.000    2.200    2.000    1.800    0.000    3.600 
#    0.000    1.000    0.000    7.200    0.000    0.000 
#    0.000    0.000    0.000    0.000    0.000    0.000 
#
# Total GULP energy -111840.077130 kJ/mol
# GULP energy per Si atom -5592.003857 kJ/mol
# Density = 2.423362 g / cm^3
# Si number density = 24.288905 Si / 1000 Ang^3
#
#
#
# Elastic Constant Matrix: (Units=GPa)
#
#
# Indices 1 2 3 4 5 6 
#
# 1 83.5379 2.6097 -1.8063 0.0000 20.5033 0.0000
# 2 2.6097 86.5595 -3.3407 0.0000 2.9487 0.0000
# 3 -1.8063 -3.3407 99.1080 0.0000 25.2467 0.0000
# 4 0.0000 0.0000 0.0000 -6.8218 0.0000 -4.8549
# 5 20.5033 2.9487 25.2467 0.0000 51.3621 0.0000
# 6 0.0000 0.0000 0.0000 -4.8549 0.0000 3.4115
#
#
#
# Elastic Compliance Matrix: (Units=1/GPa)
#
#
# Indices 1 2 3 4 5 6 
#
# 1 0.013565 -0.000122 0.001853 0.000000 -0.006319 0.000000
# 2 -0.000122 0.011612 0.000625 0.000000 -0.000925 0.000000
# 3 0.001853 0.000625 0.011823 0.000000 -0.006587 0.000000
# 4 0.000000 0.000000 0.000000 -0.072830 0.000000 -0.103642
# 5 -0.006319 -0.000925 -0.006587 0.000000 0.025283 0.000000
# 6 0.000000 0.000000 0.000000 -0.103642 0.000000 0.145632
#
#
# Mechanical properties :
#
#
# Convention : Reuss Voigt Hill
#
# Bulk Modulus (GPa) = 23.97450 29.34787 26.66118
# Shear Modulus (GPa) = 34.65519 27.70656 31.18087
#
# Velocity S-wave (km/s) = 3.78139 3.38110 3.58683
# Velocity P-wave (km/s) = 5.38119 5.22987 5.30607
#
# Compressibility (1/GPa) = 0.04171099
#
# Stress axis : x y z
#
# Youngs Moduli (GPa) = 73.71703 86.11741 84.58251
#
# Poissons Ratio (x) = 0.01053 -0.15671
# Poissons Ratio (y) = 0.00901 -0.05285
# Poissons Ratio (z) = -0.13658 -0.05381
#
# Static dielectric constant tensor:
#      x y z
#    x 1.913820 0.000000 0.005320 
#    y 0.000000 1.982310 0.000000 
#    z 0.005320 0.000000 1.892820 
# 
# From -- ./inp_files/151721.got.cif
#   From: 2010.05.17/outbox.cif.g08.bks.cpg/sg12_76_cif.got.tgz:151721.got - 2010.06.03 13:09:07.
