data_PCOD9176682
_publ_section_title
;
Structure prediction by ZEFSAII (Michael W. Deem and Ramdas Pophale) SiO2 
 PCOD9176682
Probable space group: C 2/M
;
_chemical_formula_sum "Si O2"
_cell_formula_units_Z 52
_cell_length_a 9.496118
_cell_length_b 33.656434
_cell_length_c 15.938102
_cell_angle_alpha 90.000000
_cell_angle_beta 144.984153
_cell_angle_gamma 90.000000
_cell_volume 2922.897603
_symmetry_space_group_name_H-M "C 2/M"
_symmetry_group_IT_number 12
_symmetry_cell_setting 'monoclinic'
loop_
_space_group_symop_operation_xyz
x,y,z
-x,y,-z
-x,-y,-z
x,-y,z
1/2+x,1/2+y,z
1/2-x,1/2+y,-z
1/2-x,1/2-y,-z
1/2+x,1/2-y,z
loop_
_atom_site_type_symbol
_atom_site_label
_atom_site_fract_x
_atom_site_fract_y
_atom_site_fract_z
Si Si1 0.687375 0.818726 0.207412
Si Si2 0.174140 0.915731 0.253929
Si Si3 0.638912 0.341954 0.890122
Si Si4 0.731250 0.086225 0.502495
Si Si5 0.015446 0.767163 0.104638
Si Si6 0.743283 0.500000 0.560976
Si Si7 0.686638 0.500000 0.168126
Si Si8 0.000000 0.858183 0.500000
O O1 0.818315 0.837578 0.189141
O O2 0.691987 0.770752 0.201131
O O3 0.807956 0.832270 0.352790
O O4 0.404248 0.832799 0.060750
O O5 0.190732 0.912430 0.362715
O O6 0.444021 0.903259 0.354594
O O7 0.143769 0.960360 0.203457
O O8 0.964611 0.884041 0.129820
O O9 0.452653 0.306846 0.826199
O O10 0.769589 0.040475 0.496821
O O11 0.875415 0.113923 0.508914
O O12 0.000000 0.778277 0.000000
O O13 0.750000 0.750000 0.000000
O O14 0.500000 0.500000 0.500000
O O15 0.031905 0.500000 0.730619
O O16 0.500000 0.500000 0.000000
#
# Coordination Sequence:
#
# PCOD9176682 Si02
#       8
#     8   8   8   8   8   4   4   4
#     4  10  21  38  58  89 120 161 194 257 309 355
#     4  10  21  40  61  89 122 159 198 252 306 359
#     4  10  20  38  65  85 120 160 208 244 304 370
#     4  10  21  37  61  89 118 157 204 246 303 363
#     4  10  18  35  61  84 111 152 207 247 293 364
#     4  10  19  37  63  83 114 167 206 241 298 379
#     4  10  23  39  61  92 131 155 204 268 304 352
#     4  12  22  37  60  88 124 154 198 255 300 364
#
# _framework density 17.790565000000001
#
# number of rings (size 3 to 8) (size 9 to 14) (size 15 to 20)
#    0.000    1.846    5.385    0.462    0.000    7.385 
#    0.000    2.308    0.000    2.769    0.000    0.000 
#    0.000    0.000    0.000    0.000    0.000    0.000 
#
# Total GULP energy -144808.371295 kJ/mol
# GULP energy per Si atom -5569.552742 kJ/mol
# Density = 1.775007 g / cm^3
# Si number density = 17.790565 Si / 1000 Ang^3
#
#
#
# Elastic Constant Matrix: (Units=GPa)
#
#
# Indices 1 2 3 4 5 6 
#
# 1 98.1115 39.2405 25.9250 0.0000 3.7489 0.0000
# 2 39.2405 112.7974 38.2205 0.0000 11.4997 0.0000
# 3 25.9250 38.2205 78.4661 0.0000 -6.8212 0.0000
# 4 0.0000 0.0000 0.0000 13.7249 0.0000 4.0068
# 5 3.7489 11.4997 -6.8212 0.0000 17.2146 0.0000
# 6 0.0000 0.0000 0.0000 4.0068 0.0000 34.0633
#
#
#
# Elastic Compliance Matrix: (Units=1/GPa)
#
#
# Indices 1 2 3 4 5 6 
#
# 1 0.012226 -0.003210 -0.002611 0.000000 -0.001552 0.000000
# 2 -0.003210 0.013194 -0.006288 0.000000 -0.010607 0.000000
# 3 -0.002611 -0.006288 0.017694 0.000000 0.011780 0.000000
# 4 0.000000 0.000000 0.000000 0.075451 0.000000 -0.008875
# 5 -0.001552 -0.010607 0.011780 0.000000 0.070182 0.000000
# 6 0.000000 0.000000 0.000000 -0.008875 0.000000 0.030401
#
#
# Mechanical properties :
#
#
# Convention : Reuss Voigt Hill
#
# Bulk Modulus (GPa) = 52.92218 55.12744 54.02481
# Shear Modulus (GPa) = 20.02685 25.39982 22.71333
#
# Velocity S-wave (km/s) = 3.35879 3.78261 3.57698
# Velocity P-wave (km/s) = 6.69730 7.08037 6.89150
#
# Compressibility (1/GPa) = 0.01889567
#
# Stress axis : x y z
#
# Youngs Moduli (GPa) = 81.79569 75.79010 56.51653
#
# Poissons Ratio (x) = 0.24331 0.14754
# Poissons Ratio (y) = 0.26259 0.35539
# Poissons Ratio (z) = 0.21353 0.47659
#
# Static dielectric constant tensor:
#      x y z
#    x 1.610580 0.000000 0.017500 
#    y 0.000000 1.628870 0.000000 
#    z 0.017500 0.000000 1.608830 
# 
# From -- ./inp_files/201396.got.cif
#   From: 2010.05.17/outbox.cif.g08.bks.cpg/sg12_101_cif.got.tgz:201396.got - 2010.06.03 13:09:07.
