data_PCOD9176102
_publ_section_title
;
Structure prediction by ZEFSAII (Michael W. Deem and Ramdas Pophale) SiO2 
 PCOD9176102
Probable space group: C 2/M
;
_chemical_formula_sum "Si O2"
_cell_formula_units_Z 44
_cell_length_a 20.390409
_cell_length_b 15.647344
_cell_length_c 10.292238
_cell_angle_alpha 90.000000
_cell_angle_beta 132.683193
_cell_angle_gamma 90.000000
_cell_volume 2413.963963
_symmetry_space_group_name_H-M "C 2/M"
_symmetry_group_IT_number 12
_symmetry_cell_setting 'monoclinic'
loop_
_space_group_symop_operation_xyz
x,y,z
-x,y,-z
-x,-y,-z
x,-y,z
1/2+x,1/2+y,z
1/2-x,1/2+y,-z
1/2-x,1/2-y,-z
1/2+x,1/2-y,z
loop_
_atom_site_type_symbol
_atom_site_label
_atom_site_fract_x
_atom_site_fract_y
_atom_site_fract_z
Si Si1 0.500000 0.178882 0.500000
Si Si2 0.098912 0.239486 0.181121
Si Si3 0.238412 0.095626 0.293255
Si Si4 0.319681 0.180419 0.143991
Si Si5 0.106808 0.595287 0.016249
Si Si6 0.079702 0.370775 0.348313
O O1 0.412142 0.223047 0.321776
O O2 0.461753 0.122639 0.564909
O O3 0.167021 0.164139 0.246741
O O4 0.091716 0.272342 0.319260
O O5 0.127032 0.325797 0.139738
O O6 0.000000 0.216312 0.000000
O O7 0.276279 0.128804 0.205407
O O8 0.321708 0.093540 0.505288
O O9 0.202280 0.000000 0.231507
O O10 0.348697 0.120682 0.062115
O O11 0.250000 0.250000 0.000000
O O12 0.134228 0.500000 0.093957
O O13 0.999155 0.594912 0.848876
#
# Coordination Sequence:
#
# PCOD9176102 Si02
#       6
#     4   8   8   8   8   8
#     4   8  18  32  55  82  99 138 174 220 273 324
#     4  10  21  35  52  77 108 144 178 215 263 316
#     4  11  21  34  54  79 107 143 182 218 261 318
#     4  10  18  34  55  80 110 139 178 220 270 321
#     4  10  19  33  54  81 109 136 171 221 275 323
#     4   9  19  34  54  79 106 134 172 222 276 322
#
# _framework density 18.227281999999999
#
# number of rings (size 3 to 8) (size 9 to 14) (size 15 to 20)
#    0.000    2.182    1.818    1.636    0.000    4.364 
#    0.000    5.455    0.000    0.000    0.000    3.182 
#    0.000    0.000    0.000    0.000    0.000    0.000 
#
# Total GULP energy -122515.861291 kJ/mol
# GULP energy per Si atom -5568.902786 kJ/mol
# Density = 1.818580 g / cm^3
# Si number density = 18.227282 Si / 1000 Ang^3
#
#
#
# Elastic Constant Matrix: (Units=GPa)
#
#
# Indices 1 2 3 4 5 6 
#
# 1 76.7293 39.6804 5.5096 0.0000 5.3846 0.0000
# 2 39.6804 126.1487 43.3772 0.0000 19.4745 0.0000
# 3 5.5096 43.3772 74.3370 0.0000 13.2735 0.0000
# 4 0.0000 0.0000 0.0000 1.6760 0.0000 -3.3594
# 5 5.3846 19.4745 13.2735 0.0000 28.8755 0.0000
# 6 0.0000 0.0000 0.0000 -3.3594 0.0000 9.2177
#
#
#
# Elastic Compliance Matrix: (Units=1/GPa)
#
#
# Indices 1 2 3 4 5 6 
#
# 1 0.015840 -0.005716 0.002180 0.000000 -0.000100 0.000000
# 2 -0.005716 0.012518 -0.006061 0.000000 -0.004590 0.000000
# 3 0.002180 -0.006061 0.017616 0.000000 -0.004416 0.000000
# 4 0.000000 0.000000 0.000000 2.214109 0.000000 0.806922
# 5 -0.000100 -0.004590 -0.004416 0.000000 0.039776 0.000000
# 6 0.000000 0.000000 0.000000 0.806922 0.000000 0.402565
#
#
# Mechanical properties :
#
#
# Convention : Reuss Voigt Hill
#
# Bulk Modulus (GPa) = 37.34444 50.48326 43.91385
# Shear Modulus (GPa) = 1.83114 20.53036 11.18075
#
# Velocity S-wave (km/s) = 1.00339 3.35976 2.47939
# Velocity P-wave (km/s) = 4.67708 6.54273 5.68693
#
# Compressibility (1/GPa) = 0.02677775
#
# Stress axis : x y z
#
# Youngs Moduli (GPa) = 63.13309 79.88432 56.76605
#
# Poissons Ratio (x) = 0.45665 -0.12372
# Poissons Ratio (y) = 0.36089 0.34407
# Poissons Ratio (z) = -0.13760 0.48420
#
# Static dielectric constant tensor:
#      x y z
#    x 1.677690 0.000000 -0.036360 
#    y 0.000000 1.604810 0.000000 
#    z -0.036360 0.000000 1.669660 
# 
# From -- ./inp_files/143291.got.cif
#   From: 2010.05.17/outbox.cif.g08.bks.cpg/sg12_72_cif.got.tgz:143291.got - 2010.06.03 13:09:07.
