data_PCOD9176423
_publ_section_title
;
Structure prediction by ZEFSAII (Michael W. Deem and Ramdas Pophale) SiO2 
 PCOD9176423
Probable space group: C 2/M
;
_chemical_formula_sum "Si O2"
_cell_formula_units_Z 64
_cell_length_a 33.056071
_cell_length_b 7.651845
_cell_length_c 15.333716
_cell_angle_alpha 90.000000
_cell_angle_beta 132.565834
_cell_angle_gamma 90.000000
_cell_volume 2856.524198
_symmetry_space_group_name_H-M "C 2/M"
_symmetry_group_IT_number 12
_symmetry_cell_setting 'monoclinic'
loop_
_space_group_symop_operation_xyz
x,y,z
-x,y,-z
-x,-y,-z
x,-y,z
1/2+x,1/2+y,z
1/2-x,1/2+y,-z
1/2-x,1/2-y,-z
1/2+x,1/2-y,z
loop_
_atom_site_type_symbol
_atom_site_label
_atom_site_fract_x
_atom_site_fract_y
_atom_site_fract_z
Si Si1 0.541468 0.799189 0.931800
Si Si2 0.383181 0.797743 0.495898
Si Si3 0.222441 0.208647 0.051870
Si Si4 0.738838 0.297802 0.705296
Si Si5 0.355547 0.786480 0.807013
Si Si6 0.063670 0.711262 0.603598
Si Si7 0.598476 0.295230 0.848500
Si Si8 0.421134 0.785520 0.736805
O O1 0.554834 0.794486 0.848337
O O2 0.480894 0.723882 0.856575
O O3 0.538312 0.000000 0.957398
O O4 0.594879 0.724089 0.058009
O O5 0.317493 0.791079 0.404434
O O6 0.403510 0.722653 0.433350
O O7 0.408618 0.721624 0.621218
O O8 0.400972 0.000000 0.520153
O O9 0.254307 0.285905 0.180349
O O10 0.222023 0.000000 0.062063
O O11 0.250000 0.250000 0.000000
O O12 0.159534 0.272688 0.958725
O O13 0.734039 0.500000 0.672635
O O14 0.795565 0.224340 0.748450
O O15 0.374065 0.738777 0.736857
O O16 0.353529 0.000000 0.810842
O O17 0.067406 0.500000 0.612193
O O18 0.086452 0.774034 0.729145
O O19 0.000000 0.759450 0.500000
O O20 0.596656 0.500000 0.866859
O O21 0.422794 0.000000 0.737419
#
# Coordination Sequence:
#
# PCOD9176423 Si02
#       8
#     8   8   8   8   8   8   8   8
#     4  10  18  34  61  88 114 147 189 238 288 338
#     4  10  21  37  57  83 115 152 192 240 289 336
#     4  11  23  38  57  82 112 147 188 232 282 337
#     4  11  22  37  57  83 117 154 192 234 282 339
#     4   9  18  33  57  89 117 145 189 243 289 331
#     4  10  21  38  59  83 111 148 196 240 279 331
#     4  11  23  36  54  83 116 148 181 226 287 346
#     4   9  18  34  59  88 114 145 194 245 287 335
#
# _framework density 22.40485
#
# number of rings (size 3 to 8) (size 9 to 14) (size 15 to 20)
#    0.000    1.875    1.250    3.000    0.000    8.250 
#    0.000    1.875    0.000    4.500    0.000    0.000 
#    0.000    0.000    0.000    0.000    0.000    0.000 
#
# Total GULP energy -178874.930342 kJ/mol
# GULP energy per Si atom -5589.841573 kJ/mol
# Density = 2.235386 g / cm^3
# Si number density = 22.404850 Si / 1000 Ang^3
#
#
#
# Elastic Constant Matrix: (Units=GPa)
#
#
# Indices 1 2 3 4 5 6 
#
# 1 103.8199 -3.3872 -1.1439 0.0000 2.6325 0.0000
# 2 -3.3872 47.6787 -3.4671 0.0000 0.7719 0.0000
# 3 -1.1439 -3.4671 63.6354 0.0000 2.2506 0.0000
# 4 0.0000 0.0000 0.0000 6.7136 0.0000 9.9808
# 5 2.6325 0.7719 2.2506 0.0000 37.1520 0.0000
# 6 0.0000 0.0000 0.0000 9.9808 0.0000 6.3819
#
#
#
# Elastic Compliance Matrix: (Units=1/GPa)
#
#
# Indices 1 2 3 4 5 6 
#
# 1 0.009676 0.000716 0.000238 0.000000 -0.000715 0.000000
# 2 0.000716 0.021120 0.001183 0.000000 -0.000561 0.000000
# 3 0.000238 0.001183 0.015819 0.000000 -0.001000 0.000000
# 4 0.000000 0.000000 0.000000 -0.112412 0.000000 0.175806
# 5 -0.000715 -0.000561 -0.001000 0.000000 0.027039 0.000000
# 6 0.000000 0.000000 0.000000 0.175806 0.000000 -0.118255
#
#
# Mechanical properties :
#
#
# Convention : Reuss Voigt Hill
#
# Bulk Modulus (GPa) = 19.65000 22.12638 20.88819
# Shear Modulus (GPa) = -34.64385 24.92497 -4.85944
#
# Velocity S-wave (km/s) = -3.93652 3.33901 -1.47432
# Velocity P-wave (km/s) = 3.44560 4.97619 2.53873
#
# Compressibility (1/GPa) = 0.05089060
#
# Stress axis : x y z
#
# Youngs Moduli (GPa) = 103.34652 47.34900 63.21650
#
# Poissons Ratio (x) = -0.03392 -0.01506
# Poissons Ratio (y) = -0.07403 -0.07481
# Poissons Ratio (z) = -0.02462 -0.05603
#
# Static dielectric constant tensor:
#      x y z
#    x 1.822280 0.000000 0.001380 
#    y 0.000000 1.884600 0.000000 
#    z 0.001380 0.000000 1.798460 
# 
# From -- ./inp_files/250069.got.cif
#   From: 2010.05.17/outbox.cif.g08.bks.cpg/sg12_126_cif.got.tgz:250069.got - 2010.06.03 13:09:07.
