data_PCOD9176337
_publ_section_title
;
Structure prediction by ZEFSAII (Michael W. Deem and Ramdas Pophale) SiO2 
 PCOD9176337
Probable space group: C 2/M
;
_chemical_formula_sum "Si O2"
_cell_formula_units_Z 48
_cell_length_a 19.027182
_cell_length_b 14.296663
_cell_length_c 7.209091
_cell_angle_alpha 90.000000
_cell_angle_beta 86.749875
_cell_angle_gamma 90.000000
_cell_volume 1957.900221
_symmetry_space_group_name_H-M "C 2/M"
_symmetry_group_IT_number 12
_symmetry_cell_setting 'monoclinic'
loop_
_space_group_symop_operation_xyz
x,y,z
-x,y,-z
-x,-y,-z
x,-y,z
1/2+x,1/2+y,z
1/2-x,1/2+y,-z
1/2-x,1/2-y,-z
1/2+x,1/2-y,z
loop_
_atom_site_type_symbol
_atom_site_label
_atom_site_fract_x
_atom_site_fract_y
_atom_site_fract_z
Si Si1 0.100965 0.894368 0.660895
Si Si2 0.788733 0.392223 0.998067
Si Si3 0.858613 0.391873 0.616345
Si Si4 0.434327 0.396189 0.766566
Si Si5 0.072870 0.702918 0.088818
Si Si6 0.201669 0.723031 0.680490
O O1 0.096773 0.888990 0.436326
O O2 0.149014 0.809524 0.722716
O O3 0.019377 0.887170 0.736471
O O4 0.126135 0.000000 0.704077
O O5 0.771943 0.500000 0.038748
O O6 0.755805 0.321048 0.151764
O O7 0.792398 0.378725 0.773439
O O8 0.870294 0.362545 0.018932
O O9 0.876034 0.500000 0.624686
O O10 0.920940 0.331901 0.699319
O O11 0.841354 0.360425 0.414188
O O12 0.418447 0.500000 0.841266
O O13 0.409153 0.312128 0.897141
O O14 0.000000 0.691608 0.000000
O O15 0.250000 0.750000 0.500000
#
# Coordination Sequence:
#
# PCOD9176337 Si02
#       6
#     8   8   8   8   8   8
#     4   9  18  34  54  85 120 154 195 245 302 361
#     4   9  21  39  59  85 120 154 193 242 296 354
#     4   9  21  40  59  84 122 155 192 246 300 349
#     4   9  17  32  58  84 120 158 189 241 307 361
#     4  10  18  34  59  86 120 157 194 238 294 363
#     4  12  23  38  64  87 115 159 209 252 297 356
#
# _framework density 24.51606
#
# number of rings (size 3 to 8) (size 9 to 14) (size 15 to 20)
#    1.000    1.333    1.667    2.500    0.000    3.667 
#    0.000    0.833    0.000    3.000    0.000    0.000 
#    0.000    0.000    0.000    0.000    0.000    0.000 
#
# Total GULP energy -133959.975125 kJ/mol
# GULP energy per Si atom -5581.665630 kJ/mol
# Density = 2.446026 g / cm^3
# Si number density = 24.516060 Si / 1000 Ang^3
#
#
#
# Elastic Constant Matrix: (Units=GPa)
#
#
# Indices 1 2 3 4 5 6 
#
# 1 51.7945 20.3048 13.6584 0.0000 6.4095 0.0000
# 2 20.3048 159.8239 50.8828 0.0000 0.2868 0.0000
# 3 13.6584 50.8828 131.0032 0.0000 -2.5574 0.0000
# 4 0.0000 0.0000 0.0000 -91.3124 0.0000 -12.7986
# 5 6.4095 0.2868 -2.5574 0.0000 20.2332 0.0000
# 6 0.0000 0.0000 0.0000 -12.7986 0.0000 21.5909
#
#
#
# Elastic Compliance Matrix: (Units=1/GPa)
#
#
# Indices 1 2 3 4 5 6 
#
# 1 0.021439 -0.002232 -0.001504 0.000000 -0.006950 0.000000
# 2 -0.002232 0.007376 -0.002627 0.000000 0.000271 0.000000
# 3 -0.001504 -0.002627 0.008842 0.000000 0.001631 0.000000
# 4 0.000000 0.000000 0.000000 -0.010111 0.000000 -0.005994
# 5 -0.006950 0.000271 0.001631 0.000000 0.051828 0.000000
# 6 0.000000 0.000000 0.000000 -0.005994 0.000000 0.042763
#
#
# Mechanical properties :
#
#
# Convention : Reuss Voigt Hill
#
# Bulk Modulus (GPa) = 40.11057 56.92375 48.51716
# Shear Modulus (GPa) = 34.92263 7.28738 21.10501
#
# Velocity S-wave (km/s) = 3.77832 1.72596 2.93723
# Velocity P-wave (km/s) = 5.95237 5.21932 5.59786
#
# Compressibility (1/GPa) = 0.02493108
#
# Stress axis : x y z
#
# Youngs Moduli (GPa) = 46.64434 135.56784 113.09171
#
# Poissons Ratio (x) = 0.30265 0.17006
# Poissons Ratio (y) = 0.10413 0.29709
# Poissons Ratio (z) = 0.07014 0.35614
#
# Static dielectric constant tensor:
#      x y z
#    x 1.964680 0.000000 -0.056590 
#    y 0.000000 1.931240 0.000000 
#    z -0.056590 0.000000 2.167370 
# 
# From -- ./inp_files/85141.got.cif
#   From: 2010.05.17/outbox.cif.g08.bks.cpg/sg12_43_cif.got.tgz:85141.got - 2010.06.03 13:09:07.
