data_PCOD9176038
_publ_section_title
;
Structure prediction by ZEFSAII (Michael W. Deem and Ramdas Pophale) SiO2 
 PCOD9176038
Probable space group: C 2/M
;
_chemical_formula_sum "Si O2"
_cell_formula_units_Z 48
_cell_length_a 8.421002
_cell_length_b 20.944288
_cell_length_c 14.755081
_cell_angle_alpha 90.000000
_cell_angle_beta 60.098915
_cell_angle_gamma 90.000000
_cell_volume 2255.971530
_symmetry_space_group_name_H-M "C 2/M"
_symmetry_group_IT_number 12
_symmetry_cell_setting 'monoclinic'
loop_
_space_group_symop_operation_xyz
x,y,z
-x,y,-z
-x,-y,-z
x,-y,z
1/2+x,1/2+y,z
1/2-x,1/2+y,-z
1/2-x,1/2-y,-z
1/2+x,1/2-y,z
loop_
_atom_site_type_symbol
_atom_site_label
_atom_site_fract_x
_atom_site_fract_y
_atom_site_fract_z
Si Si1 0.638098 0.196020 0.583468
Si Si2 0.734839 0.740084 0.737318
Si Si3 0.134029 0.163653 0.161903
Si Si4 0.288896 0.569196 0.531749
Si Si5 0.154327 0.572543 0.771207
Si Si6 0.832813 0.426120 0.975059
O O1 0.750000 0.250000 0.500000
O O2 0.696649 0.205078 0.672504
O O3 0.423425 0.208709 0.650423
O O4 0.701550 0.131775 0.515039
O O5 0.756160 0.774745 0.829026
O O6 0.571756 0.689129 0.783161
O O7 0.186310 0.111192 0.223299
O O8 0.196645 0.127732 0.052229
O O9 0.500000 0.579379 0.500000
O O10 0.274774 0.500000 0.489783
O O11 0.183573 0.567673 0.657012
O O12 0.165699 0.500000 0.803888
O O13 0.947385 0.594384 0.853679
O O14 0.763597 0.500000 0.987048
O O15 0.000000 0.425901 0.000000
#
# Coordination Sequence:
#
# PCOD9176038 Si02
#       6
#     8   8   8   8   8   8
#     4  11  21  38  58  79 108 150 186 225 270 345
#     4  10  22  33  54  80 111 144 184 222 281 324
#     4  10  18  34  52  80 111 138 183 229 262 329
#     4  10  20  34  57  86 111 139 182 233 281 327
#     4   9  17  33  57  82 108 142 186 230 269 326
#     4   8  15  30  55  81 103 142 189 226 268 322
#
# _framework density 21.276862999999999
#
# number of rings (size 3 to 8) (size 9 to 14) (size 15 to 20)
#    0.000    2.333    1.667    3.000    2.333    0.000 
#    0.000    9.167    0.000    2.000    0.000    3.500 
#    0.000    0.000    0.000    0.000    0.000    0.000 
#
# Total GULP energy -133667.301540 kJ/mol
# GULP energy per Si atom -5569.470897 kJ/mol
# Density = 2.122844 g / cm^3
# Si number density = 21.276863 Si / 1000 Ang^3
#
#
#
# Elastic Constant Matrix: (Units=GPa)
#
#
# Indices 1 2 3 4 5 6 
#
# 1 57.7040 41.3564 20.7149 0.0000 -25.7833 0.0000
# 2 41.3564 143.3899 31.7858 0.0000 -36.7864 0.0000
# 3 20.7149 31.7858 88.6033 0.0000 -13.2821 0.0000
# 4 0.0000 0.0000 0.0000 36.9653 0.0000 -5.6605
# 5 -25.7833 -36.7864 -13.2821 0.0000 26.4096 0.0000
# 6 0.0000 0.0000 0.0000 -5.6605 0.0000 1.8788
#
#
#
# Elastic Compliance Matrix: (Units=1/GPa)
#
#
# Indices 1 2 3 4 5 6 
#
# 1 0.031641 -0.001472 -0.002754 0.000000 0.027456 0.000000
# 2 -0.001472 0.011180 -0.001674 0.000000 0.013294 0.000000
# 3 -0.002754 -0.001674 0.012738 0.000000 0.001387 0.000000
# 4 0.000000 0.000000 0.000000 0.050222 0.000000 0.151308
# 5 0.027456 0.013294 0.001387 0.000000 0.083885 0.000000
# 6 0.000000 0.000000 0.000000 0.151308 0.000000 0.988108
#
#
# Mechanical properties :
#
#
# Convention : Reuss Voigt Hill
#
# Bulk Modulus (GPa) = 22.85149 53.04573 37.94861
# Shear Modulus (GPa) = 4.15227 26.10675 15.12951
#
# Velocity S-wave (km/s) = 1.39849 3.50666 2.66950
# Velocity P-wave (km/s) = 3.65665 6.43279 5.23220
#
# Compressibility (1/GPa) = 0.04376083
#
# Stress axis : x y z
#
# Youngs Moduli (GPa) = 31.60468 89.44414 78.50287
#
# Poissons Ratio (x) = 0.13164 0.21618
# Poissons Ratio (y) = 0.04651 0.13140
# Poissons Ratio (z) = 0.08703 0.14971
#
# Static dielectric constant tensor:
#      x y z
#    x 1.785720 0.000000 0.057930 
#    y 0.000000 1.895930 0.000000 
#    z 0.057930 0.000000 1.846770 
# 
# From -- ./inp_files/257895.got.cif
#   From: 2010.05.17/outbox.cif.g08.bks.cpg/sg12_129_cif.got.tgz:257895.got - 2010.06.03 13:09:07.
