data_PCOD9176127
_publ_section_title
;
Structure prediction by ZEFSAII (Michael W. Deem and Ramdas Pophale) SiO2 
 PCOD9176127
Probable space group: C 2/M
;
_chemical_formula_sum "Si O2"
_cell_formula_units_Z 44
_cell_length_a 9.947148
_cell_length_b 22.783774
_cell_length_c 13.549200
_cell_angle_alpha 90.000000
_cell_angle_beta 144.069176
_cell_angle_gamma 90.000000
_cell_volume 1801.913613
_symmetry_space_group_name_H-M "C 2/M"
_symmetry_group_IT_number 12
_symmetry_cell_setting 'monoclinic'
loop_
_space_group_symop_operation_xyz
x,y,z
-x,y,-z
-x,-y,-z
x,-y,z
1/2+x,1/2+y,z
1/2-x,1/2+y,-z
1/2-x,1/2-y,-z
1/2+x,1/2-y,z
loop_
_atom_site_type_symbol
_atom_site_label
_atom_site_fract_x
_atom_site_fract_y
_atom_site_fract_z
Si Si1 0.154864 0.402781 0.439920
Si Si2 0.884217 0.703524 0.700317
Si Si3 0.241252 0.210143 0.820386
Si Si4 0.304249 0.889683 0.999764
Si Si5 0.820874 0.068583 0.755874
Si Si6 0.917259 0.500000 0.768240
O O1 0.223892 0.337638 0.447974
O O2 0.884568 0.401522 0.307458
O O3 0.184019 0.448586 0.368295
O O4 0.269361 0.425455 0.608364
O O5 0.040082 0.755937 0.755260
O O6 0.717840 0.719832 0.690204
O O7 0.060904 0.659576 0.860108
O O8 0.245674 0.142545 0.861342
O O9 0.500000 0.233290 0.000000
O O10 0.070422 0.905454 0.917176
O O11 0.453478 0.948250 0.090126
O O12 0.815514 0.000000 0.780896
#
# Coordination Sequence:
#
# PCOD9176127 Si02
#       6
#     8   8   8   8   8   4
#     4  10  21  36  58  88 123 164 199 254 296 355
#     4  10  23  39  66  88 122 158 206 248 308 351
#     4  10  21  41  60  93 123 157 196 260 304 353
#     4  10  21  34  60  92 119 155 202 250 295 359
#     4  11  20  37  60  87 129 161 204 238 305 355
#     4  10  18  34  55  91 116 157 200 248 294 365
#
# _framework density 24.418485
#
# number of rings (size 3 to 8) (size 9 to 14) (size 15 to 20)
#    0.000    1.818    2.727    2.727    5.091    2.909 
#    0.000   13.182    0.000    1.091    0.000    0.000 
#    0.000    0.000    0.000    0.000    0.000    0.000 
#
# Total GULP energy -122576.762776 kJ/mol
# GULP energy per Si atom -5571.671035 kJ/mol
# Density = 2.436291 g / cm^3
# Si number density = 24.418485 Si / 1000 Ang^3
#
#
#
# Elastic Constant Matrix: (Units=GPa)
#
#
# Indices 1 2 3 4 5 6 
#
# 1 81.3016 39.5631 12.6246 0.0000 -17.9388 0.0000
# 2 39.5631 117.2348 26.9248 0.0000 -20.6312 0.0000
# 3 12.6246 26.9248 72.9016 0.0000 -5.3410 0.0000
# 4 0.0000 0.0000 0.0000 20.4900 0.0000 -17.8883
# 5 -17.9388 -20.6312 -5.3410 0.0000 12.7426 0.0000
# 6 0.0000 0.0000 0.0000 -17.8883 0.0000 10.1526
#
#
#
# Elastic Compliance Matrix: (Units=1/GPa)
#
#
# Indices 1 2 3 4 5 6 
#
# 1 0.018312 -0.002129 -0.000772 0.000000 0.022008 0.000000
# 2 -0.002129 0.012889 -0.003180 0.000000 0.016538 0.000000
# 3 -0.000772 -0.003180 0.015030 0.000000 0.000064 0.000000
# 4 0.000000 0.000000 0.000000 -0.090677 0.000000 -0.159767
# 5 0.022008 0.016538 0.000064 0.000000 0.136262 0.000000
# 6 0.000000 0.000000 0.000000 -0.159767 0.000000 -0.183004
#
#
# Mechanical properties :
#
#
# Convention : Reuss Voigt Hill
#
# Bulk Modulus (GPa) = 29.35322 47.74035 38.54678
# Shear Modulus (GPa) = -73.88948 21.49875 -26.19537
#
# Velocity S-wave (km/s) = -5.50685 2.97042 -3.27887
# Velocity P-wave (km/s) = 5.32793 5.59981 1.21883
#
# Compressibility (1/GPa) = 0.03406781
#
# Stress axis : x y z
#
# Youngs Moduli (GPa) = 54.60920 77.58440 66.53348
#
# Poissons Ratio (x) = 0.16520 0.05139
# Poissons Ratio (y) = 0.11628 0.21158
# Poissons Ratio (z) = 0.04218 0.24672
#
# Static dielectric constant tensor:
#      x y z
#    x 1.998770 0.000000 -0.046010 
#    y 0.000000 1.882360 0.000000 
#    z -0.046010 0.000000 2.054490 
# 
# From -- ./inp_files/207814.got.cif
#   From: 2010.05.17/outbox.cif.g08.bks.cpg/sg12_104_cif.got.tgz:207814.got - 2010.06.03 13:09:07.
