data_PCOD9176643
_publ_section_title
;
Structure prediction by ZEFSAII (Michael W. Deem and Ramdas Pophale) SiO2 
 PCOD9176643
Probable space group: C 2/M
;
_chemical_formula_sum "Si O2"
_cell_formula_units_Z 44
_cell_length_a 9.654497
_cell_length_b 28.874803
_cell_length_c 9.811331
_cell_angle_alpha 90.000000
_cell_angle_beta 111.827941
_cell_angle_gamma 90.000000
_cell_volume 2539.025827
_symmetry_space_group_name_H-M "C 2/M"
_symmetry_group_IT_number 12
_symmetry_cell_setting 'monoclinic'
loop_
_space_group_symop_operation_xyz
x,y,z
-x,y,-z
-x,-y,-z
x,-y,z
1/2+x,1/2+y,z
1/2-x,1/2+y,-z
1/2-x,1/2-y,-z
1/2+x,1/2-y,z
loop_
_atom_site_type_symbol
_atom_site_label
_atom_site_fract_x
_atom_site_fract_y
_atom_site_fract_z
Si Si1 0.000000 0.881558 0.500000
Si Si2 0.221750 0.446301 0.469856
Si Si3 0.409810 0.769775 0.104692
Si Si4 0.386878 0.946488 0.257106
Si Si5 0.516962 0.329279 0.788644
Si Si6 0.246337 0.856345 0.104884
O O1 0.145383 0.913220 0.526869
O O2 0.023388 0.850402 0.642064
O O3 0.262997 0.500000 0.461409
O O4 0.183187 0.441655 0.616591
O O5 0.064077 0.437843 0.336619
O O6 0.483518 0.726783 0.210619
O O7 0.376517 0.817981 0.166064
O O8 0.500000 0.778478 0.000000
O O9 0.250000 0.750000 0.000000
O O10 0.309977 0.907808 0.137050
O O11 0.364792 0.000000 0.206302
O O12 0.371955 0.346772 0.817960
O O13 0.656356 0.346440 0.932271
#
# Coordination Sequence:
#
# PCOD9176643 Si02
#       6
#     4   8   8   8   8   8
#     4  12  21  36  58  84 122 146 187 240 292 326
#     4   9  19  35  56  81 115 156 190 225 286 349
#     4  10  18  35  60  80 108 148 190 225 277 340
#     4   9  18  36  59  85 112 148 194 237 278 338
#     4  10  21  36  56  88 116 148 190 241 278 342
#     4  10  19  38  62  81 116 152 192 232 288 335
#
# _framework density 17.329481000000001
#
# number of rings (size 3 to 8) (size 9 to 14) (size 15 to 20)
#    0.000    2.182    5.455    1.364    0.000    2.909 
#    0.000    6.364    0.000    2.727    0.000    0.000 
#    0.000    0.000    0.000    0.000    0.000    0.000 
#
# Total GULP energy -122624.546658 kJ/mol
# GULP energy per Si atom -5573.843030 kJ/mol
# Density = 1.729004 g / cm^3
# Si number density = 17.329481 Si / 1000 Ang^3
#
#
#
# Elastic Constant Matrix: (Units=GPa)
#
#
# Indices 1 2 3 4 5 6 
#
# 1 88.5647 63.0636 30.1945 0.0000 -6.5555 0.0000
# 2 63.0636 154.1846 59.3761 0.0000 6.4464 0.0000
# 3 30.1945 59.3761 84.1136 0.0000 -8.7339 0.0000
# 4 0.0000 0.0000 0.0000 20.7634 0.0000 0.6412
# 5 -6.5555 6.4464 -8.7339 0.0000 12.5470 0.0000
# 6 0.0000 0.0000 0.0000 0.6412 0.0000 34.0461
#
#
#
# Elastic Compliance Matrix: (Units=1/GPa)
#
#
# Indices 1 2 3 4 5 6 
#
# 1 0.017932 -0.008266 0.000875 0.000000 0.014225 0.000000
# 2 -0.008266 0.013952 -0.008703 0.000000 -0.017545 0.000000
# 3 0.000875 -0.008703 0.019650 0.000000 0.018607 0.000000
# 4 0.000000 0.000000 0.000000 0.048190 0.000000 -0.000908
# 5 0.014225 -0.017545 0.018607 0.000000 0.109099 0.000000
# 6 0.000000 0.000000 0.000000 -0.000908 0.000000 0.029389
#
#
# Mechanical properties :
#
#
# Convention : Reuss Voigt Hill
#
# Bulk Modulus (GPa) = 51.69168 70.23681 60.96424
# Shear Modulus (GPa) = 18.06045 25.08654 21.57349
#
# Velocity S-wave (km/s) = 3.23178 3.80889 3.53214
# Velocity P-wave (km/s) = 6.61962 7.74350 7.20351
#
# Compressibility (1/GPa) = 0.01934547
#
# Stress axis : x y z
#
# Youngs Moduli (GPa) = 55.76723 71.67572 50.89025
#
# Poissons Ratio (x) = 0.59247 -0.04453
# Poissons Ratio (y) = 0.46097 0.44290
# Poissons Ratio (z) = -0.04880 0.62380
#
# Static dielectric constant tensor:
#      x y z
#    x 1.584930 0.000000 0.011860 
#    y 0.000000 1.607360 0.000000 
#    z 0.011860 0.000000 1.569980 
# 
# From -- ./inp_files/41745.got.cif
#   From: 2010.05.17/outbox.cif.g08.bks.cpg/sg12_21_cif.got.tgz:41745.got - 2010.06.03 13:09:07.
