data_PCOD9176411
_publ_section_title
;
Structure prediction by ZEFSAII (Michael W. Deem and Ramdas Pophale) SiO2 
 PCOD9176411
Probable space group: C 2/M
;
_chemical_formula_sum "Si O2"
_cell_formula_units_Z 56
_cell_length_a 32.567453
_cell_length_b 7.909437
_cell_length_c 12.164490
_cell_angle_alpha 90.000000
_cell_angle_beta 123.695736
_cell_angle_gamma 90.000000
_cell_volume 2607.019042
_symmetry_space_group_name_H-M "C 2/M"
_symmetry_group_IT_number 12
_symmetry_cell_setting 'monoclinic'
loop_
_space_group_symop_operation_xyz
x,y,z
-x,y,-z
-x,-y,-z
x,-y,z
1/2+x,1/2+y,z
1/2-x,1/2+y,-z
1/2-x,1/2-y,-z
1/2+x,1/2-y,z
loop_
_atom_site_type_symbol
_atom_site_label
_atom_site_fract_x
_atom_site_fract_y
_atom_site_fract_z
Si Si1 0.744644 0.701096 0.865415
Si Si2 0.445300 0.804353 0.423045
Si Si3 0.866837 0.293785 0.672161
Si Si4 0.428472 0.304369 0.161013
Si Si5 0.518657 0.204382 0.149025
Si Si6 0.838816 0.704587 0.870484
Si Si7 0.351496 0.203660 0.410348
O O1 0.746976 0.500000 0.863137
O O2 0.790458 0.769105 0.861622
O O3 0.692998 0.754922 0.736451
O O4 0.750000 0.750000 0.000000
O O5 0.500000 0.725601 0.500000
O O6 0.424829 0.797632 0.268728
O O7 0.403688 0.730052 0.440878
O O8 0.452085 0.000000 0.468359
O O9 0.865399 0.500000 0.672839
O O10 0.924554 0.245916 0.753842
O O11 0.843652 0.234098 0.752188
O O12 0.842680 0.237138 0.522053
O O13 0.421830 0.500000 0.178763
O O14 0.481718 0.275305 0.184944
O O15 0.387311 0.251776 0.011703
O O16 0.515942 0.000000 0.151975
O O17 0.500000 0.253981 0.000000
O O18 0.837049 0.500000 0.864729
O O19 0.355501 0.000000 0.419425
#
# Coordination Sequence:
#
# PCOD9176411 Si02
#       7
#     8   8   8   8   8   8   8
#     4  11  24  41  63  87 115 151 195 244 293 349
#     4  10  21  39  62  85 112 152 204 245 280 345
#     4   9  18  36  62  89 114 149 199 243 284 341
#     4  12  24  35  54  87 125 155 188 243 303 352
#     4  10  18  34  61  85 113 159 205 240 277 336
#     4  10  21  40  62  84 111 152 203 243 280 344
#     4  10  21  38  62  89 118 150 188 244 299 346
#
# _framework density 21.480471000000001
#
# number of rings (size 3 to 8) (size 9 to 14) (size 15 to 20)
#    0.000    1.714    1.429    3.429    0.000    8.571 
#    0.000    2.857    0.000    0.000    0.000    0.000 
#    0.000    0.000    0.000    0.000    0.000    0.000 
#
# Total GULP energy -156513.801726 kJ/mol
# GULP energy per Si atom -5589.778633 kJ/mol
# Density = 2.143158 g / cm^3
# Si number density = 21.480471 Si / 1000 Ang^3
#
#
#
# Elastic Constant Matrix: (Units=GPa)
#
#
# Indices 1 2 3 4 5 6 
#
# 1 162.3554 8.0294 68.3613 0.0000 -8.4130 0.0000
# 2 8.0294 28.1475 -0.6728 0.0000 1.8687 0.0000
# 3 68.3613 -0.6728 148.5363 0.0000 -10.5474 0.0000
# 4 0.0000 0.0000 0.0000 13.7831 0.0000 7.4194
# 5 -8.4130 1.8687 -10.5474 0.0000 29.9262 0.0000
# 6 0.0000 0.0000 0.0000 7.4194 0.0000 6.7750
#
#
#
# Elastic Compliance Matrix: (Units=1/GPa)
#
#
# Indices 1 2 3 4 5 6 
#
# 1 0.007822 -0.002389 -0.003532 0.000000 0.001103 0.000000
# 2 -0.002389 0.036405 0.001082 0.000000 -0.002563 0.000000
# 3 -0.003532 0.001082 0.008500 0.000000 0.001935 0.000000
# 4 0.000000 0.000000 0.000000 0.176743 0.000000 -0.193556
# 5 0.001103 -0.002563 0.001935 0.000000 0.034568 0.000000
# 6 0.000000 0.000000 0.000000 -0.193556 0.000000 0.359570
#
#
# Mechanical properties :
#
#
# Convention : Reuss Voigt Hill
#
# Bulk Modulus (GPa) = 23.22935 54.49722 38.86329
# Shear Modulus (GPa) = 7.72039 27.65161 17.68600
#
# Velocity S-wave (km/s) = 1.89788 3.59178 2.87252
# Velocity P-wave (km/s) = 3.95477 6.52892 5.39755
#
# Compressibility (1/GPa) = 0.04304898
#
# Stress axis : x y z
#
# Youngs Moduli (GPa) = 127.84449 27.46902 117.64106
#
# Poissons Ratio (x) = 0.06562 0.41556
# Poissons Ratio (y) = 0.30542 -0.12733
# Poissons Ratio (z) = 0.45160 -0.02973
#
# Static dielectric constant tensor:
#      x y z
#    x 1.777540 0.000000 -0.010970 
#    y 0.000000 1.793320 0.000000 
#    z -0.010970 0.000000 1.739260 
# 
# From -- ./inp_files/180825.got.cif
#   From: 2010.05.17/outbox.cif.g08.bks.cpg/sg12_91_cif.got.tgz:180825.got - 2010.06.03 13:09:07.
