data_PCOD9176739
_publ_section_title
;
Structure prediction by ZEFSAII (Michael W. Deem and Ramdas Pophale) SiO2 
 PCOD9176739
Probable space group: C 2/M
;
_chemical_formula_sum "Si O2"
_cell_formula_units_Z 58
_cell_length_a 22.311859
_cell_length_b 16.847561
_cell_length_c 12.779488
_cell_angle_alpha 90.000000
_cell_angle_beta 41.836830
_cell_angle_gamma 90.000000
_cell_volume 3204.199798
_symmetry_space_group_name_H-M "C 2/M"
_symmetry_group_IT_number 12
_symmetry_cell_setting 'monoclinic'
loop_
_space_group_symop_operation_xyz
x,y,z
-x,y,-z
-x,-y,-z
x,-y,z
1/2+x,1/2+y,z
1/2-x,1/2+y,-z
1/2-x,1/2-y,-z
1/2+x,1/2-y,z
loop_
_atom_site_type_symbol
_atom_site_label
_atom_site_fract_x
_atom_site_fract_y
_atom_site_fract_z
Si Si1 0.083206 0.209799 0.448981
Si Si2 0.290751 0.591576 0.837745
Si Si3 0.291739 0.588201 0.437878
Si Si4 0.239197 0.792091 0.704183
Si Si5 0.978874 0.910865 0.295417
Si Si6 0.500000 0.000000 0.000000
Si Si7 0.329628 0.119570 0.202977
Si Si8 0.184081 0.091700 0.961115
O O1 0.134644 0.152024 0.301060
O O2 0.160660 0.261712 0.400517
O O3 0.041338 0.153794 0.591617
O O4 0.000000 0.252156 0.500000
O O5 0.322509 0.500000 0.793989
O O6 0.209470 0.599498 0.861349
O O7 0.270396 0.609653 0.985414
O O8 0.271646 0.500000 0.421518
O O9 0.261451 0.657753 0.401135
O O10 0.398432 0.594850 0.316722
O O11 0.243224 0.594606 0.613664
O O12 0.173305 0.715561 0.785348
O O13 0.211622 0.849171 0.834771
O O14 0.972654 0.000000 0.349141
O O15 0.077257 0.901818 0.119812
O O16 0.420133 0.070119 0.103082
O O17 0.204087 0.000000 0.908056
#
# Coordination Sequence:
#
# PCOD9176739 Si02
#       8
#     8   8   8   8   8   2   8   8
#     4  11  21  35  59  93 121 154 203 260 312 366
#     4  10  18  35  63  88 120 153 201 253 316 359
#     4  11  21  41  67  88 123 162 213 256 310 368
#     4  11  25  41  61  90 129 172 202 254 311 376
#     4  10  20  34  62  95 117 148 201 263 312 371
#     4  12  24  44  60  96 138 158 216 254 304 376
#     4  11  23  39  63  92 123 163 210 255 304 358
#     4  10  22  39  61  93 128 162 203 250 323 374
#
# _framework density 18.101244000000001
#
# number of rings (size 3 to 8) (size 9 to 14) (size 15 to 20)
#    0.000    1.379    5.517    1.241    0.000    4.414 
#    0.000    2.069    0.000    0.828    0.000    0.000 
#    0.000    0.000    0.000    0.000    0.000    0.000 
#
# Total GULP energy -161534.044619 kJ/mol
# GULP energy per Si atom -5570.139470 kJ/mol
# Density = 1.806004 g / cm^3
# Si number density = 18.101244 Si / 1000 Ang^3
#
#
#
# Elastic Constant Matrix: (Units=GPa)
#
#
# Indices 1 2 3 4 5 6 
#
# 1 89.7295 47.3636 42.4712 0.0000 -13.7124 0.0000
# 2 47.3636 102.1123 29.8452 0.0000 1.3678 0.0000
# 3 42.4712 29.8452 49.8967 0.0000 -5.1201 0.0000
# 4 0.0000 0.0000 0.0000 48.5317 0.0000 12.9751
# 5 -13.7124 1.3678 -5.1201 0.0000 26.5394 0.0000
# 6 0.0000 0.0000 0.0000 12.9751 0.0000 31.8527
#
#
#
# Elastic Compliance Matrix: (Units=1/GPa)
#
#
# Indices 1 2 3 4 5 6 
#
# 1 0.022951 -0.006473 -0.014703 0.000000 0.009355 0.000000
# 2 -0.006473 0.013801 -0.003225 0.000000 -0.004678 0.000000
# 3 -0.014703 -0.003225 0.034404 0.000000 -0.000793 0.000000
# 4 0.000000 0.000000 0.000000 0.023123 0.000000 -0.009419
# 5 0.009355 -0.004678 -0.000793 0.000000 0.042601 0.000000
# 6 0.000000 0.000000 0.000000 -0.009419 0.000000 0.035231
#
#
# Mechanical properties :
#
#
# Convention : Reuss Voigt Hill
#
# Bulk Modulus (GPa) = 44.73738 53.45536 49.09637
# Shear Modulus (GPa) = 21.89470 29.52199 25.70835
#
# Velocity S-wave (km/s) = 3.48166 4.04287 3.77271
# Velocity P-wave (km/s) = 6.39776 7.16857 6.79411
#
# Compressibility (1/GPa) = 0.02235267
#
# Stress axis : x y z
#
# Youngs Moduli (GPa) = 43.57196 72.45885 29.06623
#
# Poissons Ratio (x) = 0.46904 0.42737
# Poissons Ratio (y) = 0.28205 0.09374
# Poissons Ratio (z) = 0.64065 0.23368
#
# Static dielectric constant tensor:
#      x y z
#    x 1.654630 0.000000 0.002810 
#    y 0.000000 1.635310 0.000000 
#    z 0.002810 0.000000 1.585660 
# 
# From -- ./inp_files/168957.got.cif
#   From: 2010.05.17/outbox.cif.g08.bks.cpg/sg12_85_cif.got.tgz:168957.got - 2010.06.03 13:09:07.
