data_PCOD9176985
_publ_section_title
;
Structure prediction by ZEFSAII (Michael W. Deem and Ramdas Pophale) SiO2 
 PCOD9176985
Probable space group: C 2/M
;
_chemical_formula_sum "Si O2"
_cell_formula_units_Z 40
_cell_length_a 9.976244
_cell_length_b 27.839321
_cell_length_c 12.255162
_cell_angle_alpha 90.000000
_cell_angle_beta 146.843257
_cell_angle_gamma 90.000000
_cell_volume 1861.562233
_symmetry_space_group_name_H-M "C 2/M"
_symmetry_group_IT_number 12
_symmetry_cell_setting 'monoclinic'
loop_
_space_group_symop_operation_xyz
x,y,z
-x,y,-z
-x,-y,-z
x,-y,z
1/2+x,1/2+y,z
1/2-x,1/2+y,-z
1/2-x,1/2-y,-z
1/2+x,1/2-y,z
loop_
_atom_site_type_symbol
_atom_site_label
_atom_site_fract_x
_atom_site_fract_y
_atom_site_fract_z
Si Si1 0.489472 0.444221 0.145996
Si Si2 0.774877 0.189664 0.141320
Si Si3 0.054286 0.095590 0.410340
Si Si4 0.108396 0.601514 0.720416
Si Si5 0.720364 0.203783 0.846089
O O1 0.481766 0.500000 0.111747
O O2 0.435358 0.437903 0.236705
O O3 0.753941 0.422618 0.289105
O O4 0.294106 0.414184 0.943541
O O5 0.879548 0.242714 0.240788
O O6 0.952816 0.148425 0.307625
O O7 0.500000 0.182777 0.000000
O O8 0.732006 0.191132 0.982097
O O9 0.341187 0.088413 0.581138
O O10 0.000000 0.086653 0.500000
O O11 0.103502 0.659045 0.704566
O O12 0.000000 0.206249 0.000000
#
# Coordination Sequence:
#
# PCOD9176985 Si02
#       5
#     8   8   8   8   8
#     4  11  25  46  71  96 128 170 225 288 338 380
#     4  10  21  38  61  92 135 177 211 259 321 390
#     4  12  26  40  65  99 136 178 216 266 331 404
#     4  11  21  42  71  98 128 169 221 280 333 386
#     4  10  18  36  66  93 125 172 221 261 317 390
#
# _framework density 21.487328000000002
#
# number of rings (size 3 to 8) (size 9 to 14) (size 15 to 20)
#    0.000    1.200    4.000    3.000    0.000    3.600 
#    0.000    3.000    0.000    0.000    0.000    0.000 
#    0.000    0.000    0.000    0.000    0.000    0.000 
#
# Total GULP energy -111637.727740 kJ/mol
# GULP energy per Si atom -5581.886387 kJ/mol
# Density = 2.143842 g / cm^3
# Si number density = 21.487328 Si / 1000 Ang^3
#
#
#
# Elastic Constant Matrix: (Units=GPa)
#
#
# Indices 1 2 3 4 5 6 
#
# 1 163.4421 27.8077 50.0003 0.0000 -15.3200 0.0000
# 2 27.8077 109.1305 4.6061 0.0000 -9.5082 0.0000
# 3 50.0003 4.6061 69.5176 0.0000 -0.2742 0.0000
# 4 0.0000 0.0000 0.0000 -8.0465 0.0000 4.7305
# 5 -15.3200 -9.5082 -0.2742 0.0000 30.2388 0.0000
# 6 0.0000 0.0000 0.0000 4.7305 0.0000 22.9121
#
#
#
# Elastic Compliance Matrix: (Units=1/GPa)
#
#
# Indices 1 2 3 4 5 6 
#
# 1 0.008604 -0.001605 -0.006067 0.000000 0.003799 0.000000
# 2 -0.001605 0.009747 0.000518 0.000000 0.002256 0.000000
# 3 -0.006067 0.000518 0.018703 0.000000 -0.002741 0.000000
# 4 0.000000 0.000000 0.000000 -0.110826 0.000000 0.022881
# 5 0.003799 0.002256 -0.002741 0.000000 0.035679 0.000000
# 6 0.000000 0.000000 0.000000 0.022881 0.000000 0.038921
#
#
# Mechanical properties :
#
#
# Convention : Reuss Voigt Hill
#
# Bulk Modulus (GPa) = 43.96531 56.32427 50.14479
# Shear Modulus (GPa) = 220.08644 26.33262 123.20953
#
# Velocity S-wave (km/s) = 10.13156 3.50451 7.58057
# Velocity P-wave (km/s) = 12.54473 6.53032 10.00038
#
# Compressibility (1/GPa) = 0.02274521
#
# Stress axis : x y z
#
# Youngs Moduli (GPa) = 116.23167 102.59461 53.46686
#
# Poissons Ratio (x) = 0.16469 0.32437
# Poissons Ratio (y) = 0.18658 -0.02768
# Poissons Ratio (z) = 0.70514 -0.05311
#
# Static dielectric constant tensor:
#      x y z
#    x 1.776910 0.000000 -0.031110 
#    y 0.000000 1.808470 0.000000 
#    z -0.031110 0.000000 1.815270 
# 
# From -- ./inp_files/125468.got.cif
#   From: 2010.05.17/outbox.cif.g08.bks.cpg/sg12_63_cif.got.tgz:125468.got - 2010.06.03 13:09:07.
