data_PCOD9176040
_publ_section_title
;
Structure prediction by ZEFSAII (Michael W. Deem and Ramdas Pophale) SiO2 
 PCOD9176040
Probable space group: C 2/M
;
_chemical_formula_sum "Si O2"
_cell_formula_units_Z 52
_cell_length_a 19.061590
_cell_length_b 17.050266
_cell_length_c 8.709268
_cell_angle_alpha 90.000000
_cell_angle_beta 56.454799
_cell_angle_gamma 90.000000
_cell_volume 2359.128294
_symmetry_space_group_name_H-M "C 2/M"
_symmetry_group_IT_number 12
_symmetry_cell_setting 'monoclinic'
loop_
_space_group_symop_operation_xyz
x,y,z
-x,y,-z
-x,-y,-z
x,-y,z
1/2+x,1/2+y,z
1/2-x,1/2+y,-z
1/2-x,1/2-y,-z
1/2+x,1/2-y,z
loop_
_atom_site_type_symbol
_atom_site_label
_atom_site_fract_x
_atom_site_fract_y
_atom_site_fract_z
Si Si1 0.820189 0.843721 0.360024
Si Si2 0.479633 0.303712 0.351781
Si Si3 0.313923 0.829076 0.263396
Si Si4 0.269159 0.156591 0.984161
Si Si5 0.107342 0.911624 0.018635
Si Si6 0.461898 0.123385 0.706169
Si Si7 0.500000 0.117633 0.000000
O O1 0.883803 0.819196 0.419037
O O2 0.732189 0.870244 0.538693
O O3 0.798522 0.763948 0.294704
O O4 0.869955 0.900127 0.187092
O O5 0.500000 0.330935 0.500000
O O6 0.539641 0.349295 0.160758
O O7 0.500924 0.211675 0.321038
O O8 0.274812 0.862659 0.156761
O O9 0.413422 0.836980 0.132254
O O10 0.361366 0.135093 0.808429
O O11 0.250000 0.250000 0.000000
O O12 0.194719 0.109040 0.996665
O O13 0.079613 0.000000 0.083605
O O14 0.500000 0.091456 0.500000
O O15 0.482280 0.083774 0.847819
#
# Coordination Sequence:
#
# PCOD9176040 Si02
#       7
#     8   8   8   8   8   8   4
#     4  11  22  35  60  91 129 160 209 255 311 373
#     4  11  22  37  59  89 127 168 210 252 306 381
#     4  10  21  34  60  94 122 157 203 267 318 362
#     4  11  20  37  60  90 119 159 203 259 310 366
#     4  12  26  41  60  88 128 172 209 254 314 382
#     4  10  21  31  59  95 124 153 204 262 319 370
#     4  10  18  34  52  90 134 152 190 262 332 372
#
# _framework density 22.042041000000001
#
# number of rings (size 3 to 8) (size 9 to 14) (size 15 to 20)
#    0.000    1.231    4.615    2.308    4.308    1.538 
#    0.000    2.308    0.000    0.462    0.000    2.692 
#    0.000    0.000    0.000    0.000    0.000    0.000 
#
# Total GULP energy -145157.915454 kJ/mol
# GULP energy per Si atom -5582.996748 kJ/mol
# Density = 2.199187 g / cm^3
# Si number density = 22.042041 Si / 1000 Ang^3
#
#
#
# Elastic Constant Matrix: (Units=GPa)
#
#
# Indices 1 2 3 4 5 6 
#
# 1 106.0304 -1.0326 34.6858 0.0000 2.8702 0.0000
# 2 -1.0326 64.8067 21.5031 0.0000 3.7952 0.0000
# 3 34.6858 21.5031 157.9420 0.0000 -2.6624 0.0000
# 4 0.0000 0.0000 0.0000 -12.2816 0.0000 -2.6872
# 5 2.8702 3.7952 -2.6624 0.0000 35.2050 0.0000
# 6 0.0000 0.0000 0.0000 -2.6872 0.0000 -3.1280
#
#
#
# Elastic Compliance Matrix: (Units=1/GPa)
#
#
# Indices 1 2 3 4 5 6 
#
# 1 0.010261 0.001030 -0.002413 0.000000 -0.001130 0.000000
# 2 0.001030 0.016393 -0.002493 0.000000 -0.002040 0.000000
# 3 -0.002413 -0.002493 0.007218 0.000000 0.001011 0.000000
# 4 0.000000 0.000000 0.000000 -0.100269 0.000000 0.086138
# 5 -0.001130 -0.002040 0.001011 0.000000 0.028794 0.000000
# 6 0.000000 0.000000 0.000000 0.086138 0.000000 -0.393687
#
#
# Mechanical properties :
#
#
# Convention : Reuss Voigt Hill
#
# Bulk Modulus (GPa) = 38.28166 48.78797 43.53481
# Shear Modulus (GPa) = -12.05305 22.20059 5.07377
#
# Velocity S-wave (km/s) = -2.34096 3.17707 1.51883
# Velocity P-wave (km/s) = 3.17781 5.96997 4.78221
#
# Compressibility (1/GPa) = 0.02612217
#
# Stress axis : x y z
#
# Youngs Moduli (GPa) = 97.45470 61.00012 138.54827
#
# Poissons Ratio (x) = -0.06285 0.33429
# Poissons Ratio (y) = -0.10040 0.34533
# Poissons Ratio (z) = 0.23514 0.15204
#
# Static dielectric constant tensor:
#      x y z
#    x 1.812910 0.000000 0.042990 
#    y 0.000000 1.772450 0.000000 
#    z 0.042990 0.000000 1.853850 
# 
# From -- ./inp_files/88378.got.cif
#   From: 2010.05.17/outbox.cif.g08.bks.cpg/sg12_45_cif.got.tgz:88378.got - 2010.06.03 13:09:07.
