data_PCOD9176027
_publ_section_title
;
Structure prediction by ZEFSAII (Michael W. Deem and Ramdas Pophale) SiO2 
 PCOD9176027
Probable space group: C 2/M
;
_chemical_formula_sum "Si O2"
_cell_formula_units_Z 40
_cell_length_a 15.857358
_cell_length_b 32.283648
_cell_length_c 5.331676
_cell_angle_alpha 90.000000
_cell_angle_beta 54.417488
_cell_angle_gamma 90.000000
_cell_volume 2219.813165
_symmetry_space_group_name_H-M "C 2/M"
_symmetry_group_IT_number 12
_symmetry_cell_setting 'monoclinic'
loop_
_space_group_symop_operation_xyz
x,y,z
-x,y,-z
-x,-y,-z
x,-y,z
1/2+x,1/2+y,z
1/2-x,1/2+y,-z
1/2-x,1/2-y,-z
1/2+x,1/2-y,z
loop_
_atom_site_type_symbol
_atom_site_label
_atom_site_fract_x
_atom_site_fract_y
_atom_site_fract_z
Si Si1 0.572738 0.000000 0.626666
Si Si2 0.120071 0.795378 0.259429
Si Si3 0.380228 0.241885 0.242260
Si Si4 0.310474 0.837920 0.147754
Si Si5 0.887283 0.588694 0.325155
Si Si6 0.000000 0.646197 0.500000
O O1 0.500000 0.000000 0.500000
O O2 0.638467 0.042467 0.537806
O O3 0.500000 0.000000 0.000000
O O4 0.132072 0.762422 0.464819
O O5 0.208777 0.829584 0.158185
O O6 0.000000 0.810232 0.500000
O O7 0.138016 0.772735 0.962926
O O8 0.316114 0.199454 0.337852
O O9 0.500000 0.232103 0.000000
O O10 0.316736 0.883225 0.265403
O O11 0.420503 0.830355 0.815622
O O12 0.916797 0.617138 0.506710
O O13 0.000000 0.585089 0.000000
#
# Coordination Sequence:
#
# PCOD9176027 Si02
#       6
#     4   8   8   8   8   4
#     4  10  18  34  52  72 109 143 169 205 256 325
#     4  10  23  38  54  73 102 143 184 223 263 301
#     4  10  21  36  53  74 103 139 178 222 266 312
#     4  11  22  33  53  78 106 138 180 219 264 312
#     4   9  19  32  49  76 104 142 170 207 258 320
#     4  10  20  31  50  78 108 136 166 210 266 315
#
# _framework density 18.019535000000001
#
# number of rings (size 3 to 8) (size 9 to 14) (size 15 to 20)
#    0.000    2.000    1.000    3.000    9.800    0.000 
#    0.000    0.000    0.000    0.000    0.000    0.700 
#    0.000    1.600    0.000    0.000    0.000    0.200 
#
# Total GULP energy -111385.463060 kJ/mol
# GULP energy per Si atom -5569.273153 kJ/mol
# Density = 1.797852 g / cm^3
# Si number density = 18.019535 Si / 1000 Ang^3
#
#
#
# Elastic Constant Matrix: (Units=GPa)
#
#
# Indices 1 2 3 4 5 6 
#
# 1 108.6675 73.9371 25.9761 0.0000 0.3651 0.0000
# 2 73.9371 100.4952 18.7565 0.0000 5.9767 0.0000
# 3 25.9761 18.7565 72.3493 0.0000 10.0336 0.0000
# 4 0.0000 0.0000 0.0000 -4.0226 0.0000 -11.3688
# 5 0.3651 5.9767 10.0336 0.0000 35.0464 0.0000
# 6 0.0000 0.0000 0.0000 -11.3688 0.0000 14.7236
#
#
#
# Elastic Compliance Matrix: (Units=1/GPa)
#
#
# Indices 1 2 3 4 5 6 
#
# 1 0.019540 -0.013846 -0.003879 0.000000 0.003268 0.000000
# 2 -0.013846 0.020306 0.000174 0.000000 -0.003368 0.000000
# 3 -0.003879 0.000174 0.015795 0.000000 -0.004511 0.000000
# 4 0.000000 0.000000 0.000000 -0.078118 0.000000 -0.060319
# 5 0.003268 -0.003368 -0.004511 0.000000 0.030366 0.000000
# 6 0.000000 0.000000 0.000000 -0.060319 0.000000 0.021343
#
#
# Mechanical properties :
#
#
# Convention : Reuss Voigt Hill
#
# Bulk Modulus (GPa) = 48.68991 57.65016 53.17003
# Shear Modulus (GPa) = 70.24637 20.00562 45.12599
#
# Velocity S-wave (km/s) = 6.25045 3.33561 5.00971
# Velocity P-wave (km/s) = 8.89776 6.84819 7.93939
#
# Compressibility (1/GPa) = 0.02053814
#
# Stress axis : x y z
#
# Youngs Moduli (GPa) = 51.17823 49.24768 63.31100
#
# Poissons Ratio (x) = 0.68189 0.24559
# Poissons Ratio (y) = 0.70862 -0.01103
# Poissons Ratio (z) = 0.19852 -0.00858
#
# Static dielectric constant tensor:
#      x y z
#    x 1.665430 0.000000 0.012160 
#    y 0.000000 1.681530 0.000000 
#    z 0.012160 0.000000 1.540280 
# 
# From -- ./inp_files/12632.got.cif
#   From: 2010.05.17/outbox.cif.g08.bks.cpg/sg12_7_cif.got.tgz:12632.got - 2010.06.03 13:09:07.
