data_PCOD9176917
_publ_section_title
;
Structure prediction by ZEFSAII (Michael W. Deem and Ramdas Pophale) SiO2 
 PCOD9176917
Probable space group: C 2/M
;
_chemical_formula_sum "Si O2"
_cell_formula_units_Z 56
_cell_length_a 8.374038
_cell_length_b 28.702542
_cell_length_c 15.505125
_cell_angle_alpha 90.000000
_cell_angle_beta 44.657519
_cell_angle_gamma 90.000000
_cell_volume 2619.413262
_symmetry_space_group_name_H-M "C 2/M"
_symmetry_group_IT_number 12
_symmetry_cell_setting 'monoclinic'
loop_
_space_group_symop_operation_xyz
x,y,z
-x,y,-z
-x,-y,-z
x,-y,z
1/2+x,1/2+y,z
1/2-x,1/2+y,-z
1/2-x,1/2-y,-z
1/2+x,1/2-y,z
loop_
_atom_site_type_symbol
_atom_site_label
_atom_site_fract_x
_atom_site_fract_y
_atom_site_fract_z
Si Si1 0.253843 0.666550 0.938515
Si Si2 0.403063 0.732510 0.725965
Si Si3 0.238057 0.660365 0.454452
Si Si4 0.371525 0.597121 0.243468
Si Si5 0.733492 0.000000 0.626924
Si Si6 0.522405 0.809429 0.191897
Si Si7 0.399538 0.896371 0.323638
Si Si8 0.177684 0.500000 0.352687
O O1 0.359704 0.704353 0.832350
O O2 0.404698 0.619930 0.883100
O O3 0.221629 0.687755 0.046128
O O4 0.000000 0.657332 0.000000
O O5 0.607110 0.706243 0.599498
O O6 0.415780 0.787348 0.740179
O O7 0.175571 0.724442 0.761413
O O8 0.339171 0.626092 0.343326
O O9 0.222776 0.629454 0.547858
O O10 0.000000 0.673435 0.500000
O O11 0.342537 0.544023 0.283936
O O12 0.159353 0.601398 0.259025
O O13 0.697974 0.054137 0.671050
O O14 0.513601 0.000000 0.647969
O O15 0.000000 0.000000 0.500000
O O16 0.408375 0.859678 0.243418
O O17 0.000000 0.500000 0.500000
#
# Coordination Sequence:
#
# PCOD9176917 Si02
#       8
#     8   8   8   8   4   8   8   4
#     4   9  20  41  60  84 118 161 203 251 296 354
#     4  10  23  39  60  85 119 158 202 251 300 364
#     4   9  19  36  58  86 123 157 194 246 305 366
#     4   9  18  36  62  86 122 157 200 251 301 353
#     4  10  22  38  61  86 123 159 198 242 292 358
#     4  11  24  39  60  89 120 157 207 249 305 360
#     4  10  22  38  59  91 121 159 201 246 308 367
#     4  10  18  36  62 100 116 156 208 246 299 373
#
# _framework density 21.378833
#
# number of rings (size 3 to 8) (size 9 to 14) (size 15 to 20)
#    0.000    2.286    0.000    2.571    8.000    1.143 
#    2.571    1.071    0.000    2.571    0.000    0.000 
#    0.000    0.000    0.000    0.000    0.000    0.000 
#
# Total GULP energy -156021.573572 kJ/mol
# GULP energy per Si atom -5572.199056 kJ/mol
# Density = 2.133017 g / cm^3
# Si number density = 21.378833 Si / 1000 Ang^3
#
#
#
# Elastic Constant Matrix: (Units=GPa)
#
#
# Indices 1 2 3 4 5 6 
#
# 1 16.0744 15.9410 13.4329 0.0000 -1.5264 0.0000
# 2 15.9410 111.8988 38.8248 0.0000 -29.0278 0.0000
# 3 13.4329 38.8248 48.6596 0.0000 -18.0352 0.0000
# 4 0.0000 0.0000 0.0000 4.5056 0.0000 -5.6823
# 5 -1.5264 -29.0278 -18.0352 0.0000 18.8664 0.0000
# 6 0.0000 0.0000 0.0000 -5.6823 0.0000 24.4534
#
#
#
# Elastic Compliance Matrix: (Units=1/GPa)
#
#
# Indices 1 2 3 4 5 6 
#
# 1 0.099990 -0.014796 -0.032890 0.000000 -0.046117 0.000000
# 2 -0.014796 0.017979 -0.000699 0.000000 0.025797 0.000000
# 3 -0.032890 -0.000699 0.044609 0.000000 0.038907 0.000000
# 4 0.000000 0.000000 0.000000 0.313958 0.000000 0.072956
# 5 -0.046117 0.025797 0.038907 0.000000 0.126158 0.000000
# 6 0.000000 0.000000 0.000000 0.072956 0.000000 0.057847
#
#
# Mechanical properties :
#
#
# Convention : Reuss Voigt Hill
#
# Bulk Modulus (GPa) = 15.19595 34.78114 24.98855
# Shear Modulus (GPa) = 6.41644 16.79400 11.60522
#
# Velocity S-wave (km/s) = 1.73431 2.80580 2.33241
# Velocity P-wave (km/s) = 3.33674 5.17696 4.35515
#
# Compressibility (1/GPa) = 0.06580700
#
# Stress axis : x y z
#
# Youngs Moduli (GPa) = 10.00099 55.61983 22.41704
#
# Poissons Ratio (x) = 0.82295 0.73730
# Poissons Ratio (y) = 0.14797 0.01568
# Poissons Ratio (z) = 0.32894 0.03890
#
# Static dielectric constant tensor:
#      x y z
#    x 1.741910 0.000000 -0.001250 
#    y 0.000000 1.788710 0.000000 
#    z -0.001250 0.000000 1.796480 
# 
# From -- ./inp_files/259841.got.cif
#   From: 2010.05.17/outbox.cif.g08.bks.cpg/sg12_130_cif.got.tgz:259841.got - 2010.06.03 13:09:07.
