data_PCOD9176609
_publ_section_title
;
Structure prediction by ZEFSAII (Michael W. Deem and Ramdas Pophale) SiO2 
 PCOD9176609
Probable space group: C 2/M
;
_chemical_formula_sum "Si O2"
_cell_formula_units_Z 56
_cell_length_a 14.081903
_cell_length_b 31.783698
_cell_length_c 14.849735
_cell_angle_alpha 90.000000
_cell_angle_beta 151.100049
_cell_angle_gamma 90.000000
_cell_volume 3212.068283
_symmetry_space_group_name_H-M "C 2/M"
_symmetry_group_IT_number 12
_symmetry_cell_setting 'monoclinic'
loop_
_space_group_symop_operation_xyz
x,y,z
-x,y,-z
-x,-y,-z
x,-y,z
1/2+x,1/2+y,z
1/2-x,1/2+y,-z
1/2-x,1/2-y,-z
1/2+x,1/2-y,z
loop_
_atom_site_type_symbol
_atom_site_label
_atom_site_fract_x
_atom_site_fract_y
_atom_site_fract_z
Si Si1 0.458356 0.591241 0.189872
Si Si2 0.034658 0.450060 0.804258
Si Si3 0.530506 0.236407 0.919353
Si Si4 0.101138 0.189813 0.843071
Si Si5 0.645634 0.308044 0.537991
Si Si6 0.351711 0.591854 0.457082
Si Si7 0.348989 0.050298 0.453522
O O1 0.425966 0.641255 0.154117
O O2 0.534946 0.582820 0.355232
O O3 0.639551 0.574025 0.280051
O O4 0.249288 0.569368 0.998694
O O5 0.045252 0.500000 0.825771
O O6 0.858303 0.431117 0.718204
O O7 0.959803 0.441651 0.640086
O O8 0.587646 0.279643 0.917427
O O9 0.334907 0.219533 0.711204
O O10 0.500000 0.241750 0.000000
O O11 0.693887 0.201063 0.034804
O O12 0.944478 0.200158 0.634854
O O13 0.500000 0.298503 0.500000
O O14 0.686774 0.358016 0.578013
O O15 0.500000 0.580589 0.500000
O O16 0.500000 0.062273 0.500000
O O17 0.311554 0.000000 0.416165
#
# Coordination Sequence:
#
# PCOD9176609 Si02
#       7
#     8   8   8   8   8   8   8
#     4  10  20  37  56  81 110 143 183 224 271 324
#     4  10  20  35  56  81 111 146 181 222 271 319
#     4  11  21  36  56  81 111 141 181 227 271 328
#     4  10  22  37  55  80 111 146 178 225 277 319
#     4  10  18  35  59  78 103 144 185 221 267 320
#     4   9  20  35  54  81 110 143 186 227 264 314
#     4   9  19  37  59  82 109 142 182 225 268 321
#
# _framework density 17.434249000000001
#
# number of rings (size 3 to 8) (size 9 to 14) (size 15 to 20)
#    0.000    2.143    1.429    1.714    0.000    2.000 
#    2.571    3.571    0.000    0.000    0.000    0.000 
#    0.000    0.000    0.000    0.000    0.000    0.000 
#
# Total GULP energy -156163.510089 kJ/mol
# GULP energy per Si atom -5577.268217 kJ/mol
# Density = 1.739457 g / cm^3
# Si number density = 17.434249 Si / 1000 Ang^3
#
#
#
# Elastic Constant Matrix: (Units=GPa)
#
#
# Indices 1 2 3 4 5 6 
#
# 1 112.7032 36.3052 7.5050 0.0000 25.5550 0.0000
# 2 36.3052 48.1636 29.6831 0.0000 19.2765 0.0000
# 3 7.5050 29.6831 37.4616 0.0000 37.9167 0.0000
# 4 0.0000 0.0000 0.0000 28.2833 0.0000 0.9297
# 5 25.5550 19.2765 37.9167 0.0000 21.2263 0.0000
# 6 0.0000 0.0000 0.0000 0.9297 0.0000 13.4932
#
#
#
# Elastic Compliance Matrix: (Units=1/GPa)
#
#
# Indices 1 2 3 4 5 6 
#
# 1 0.008445 -0.005132 -0.009837 0.000000 0.012065 0.000000
# 2 -0.005132 0.034963 0.000980 0.000000 -0.027323 0.000000
# 3 -0.009837 0.000980 -0.020794 0.000000 0.048098 0.000000
# 4 0.000000 0.000000 0.000000 0.035437 0.000000 -0.002442
# 5 0.012065 -0.027323 0.048098 0.000000 -0.028519 0.000000
# 6 0.000000 0.000000 0.000000 -0.002442 0.000000 0.074280
#
#
# Mechanical properties :
#
#
# Convention : Reuss Voigt Hill
#
# Bulk Modulus (GPa) = -186.41281 38.36833 -74.02224
# Shear Modulus (GPa) = 38.46099 20.92291 29.69195
#
# Velocity S-wave (km/s) = 4.70197 3.46801 4.13132
# Velocity P-wave (km/s) = 8.81348 6.17182 4.44894
#
# Compressibility (1/GPa) = -0.00536444
#
# Stress axis : x y z
#
# Youngs Moduli (GPa) = 118.40658 28.60183 -48.09010
#
# Poissons Ratio (x) = 0.14680 -0.47307
# Poissons Ratio (y) = 0.60771 0.04714
# Poissons Ratio (z) = 1.16478 -0.02804
#
# Static dielectric constant tensor:
#      x y z
#    x 1.597230 0.000000 0.011000 
#    y 0.000000 1.574510 0.000000 
#    z 0.011000 0.000000 1.608890 
# 
# From -- ./inp_files/219383.got.cif
#   From: 2010.05.17/outbox.cif.g08.bks.cpg/sg12_110_cif.got.tgz:219383.got - 2010.06.03 13:09:07.
