data_PCOD9176580
_publ_section_title
;
Structure prediction by ZEFSAII (Michael W. Deem and Ramdas Pophale) SiO2 
 PCOD9176580
Probable space group: C 2/M
;
_chemical_formula_sum "Si O2"
_cell_formula_units_Z 56
_cell_length_a 16.309205
_cell_length_b 20.888135
_cell_length_c 7.638710
_cell_angle_alpha 90.000000
_cell_angle_beta 62.077947
_cell_angle_gamma 90.000000
_cell_volume 2299.328595
_symmetry_space_group_name_H-M "C 2/M"
_symmetry_group_IT_number 12
_symmetry_cell_setting 'monoclinic'
loop_
_space_group_symop_operation_xyz
x,y,z
-x,y,-z
-x,-y,-z
x,-y,z
1/2+x,1/2+y,z
1/2-x,1/2+y,-z
1/2-x,1/2-y,-z
1/2+x,1/2-y,z
loop_
_atom_site_type_symbol
_atom_site_label
_atom_site_fract_x
_atom_site_fract_y
_atom_site_fract_z
Si Si1 0.446537 0.276879 0.730758
Si Si2 0.754631 0.571875 0.416152
Si Si3 0.205995 0.575506 0.229535
Si Si4 0.413642 0.384478 0.990525
Si Si5 0.790087 0.199219 0.673881
Si Si6 0.608484 0.252610 0.770473
Si Si7 0.915918 0.426726 0.969239
O O1 0.500000 0.264339 0.500000
O O2 0.455091 0.351433 0.776766
O O3 0.338731 0.272564 0.796462
O O4 0.503058 0.237792 0.818963
O O5 0.715529 0.500000 0.483826
O O6 0.793956 0.596370 0.565680
O O7 0.688989 0.625854 0.399296
O O8 0.834353 0.566457 0.192335
O O9 0.187338 0.500000 0.253459
O O10 0.313700 0.584120 0.063059
O O11 0.131471 0.601748 0.161644
O O12 0.500000 0.419036 0.000000
O O13 0.391389 0.320843 0.130278
O O14 0.679537 0.206245 0.795617
O O15 0.837317 0.237351 0.467381
O O16 0.947481 0.500000 0.889714
O O17 0.000000 0.397801 0.000000
#
# Coordination Sequence:
#
# PCOD9176580 Si02
#       7
#     8   8   8   8   8   8   8
#     4   9  19  34  56  81 109 152 190 238 294 346
#     4  10  20  35  60  89 119 156 197 241 294 353
#     4  10  20  35  57  85 116 153 199 245 293 349
#     4  10  19  35  55  80 115 149 193 241 292 351
#     4  10  18  35  58  78 115 149 188 239 293 346
#     4   9  19  34  55  79 108 150 194 235 291 346
#     4   9  19  36  56  79 112 153 195 241 292 346
#
# _framework density 24.354937
#
# number of rings (size 3 to 8) (size 9 to 14) (size 15 to 20)
#    0.000    2.429    1.429    0.857    0.000    1.429 
#    0.000    6.429    6.286    5.143    0.000    0.000 
#    0.000    0.000    0.000    0.000    0.000    0.000 
#
# Total GULP energy -155888.085093 kJ/mol
# GULP energy per Si atom -5567.431610 kJ/mol
# Density = 2.429950 g / cm^3
# Si number density = 24.354937 Si / 1000 Ang^3
#
#
#
# Elastic Constant Matrix: (Units=GPa)
#
#
# Indices 1 2 3 4 5 6 
#
# 1 211.2510 45.1838 26.8278 0.0000 15.0760 0.0000
# 2 45.1838 53.3322 7.6590 0.0000 10.1266 0.0000
# 3 26.8278 7.6590 51.8351 0.0000 23.9864 0.0000
# 4 0.0000 0.0000 0.0000 18.9707 0.0000 -2.5181
# 5 15.0760 10.1266 23.9864 0.0000 31.4079 0.0000
# 6 0.0000 0.0000 0.0000 -2.5181 0.0000 22.9551
#
#
#
# Elastic Compliance Matrix: (Units=1/GPa)
#
#
# Indices 1 2 3 4 5 6 
#
# 1 0.006080 -0.004900 -0.002789 0.000000 0.000792 0.000000
# 2 -0.004900 0.023923 0.002292 0.000000 -0.007112 0.000000
# 3 -0.002789 0.002292 0.031115 0.000000 -0.023164 0.000000
# 4 0.000000 0.000000 0.000000 0.053492 0.000000 0.005868
# 5 0.000792 -0.007112 -0.023164 0.000000 0.051442 0.000000
# 6 0.000000 0.000000 0.000000 0.005868 0.000000 0.044207
#
#
# Mechanical properties :
#
#
# Convention : Reuss Voigt Hill
#
# Bulk Modulus (GPa) = 19.87100 52.86219 36.36659
# Shear Modulus (GPa) = 21.02363 30.44992 25.73678
#
# Velocity S-wave (km/s) = 2.94125 3.53973 3.25428
# Velocity P-wave (km/s) = 4.43973 6.20148 5.39303
#
# Compressibility (1/GPa) = 0.05032459
#
# Stress axis : x y z
#
# Youngs Moduli (GPa) = 164.48680 41.80022 32.13849
#
# Poissons Ratio (x) = 0.20484 0.08963
# Poissons Ratio (y) = 0.80606 -0.07367
# Poissons Ratio (z) = 0.45871 -0.09582
#
# Static dielectric constant tensor:
#      x y z
#    x 2.074580 0.000000 0.048090 
#    y 0.000000 1.977600 0.000000 
#    z 0.048090 0.000000 1.967490 
# 
# From -- ./inp_files/66854.got.cif
#   From: 2010.05.17/outbox.cif.g08.bks.cpg/sg12_34_cif.got.tgz:66854.got - 2010.06.03 13:09:07.
