data_PCOD9176350
_publ_section_title
;
Structure prediction by ZEFSAII (Michael W. Deem and Ramdas Pophale) SiO2 
 PCOD9176350
Probable space group: C 2/M
;
_chemical_formula_sum "Si O2"
_cell_formula_units_Z 52
_cell_length_a 10.680926
_cell_length_b 28.419014
_cell_length_c 8.861418
_cell_angle_alpha 90.000000
_cell_angle_beta 90.954436
_cell_angle_gamma 90.000000
_cell_volume 2689.433908
_symmetry_space_group_name_H-M "C 2/M"
_symmetry_group_IT_number 12
_symmetry_cell_setting 'monoclinic'
loop_
_space_group_symop_operation_xyz
x,y,z
-x,y,-z
-x,-y,-z
x,-y,z
1/2+x,1/2+y,z
1/2-x,1/2+y,-z
1/2-x,1/2-y,-z
1/2+x,1/2-y,z
loop_
_atom_site_type_symbol
_atom_site_label
_atom_site_fract_x
_atom_site_fract_y
_atom_site_fract_z
Si Si1 0.291370 0.597130 0.811960
Si Si2 0.129254 0.000000 0.098077
Si Si3 0.644524 0.407795 0.535119
Si Si4 0.000000 0.846334 0.000000
Si Si5 0.907415 0.326455 0.278083
Si Si6 0.572568 0.500000 0.655440
Si Si7 0.680255 0.825125 0.380267
Si Si8 0.172724 0.768128 0.855357
O O1 0.289261 0.547641 0.902908
O O2 0.302229 0.584684 0.633320
O O3 0.413710 0.622839 0.885350
O O4 0.178049 0.635048 0.809966
O O5 0.050189 0.000000 0.247961
O O6 0.000000 0.000000 0.000000
O O7 0.500000 0.395893 0.500000
O O8 0.650556 0.452287 0.648494
O O9 0.716929 0.365634 0.613296
O O10 0.910349 0.812308 0.095257
O O11 0.849421 0.316062 0.443616
O O12 0.909034 0.276421 0.195921
O O13 0.049646 0.342334 0.306112
O O14 0.500000 0.500000 0.500000
O O15 0.736414 0.783332 0.280328
O O16 0.250000 0.750000 0.000000
#
# Coordination Sequence:
#
# PCOD9176350 Si02
#       8
#     8   4   8   4   8   4   8   8
#     4  11  21  37  58  89 122 157 197 257 300 367
#     4  12  22  34  61  89 129 157 197 258 321 352
#     4  10  18  36  62  88 115 150 205 255 301 353
#     4  12  24  37  58  94 124 153 210 248 316 364
#     4  10  23  43  58  88 124 160 211 249 299 373
#     4  10  18  34  59  91 115 149 203 253 307 361
#     4  10  23  40  63  86 121 166 199 254 310 357
#     4  12  23  40  62  85 121 162 201 254 304 363
#
# _framework density 19.334923
#
# number of rings (size 3 to 8) (size 9 to 14) (size 15 to 20)
#    0.000    1.231    5.385    2.308    0.000    0.000 
#    5.538    0.769    0.000    3.692    0.000    2.154 
#    0.000    0.000    0.000    0.000    0.000    0.000 
#
# Total GULP energy -144844.912349 kJ/mol
# GULP energy per Si atom -5570.958167 kJ/mol
# Density = 1.929092 g / cm^3
# Si number density = 19.334923 Si / 1000 Ang^3
#
#
#
# Elastic Constant Matrix: (Units=GPa)
#
#
# Indices 1 2 3 4 5 6 
#
# 1 73.8116 42.4900 17.3353 0.0000 19.3872 0.0000
# 2 42.4900 116.2837 24.4795 0.0000 20.2657 0.0000
# 3 17.3353 24.4795 43.6484 0.0000 20.1567 0.0000
# 4 0.0000 0.0000 0.0000 0.2458 0.0000 -0.3252
# 5 19.3872 20.2657 20.1567 0.0000 30.3292 0.0000
# 6 0.0000 0.0000 0.0000 -0.3252 0.0000 15.5145
#
#
#
# Elastic Compliance Matrix: (Units=1/GPa)
#
#
# Indices 1 2 3 4 5 6 
#
# 1 0.018914 -0.005348 -0.000836 0.000000 -0.007961 0.000000
# 2 -0.005348 0.011640 -0.003450 0.000000 -0.002067 0.000000
# 3 -0.000836 -0.003450 0.034434 0.000000 -0.020045 0.000000
# 4 0.000000 0.000000 0.000000 4.185094 0.000000 0.087719
# 5 -0.007961 -0.002067 -0.020045 0.000000 0.052763 0.000000
# 6 0.000000 0.000000 0.000000 0.087719 0.000000 0.066294
#
#
# Mechanical properties :
#
#
# Convention : Reuss Voigt Hill
#
# Bulk Modulus (GPa) = 21.87201 44.70591 33.28896
# Shear Modulus (GPa) = 1.13542 19.18049 10.15796
#
# Velocity S-wave (km/s) = 0.76715 3.15304 2.29458
# Velocity P-wave (km/s) = 3.48158 6.03553 4.92692
#
# Compressibility (1/GPa) = 0.04572054
#
# Stress axis : x y z
#
# Youngs Moduli (GPa) = 52.87133 85.90986 29.04101
#
# Poissons Ratio (x) = 0.45941 0.02428
# Poissons Ratio (y) = 0.28273 0.10019
# Poissons Ratio (z) = 0.04421 0.29638
#
# Static dielectric constant tensor:
#      x y z
#    x 1.654450 0.000000 -0.018820 
#    y 0.000000 1.764360 0.000000 
#    z -0.018820 0.000000 1.694530 
# 
# From -- ./inp_files/52675.got.cif
#   From: 2010.05.17/outbox.cif.g08.bks.cpg/sg12_27_cif.got.tgz:52675.got - 2010.06.03 13:09:07.
