data_PCOD9176849
_publ_section_title
;
Structure prediction by ZEFSAII (Michael W. Deem and Ramdas Pophale) SiO2 
 PCOD9176849
Probable space group: C 2/M
;
_chemical_formula_sum "Si O2"
_cell_formula_units_Z 64
_cell_length_a 14.994132
_cell_length_b 23.227989
_cell_length_c 8.172048
_cell_angle_alpha 90.000000
_cell_angle_beta 100.295221
_cell_angle_gamma 90.000000
_cell_volume 2800.365948
_symmetry_space_group_name_H-M "C 2/M"
_symmetry_group_IT_number 12
_symmetry_cell_setting 'monoclinic'
loop_
_space_group_symop_operation_xyz
x,y,z
-x,y,-z
-x,-y,-z
x,-y,z
1/2+x,1/2+y,z
1/2-x,1/2+y,-z
1/2-x,1/2-y,-z
1/2+x,1/2-y,z
loop_
_atom_site_type_symbol
_atom_site_label
_atom_site_fract_x
_atom_site_fract_y
_atom_site_fract_z
Si Si1 0.205060 0.935609 0.434974
Si Si2 0.554675 0.825983 0.170754
Si Si3 0.124067 0.845511 0.666521
Si Si4 0.887296 0.280189 0.305966
Si Si5 0.044144 0.935637 0.839041
Si Si6 0.780598 0.320519 0.974518
Si Si7 0.402895 0.102272 0.519558
Si Si8 0.268380 0.563153 0.925522
O O1 0.171042 0.886647 0.548002
O O2 0.314092 0.934631 0.471060
O O3 0.185182 0.924163 0.236309
O O4 0.173343 0.000000 0.470571
O O5 0.482269 0.785578 0.238202
O O6 0.645115 0.798022 0.129228
O O7 0.586547 0.877629 0.292523
O O8 0.500000 0.849350 0.000000
O O9 0.109889 0.780442 0.599175
O O10 0.187148 0.830146 0.846463
O O11 0.040062 0.883362 0.709187
O O12 0.886871 0.337030 0.417841
O O13 0.803342 0.286060 0.148896
O O14 0.150940 0.940698 0.916487
O O15 0.013377 0.000000 0.776462
O O16 0.000000 0.922622 0.000000
O O17 0.798033 0.386175 0.043576
O O18 0.500000 0.077787 0.500000
O O19 0.225878 0.500000 0.898255
#
# Coordination Sequence:
#
# PCOD9176849 Si02
#       8
#     8   8   8   8   8   8   8   8
#     4  11  22  39  61  87 121 157 200 252 296 348
#     4   9  19  36  58  82 116 155 192 239 293 342
#     4  11  22  36  58  91 114 150 202 244 294 352
#     4  10  21  36  56  81 119 157 192 235 298 354
#     4   9  19  38  61  83 117 157 196 248 302 354
#     4  10  18  36  58  84 116 153 189 246 289 349
#     4  10  20  39  60  82 122 162 196 240 298 356
#     4   9  19  36  59  86 117 157 197 239 298 356
#
# _framework density 22.854154999999999
#
# number of rings (size 3 to 8) (size 9 to 14) (size 15 to 20)
#    0.000    2.125    2.500    0.750    0.000    2.750 
#    0.000    5.625    0.000    6.750    0.000    0.000 
#    0.000    0.000    0.000    0.000    0.000    0.000 
#
# Total GULP energy -178339.389733 kJ/mol
# GULP energy per Si atom -5573.105929 kJ/mol
# Density = 2.280214 g / cm^3
# Si number density = 22.854155 Si / 1000 Ang^3
#
#
#
# Elastic Constant Matrix: (Units=GPa)
#
#
# Indices 1 2 3 4 5 6 
#
# 1 61.6495 27.8322 6.5694 0.0000 0.5318 0.0000
# 2 27.8322 129.6643 24.2186 0.0000 -21.5466 0.0000
# 3 6.5694 24.2186 52.6762 0.0000 5.7460 0.0000
# 4 0.0000 0.0000 0.0000 14.6265 0.0000 -6.7082
# 5 0.5318 -21.5466 5.7460 0.0000 35.3498 0.0000
# 6 0.0000 0.0000 0.0000 -6.7082 0.0000 16.0887
#
#
#
# Elastic Compliance Matrix: (Units=1/GPa)
#
#
# Indices 1 2 3 4 5 6 
#
# 1 0.018236 -0.004427 0.000087 0.000000 -0.002987 0.000000
# 2 -0.004427 0.010909 -0.005290 0.000000 0.007576 0.000000
# 3 0.000087 -0.005290 0.022150 0.000000 -0.006826 0.000000
# 4 0.000000 0.000000 0.000000 0.084534 0.000000 0.035246
# 5 -0.002987 0.007576 -0.006826 0.000000 0.034061 0.000000
# 6 0.000000 0.000000 0.000000 0.035246 0.000000 0.076851
#
#
# Mechanical properties :
#
#
# Convention : Reuss Voigt Hill
#
# Bulk Modulus (GPa) = 31.21589 40.13673 35.67631
# Shear Modulus (GPa) = 18.07140 25.57098 21.82119
#
# Velocity S-wave (km/s) = 2.81504 3.34859 3.09334
# Velocity P-wave (km/s) = 4.92487 5.70535 5.32941
#
# Compressibility (1/GPa) = 0.03203497
#
# Stress axis : x y z
#
# Youngs Moduli (GPa) = 54.83734 91.66366 45.14694
#
# Poissons Ratio (x) = 0.40578 -0.00392
# Poissons Ratio (y) = 0.24275 0.23883
# Poissons Ratio (z) = -0.00476 0.48491
#
# Static dielectric constant tensor:
#      x y z
#    x 1.976300 0.000000 0.010580 
#    y 0.000000 1.901170 0.000000 
#    z 0.010580 0.000000 1.885100 
# 
# From -- ./inp_files/77515.got.cif
#   From: 2010.05.17/outbox.cif.g08.bks.cpg/sg12_39_cif.got.tgz:77515.got - 2010.06.03 13:09:07.
