data_PCOD9176656
_publ_section_title
;
Structure prediction by ZEFSAII (Michael W. Deem and Ramdas Pophale) SiO2 
 PCOD9176656
Probable space group: C 2/M
;
_chemical_formula_sum "Si O2"
_cell_formula_units_Z 58
_cell_length_a 29.193132
_cell_length_b 8.747474
_cell_length_c 12.412849
_cell_angle_alpha 90.000000
_cell_angle_beta 93.807628
_cell_angle_gamma 90.000000
_cell_volume 3162.824673
_symmetry_space_group_name_H-M "C 2/M"
_symmetry_group_IT_number 12
_symmetry_cell_setting 'monoclinic'
loop_
_space_group_symop_operation_xyz
x,y,z
-x,y,-z
-x,-y,-z
x,-y,z
1/2+x,1/2+y,z
1/2-x,1/2+y,-z
1/2-x,1/2-y,-z
1/2+x,1/2-y,z
loop_
_atom_site_type_symbol
_atom_site_label
_atom_site_fract_x
_atom_site_fract_y
_atom_site_fract_z
Si Si1 0.854661 0.315259 0.872300
Si Si2 0.047240 0.330422 0.199334
Si Si3 0.865095 0.683290 0.492988
Si Si4 0.702092 0.682764 0.949078
Si Si5 0.000000 0.500000 0.000000
Si Si6 0.691404 0.684731 0.697643
Si Si7 0.707770 0.185045 0.340477
Si Si8 0.462229 0.317289 0.581415
O O1 0.855926 0.500000 0.884940
O O2 0.904617 0.266173 0.837996
O O3 0.817172 0.276067 0.775570
O O4 0.838307 0.242350 0.980598
O O5 0.059105 0.500000 0.247968
O O6 0.027335 0.235703 0.295014
O O7 0.015138 0.368988 0.092687
O O8 0.866658 0.500000 0.495216
O O9 0.850277 0.742199 0.373658
O O10 0.824833 0.737411 0.568287
O O11 0.913085 0.749309 0.540586
O O12 0.705183 0.500000 0.954433
O O13 0.693615 0.726068 0.823740
O O14 0.750000 0.750000 0.000000
O O15 0.688882 0.500000 0.689603
O O16 0.739813 0.738216 0.653086
O O17 0.709136 0.000000 0.345078
O O18 0.500000 0.266187 0.500000
O O19 0.459793 0.500000 0.577908
#
# Coordination Sequence:
#
# PCOD9176656 Si02
#       8
#     8   8   8   8   2   8   8   8
#     4  10  18  35  60  84 115 154 196 247 292 349
#     4   9  19  40  66  90 122 152 196 250 305 363
#     4  11  22  38  61  90 116 151 204 252 297 360
#     4  11  22  36  55  80 116 160 207 247 294 355
#     4   8  20  40  68 100 120 148 198 262 312 356
#     4  10  21  38  54  79 124 163 192 246 302 348
#     4   9  17  33  58  83 115 155 192 240 297 345
#     4  11  24  42  64  91 124 161 201 250 310 376
#
# _framework density 18.338038999999998
#
# number of rings (size 3 to 8) (size 9 to 14) (size 15 to 20)
#    0.414    1.517    2.759    1.655    0.000    2.759 
#    2.483    1.034    0.000    0.000    0.000    0.000 
#    0.000    0.000    0.000    0.000    0.000    0.000 
#
# Total GULP energy -161494.723399 kJ/mol
# GULP energy per Si atom -5568.783565 kJ/mol
# Density = 1.829630 g / cm^3
# Si number density = 18.338039 Si / 1000 Ang^3
#
#
#
# Elastic Constant Matrix: (Units=GPa)
#
#
# Indices 1 2 3 4 5 6 
#
# 1 60.0650 17.2859 61.4727 0.0000 -3.0178 0.0000
# 2 17.2859 28.5089 35.3963 0.0000 -1.7425 0.0000
# 3 61.4727 35.3963 136.9898 0.0000 5.4505 0.0000
# 4 0.0000 0.0000 0.0000 32.5853 0.0000 -0.8888
# 5 -3.0178 -1.7425 5.4505 0.0000 35.7390 0.0000
# 6 0.0000 0.0000 0.0000 -0.8888 0.0000 21.7179
#
#
#
# Elastic Compliance Matrix: (Units=1/GPa)
#
#
# Indices 1 2 3 4 5 6 
#
# 1 0.031650 -0.001522 -0.013998 0.000000 0.004733 0.000000
# 2 -0.001522 0.052474 -0.013052 0.000000 0.004420 0.000000
# 3 -0.013998 -0.013052 0.017130 0.000000 -0.004431 0.000000
# 4 0.000000 0.000000 0.000000 0.030723 0.000000 0.001257
# 5 0.004733 0.004420 -0.004431 0.000000 0.029272 0.000000
# 6 0.000000 0.000000 0.000000 0.001257 0.000000 0.046096
#
#
# Mechanical properties :
#
#
# Convention : Reuss Voigt Hill
#
# Bulk Modulus (GPa) = 22.66956 50.43038 36.54997
# Shear Modulus (GPa) = 17.90881 25.43570 21.67225
#
# Velocity S-wave (km/s) = 3.12844 3.72835 3.44149
# Velocity P-wave (km/s) = 5.04365 6.78927 5.98049
#
# Compressibility (1/GPa) = 0.04411201
#
# Stress axis : x y z
#
# Youngs Moduli (GPa) = 31.59526 19.05689 58.37755
#
# Poissons Ratio (x) = 0.02900 0.81716
# Poissons Ratio (y) = 0.04808 0.76193
# Poissons Ratio (z) = 0.44227 0.24872
#
# Static dielectric constant tensor:
#      x y z
#    x 1.628080 0.000000 -0.012620 
#    y 0.000000 1.628990 0.000000 
#    z -0.012620 0.000000 1.636470 
# 
# From -- ./inp_files/186693.got.cif
#   From: 2010.05.17/outbox.cif.g08.bks.cpg/sg12_94_cif.got.tgz:186693.got - 2010.06.03 13:09:07.
