data_PCOD9176891
_publ_section_title
;
Structure prediction by ZEFSAII (Michael W. Deem and Ramdas Pophale) SiO2 
 PCOD9176891
Probable space group: C 2/M
;
_chemical_formula_sum "Si O2"
_cell_formula_units_Z 58
_cell_length_a 23.572769
_cell_length_b 14.090811
_cell_length_c 16.496501
_cell_angle_alpha 90.000000
_cell_angle_beta 150.309002
_cell_angle_gamma 90.000000
_cell_volume 2714.102282
_symmetry_space_group_name_H-M "C 2/M"
_symmetry_group_IT_number 12
_symmetry_cell_setting 'monoclinic'
loop_
_space_group_symop_operation_xyz
x,y,z
-x,y,-z
-x,-y,-z
x,-y,z
1/2+x,1/2+y,z
1/2-x,1/2+y,-z
1/2-x,1/2-y,-z
1/2+x,1/2-y,z
loop_
_atom_site_type_symbol
_atom_site_label
_atom_site_fract_x
_atom_site_fract_y
_atom_site_fract_z
Si Si1 0.628990 0.184966 0.676917
Si Si2 0.791478 0.107231 0.559774
Si Si3 0.095144 0.658008 0.064582
Si Si4 0.181001 0.852866 0.217540
Si Si5 0.556947 0.785784 0.274332
Si Si6 0.378064 0.110211 0.157776
Si Si7 0.796456 0.896464 0.207330
Si Si8 0.500000 0.500000 0.000000
O O1 0.500000 0.155004 0.500000
O O2 0.710768 0.148478 0.706982
O O3 0.664275 0.142671 0.807242
O O4 0.635792 0.299664 0.692219
O O5 0.801461 0.107694 0.670350
O O6 0.663615 0.145314 0.385829
O O7 0.884197 0.183070 0.642475
O O8 0.808838 0.000000 0.552237
O O9 0.032785 0.707125 0.910381
O O10 0.143862 0.743961 0.178382
O O11 0.199804 0.601464 0.157565
O O12 0.000000 0.607059 0.000000
O O13 0.079669 0.916972 0.057113
O O14 0.484872 0.825029 0.261134
O O15 0.415191 0.000000 0.204631
O O16 0.275801 0.116879 0.965412
O O17 0.854645 0.000000 0.276829
#
# Coordination Sequence:
#
# PCOD9176891 Si02
#       8
#     8   8   8   8   8   8   8   2
#     4  11  24  40  64  94 132 168 206 258 315 378
#     4  11  21  36  58  88 127 163 203 255 321 386
#     4  10  18  36  60  87 118 158 206 264 310 364
#     4  11  22  37  63  97 127 161 201 257 323 377
#     4  10  21  36  58  84 125 164 203 256 315 370
#     4  10  21  40  64  88 120 163 212 258 307 372
#     4   9  21  40  62  86 118 166 216 258 306 359
#     4  12  20  36  62  92 130 152 194 256 318 372
#
# _framework density 21.369864
#
# number of rings (size 3 to 8) (size 9 to 14) (size 15 to 20)
#    0.000    1.655    2.759    1.655    0.966    1.379 
#    0.000    0.690    0.000    0.000    0.000    0.000 
#    0.000    0.000    0.000    0.000    0.000    0.000 
#
# Total GULP energy -161691.528440 kJ/mol
# GULP energy per Si atom -5575.569946 kJ/mol
# Density = 2.132123 g / cm^3
# Si number density = 21.369864 Si / 1000 Ang^3
#
#
#
# Elastic Constant Matrix: (Units=GPa)
#
#
# Indices 1 2 3 4 5 6 
#
# 1 75.5230 4.5921 2.7978 0.0000 15.2466 0.0000
# 2 4.5921 109.1082 14.9068 0.0000 10.0121 0.0000
# 3 2.7978 14.9068 28.4284 0.0000 13.8904 0.0000
# 4 0.0000 0.0000 0.0000 2.7565 0.0000 0.8895
# 5 15.2466 10.0121 13.8904 0.0000 25.1704 0.0000
# 6 0.0000 0.0000 0.0000 0.8895 0.0000 17.9072
#
#
#
# Elastic Compliance Matrix: (Units=1/GPa)
#
#
# Indices 1 2 3 4 5 6 
#
# 1 0.015442 -0.000163 0.004251 0.000000 -0.011635 0.000000
# 2 -0.000163 0.009914 -0.004524 0.000000 -0.001348 0.000000
# 3 0.004251 -0.004524 0.051356 0.000000 -0.029117 0.000000
# 4 0.000000 0.000000 0.000000 0.368688 0.000000 -0.018315
# 5 -0.011635 -0.001348 -0.029117 0.000000 0.063381 0.000000
# 6 0.000000 0.000000 0.000000 -0.018315 0.000000 0.056753
#
#
# Mechanical properties :
#
#
# Convention : Reuss Voigt Hill
#
# Bulk Modulus (GPa) = 13.18557 28.62813 20.90685
# Shear Modulus (GPa) = 8.45042 21.88437 15.16739
#
# Velocity S-wave (km/s) = 1.99071 3.20359 2.66702
# Velocity P-wave (km/s) = 3.38637 5.20668 4.39187
#
# Compressibility (1/GPa) = 0.07584047
#
# Stress axis : x y z
#
# Youngs Moduli (GPa) = 64.75723 100.86919 19.47178
#
# Poissons Ratio (x) = 0.01644 -0.08277
# Poissons Ratio (y) = 0.01056 0.08808
# Poissons Ratio (z) = -0.27526 0.45629
#
# Static dielectric constant tensor:
#      x y z
#    x 1.782460 0.000000 -0.032650 
#    y 0.000000 1.780890 0.000000 
#    z -0.032650 0.000000 1.821570 
# 
# From -- ./inp_files/289940.got.cif
#   From: 2010.05.17/outbox.cif.g08.bks.cpg/sg12_145_cif.got.tgz:289940.got - 2010.06.03 13:09:07.
