data_PCOD9176143
_publ_section_title
;
Structure prediction by ZEFSAII (Michael W. Deem and Ramdas Pophale) SiO2 
 PCOD9176143
Probable space group: C 2/M
;
_chemical_formula_sum "Si O2"
_cell_formula_units_Z 40
_cell_length_a 7.606322
_cell_length_b 28.073526
_cell_length_c 10.816271
_cell_angle_alpha 90.000000
_cell_angle_beta 131.889407
_cell_angle_gamma 90.000000
_cell_volume 1719.396409
_symmetry_space_group_name_H-M "C 2/M"
_symmetry_group_IT_number 12
_symmetry_cell_setting 'monoclinic'
loop_
_space_group_symop_operation_xyz
x,y,z
-x,y,-z
-x,-y,-z
x,-y,z
1/2+x,1/2+y,z
1/2-x,1/2+y,-z
1/2-x,1/2-y,-z
1/2+x,1/2-y,z
loop_
_atom_site_type_symbol
_atom_site_label
_atom_site_fract_x
_atom_site_fract_y
_atom_site_fract_z
Si Si1 0.802010 0.944897 0.018253
Si Si2 0.760973 0.215925 0.621522
Si Si3 0.503837 0.882414 0.710692
Si Si4 0.382586 0.615768 0.667362
Si Si5 0.964051 0.712129 0.114149
O O1 0.906328 0.917164 0.186260
O O2 0.758949 0.000000 0.025826
O O3 0.577456 0.918545 0.853322
O O4 0.000000 0.943116 0.000000
O O5 0.500000 0.194274 0.500000
O O6 0.750000 0.250000 0.500000
O O7 0.939778 0.172171 0.697778
O O8 0.819758 0.251784 0.758164
O O9 0.249904 0.890830 0.526322
O O10 0.690948 0.890452 0.687754
O O11 0.542262 0.829343 0.786182
O O12 0.750000 0.750000 0.000000
O O13 0.000000 0.687736 0.000000
#
# Coordination Sequence:
#
# PCOD9176143 Si02
#       5
#     8   8   8   8   8
#     4   9  19  33  55  86 116 149 194 251 306 358
#     4  12  21  36  55  81 117 156 196 235 287 349
#     4  10  19  35  54  81 115 154 192 244 295 351
#     4  10  18  34  56  80 116 156 193 238 301 348
#     4  12  24  38  58  88 120 161 205 245 295 357
#
# _framework density 23.263978999999999
#
# number of rings (size 3 to 8) (size 9 to 14) (size 15 to 20)
#    0.000    1.400    4.000    3.600    0.000    2.400 
#    0.000    4.000    0.000    0.600    0.000    1.400 
#    0.000    0.000    0.000    0.000    0.000    0.000 
#
# Total GULP energy -111677.494061 kJ/mol
# GULP energy per Si atom -5583.874703 kJ/mol
# Density = 2.321103 g / cm^3
# Si number density = 23.263979 Si / 1000 Ang^3
#
#
#
# Elastic Constant Matrix: (Units=GPa)
#
#
# Indices 1 2 3 4 5 6 
#
# 1 37.3719 9.2043 35.1228 0.0000 3.6150 0.0000
# 2 9.2043 185.0360 110.8620 0.0000 11.5758 0.0000
# 3 35.1228 110.8620 217.9596 0.0000 -1.3896 0.0000
# 4 0.0000 0.0000 0.0000 43.9828 0.0000 1.4892
# 5 3.6150 11.5758 -1.3896 0.0000 19.8255 0.0000
# 6 0.0000 0.0000 0.0000 1.4892 0.0000 12.1446
#
#
#
# Elastic Compliance Matrix: (Units=1/GPa)
#
#
# Indices 1 2 3 4 5 6 
#
# 1 0.033376 0.003044 -0.006980 0.000000 -0.008353 0.000000
# 2 0.003044 0.008540 -0.004872 0.000000 -0.005883 0.000000
# 3 -0.006980 -0.004872 0.008221 0.000000 0.004693 0.000000
# 4 0.000000 0.000000 0.000000 0.022831 0.000000 -0.002800
# 5 -0.008353 -0.005883 0.004693 0.000000 0.055727 0.000000
# 6 0.000000 0.000000 0.000000 -0.002800 0.000000 0.082684
#
#
# Mechanical properties :
#
#
# Convention : Reuss Voigt Hill
#
# Bulk Modulus (GPa) = 30.74868 83.41618 57.08243
# Shear Modulus (GPa) = 20.84772 34.20247 27.52510
#
# Velocity S-wave (km/s) = 2.99680 3.83847 3.44345
# Velocity P-wave (km/s) = 5.02199 7.45515 6.35609
#
# Compressibility (1/GPa) = 0.03252172
#
# Stress axis : x y z
#
# Youngs Moduli (GPa) = 29.96146 117.09918 121.64495
#
# Poissons Ratio (x) = -0.35649 0.84909
# Poissons Ratio (y) = -0.09121 0.59262
# Poissons Ratio (z) = 0.20913 0.57047
#
# Static dielectric constant tensor:
#      x y z
#    x 1.964370 0.000000 -0.006390 
#    y 0.000000 1.824490 0.000000 
#    z -0.006390 0.000000 1.917710 
# 
# From -- ./inp_files/79926.got.cif
#   From: 2010.05.17/outbox.cif.g08.bks.cpg/sg12_40_cif.got.tgz:79926.got - 2010.06.03 13:09:07.
