data_PCOD9176777
_publ_section_title
;
Structure prediction by ZEFSAII (Michael W. Deem and Ramdas Pophale) SiO2 
 PCOD9176777
Probable space group: C 2/M
;
_chemical_formula_sum "Si O2"
_cell_formula_units_Z 36
_cell_length_a 12.519462
_cell_length_b 23.793018
_cell_length_c 12.303586
_cell_angle_alpha 90.000000
_cell_angle_beta 142.750641
_cell_angle_gamma 90.000000
_cell_volume 2218.333713
_symmetry_space_group_name_H-M "C 2/M"
_symmetry_group_IT_number 12
_symmetry_cell_setting 'monoclinic'
loop_
_space_group_symop_operation_xyz
x,y,z
-x,y,-z
-x,-y,-z
x,-y,z
1/2+x,1/2+y,z
1/2-x,1/2+y,-z
1/2-x,1/2-y,-z
1/2+x,1/2-y,z
loop_
_atom_site_type_symbol
_atom_site_label
_atom_site_fract_x
_atom_site_fract_y
_atom_site_fract_z
Si Si1 0.762369 0.290458 0.406774
Si Si2 0.301381 0.565065 0.886922
Si Si3 0.000000 0.377866 0.500000
Si Si4 0.702617 0.232263 0.138644
Si Si5 0.632669 0.667128 0.916731
O O1 0.750000 0.250000 0.500000
O O2 0.782588 0.250877 0.317600
O O3 0.577542 0.323872 0.248584
O O4 0.914277 0.336946 0.521681
O O5 0.268569 0.500000 0.886620
O O6 0.155308 0.586582 0.682389
O O7 0.500000 0.569873 0.000000
O O8 0.303707 0.606804 0.991452
O O9 0.798996 0.185213 0.146145
O O10 0.500000 0.216922 0.000000
O O11 0.702444 0.287461 0.061522
#
# Coordination Sequence:
#
# PCOD9176777 Si02
#       5
#     8   8   4   8   8
#     4  11  21  31  52  86 114 145 175 222 275 341
#     4  11  22  38  57  80 109 148 191 233 275 319
#     4  12  21  36  54  84 114 142 187 224 278 334
#     4   9  18  31  53  78 110 145 175 217 282 333
#     4  10  18  36  52  77 114 144 174 227 276 328
#
# _framework density 16.228397000000001
#
# number of rings (size 3 to 8) (size 9 to 14) (size 15 to 20)
#    0.000    1.556    4.444    2.333    6.222    0.000 
#    0.000    0.000    0.000    0.667    0.000    1.556 
#    0.000    0.000    0.000    0.000    0.000    0.000 
#
# Total GULP energy -100417.446259 kJ/mol
# GULP energy per Si atom -5578.747014 kJ/mol
# Density = 1.619146 g / cm^3
# Si number density = 16.228397 Si / 1000 Ang^3
#
#
#
# Elastic Constant Matrix: (Units=GPa)
#
#
# Indices 1 2 3 4 5 6 
#
# 1 94.9852 52.9007 34.5830 0.0000 -8.0817 0.0000
# 2 52.9007 114.5833 49.1225 0.0000 5.8774 0.0000
# 3 34.5830 49.1225 94.9227 0.0000 5.6659 0.0000
# 4 0.0000 0.0000 0.0000 21.4262 0.0000 -0.6911
# 5 -8.0817 5.8774 5.6659 0.0000 23.1146 0.0000
# 6 0.0000 0.0000 0.0000 -0.6911 0.0000 19.8639
#
#
#
# Elastic Compliance Matrix: (Units=1/GPa)
#
#
# Indices 1 2 3 4 5 6 
#
# 1 0.015870 -0.006492 -0.002895 0.000000 0.007909 0.000000
# 2 -0.006492 0.013919 -0.004558 0.000000 -0.004692 0.000000
# 3 -0.002895 -0.004558 0.014146 0.000000 -0.003321 0.000000
# 4 0.000000 0.000000 0.000000 0.046724 0.000000 0.001626
# 5 0.007909 -0.004692 -0.003321 0.000000 0.048035 0.000000
# 6 0.000000 0.000000 0.000000 0.001626 0.000000 0.050399
#
#
# Mechanical properties :
#
#
# Convention : Reuss Voigt Hill
#
# Bulk Modulus (GPa) = 62.31621 64.18931 63.25276
# Shear Modulus (GPa) = 22.48894 24.07327 23.28111
#
# Velocity S-wave (km/s) = 3.72664 3.85568 3.79171
# Velocity P-wave (km/s) = 7.54983 7.71111 7.63090
#
# Compressibility (1/GPa) = 0.01604719
#
# Stress axis : x y z
#
# Youngs Moduli (GPa) = 63.01102 71.84406 70.68932
#
# Poissons Ratio (x) = 0.46639 0.20462
# Poissons Ratio (y) = 0.40905 0.32220
# Poissons Ratio (z) = 0.18239 0.32746
#
# Static dielectric constant tensor:
#      x y z
#    x 1.549640 0.000000 0.027040 
#    y 0.000000 1.532430 0.000000 
#    z 0.027040 0.000000 1.582820 
# 
# From -- ./inp_files/49853.got.cif
#   From: 2010.05.17/outbox.cif.g08.bks.cpg/sg12_25_cif.got.tgz:49853.got - 2010.06.03 13:09:07.
