data_PCOD9176176
_publ_section_title
;
Structure prediction by ZEFSAII (Michael W. Deem and Ramdas Pophale) SiO2 
 PCOD9176176
Probable space group: C 2/M
;
_chemical_formula_sum "Si O2"
_cell_formula_units_Z 48
_cell_length_a 14.891509
_cell_length_b 7.524077
_cell_length_c 18.601562
_cell_angle_alpha 90.000000
_cell_angle_beta 78.894352
_cell_angle_gamma 90.000000
_cell_volume 2045.179847
_symmetry_space_group_name_H-M "C 2/M"
_symmetry_group_IT_number 12
_symmetry_cell_setting 'monoclinic'
loop_
_space_group_symop_operation_xyz
x,y,z
-x,y,-z
-x,-y,-z
x,-y,z
1/2+x,1/2+y,z
1/2-x,1/2+y,-z
1/2-x,1/2-y,-z
1/2+x,1/2-y,z
loop_
_atom_site_type_symbol
_atom_site_label
_atom_site_fract_x
_atom_site_fract_y
_atom_site_fract_z
Si Si1 0.707905 0.781595 0.324502
Si Si2 0.894767 0.285962 0.515578
Si Si3 0.609164 0.707523 0.642743
Si Si4 0.943475 0.297936 0.750529
Si Si5 0.521729 0.783135 0.885129
Si Si6 0.148400 0.712068 0.987116
O O1 0.657881 0.723946 0.405699
O O2 0.812531 0.725683 0.315625
O O3 0.649945 0.717396 0.265318
O O4 0.706870 0.000000 0.324108
O O5 0.894019 0.500000 0.517090
O O6 0.856845 0.229677 0.443991
O O7 0.000000 0.224419 0.500000
O O8 0.593445 0.500000 0.657296
O O9 0.513544 0.801245 0.672876
O O10 0.920815 0.500000 0.775158
O O11 0.999178 0.218484 0.808492
O O12 0.611921 0.721590 0.914797
O O13 0.527547 0.000000 0.882059
O O14 0.431621 0.732965 0.945208
O O15 0.143260 0.500000 0.984926
O O16 0.250000 0.750000 0.000000
#
# Coordination Sequence:
#
# PCOD9176176 Si02
#       6
#     8   8   8   8   8   8
#     4   9  19  34  52  73  99 132 173 213 257 308
#     4  10  18  34  57  74  93 133 182 217 247 310
#     4  11  22  34  50  78 108 131 163 220 274 307
#     4  10  19  37  57  72  98 143 181 207 245 309
#     4   8  17  33  55  77 104 139 177 209 244 301
#     4   9  17  33  55  83 108 135 172 211 251 299
#
# _framework density 23.469821
#
# number of rings (size 3 to 8) (size 9 to 14) (size 15 to 20)
#    0.000    2.500    1.667    2.000    0.000    1.667 
#    0.000    7.500    0.000    0.000    0.000    0.000 
#    0.000    0.000    0.000    0.000    0.000    0.000 
#
# Total GULP energy -133955.728456 kJ/mol
# GULP energy per Si atom -5581.488686 kJ/mol
# Density = 2.341640 g / cm^3
# Si number density = 23.469821 Si / 1000 Ang^3
#
#
#
# Elastic Constant Matrix: (Units=GPa)
#
#
# Indices 1 2 3 4 5 6 
#
# 1 133.3986 -1.1222 25.3943 0.0000 50.6428 0.0000
# 2 -1.1222 62.9764 -2.9446 0.0000 3.1992 0.0000
# 3 25.3943 -2.9446 89.4885 0.0000 45.1282 0.0000
# 4 0.0000 0.0000 0.0000 4.2020 0.0000 5.9825
# 5 50.6428 3.1992 45.1282 0.0000 42.2477 0.0000
# 6 0.0000 0.0000 0.0000 5.9825 0.0000 13.1867
#
#
#
# Elastic Compliance Matrix: (Units=1/GPa)
#
#
# Indices 1 2 3 4 5 6 
#
# 1 0.019488 0.002960 0.014005 0.000000 -0.038544 0.000000
# 2 0.002960 0.016643 0.004623 0.000000 -0.009747 0.000000
# 3 0.014005 0.004623 0.034672 0.000000 -0.054173 0.000000
# 4 0.000000 0.000000 0.000000 0.672091 0.000000 -0.304913
# 5 -0.038544 -0.009747 -0.054173 0.000000 0.128478 0.000000
# 6 0.000000 0.000000 0.000000 -0.304913 0.000000 0.214166
#
#
# Mechanical properties :
#
#
# Convention : Reuss Voigt Hill
#
# Bulk Modulus (GPa) = 8.77366 36.50206 22.63786
# Shear Modulus (GPa) = 4.62811 29.56301 17.09556
#
# Velocity S-wave (km/s) = 1.40578 3.55296 2.70183
# Velocity P-wave (km/s) = 2.52613 5.69367 4.40450
#
# Compressibility (1/GPa) = 0.11397758
#
# Stress axis : x y z
#
# Youngs Moduli (GPa) = 51.31388 60.08541 28.84201
#
# Poissons Ratio (x) = -0.17786 -0.40392
# Poissons Ratio (y) = -0.15190 -0.13333
# Poissons Ratio (z) = -0.71864 -0.27776
#
# Static dielectric constant tensor:
#      x y z
#    x 1.895120 0.000000 0.047800 
#    y 0.000000 1.888510 0.000000 
#    z 0.047800 0.000000 1.936620 
# 
# From -- ./inp_files/267648.got.cif
#   From: 2010.05.17/outbox.cif.g08.bks.cpg/sg12_134_cif.got.tgz:267648.got - 2010.06.03 13:09:07.
