data_PCOD9176229
_publ_section_title
;
Structure prediction by ZEFSAII (Michael W. Deem and Ramdas Pophale) SiO2 
 PCOD9176229
Probable space group: C 2/M
;
_chemical_formula_sum "Si O2"
_cell_formula_units_Z 64
_cell_length_a 18.969501
_cell_length_b 17.386870
_cell_length_c 15.638402
_cell_angle_alpha 90.000000
_cell_angle_beta 143.966046
_cell_angle_gamma 90.000000
_cell_volume 3034.187301
_symmetry_space_group_name_H-M "C 2/M"
_symmetry_group_IT_number 12
_symmetry_cell_setting 'monoclinic'
loop_
_space_group_symop_operation_xyz
x,y,z
-x,y,-z
-x,-y,-z
x,-y,z
1/2+x,1/2+y,z
1/2-x,1/2+y,-z
1/2-x,1/2-y,-z
1/2+x,1/2-y,z
loop_
_atom_site_type_symbol
_atom_site_label
_atom_site_fract_x
_atom_site_fract_y
_atom_site_fract_z
Si Si1 0.724229 0.811354 0.760029
Si Si2 0.577613 0.085646 0.744934
Si Si3 0.821192 0.209098 0.445721
Si Si4 0.394556 0.585497 0.825682
Si Si5 0.058720 0.793577 0.899757
Si Si6 0.107353 0.330029 0.343351
Si Si7 0.304419 0.415216 0.078155
Si Si8 0.513620 0.584454 0.614014
O O1 0.623656 0.847773 0.724606
O O2 0.683801 0.745596 0.654121
O O3 0.776643 0.882898 0.756566
O O4 0.841440 0.782201 0.928173
O O5 0.448792 0.099379 0.660238
O O6 0.587611 0.000000 0.716039
O O7 0.669387 0.088279 0.915159
O O8 0.835295 0.279050 0.525146
O O9 0.703571 0.162932 0.361872
O O10 0.933562 0.153417 0.568901
O O11 0.379112 0.500000 0.773144
O O12 0.445979 0.653455 0.817277
O O13 0.500000 0.579404 0.000000
O O14 0.129417 0.845964 0.902557
O O15 0.003530 0.717687 0.805606
O O16 0.346443 0.500000 0.086876
O O17 0.349397 0.410013 0.219235
O O18 0.500000 0.586447 0.500000
O O19 0.469825 0.500000 0.600347
#
# Coordination Sequence:
#
# PCOD9176229 Si02
#       8
#     8   8   8   8   8   8   8   8
#     4  10  21  35  62  91 123 160 207 259 310 366
#     4  10  23  42  65  93 124 162 208 256 313 375
#     4  11  24  41  59  88 128 167 205 252 302 371
#     4   9  16  29  52  85 123 155 193 253 311 359
#     4  10  18  34  57  89 117 157 209 256 307 365
#     4  11  24  40  59  85 127 167 207 245 301 373
#     4   9  18  36  61  90 121 154 201 260 312 364
#     4  10  22  39  62  89 118 157 206 259 312 362
#
# _framework density 21.092963000000001
#
# number of rings (size 3 to 8) (size 9 to 14) (size 15 to 20)
#    0.000    2.000    2.500    0.750    1.750    6.500 
#    0.000    1.875    0.000    0.000    0.000    5.250 
#    0.000    0.000    0.000    0.000    0.000    0.000 
#
# Total GULP energy -178395.295178 kJ/mol
# GULP energy per Si atom -5574.852974 kJ/mol
# Density = 2.104495 g / cm^3
# Si number density = 21.092963 Si / 1000 Ang^3
#
#
#
# Elastic Constant Matrix: (Units=GPa)
#
#
# Indices 1 2 3 4 5 6 
#
# 1 52.6914 20.0870 20.7110 0.0000 2.9565 0.0000
# 2 20.0870 40.1797 18.8923 0.0000 2.5783 0.0000
# 3 20.7110 18.8923 57.1647 0.0000 -15.1960 0.0000
# 4 0.0000 0.0000 0.0000 18.1096 0.0000 -3.0483
# 5 2.9565 2.5783 -15.1960 0.0000 26.8650 0.0000
# 6 0.0000 0.0000 0.0000 -3.0483 0.0000 29.4859
#
#
#
# Elastic Compliance Matrix: (Units=1/GPa)
#
#
# Indices 1 2 3 4 5 6 
#
# 1 0.025913 -0.008602 -0.008338 0.000000 -0.006743 0.000000
# 2 -0.008602 0.034697 -0.010574 0.000000 -0.008365 0.000000
# 3 -0.008338 -0.010574 0.028862 0.000000 0.018258 0.000000
# 4 0.000000 0.000000 0.000000 0.056197 0.000000 0.005810
# 5 -0.006743 -0.008365 0.018258 0.000000 0.049096 0.000000
# 6 0.000000 0.000000 0.000000 0.005810 0.000000 0.034515
#
#
# Mechanical properties :
#
#
# Convention : Reuss Voigt Hill
#
# Bulk Modulus (GPa) = 29.03172 29.93514 29.48343
# Shear Modulus (GPa) = 16.90387 20.91514 18.90951
#
# Velocity S-wave (km/s) = 2.83397 3.15234 2.99738
# Velocity P-wave (km/s) = 4.94996 5.24142 5.09777
#
# Compressibility (1/GPa) = 0.03444508
#
# Stress axis : x y z
#
# Youngs Moduli (GPa) = 38.59028 28.82093 34.64704
#
# Poissons Ratio (x) = 0.24790 0.28889
# Poissons Ratio (y) = 0.33194 0.36636
# Poissons Ratio (z) = 0.32177 0.30476
#
# Static dielectric constant tensor:
#      x y z
#    x 1.788710 0.000000 -0.008830 
#    y 0.000000 1.718370 0.000000 
#    z -0.008830 0.000000 1.787780 
# 
# From -- ./inp_files/226879.got.cif
#   From: 2010.05.17/outbox.cif.g08.bks.cpg/sg12_114_cif.got.tgz:226879.got - 2010.06.03 13:09:07.
