data_PCOD9176685
_publ_section_title
;
Structure prediction by ZEFSAII (Michael W. Deem and Ramdas Pophale) SiO2 
 PCOD9176685
Probable space group: C 2/M
;
_chemical_formula_sum "Si O2"
_cell_formula_units_Z 44
_cell_length_a 7.259768
_cell_length_b 24.167359
_cell_length_c 14.300828
_cell_angle_alpha 90.000000
_cell_angle_beta 48.497452
_cell_angle_gamma 90.000000
_cell_volume 1879.109869
_symmetry_space_group_name_H-M "C 2/M"
_symmetry_group_IT_number 12
_symmetry_cell_setting 'monoclinic'
loop_
_space_group_symop_operation_xyz
x,y,z
-x,y,-z
-x,-y,-z
x,-y,z
1/2+x,1/2+y,z
1/2-x,1/2+y,-z
1/2-x,1/2-y,-z
1/2+x,1/2-y,z
loop_
_atom_site_type_symbol
_atom_site_label
_atom_site_fract_x
_atom_site_fract_y
_atom_site_fract_z
Si Si1 0.749162 0.814230 0.475181
Si Si2 0.760498 0.877577 0.028228
Si Si3 0.006044 0.614301 0.699384
Si Si4 0.515024 0.377618 0.230476
Si Si5 0.109192 0.000000 0.281002
Si Si6 0.863796 0.500000 0.946459
Si Si7 0.858712 0.500000 0.445568
O O1 0.500000 0.825191 0.500000
O O2 0.750000 0.750000 0.500000
O O3 0.707949 0.846393 0.585435
O O4 0.963034 0.839019 0.337516
O O5 0.532283 0.873962 0.177113
O O6 0.786242 0.944319 0.012397
O O7 0.000000 0.853795 0.000000
O O8 0.776099 0.859784 0.914615
O O9 0.736496 0.624517 0.745347
O O10 0.072812 0.554379 0.635308
O O11 0.553618 0.441657 0.247866
O O12 0.400021 0.000000 0.199871
O O13 0.925512 0.000000 0.429116
O O14 0.000000 0.500000 0.000000
O O15 0.000000 0.500000 0.500000
#
# Coordination Sequence:
#
# PCOD9176685 Si02
#       7
#     8   8   8   8   4   4   4
#     4  10  21  40  61  85 110 147 196 247 294 344
#     4  10  21  37  57  82 113 159 200 233 278 344
#     4  10  19  34  60  86 111 145 204 241 273 341
#     4  10  18  35  61  85 111 153 194 235 281 349
#     4  12  20  31  54  87 123 153 187 229 293 332
#     4  12  22  33  49  85 134 161 182 225 291 354
#     4  12  17  30  56  89 112 152 196 234 278 342
#
# _framework density 23.415341999999999
#
# number of rings (size 3 to 8) (size 9 to 14) (size 15 to 20)
#    0.000    1.455    5.455    1.364    0.000    2.909 
#    3.273    2.727    0.000    0.000    0.000    0.000 
#    0.000    0.000    0.000    0.000    0.000    0.000 
#
# Total GULP energy -122842.325067 kJ/mol
# GULP energy per Si atom -5583.742049 kJ/mol
# Density = 2.336205 g / cm^3
# Si number density = 23.415342 Si / 1000 Ang^3
#
#
#
# Elastic Constant Matrix: (Units=GPa)
#
#
# Indices 1 2 3 4 5 6 
#
# 1 63.5120 3.2204 41.1611 0.0000 8.1783 0.0000
# 2 3.2204 113.6506 88.8922 0.0000 15.4898 0.0000
# 3 41.1611 88.8922 294.7098 0.0000 29.4045 0.0000
# 4 0.0000 0.0000 0.0000 12.1046 0.0000 4.3153
# 5 8.1783 15.4898 29.4045 0.0000 41.0848 0.0000
# 6 0.0000 0.0000 0.0000 4.3153 0.0000 14.6670
#
#
#
# Elastic Compliance Matrix: (Units=1/GPa)
#
#
# Indices 1 2 3 4 5 6 
#
# 1 0.017798 0.002057 -0.002881 0.000000 -0.002256 0.000000
# 2 0.002057 0.011908 -0.003651 0.000000 -0.002286 0.000000
# 3 -0.002881 -0.003651 0.005064 0.000000 -0.001674 0.000000
# 4 0.000000 0.000000 0.000000 0.092294 0.000000 -0.027155
# 5 -0.002256 -0.002286 -0.001674 0.000000 0.026849 0.000000
# 6 0.000000 0.000000 0.000000 -0.027155 0.000000 0.076170
#
#
# Mechanical properties :
#
#
# Convention : Reuss Voigt Hill
#
# Bulk Modulus (GPa) = 38.73055 82.04663 60.38859
# Shear Modulus (GPa) = 20.19060 36.14452 28.16756
#
# Velocity S-wave (km/s) = 2.93965 3.93316 3.47212
# Velocity P-wave (km/s) = 5.30081 7.46606 6.47459
#
# Compressibility (1/GPa) = 0.02581941
#
# Stress axis : x y z
#
# Youngs Moduli (GPa) = 56.18454 83.97930 197.48063
#
# Poissons Ratio (x) = -0.17271 0.56895
# Poissons Ratio (y) = -0.11555 0.72097
# Poissons Ratio (z) = 0.16187 0.30659
#
# Static dielectric constant tensor:
#      x y z
#    x 1.932290 0.000000 0.036120 
#    y 0.000000 1.835620 0.000000 
#    z 0.036120 0.000000 1.973450 
# 
# From -- ./inp_files/198255.got.cif
#   From: 2010.05.17/outbox.cif.g08.bks.cpg/sg12_100_cif.got.tgz:198255.got - 2010.06.03 13:09:07.
