data_PCOD9176345
_publ_section_title
;
Structure prediction by ZEFSAII (Michael W. Deem and Ramdas Pophale) SiO2 
 PCOD9176345
Probable space group: C 2/M
;
_chemical_formula_sum "Si O2"
_cell_formula_units_Z 56
_cell_length_a 17.202320
_cell_length_b 15.680539
_cell_length_c 11.816788
_cell_angle_alpha 90.000000
_cell_angle_beta 49.960939
_cell_angle_gamma 90.000000
_cell_volume 2440.353884
_symmetry_space_group_name_H-M "C 2/M"
_symmetry_group_IT_number 12
_symmetry_cell_setting 'monoclinic'
loop_
_space_group_symop_operation_xyz
x,y,z
-x,y,-z
-x,-y,-z
x,-y,z
1/2+x,1/2+y,z
1/2-x,1/2+y,-z
1/2-x,1/2-y,-z
1/2+x,1/2-y,z
loop_
_atom_site_type_symbol
_atom_site_label
_atom_site_fract_x
_atom_site_fract_y
_atom_site_fract_z
Si Si1 0.848921 0.654688 0.201014
Si Si2 0.273574 0.182356 0.603693
Si Si3 0.189664 0.397679 0.196764
Si Si4 0.900156 0.171690 0.380078
Si Si5 0.365789 0.404700 0.644118
Si Si6 0.393731 0.395340 0.871502
Si Si7 0.550076 0.897731 0.122602
O O1 0.804616 0.747143 0.272113
O O2 0.749809 0.597069 0.289603
O O3 0.932573 0.621348 0.210154
O O4 0.895823 0.649355 0.032219
O O5 0.320465 0.135869 0.666840
O O6 0.198502 0.131412 0.590397
O O7 0.357980 0.235262 0.455603
O O8 0.186892 0.500000 0.202185
O O9 0.101372 0.370174 0.192193
O O10 0.300039 0.373912 0.041209
O O11 0.923653 0.133199 0.482097
O O12 0.999096 0.153032 0.211965
O O13 0.399040 0.500000 0.630214
O O14 0.362832 0.366747 0.772913
O O15 0.407240 0.500000 0.864752
O O16 0.566877 0.000000 0.094227
#
# Coordination Sequence:
#
# PCOD9176345 Si02
#       7
#     8   8   8   8   8   8   8
#     4  10  19  34  57  89 123 162 207 261 314 376
#     4  10  24  43  58  87 128 169 220 259 322 386
#     4  10  22  41  66  97 133 166 213 272 327 391
#     4  10  22  40  58  82 127 169 215 257 307 393
#     4  10  18  34  59  88 120 157 207 263 316 378
#     4  10  20  36  62  99 128 158 207 266 329 385
#     4  10  19  35  60  92 125 164 208 259 321 381
#
# _framework density 22.947490999999999
#
# number of rings (size 3 to 8) (size 9 to 14) (size 15 to 20)
#    0.000    2.000    1.429    2.571    0.000    5.714 
#    7.714    1.429    0.000    0.000    0.000   19.000 
#    0.000    0.000    0.000    0.000    0.000    0.000 
#
# Total GULP energy -156267.546462 kJ/mol
# GULP energy per Si atom -5580.983802 kJ/mol
# Density = 2.289526 g / cm^3
# Si number density = 22.947491 Si / 1000 Ang^3
#
#
#
# Elastic Constant Matrix: (Units=GPa)
#
#
# Indices 1 2 3 4 5 6 
#
# 1 140.9557 15.7265 33.5087 0.0000 7.8557 0.0000
# 2 15.7265 24.0363 11.1075 0.0000 6.8765 0.0000
# 3 33.5087 11.1075 60.3791 0.0000 4.5703 0.0000
# 4 0.0000 0.0000 0.0000 43.6483 0.0000 10.3616
# 5 7.8557 6.8765 4.5703 0.0000 50.0000 0.0000
# 6 0.0000 0.0000 0.0000 10.3616 0.0000 26.4767
#
#
#
# Elastic Compliance Matrix: (Units=1/GPa)
#
#
# Indices 1 2 3 4 5 6 
#
# 1 0.008471 -0.003553 -0.004012 0.000000 -0.000476 0.000000
# 2 -0.003553 0.048528 -0.006538 0.000000 -0.005518 0.000000
# 3 -0.004012 -0.006538 0.020014 0.000000 -0.000300 0.000000
# 4 0.000000 0.000000 0.000000 0.025257 0.000000 -0.009884
# 5 -0.000476 -0.005518 -0.000300 0.000000 0.020861 0.000000
# 6 0.000000 0.000000 0.000000 -0.009884 0.000000 0.041637
#
#
# Mechanical properties :
#
#
# Convention : Reuss Voigt Hill
#
# Bulk Modulus (GPa) = 20.48824 38.45074 29.46949
# Shear Modulus (GPa) = 23.89576 35.02687 29.46131
#
# Velocity S-wave (km/s) = 3.23045 3.91115 3.58698
# Velocity P-wave (km/s) = 4.78144 6.09823 5.47953
#
# Compressibility (1/GPa) = 0.04880850
#
# Stress axis : x y z
#
# Youngs Moduli (GPa) = 118.05040 20.60654 49.96547
#
# Poissons Ratio (x) = 0.07321 0.20044
# Poissons Ratio (y) = 0.41938 0.32668
# Poissons Ratio (z) = 0.47357 0.13473
#
# Static dielectric constant tensor:
#      x y z
#    x 1.923160 0.000000 -0.002930 
#    y 0.000000 1.882250 0.000000 
#    z -0.002930 0.000000 1.903040 
# 
# From -- ./inp_files/146017.got.cif
#   From: 2010.05.17/outbox.cif.g08.bks.cpg/sg12_74_cif.got.tgz:146017.got - 2010.06.03 13:09:07.
