data_PCOD9176806
_publ_section_title
;
Structure prediction by ZEFSAII (Michael W. Deem and Ramdas Pophale) SiO2 
 PCOD9176806
Probable space group: C 2/M
;
_chemical_formula_sum "Si O2"
_cell_formula_units_Z 40
_cell_length_a 17.283365
_cell_length_b 14.202982
_cell_length_c 21.439828
_cell_angle_alpha 90.000000
_cell_angle_beta 20.696952
_cell_angle_gamma 90.000000
_cell_volume 1860.058058
_symmetry_space_group_name_H-M "C 2/M"
_symmetry_group_IT_number 12
_symmetry_cell_setting 'monoclinic'
loop_
_space_group_symop_operation_xyz
x,y,z
-x,y,-z
-x,-y,-z
x,-y,z
1/2+x,1/2+y,z
1/2-x,1/2+y,-z
1/2-x,1/2-y,-z
1/2+x,1/2-y,z
loop_
_atom_site_type_symbol
_atom_site_label
_atom_site_fract_x
_atom_site_fract_y
_atom_site_fract_z
Si Si1 0.388551 0.734256 0.150567
Si Si2 0.770487 0.604758 0.094406
Si Si3 0.957062 0.763399 0.414086
Si Si4 0.828058 0.148188 0.965057
Si Si5 0.609101 0.107674 0.636825
O O1 0.129558 0.739823 0.337376
O O2 0.500000 0.703929 0.000000
O O3 0.502006 0.836357 0.077778
O O4 0.461813 0.665553 0.150737
O O5 0.796456 0.500000 0.101028
O O6 0.606153 0.671372 0.256171
O O7 0.667432 0.595980 0.103493
O O8 0.748958 0.830391 0.580978
O O9 0.885808 0.669915 0.430158
O O10 0.638546 0.108096 0.152056
O O11 0.750000 0.250000 0.000000
O O12 0.686443 0.000000 0.572163
#
# Coordination Sequence:
#
# PCOD9176806 Si02
#       5
#     8   8   8   8   8
#     4   9  17  34  56  79 114 145 185 230 282 320
#     4  10  19  33  58  83 110 147 187 228 279 335
#     4  10  21  37  56  83 115 145 186 238 281 324
#     4  10  18  36  56  79 114 149 182 227 278 332
#     4  11  21  35  58  83 113 151 188 227 282 342
#
# _framework density 21.504705999999999
#
# number of rings (size 3 to 8) (size 9 to 14) (size 15 to 20)
#    0.000    2.000    6.000    1.200    0.000    4.400 
#    0.000    7.000    0.000    6.000    0.000    4.200 
#    0.000    0.000    0.000    0.000    0.000    0.000 
#
# Total GULP energy -111557.850095 kJ/mol
# GULP energy per Si atom -5577.892505 kJ/mol
# Density = 2.145576 g / cm^3
# Si number density = 21.504706 Si / 1000 Ang^3
#
#
#
# Elastic Constant Matrix: (Units=GPa)
#
#
# Indices 1 2 3 4 5 6 
#
# 1 107.4379 10.9499 30.2881 -0.0156 -34.0383 -0.0061
# 2 10.9499 86.6995 17.8286 0.0596 -2.0666 0.0056
# 3 30.2881 17.8286 68.6864 0.0149 -34.8365 0.0023
# 4 -0.0156 0.0596 0.0149 -28.9251 -0.0213 -25.8192
# 5 -34.0383 -2.0666 -34.8365 -0.0213 45.1530 -0.0129
# 6 -0.0061 0.0056 0.0023 -25.8192 -0.0129 -1.9757
#
#
#
# Elastic Compliance Matrix: (Units=1/GPa)
#
#
# Indices 1 2 3 4 5 6 
#
# 1 0.012403 -0.001209 -0.000725 -0.000007 0.008735 -0.000010
# 2 -0.001209 0.012571 -0.004765 0.000003 -0.004012 0.000028
# 3 -0.000725 -0.004765 0.025838 -0.000008 0.019170 -0.000003
# 4 -0.000007 0.000003 -0.000008 0.003242 -0.000022 -0.042362
# 5 0.008735 -0.004012 0.019170 -0.000022 0.043338 -0.000015
# 6 -0.000010 0.000028 -0.000003 -0.042362 -0.000015 0.047458
#
#
# Mechanical properties :
#
#
# Convention : Reuss Voigt Hill
#
# Bulk Modulus (GPa) = 26.72799 42.32855 34.52827
# Shear Modulus (GPa) = 29.28787 16.43426 22.86107
#
# Velocity S-wave (km/s) = 3.69444 2.76745 3.26402
# Velocity P-wave (km/s) = 5.53664 5.47154 5.50419
#
# Compressibility (1/GPa) = 0.03741396
#
# Stress axis : x y z
#
# Youngs Moduli (GPa) = 80.62739 79.54834 38.70251
#
# Poissons Ratio (x) = 0.09618 0.02806
# Poissons Ratio (y) = 0.09749 0.18441
# Poissons Ratio (z) = 0.05846 0.37903
#
# Static dielectric constant tensor:
#      x y z
#    x 1.854700 0.000000 0.004050 
#    y 0.000000 1.784370 0.000010 
#    z 0.004050 0.000010 1.843550 
# 
# From -- ./inp_files/85511.got.cif
#   From: 2010.05.17/outbox.cif.g08.bks.cpg/sg12_43_cif.got.tgz:85511.got - 2010.06.03 13:09:07.
