data_PCOD9176803
_publ_section_title
;
Structure prediction by ZEFSAII (Michael W. Deem and Ramdas Pophale) SiO2 
 PCOD9176803
Probable space group: C 2/M
;
_chemical_formula_sum "Si O2"
_cell_formula_units_Z 64
_cell_length_a 24.621014
_cell_length_b 13.731999
_cell_length_c 19.873931
_cell_angle_alpha 90.000000
_cell_angle_beta 28.250851
_cell_angle_gamma 90.000000
_cell_volume 3180.460682
_symmetry_space_group_name_H-M "C 2/M"
_symmetry_group_IT_number 12
_symmetry_cell_setting 'monoclinic'
loop_
_space_group_symop_operation_xyz
x,y,z
-x,y,-z
-x,-y,-z
x,-y,z
1/2+x,1/2+y,z
1/2-x,1/2+y,-z
1/2-x,1/2-y,-z
1/2+x,1/2-y,z
loop_
_atom_site_type_symbol
_atom_site_label
_atom_site_fract_x
_atom_site_fract_y
_atom_site_fract_z
Si Si1 0.306364 0.111856 0.522669
Si Si2 0.516437 0.187078 0.773997
Si Si3 0.015767 0.893386 0.267919
Si Si4 0.417214 0.278261 0.492812
Si Si5 0.736434 0.161775 0.962017
Si Si6 0.428688 0.318567 0.177649
Si Si7 0.167271 0.749750 0.274286
Si Si8 0.847444 0.111317 0.125631
O O1 0.376160 0.136543 0.378892
O O2 0.355223 0.190065 0.522417
O O3 0.170806 0.132536 0.669059
O O4 0.326081 0.000000 0.520330
O O5 0.498770 0.296416 0.761660
O O6 0.543905 0.213221 0.821156
O O7 0.397087 0.131152 0.889353
O O8 0.149986 0.898227 0.143287
O O9 0.940561 0.866204 0.416039
O O10 0.984036 0.000000 0.275402
O O11 0.543299 0.239570 0.375852
O O12 0.353222 0.302624 0.632034
O O13 0.755149 0.196178 0.864910
O O14 0.750000 0.250000 0.000000
O O15 0.379284 0.323784 0.155741
O O16 0.548815 0.375484 0.040174
O O17 0.229999 0.648887 0.222479
O O18 0.842535 0.000000 0.153376
#
# Coordination Sequence:
#
# PCOD9176803 Si02
#       8
#     8   8   8   8   8   8   8   8
#     4  11  22  37  56  82 119 154 191 235 276 333
#     4  10  21  37  57  82 114 156 192 224 286 338
#     4   9  19  35  58  85 113 145 188 240 281 332
#     4   9  20  35  57  83 116 147 188 227 293 341
#     4   9  18  36  53  77 109 141 182 225 275 333
#     4  11  21  37  54  81 116 150 186 234 277 333
#     4  10  18  36  56  78 110 152 178 232 287 341
#     4  11  22  34  56  87 112 143 190 236 287 343
#
# _framework density 20.122871
#
# number of rings (size 3 to 8) (size 9 to 14) (size 15 to 20)
#    0.000    2.000    2.500    2.625    0.000    2.500 
#    0.000    6.250    0.000    0.000    0.000    1.750 
#    0.000    0.000    0.000    0.000    0.000    0.000 
#
# Total GULP energy -178294.408124 kJ/mol
# GULP energy per Si atom -5571.700254 kJ/mol
# Density = 2.007707 g / cm^3
# Si number density = 20.122871 Si / 1000 Ang^3
#
#
#
# Elastic Constant Matrix: (Units=GPa)
#
#
# Indices 1 2 3 4 5 6 
#
# 1 34.5139 2.8409 10.8502 0.0000 4.9542 0.0000
# 2 2.8409 52.6379 15.4666 0.0000 -3.2197 0.0000
# 3 10.8502 15.4666 118.9612 0.0000 2.1468 0.0000
# 4 0.0000 0.0000 0.0000 3.6779 0.0000 -6.2739
# 5 4.9542 -3.2197 2.1468 0.0000 22.0553 0.0000
# 6 0.0000 0.0000 0.0000 -6.2739 0.0000 6.2089
#
#
#
# Elastic Compliance Matrix: (Units=1/GPa)
#
#
# Indices 1 2 3 4 5 6 
#
# 1 0.030864 -0.001348 -0.002516 0.000000 -0.006885 0.000000
# 2 -0.001348 0.020030 -0.002544 0.000000 0.003474 0.000000
# 3 -0.002516 -0.002544 0.008979 0.000000 -0.000680 0.000000
# 4 0.000000 0.000000 0.000000 -0.375694 0.000000 -0.379630
# 5 -0.006885 0.003474 -0.000680 0.000000 0.047460 0.000000
# 6 0.000000 0.000000 0.000000 -0.379630 0.000000 -0.222548
#
#
# Mechanical properties :
#
#
# Convention : Reuss Voigt Hill
#
# Bulk Modulus (GPa) = 21.25022 29.38092 25.31557
# Shear Modulus (GPa) = -10.81297 18.18545 3.68624
#
# Velocity S-wave (km/s) = -2.32059 3.00946 1.35493
# Velocity P-wave (km/s) = 1.84472 5.16800 3.88015
#
# Compressibility (1/GPa) = 0.04705834
#
# Stress axis : x y z
#
# Youngs Moduli (GPa) = 32.40040 49.92388 111.37619
#
# Poissons Ratio (x) = 0.06728 0.28018
# Poissons Ratio (y) = 0.04367 0.28334
# Poissons Ratio (z) = 0.08151 0.12701
#
# Static dielectric constant tensor:
#      x y z
#    x 1.762630 0.000000 0.016860 
#    y 0.000000 1.629840 0.000000 
#    z 0.016860 0.000000 1.775360 
# 
# From -- ./inp_files/327820.got.cif
#   From: 2010.05.17/outbox.cif.g08.bks.cpg/sg12_164_cif.got.tgz:327820.got - 2010.06.03 13:09:07.
