data_PCOD9176946
_publ_section_title
;
Structure prediction by ZEFSAII (Michael W. Deem and Ramdas Pophale) SiO2 
 PCOD9176946
Probable space group: C 2/M
;
_chemical_formula_sum "Si O2"
_cell_formula_units_Z 58
_cell_length_a 23.672135
_cell_length_b 7.454748
_cell_length_c 13.367179
_cell_angle_alpha 90.000000
_cell_angle_beta 91.316132
_cell_angle_gamma 90.000000
_cell_volume 2358.281097
_symmetry_space_group_name_H-M "C 2/M"
_symmetry_group_IT_number 12
_symmetry_cell_setting 'monoclinic'
loop_
_space_group_symop_operation_xyz
x,y,z
-x,y,-z
-x,-y,-z
x,-y,z
1/2+x,1/2+y,z
1/2-x,1/2+y,-z
1/2-x,1/2-y,-z
1/2+x,1/2-y,z
loop_
_atom_site_type_symbol
_atom_site_label
_atom_site_fract_x
_atom_site_fract_y
_atom_site_fract_z
Si Si1 0.347565 0.290209 0.825475
Si Si2 0.718226 0.716315 0.774896
Si Si3 0.103090 0.780722 0.379215
Si Si4 0.000000 0.000000 0.000000
Si Si5 0.853897 0.218931 0.416390
Si Si6 0.132236 0.219731 0.947883
Si Si7 0.479302 0.289095 0.369557
Si Si8 0.509643 0.198317 0.860164
O O1 0.361241 0.500000 0.831520
O O2 0.282044 0.275041 0.792532
O O3 0.382025 0.215435 0.731437
O O4 0.354748 0.219376 0.938763
O O5 0.717420 0.500000 0.772614
O O6 0.690222 0.780065 0.669394
O O7 0.680780 0.767883 0.870097
O O8 0.148468 0.729808 0.466524
O O9 0.040037 0.722974 0.412129
O O10 0.101849 0.000000 0.376039
O O11 0.977592 0.844057 0.923116
O O12 0.916689 0.281291 0.387073
O O13 0.852641 0.000000 0.413198
O O14 0.073966 0.293665 0.902003
O O15 0.125106 0.000000 0.945743
O O16 0.476315 0.500000 0.393712
O O17 0.488029 0.262908 0.252312
O O18 0.486712 0.000000 0.869887
#
# Coordination Sequence:
#
# PCOD9176946 Si02
#       8
#     8   8   8   2   8   8   8   8
#     4  10  22  36  56  85 122 163 207 261 323 389
#     4  10  20  36  59  84 117 161 213 268 322 379
#     4   9  19  33  57  89 120 163 213 259 322 395
#     4  12  26  44  60  90 146 176 214 264 320 378
#     4   9  17  33  59  90 118 157 216 266 319 389
#     4  10  20  39  61  85 122 164 208 267 326 379
#     4  10  18  36  63  89 123 162 206 271 324 376
#     4  12  25  39  65  97 128 175 219 261 319 387
#
# _framework density 24.594186000000001
#
# number of rings (size 3 to 8) (size 9 to 14) (size 15 to 20)
#    0.000    1.931    2.759    1.034    1.931    3.310 
#    0.000    0.690    0.000    3.310    0.000    0.000 
#    0.000    0.000    0.000    0.000    0.000    0.000 
#
# Total GULP energy -161911.318296 kJ/mol
# GULP energy per Si atom -5583.148907 kJ/mol
# Density = 2.453821 g / cm^3
# Si number density = 24.594186 Si / 1000 Ang^3
#
#
#
# Elastic Constant Matrix: (Units=GPa)
#
#
# Indices 1 2 3 4 5 6 
#
# 1 121.6569 -7.5478 28.6879 0.0000 27.8858 0.0000
# 2 -7.5478 91.2837 -0.3773 0.0000 -5.2487 0.0000
# 3 28.6879 -0.3773 125.1102 0.0000 39.7732 0.0000
# 4 0.0000 0.0000 0.0000 43.3980 0.0000 15.8017
# 5 27.8858 -5.2487 39.7732 0.0000 45.8699 0.0000
# 6 0.0000 0.0000 0.0000 15.8017 0.0000 18.6524
#
#
#
# Elastic Compliance Matrix: (Units=1/GPa)
#
#
# Indices 1 2 3 4 5 6 
#
# 1 0.009592 0.000484 -0.000500 0.000000 -0.005343 0.000000
# 2 0.000484 0.011075 -0.000534 0.000000 0.001436 0.000000
# 3 -0.000500 -0.000534 0.011084 0.000000 -0.009368 0.000000
# 4 0.000000 0.000000 0.000000 0.033321 0.000000 -0.028228
# 5 -0.005343 0.001436 -0.009368 0.000000 0.033337 0.000000
# 6 0.000000 0.000000 0.000000 -0.028228 0.000000 0.077526
#
#
# Mechanical properties :
#
#
# Convention : Reuss Voigt Hill
#
# Bulk Modulus (GPa) = 32.62416 42.17516 37.39966
# Shear Modulus (GPa) = 26.70191 42.73659 34.71925
#
# Velocity S-wave (km/s) = 3.29857 4.17306 3.76132
# Velocity P-wave (km/s) = 5.27269 6.35648 5.83978
#
# Compressibility (1/GPa) = 0.03065213
#
# Stress axis : x y z
#
# Youngs Moduli (GPa) = 104.24967 90.29146 90.21899
#
# Poissons Ratio (x) = -0.04369 0.04506
# Poissons Ratio (y) = -0.05044 0.04819
# Poissons Ratio (z) = 0.05207 0.04823
#
# Static dielectric constant tensor:
#      x y z
#    x 1.995230 0.000000 -0.003830 
#    y 0.000000 1.963390 0.000000 
#    z -0.003830 0.000000 2.002870 
# 
# From -- ./inp_files/180954.got.cif
#   From: 2010.05.17/outbox.cif.g08.bks.cpg/sg12_91_cif.got.tgz:180954.got - 2010.06.03 13:09:07.
