data_PCOD9176317
_publ_section_title
;
Structure prediction by ZEFSAII (Michael W. Deem and Ramdas Pophale) SiO2 
 PCOD9176317
Probable space group: C 2/M
;
_chemical_formula_sum "Si O2"
_cell_formula_units_Z 64
_cell_length_a 30.927262
_cell_length_b 7.414077
_cell_length_c 22.997552
_cell_angle_alpha 90.000000
_cell_angle_beta 148.455547
_cell_angle_gamma 90.000000
_cell_volume 2758.764619
_symmetry_space_group_name_H-M "C 2/M"
_symmetry_group_IT_number 12
_symmetry_cell_setting 'monoclinic'
loop_
_space_group_symop_operation_xyz
x,y,z
-x,y,-z
-x,-y,-z
x,-y,z
1/2+x,1/2+y,z
1/2-x,1/2+y,-z
1/2-x,1/2-y,-z
1/2+x,1/2-y,z
loop_
_atom_site_type_symbol
_atom_site_label
_atom_site_fract_x
_atom_site_fract_y
_atom_site_fract_z
Si Si1 0.020961 0.721033 0.652500
Si Si2 0.123309 0.781714 0.977550
Si Si3 0.523588 0.209540 0.273101
Si Si4 0.189467 0.720009 0.793711
Si Si5 0.266588 0.790021 0.686018
Si Si6 0.384967 0.205048 0.412337
Si Si7 0.920181 0.217952 0.943888
Si Si8 0.326088 0.784786 0.630046
O O1 0.017751 0.500000 0.648811
O O2 0.982830 0.785870 0.669462
O O3 0.116504 0.770621 0.754033
O O4 0.966759 0.783854 0.535418
O O5 0.218369 0.719783 0.085385
O O6 0.084053 0.722830 0.994193
O O7 0.123004 0.000000 0.976350
O O8 0.065390 0.719416 0.859168
O O9 0.591735 0.288009 0.307188
O O10 0.546778 0.000000 0.307164
O O11 0.194010 0.500000 0.796911
O O12 0.158502 0.783514 0.694619
O O13 0.184134 0.702135 0.616466
O O14 0.337794 0.773099 0.815750
O O15 0.302431 0.714321 0.666723
O O16 0.246275 0.000000 0.654048
O O17 0.406283 0.000000 0.420212
O O18 0.921873 0.000000 0.946185
O O19 0.000000 0.282157 0.000000
O O20 0.250000 0.750000 0.500000
O O21 0.337633 0.000000 0.650991
#
# Coordination Sequence:
#
# PCOD9176317 Si02
#       8
#     8   8   8   8   8   8   8   8
#     4   9  18  32  56  84 106 138 183 231 277 324
#     4  10  20  35  54  79 110 143 180 226 270 317
#     4  10  21  37  54  78 111 145 184 223 267 326
#     4   9  17  32  55  84 111 134 178 235 278 320
#     4  11  22  34  52  80 113 144 176 217 274 328
#     4  10  18  34  59  83 109 141 181 228 277 326
#     4  10  20  35  55  79 105 138 184 227 265 316
#     4  10  22  38  55  79 111 146 184 226 267 318
#
# _framework density 23.198789999999999
#
# number of rings (size 3 to 8) (size 9 to 14) (size 15 to 20)
#    0.000    2.125    1.250    2.250    0.000    5.250 
#    0.000    0.625    0.000    3.000    0.000    0.000 
#    0.000    0.000    0.000    0.000    0.000    0.000 
#
# Total GULP energy -178891.350496 kJ/mol
# GULP energy per Si atom -5590.354703 kJ/mol
# Density = 2.314599 g / cm^3
# Si number density = 23.198790 Si / 1000 Ang^3
#
#
#
# Elastic Constant Matrix: (Units=GPa)
#
#
# Indices 1 2 3 4 5 6 
#
# 1 83.4312 1.0863 8.4127 0.0000 9.6177 0.0000
# 2 1.0863 77.9243 -16.4648 0.0000 4.8047 0.0000
# 3 8.4127 -16.4648 92.2520 0.0000 11.7705 0.0000
# 4 0.0000 0.0000 0.0000 24.1261 0.0000 -3.8623
# 5 9.6177 4.8047 11.7705 0.0000 47.3424 0.0000
# 6 0.0000 0.0000 0.0000 -3.8623 0.0000 0.1295
#
#
#
# Elastic Compliance Matrix: (Units=1/GPa)
#
#
# Indices 1 2 3 4 5 6 
#
# 1 0.012338 -0.000217 -0.000875 0.000000 -0.002267 0.000000
# 2 -0.000217 0.013527 0.002689 0.000000 -0.001997 0.000000
# 3 -0.000875 0.002689 0.011786 0.000000 -0.003025 0.000000
# 4 0.000000 0.000000 0.000000 -0.010985 0.000000 -0.327532
# 5 -0.002267 -0.001997 -0.003025 0.000000 0.022538 0.000000
# 6 0.000000 0.000000 0.000000 -0.327532 0.000000 -2.045948
#
#
# Mechanical properties :
#
#
# Convention : Reuss Voigt Hill
#
# Bulk Modulus (GPa) = 24.48240 26.63066 25.55653
# Shear Modulus (GPa) = -2.51721 31.69117 14.58698
#
# Velocity S-wave (km/s) = -1.04279 3.70005 2.51027
# Velocity P-wave (km/s) = 3.02098 5.45509 4.40933
#
# Compressibility (1/GPa) = 0.04084567
#
# Stress axis : x y z
#
# Youngs Moduli (GPa) = 81.04854 73.92462 84.84962
#
# Poissons Ratio (x) = 0.01604 0.07421
# Poissons Ratio (y) = 0.01759 -0.22815
# Poissons Ratio (z) = 0.07089 -0.19878
#
# Static dielectric constant tensor:
#      x y z
#    x 1.862990 0.000000 0.008150 
#    y 0.000000 1.936220 0.000000 
#    z 0.008150 0.000000 1.812440 
# 
# From -- ./inp_files/353489.got.cif
#   From: 2010.05.17/outbox.cif.g08.bks.cpg/sg12_177_cif.got.tgz:353489.got - 2010.06.03 13:09:07.
