data_PCOD9176550
_publ_section_title
;
Structure prediction by ZEFSAII (Michael W. Deem and Ramdas Pophale) SiO2 
 PCOD9176550
Probable space group: C 2/M
;
_chemical_formula_sum "Si O2"
_cell_formula_units_Z 48
_cell_length_a 18.389530
_cell_length_b 13.862884
_cell_length_c 19.867065
_cell_angle_alpha 90.000000
_cell_angle_beta 31.011222
_cell_angle_gamma 90.000000
_cell_volume 2609.388848
_symmetry_space_group_name_H-M "C 2/M"
_symmetry_group_IT_number 12
_symmetry_cell_setting 'monoclinic'
loop_
_space_group_symop_operation_xyz
x,y,z
-x,y,-z
-x,-y,-z
x,-y,z
1/2+x,1/2+y,z
1/2-x,1/2+y,-z
1/2-x,1/2-y,-z
1/2+x,1/2-y,z
loop_
_atom_site_type_symbol
_atom_site_label
_atom_site_fract_x
_atom_site_fract_y
_atom_site_fract_z
Si Si1 0.814183 0.791886 0.851260
Si Si2 0.655339 0.704650 0.410334
Si Si3 0.370008 0.325795 0.421593
Si Si4 0.349926 0.614029 0.968130
Si Si5 0.324853 0.393984 0.313718
Si Si6 0.843222 0.614412 0.145303
O O1 0.806175 0.850238 0.927895
O O2 0.753580 0.858248 0.840914
O O3 0.978207 0.775826 0.706228
O O4 0.731545 0.690668 0.920800
O O5 0.500000 0.707284 0.500000
O O6 0.646554 0.645039 0.487526
O O7 0.714266 0.810879 0.382882
O O8 0.770405 0.661260 0.268073
O O9 0.250000 0.250000 0.500000
O O10 0.354459 0.396724 0.370804
O O11 0.318790 0.500000 0.002002
O O12 0.519209 0.626928 0.840150
O O13 0.278251 0.500000 0.328349
O O14 0.849253 0.500000 0.150852
O O15 0.000000 0.648369 0.000000
#
# Coordination Sequence:
#
# PCOD9176550 Si02
#       6
#     8   8   8   8   8   8
#     4  10  18  35  56  81 116 152 187 247 290 339
#     4  11  21  38  59  88 119 153 193 238 293 350
#     4   9  19  36  57  82 113 149 196 237 289 340
#     4   9  18  33  58  85 110 150 199 236 285 344
#     4   9  19  36  59  85 116 155 195 238 287 344
#     4  11  24  39  57  84 117 153 193 238 296 351
#
# _framework density 18.395111
#
# number of rings (size 3 to 8) (size 9 to 14) (size 15 to 20)
#    0.000    2.167    1.667    1.500    0.000    3.333 
#    0.000    4.167    0.000    3.000    0.000    0.000 
#    0.000    0.000    0.000    0.000    0.000    0.000 
#
# Total GULP energy -133700.139087 kJ/mol
# GULP energy per Si atom -5570.839129 kJ/mol
# Density = 1.835324 g / cm^3
# Si number density = 18.395111 Si / 1000 Ang^3
#
#
#
# Elastic Constant Matrix: (Units=GPa)
#
#
# Indices 1 2 3 4 5 6 
#
# 1 71.6565 7.3686 35.3598 0.0000 -0.5433 0.0000
# 2 7.3686 71.6658 40.3783 0.0001 -4.5140 0.0000
# 3 35.3598 40.3783 116.1829 0.0000 0.1878 0.0000
# 4 0.0000 0.0001 0.0000 10.2931 0.0000 -5.3690
# 5 -0.5433 -4.5140 0.1878 0.0000 31.9334 0.0000
# 6 0.0000 0.0000 0.0000 -5.3690 0.0000 16.2237
#
#
#
# Elastic Compliance Matrix: (Units=1/GPa)
#
#
# Indices 1 2 3 4 5 6 
#
# 1 0.016544 0.001454 -0.005541 0.000000 0.000520 0.000000
# 2 0.001454 0.017679 -0.006591 0.000000 0.002563 0.000000
# 3 -0.005541 -0.006591 0.012586 0.000000 -0.001100 0.000000
# 4 0.000000 0.000000 0.000000 0.117422 0.000000 0.038859
# 5 0.000520 0.002563 -0.001100 0.000000 0.031693 0.000000
# 6 0.000000 0.000000 0.000000 0.038859 0.000000 0.074498
#
#
# Mechanical properties :
#
#
# Convention : Reuss Voigt Hill
#
# Bulk Modulus (GPa) = 39.28862 47.30209 43.29536
# Shear Modulus (GPa) = 16.65206 23.44993 20.05100
#
# Velocity S-wave (km/s) = 3.01199 3.57430 3.30512
# Velocity P-wave (km/s) = 5.78798 6.54251 6.17678
#
# Compressibility (1/GPa) = 0.02545266
#
# Stress axis : x y z
#
# Youngs Moduli (GPa) = 60.44367 56.56426 79.45380
#
# Poissons Ratio (x) = -0.08223 0.44028
# Poissons Ratio (y) = -0.08787 0.52366
# Poissons Ratio (z) = 0.33494 0.37280
#
# Static dielectric constant tensor:
#      x y z
#    x 1.633440 0.000000 0.037760 
#    y 0.000000 1.614260 0.000000 
#    z 0.037760 0.000000 1.634470 
# 
# From -- ./inp_files/104918.got.cif
#   From: 2010.05.17/outbox.cif.g08.bks.cpg/sg12_53_cif.got.tgz:104918.got - 2010.06.03 13:09:07.
