data_PCOD9176091
_publ_section_title
;
Structure prediction by ZEFSAII (Michael W. Deem and Ramdas Pophale) SiO2 
 PCOD9176091
Probable space group: C 2/M
;
_chemical_formula_sum "Si O2"
_cell_formula_units_Z 64
_cell_length_a 31.622702
_cell_length_b 13.293556
_cell_length_c 15.023469
_cell_angle_alpha 90.000000
_cell_angle_beta 36.422623
_cell_angle_gamma 90.000000
_cell_volume 3749.766521
_symmetry_space_group_name_H-M "C 2/M"
_symmetry_group_IT_number 12
_symmetry_cell_setting 'monoclinic'
loop_
_space_group_symop_operation_xyz
x,y,z
-x,y,-z
-x,-y,-z
x,-y,z
1/2+x,1/2+y,z
1/2-x,1/2+y,-z
1/2-x,1/2-y,-z
1/2+x,1/2-y,z
loop_
_atom_site_type_symbol
_atom_site_label
_atom_site_fract_x
_atom_site_fract_y
_atom_site_fract_z
Si Si1 0.735522 0.384189 0.110768
Si Si2 0.870652 0.812077 0.559048
Si Si3 0.214242 0.614859 0.320514
Si Si4 0.686436 0.289785 0.707586
Si Si5 0.020008 0.880613 0.253014
Si Si6 0.548809 0.384075 0.004134
Si Si7 0.180812 0.184476 0.011278
Si Si8 0.790403 0.882087 0.518949
O O1 0.757662 0.500000 0.082435
O O2 0.670612 0.360944 0.288065
O O3 0.796472 0.301898 0.028659
O O4 0.708841 0.361768 0.056252
O O5 0.847421 0.695370 0.594929
O O6 0.837869 0.862229 0.525465
O O7 0.954492 0.830946 0.415514
O O8 0.191058 0.500000 0.359742
O O9 0.251267 0.645528 0.350734
O O10 0.275397 0.632280 0.142669
O O11 0.715885 0.176719 0.658750
O O12 0.676539 0.330100 0.624527
O O13 0.614780 0.309371 0.882615
O O14 0.009357 0.868580 0.164336
O O15 0.021214 0.000000 0.269667
O O16 0.097223 0.835254 0.143757
O O17 0.576376 0.500000 0.958602
O O18 0.500000 0.374159 0.000000
O O19 0.782424 0.000000 0.517979
#
# Coordination Sequence:
#
# PCOD9176091 Si02
#       8
#     8   8   8   8   8   8   8   8
#     4  10  20  37  56  77 106 139 174 216 262 310
#     4  10  22  34  50  77 107 138 172 208 261 320
#     4  10  18  34  55  75 101 134 175 220 257 300
#     4  10  19  30  50  75  97 130 174 213 251 309
#     4  11  20  33  52  76 108 138 170 218 265 307
#     4  10  19  30  48  73 103 135 167 209 261 305
#     4  10  21  34  56  83 103 133 179 218 259 313
#     4  10  19  32  49  72 102 133 168 210 257 304
#
# _framework density 17.067730000000001
#
# number of rings (size 3 to 8) (size 9 to 14) (size 15 to 20)
#    0.000    1.875    1.250    4.125    0.000    1.500 
#    0.000    1.875    0.000    1.125    0.000    5.250 
#    0.000    0.000    0.000    0.000    0.000    0.000 
#
# Total GULP energy -178602.284246 kJ/mol
# GULP energy per Si atom -5581.321383 kJ/mol
# Density = 1.702888 g / cm^3
# Si number density = 17.067730 Si / 1000 Ang^3
#
#
#
# Elastic Constant Matrix: (Units=GPa)
#
#
# Indices 1 2 3 4 5 6 
#
# 1 41.6524 3.6367 13.4559 0.0000 1.8997 0.0000
# 2 3.6367 90.2706 18.3904 0.0000 -17.9401 0.0000
# 3 13.4559 18.3904 84.0901 0.0000 -15.5928 0.0000
# 4 0.0000 0.0000 0.0000 13.3871 0.0000 2.2977
# 5 1.8997 -17.9401 -15.5928 0.0000 29.7252 0.0000
# 6 0.0000 0.0000 0.0000 2.2977 0.0000 13.6469
#
#
#
# Elastic Compliance Matrix: (Units=1/GPa)
#
#
# Indices 1 2 3 4 5 6 
#
# 1 0.025867 -0.001014 -0.004805 0.000000 -0.004786 0.000000
# 2 -0.001014 0.012798 -0.001321 0.000000 0.007096 0.000000
# 3 -0.004805 -0.001321 0.014244 0.000000 0.006982 0.000000
# 4 0.000000 0.000000 0.000000 0.076922 0.000000 -0.012951
# 5 -0.004786 0.007096 0.006982 0.000000 0.041892 0.000000
# 6 0.000000 0.000000 0.000000 -0.012951 0.000000 0.075457
#
#
# Mechanical properties :
#
#
# Convention : Reuss Voigt Hill
#
# Bulk Modulus (GPa) = 25.88679 31.88655 28.88667
# Shear Modulus (GPa) = 18.22573 23.38719 20.80646
#
# Velocity S-wave (km/s) = 3.27134 3.70571 3.49528
# Velocity P-wave (km/s) = 5.42853 6.08545 5.76635
#
# Compressibility (1/GPa) = 0.03862974
#
# Stress axis : x y z
#
# Youngs Moduli (GPa) = 38.65893 78.13735 70.20311
#
# Poissons Ratio (x) = 0.07926 0.33731
# Poissons Ratio (y) = 0.03921 0.09272
# Poissons Ratio (z) = 0.18575 0.10320
#
# Static dielectric constant tensor:
#      x y z
#    x 1.585710 0.000000 0.019780 
#    y 0.000000 1.569040 0.000000 
#    z 0.019780 0.000000 1.576420 
# 
# From -- ./inp_files/250785.got.cif
#   From: 2010.05.17/outbox.cif.g08.bks.cpg/sg12_126_cif.got.tgz:250785.got - 2010.06.03 13:09:07.
