data_PCOD9176989
_publ_section_title
;
Structure prediction by ZEFSAII (Michael W. Deem and Ramdas Pophale) SiO2 
 PCOD9176989
Probable space group: C 2/M
;
_chemical_formula_sum "Si O2"
_cell_formula_units_Z 56
_cell_length_a 12.399759
_cell_length_b 25.624122
_cell_length_c 9.247193
_cell_angle_alpha 90.000000
_cell_angle_beta 116.570709
_cell_angle_gamma 90.000000
_cell_volume 2627.820570
_symmetry_space_group_name_H-M "C 2/M"
_symmetry_group_IT_number 12
_symmetry_cell_setting 'monoclinic'
loop_
_space_group_symop_operation_xyz
x,y,z
-x,y,-z
-x,-y,-z
x,-y,z
1/2+x,1/2+y,z
1/2-x,1/2+y,-z
1/2-x,1/2-y,-z
1/2+x,1/2-y,z
loop_
_atom_site_type_symbol
_atom_site_label
_atom_site_fract_x
_atom_site_fract_y
_atom_site_fract_z
Si Si1 0.685924 0.559828 0.155285
Si Si2 0.184415 0.809056 0.802915
Si Si3 0.690446 0.205848 0.616183
Si Si4 0.659420 0.147597 0.873614
Si Si5 0.887624 0.656044 0.714215
Si Si6 0.450880 0.660508 0.819279
Si Si7 0.379713 0.944771 0.521699
O O1 0.650860 0.500000 0.090522
O O2 0.765411 0.593044 0.084695
O O3 0.588155 0.601628 0.158051
O O4 0.772289 0.553643 0.344133
O O5 0.165937 0.758055 0.692767
O O6 0.284685 0.839732 0.771500
O O7 0.056352 0.834843 0.764868
O O8 0.253543 0.809640 0.999790
O O9 0.641042 0.161138 0.693493
O O10 0.634018 0.200179 0.423436
O O11 0.832364 0.191257 0.696273
O O12 0.524776 0.153527 0.852058
O O13 0.866751 0.602410 0.619919
O O14 0.500000 0.684626 0.000000
O O15 0.500000 0.940033 0.500000
O O16 0.386348 0.000000 0.606024
#
# Coordination Sequence:
#
# PCOD9176989 Si02
#       7
#     8   8   8   8   8   8   8
#     4  10  20  39  70  97 125 173 228 271 319 387
#     4  12  27  42  64  95 138 180 209 272 346 381
#     4  11  24  44  66  91 127 180 224 266 318 393
#     4  11  22  43  66  98 130 168 221 275 322 389
#     4  12  23  42  65 100 134 163 223 276 324 396
#     4  11  23  43  65  94 132 172 226 269 320 402
#     4  10  18  36  66  96 127 168 215 274 329 384
#
# _framework density 21.310435999999999
#
# number of rings (size 3 to 8) (size 9 to 14) (size 15 to 20)
#    0.000    1.000    7.143    1.714    2.000    0.857 
#    2.571    1.429    0.000    3.429    0.000    0.000 
#    0.000    0.000    0.000    0.000    0.000    0.000 
#
# Total GULP energy -156125.985081 kJ/mol
# GULP energy per Si atom -5575.928039 kJ/mol
# Density = 2.126193 g / cm^3
# Si number density = 21.310436 Si / 1000 Ang^3
#
#
#
# Elastic Constant Matrix: (Units=GPa)
#
#
# Indices 1 2 3 4 5 6 
#
# 1 189.6815 61.1308 32.6995 0.0000 -1.3126 0.0000
# 2 61.1308 139.8986 24.7727 0.0000 4.6483 0.0000
# 3 32.6995 24.7727 50.6986 0.0000 3.6972 0.0000
# 4 0.0000 0.0000 0.0000 10.7002 0.0000 -9.2682
# 5 -1.3126 4.6483 3.6972 0.0000 29.5978 0.0000
# 6 0.0000 0.0000 0.0000 -9.2682 0.0000 18.6918
#
#
#
# Elastic Compliance Matrix: (Units=1/GPa)
#
#
# Indices 1 2 3 4 5 6 
#
# 1 0.006584 -0.002350 -0.003176 0.000000 0.001058 0.000000
# 2 -0.002350 0.008681 -0.002643 0.000000 -0.001137 0.000000
# 3 -0.003176 -0.002643 0.023256 0.000000 -0.002631 0.000000
# 4 0.000000 0.000000 0.000000 0.163810 0.000000 0.081224
# 5 0.001058 -0.001137 -0.002631 0.000000 0.034340 0.000000
# 6 0.000000 0.000000 0.000000 0.081224 0.000000 0.093774
#
#
# Mechanical properties :
#
#
# Convention : Reuss Voigt Hill
#
# Bulk Modulus (GPa) = 45.07804 68.60940 56.84372
# Shear Modulus (GPa) = 14.11726 29.24301 21.68013
#
# Velocity S-wave (km/s) = 2.57662 3.70839 3.19305
# Velocity P-wave (km/s) = 5.48187 7.11346 6.35028
#
# Compressibility (1/GPa) = 0.02218375
#
# Stress axis : x y z
#
# Youngs Moduli (GPa) = 151.88208 115.19886 42.99993
#
# Poissons Ratio (x) = 0.27070 0.13655
# Poissons Ratio (y) = 0.35690 0.11365
# Poissons Ratio (z) = 0.48230 0.30448
#
# Static dielectric constant tensor:
#      x y z
#    x 1.817390 0.000000 0.028810 
#    y 0.000000 1.840710 0.000000 
#    z 0.028810 0.000000 1.780440 
# 
# From -- ./inp_files/53275.got.cif
#   From: 2010.05.17/outbox.cif.g08.bks.cpg/sg12_27_cif.got.tgz:53275.got - 2010.06.03 13:09:07.
