data_PCOD9176993
_publ_section_title
;
Structure prediction by ZEFSAII (Michael W. Deem and Ramdas Pophale) SiO2 
 PCOD9176993
Probable space group: C 2/M
;
_chemical_formula_sum "Si O2"
_cell_formula_units_Z 44
_cell_length_a 19.598526
_cell_length_b 12.301067
_cell_length_c 11.357961
_cell_angle_alpha 90.000000
_cell_angle_beta 55.839591
_cell_angle_gamma 90.000000
_cell_volume 2265.782299
_symmetry_space_group_name_H-M "C 2/M"
_symmetry_group_IT_number 12
_symmetry_cell_setting 'monoclinic'
loop_
_space_group_symop_operation_xyz
x,y,z
-x,y,-z
-x,-y,-z
x,-y,z
1/2+x,1/2+y,z
1/2-x,1/2+y,-z
1/2-x,1/2-y,-z
1/2+x,1/2-y,z
loop_
_atom_site_type_symbol
_atom_site_label
_atom_site_fract_x
_atom_site_fract_y
_atom_site_fract_z
Si Si1 0.597687 0.000000 0.436812
Si Si2 0.871169 0.691767 0.417182
Si Si3 0.512811 0.268622 0.127548
Si Si4 0.713890 0.500000 0.813561
Si Si5 0.231435 0.870905 0.364868
Si Si6 0.549713 0.500000 0.828600
Si Si7 0.698921 0.739849 0.930469
O O1 0.500000 0.000000 0.500000
O O2 0.611507 0.892762 0.498691
O O3 0.685569 0.000000 0.280664
O O4 0.845377 0.803939 0.506531
O O5 0.798857 0.649404 0.401877
O O6 0.949937 0.695547 0.258207
O O7 0.484584 0.389883 0.194938
O O8 0.500000 0.264064 0.000000
O O9 0.605646 0.231884 0.055164
O O10 0.648972 0.500000 0.762336
O O11 0.692251 0.614446 0.894456
O O12 0.264063 0.811392 0.213506
O O13 0.218244 0.000000 0.360567
O O14 0.500000 0.500000 0.000000
O O15 0.750000 0.750000 0.000000
#
# Coordination Sequence:
#
# PCOD9176993 Si02
#       7
#     4   8   8   4   8   4   8
#     4  12  28  46  68  98 141 188 235 270 343 438
#     4  11  24  42  70  96 136 179 227 283 340 411
#     4  11  21  40  64 102 132 169 226 285 339 401
#     4  12  22  46  69  95 132 179 233 280 339 417
#     4  11  24  44  67 102 134 178 231 284 343 409
#     4  10  18  36  68  97 126 158 226 289 325 391
#     4  12  26  43  68  99 139 181 227 284 354 416
#
# _framework density 19.419340999999999
#
# number of rings (size 3 to 8) (size 9 to 14) (size 15 to 20)
#    0.000    0.727    8.182    0.000    7.636    0.000 
#    1.636    1.364    0.000    1.636    0.000    0.000 
#    0.000    0.000    0.000    0.000    0.000    0.000 
#
# Total GULP energy -122553.896347 kJ/mol
# GULP energy per Si atom -5570.631652 kJ/mol
# Density = 1.937514 g / cm^3
# Si number density = 19.419341 Si / 1000 Ang^3
#
#
#
# Elastic Constant Matrix: (Units=GPa)
#
#
# Indices 1 2 3 4 5 6 
#
# 1 113.9222 9.8188 35.8512 0.0000 -11.6187 0.0000
# 2 9.8188 104.3133 40.2579 0.0000 6.6166 0.0000
# 3 35.8512 40.2579 89.3131 0.0000 -27.9329 0.0000
# 4 0.0000 0.0000 0.0000 -31.9010 0.0000 -21.6337
# 5 -11.6187 6.6166 -27.9329 0.0000 34.6725 0.0000
# 6 0.0000 0.0000 0.0000 -21.6337 0.0000 -5.6758
#
#
#
# Elastic Compliance Matrix: (Units=1/GPa)
#
#
# Indices 1 2 3 4 5 6 
#
# 1 0.010099 0.000848 -0.004583 0.000000 -0.000470 0.000000
# 2 0.000848 0.013971 -0.009870 0.000000 -0.010333 0.000000
# 3 -0.004583 -0.009870 0.023520 0.000000 0.019296 0.000000
# 4 0.000000 0.000000 0.000000 0.019780 0.000000 -0.075392
# 5 -0.000470 -0.010333 0.019296 0.000000 0.046201 0.000000
# 6 0.000000 0.000000 0.000000 -0.075392 0.000000 0.111172
#
#
# Mechanical properties :
#
#
# Convention : Reuss Voigt Hill
#
# Bulk Modulus (GPa) = 49.06616 53.26718 51.16667
# Shear Modulus (GPa) = 19.32398 14.19384 16.75891
#
# Velocity S-wave (km/s) = 3.15793 2.70647 2.94087
# Velocity P-wave (km/s) = 6.21435 6.10378 6.15932
#
# Compressibility (1/GPa) = 0.02038064
#
# Stress axis : x y z
#
# Youngs Moduli (GPa) = 99.01760 71.57628 42.51750
#
# Poissons Ratio (x) = -0.06069 0.19486
# Poissons Ratio (y) = -0.08396 0.41963
# Poissons Ratio (z) = 0.45381 0.70643
#
# Static dielectric constant tensor:
#      x y z
#    x 1.490780 0.000000 0.038480 
#    y 0.000000 1.683980 0.000000 
#    z 0.038480 0.000000 1.644060 
# 
# From -- ./inp_files/154133.got.cif
#   From: 2010.05.17/outbox.cif.g08.bks.cpg/sg12_78_cif.got.tgz:154133.got - 2010.06.03 13:09:07.
