data_PCOD9176450
_publ_section_title
;
Structure prediction by ZEFSAII (Michael W. Deem and Ramdas Pophale) SiO2 
 PCOD9176450
Probable space group: C 2/M
;
_chemical_formula_sum "Si O2"
_cell_formula_units_Z 64
_cell_length_a 17.744006
_cell_length_b 14.491048
_cell_length_c 17.693029
_cell_angle_alpha 90.000000
_cell_angle_beta 46.999933
_cell_angle_gamma 90.000000
_cell_volume 3327.213353
_symmetry_space_group_name_H-M "C 2/M"
_symmetry_group_IT_number 12
_symmetry_cell_setting 'monoclinic'
loop_
_space_group_symop_operation_xyz
x,y,z
-x,y,-z
-x,-y,-z
x,-y,z
1/2+x,1/2+y,z
1/2-x,1/2+y,-z
1/2-x,1/2-y,-z
1/2+x,1/2-y,z
loop_
_atom_site_type_symbol
_atom_site_label
_atom_site_fract_x
_atom_site_fract_y
_atom_site_fract_z
Si Si1 0.953062 0.605080 0.720993
Si Si2 0.714957 0.893504 0.037886
Si Si3 0.629904 0.270481 0.825501
Si Si4 0.646071 0.893063 0.699348
Si Si5 0.343129 0.603308 0.454786
Si Si6 0.269681 0.893310 0.627661
Si Si7 0.386489 0.733471 0.984437
Si Si8 0.959656 0.736880 0.450485
O O1 0.970882 0.500000 0.682539
O O2 0.849967 0.608580 0.839979
O O3 0.047235 0.627941 0.714009
O O4 0.956667 0.675274 0.649807
O O5 0.648853 0.832076 0.024961
O O6 0.726121 0.000000 0.007069
O O7 0.821754 0.842351 0.982292
O O8 0.654891 0.176138 0.763172
O O9 0.703748 0.347923 0.739575
O O10 0.507986 0.285220 0.893624
O O11 0.641042 0.266779 0.908020
O O12 0.745418 0.884869 0.577512
O O13 0.636022 0.000000 0.730229
O O14 0.385088 0.500000 0.438053
O O15 0.301955 0.609694 0.397999
O O16 0.419930 0.684659 0.422054
O O17 0.368353 0.832556 0.537427
O O18 0.297033 0.000000 0.623946
O O19 0.000000 0.780436 0.500000
#
# Coordination Sequence:
#
# PCOD9176450 Si02
#       8
#     8   8   8   8   8   8   8   8
#     4  10  20  35  59  89 118 153 193 237 294 351
#     4  10  22  42  63  84 116 158 199 243 294 351
#     4  11  22  39  60  89 119 150 192 251 301 342
#     4  10  18  34  62  90 116 150 196 242 291 347
#     4  10  21  39  62  87 118 159 201 235 279 351
#     4  11  23  39  61  88 118 156 198 238 289 351
#     4  10  24  40  61  87 116 151 202 248 295 351
#     4  12  24  36  58  91 128 156 186 241 292 350
#
# _framework density 19.235315
#
# number of rings (size 3 to 8) (size 9 to 14) (size 15 to 20)
#    0.000    1.500    3.750    1.500    1.750    2.750 
#    0.000    2.500    0.000    0.000    0.000    0.000 
#    0.000    0.000    0.000    0.000    0.000    0.000 
#
# Total GULP energy -178797.681998 kJ/mol
# GULP energy per Si atom -5587.427562 kJ/mol
# Density = 1.919153 g / cm^3
# Si number density = 19.235315 Si / 1000 Ang^3
#
#
#
# Elastic Constant Matrix: (Units=GPa)
#
#
# Indices 1 2 3 4 5 6 
#
# 1 33.8609 12.2068 -4.9582 0.0000 -1.9642 0.0000
# 2 12.2068 84.4768 24.0605 0.0000 -6.6363 0.0000
# 3 -4.9582 24.0605 70.7146 0.0000 5.1663 0.0000
# 4 0.0000 0.0000 0.0000 25.7511 0.0000 -2.6602
# 5 -1.9642 -6.6363 5.1663 0.0000 9.9714 0.0000
# 6 0.0000 0.0000 0.0000 -2.6602 0.0000 -9.9677
#
#
#
# Elastic Compliance Matrix: (Units=1/GPa)
#
#
# Indices 1 2 3 4 5 6 
#
# 1 0.032277 -0.005848 0.004233 0.000000 0.000273 0.000000
# 2 -0.005848 0.015564 -0.006629 0.000000 0.012641 0.000000
# 3 0.004233 -0.006629 0.017622 0.000000 -0.012708 0.000000
# 4 0.000000 0.000000 0.000000 0.037791 0.000000 -0.010086
# 5 0.000273 0.012641 -0.012708 0.000000 0.115337 0.000000
# 6 0.000000 0.000000 0.000000 -0.010086 0.000000 -0.097632
#
#
# Mechanical properties :
#
#
# Convention : Reuss Voigt Hill
#
# Bulk Modulus (GPa) = 20.41903 27.96337 24.19120
# Shear Modulus (GPa) = 32.51566 15.66717 24.09142
#
# Velocity S-wave (km/s) = 4.11593 2.85704 3.54285
# Velocity P-wave (km/s) = 5.76422 5.04506 5.41659
#
# Compressibility (1/GPa) = 0.04897393
#
# Stress axis : x y z
#
# Youngs Moduli (GPa) = 30.98228 64.25194 56.74690
#
# Poissons Ratio (x) = 0.37575 -0.24021
# Poissons Ratio (y) = 0.18119 0.37618
# Poissons Ratio (z) = -0.13115 0.42593
#
# Static dielectric constant tensor:
#      x y z
#    x 1.672180 0.000000 -0.003520 
#    y 0.000000 1.665070 0.000000 
#    z -0.003520 0.000000 1.650160 
# 
# From -- ./inp_files/225699.got.cif
#   From: 2010.05.17/outbox.cif.g08.bks.cpg/sg12_113_cif.got.tgz:225699.got - 2010.06.03 13:09:07.
