data_PCOD9176452
_publ_section_title
;
Structure prediction by ZEFSAII (Michael W. Deem and Ramdas Pophale) SiO2 
 PCOD9176452
Probable space group: C 2/M
;
_chemical_formula_sum "Si O2"
_cell_formula_units_Z 32
_cell_length_a 9.692186
_cell_length_b 16.367616
_cell_length_c 11.952560
_cell_angle_alpha 90.000000
_cell_angle_beta 123.260258
_cell_angle_gamma 90.000000
_cell_volume 1585.521076
_symmetry_space_group_name_H-M "C 2/M"
_symmetry_group_IT_number 12
_symmetry_cell_setting 'monoclinic'
loop_
_space_group_symop_operation_xyz
x,y,z
-x,y,-z
-x,-y,-z
x,-y,z
1/2+x,1/2+y,z
1/2-x,1/2+y,-z
1/2-x,1/2-y,-z
1/2+x,1/2-y,z
loop_
_atom_site_type_symbol
_atom_site_label
_atom_site_fract_x
_atom_site_fract_y
_atom_site_fract_z
Si Si1 0.041241 0.595034 0.893857
Si Si2 0.766921 0.596295 0.615135
Si Si3 0.479102 0.403160 0.674005
Si Si4 0.370345 0.672230 0.040797
O O1 0.992275 0.500000 0.876552
O O2 0.930604 0.632464 0.745191
O O3 0.234272 0.602413 0.957772
O O4 0.000000 0.627878 0.000000
O O5 0.794891 0.500000 0.603195
O O6 0.683027 0.628123 0.464297
O O7 0.628393 0.600525 0.650597
O O8 0.460293 0.500000 0.694382
O O9 0.532194 0.351415 0.803976
O O10 0.500000 0.681365 0.000000
O O11 0.250000 0.750000 0.000000
#
# Coordination Sequence:
#
# PCOD9176452 Si02
#       4
#     8   8   8   8
#     4  10  18  34  62  91 116 147 190 235 285 344
#     4   8  15  30  61  95 116 142 182 232 286 346
#     4   9  17  34  61  91 117 146 187 234 287 343
#     4  12  26  40  56  79 117 158 199 244 286 337
#
# _framework density 20.182638000000001
#
# number of rings (size 3 to 8) (size 9 to 14) (size 15 to 20)
#    0.000    2.250    2.500    3.000    0.000    2.000 
#    0.000    2.500    0.000    4.500    0.000    0.000 
#    0.000    0.000    0.000    0.000    0.000    0.000 
#
# Total GULP energy -89165.156085 kJ/mol
# GULP energy per Si atom -5572.822255 kJ/mol
# Density = 2.013670 g / cm^3
# Si number density = 20.182638 Si / 1000 Ang^3
#
#
#
# Elastic Constant Matrix: (Units=GPa)
#
#
# Indices 1 2 3 4 5 6 
#
# 1 94.1889 10.8817 66.1203 0.0000 3.4462 0.0000
# 2 10.8817 37.0372 47.0914 0.0000 -9.8712 0.0000
# 3 66.1203 47.0914 252.8444 0.0000 12.8540 0.0000
# 4 0.0000 0.0000 0.0000 1.8382 0.0000 2.0098
# 5 3.4462 -9.8712 12.8540 0.0000 24.3305 0.0000
# 6 0.0000 0.0000 0.0000 2.0098 0.0000 12.3554
#
#
#
# Elastic Compliance Matrix: (Units=1/GPa)
#
#
# Indices 1 2 3 4 5 6 
#
# 1 0.013019 0.000825 -0.003578 0.000000 0.000381 0.000000
# 2 0.000825 0.045687 -0.009928 0.000000 0.023664 0.000000
# 3 -0.003578 -0.009928 0.007110 0.000000 -0.007277 0.000000
# 4 0.000000 0.000000 0.000000 0.661681 0.000000 -0.107635
# 5 0.000381 0.023664 -0.007277 0.000000 0.054492 0.000000
# 6 0.000000 0.000000 0.000000 -0.107635 0.000000 0.098445
#
#
# Mechanical properties :
#
#
# Convention : Reuss Voigt Hill
#
# Bulk Modulus (GPa) = 24.71854 70.25085 47.48469
# Shear Modulus (GPa) = 5.43904 25.03663 15.23783
#
# Velocity S-wave (km/s) = 1.64340 3.52590 2.75070
# Velocity P-wave (km/s) = 3.98435 7.17350 5.80233
#
# Compressibility (1/GPa) = 0.04045547
#
# Stress axis : x y z
#
# Youngs Moduli (GPa) = 76.80967 21.88788 140.65511
#
# Poissons Ratio (x) = -0.01806 0.50322
# Poissons Ratio (y) = -0.06339 1.39642
# Poissons Ratio (z) = 0.27480 0.21730
#
# Static dielectric constant tensor:
#      x y z
#    x 1.699290 0.000000 0.040900 
#    y 0.000000 1.827510 0.000000 
#    z 0.040900 0.000000 1.781790 
# 
# From -- ./inp_files/77151.got.cif
#   From: 2010.05.17/outbox.cif.g08.bks.cpg/sg12_39_cif.got.tgz:77151.got - 2010.06.03 13:09:07.
