data_PCOD9176061
_publ_section_title
;
Structure prediction by ZEFSAII (Michael W. Deem and Ramdas Pophale) SiO2 
 PCOD9176061
Probable space group: C 2/M
;
_chemical_formula_sum "Si O2"
_cell_formula_units_Z 64
_cell_length_a 28.985695
_cell_length_b 14.173072
_cell_length_c 9.120191
_cell_angle_alpha 90.000000
_cell_angle_beta 78.994133
_cell_angle_gamma 90.000000
_cell_volume 3677.812418
_symmetry_space_group_name_H-M "C 2/M"
_symmetry_group_IT_number 12
_symmetry_cell_setting 'monoclinic'
loop_
_space_group_symop_operation_xyz
x,y,z
-x,y,-z
-x,-y,-z
x,-y,z
1/2+x,1/2+y,z
1/2-x,1/2+y,-z
1/2-x,1/2-y,-z
1/2+x,1/2-y,z
loop_
_atom_site_type_symbol
_atom_site_label
_atom_site_fract_x
_atom_site_fract_y
_atom_site_fract_z
Si Si1 0.878450 0.286468 0.832692
Si Si2 0.860902 0.390519 0.137248
Si Si3 0.570852 0.393433 0.076502
Si Si4 0.730965 0.109339 0.603803
Si Si5 0.402154 0.227755 0.360002
Si Si6 0.446747 0.888571 0.579820
Si Si7 0.535577 0.606496 0.761997
Si Si8 0.686537 0.753519 0.406893
O O1 0.893924 0.186490 0.891296
O O2 0.924830 0.332507 0.729706
O O3 0.839807 0.273607 0.729019
O O4 0.859887 0.353683 0.972567
O O5 0.875986 0.500000 0.134738
O O6 0.811006 0.384050 0.251487
O O7 0.894890 0.320652 0.207487
O O8 0.587903 0.500000 0.095413
O O9 0.520274 0.382080 0.186193
O O10 0.558451 0.387649 0.911104
O O11 0.711615 0.155595 0.464864
O O12 0.775017 0.171777 0.626717
O O13 0.742816 0.000000 0.577137
O O14 0.415084 0.143390 0.462110
O O15 0.441228 0.308569 0.339997
O O16 0.353921 0.271872 0.450211
O O17 0.500000 0.866161 0.500000
O O18 0.443576 0.000000 0.608909
O O19 0.544621 0.500000 0.700370
#
# Coordination Sequence:
#
# PCOD9176061 Si02
#       8
#     8   8   8   8   8   8   8   8
#     4  11  20  34  55  80 108 135 175 222 263 311
#     4  10  20  33  54  78 101 133 174 218 261 315
#     4   9  18  32  50  75 107 142 173 212 264 305
#     4   9  19  39  57  74 103 135 168 211 264 317
#     4  10  18  34  54  76 105 137 177 218 262 304
#     4  10  21  35  50  73 109 147 179 216 264 310
#     4   9  17  31  52  75 103 141 181 212 252 307
#     4   9  21  34  55  80 101 135 169 207 263 323
#
# _framework density 17.401648999999999
#
# number of rings (size 3 to 8) (size 9 to 14) (size 15 to 20)
#    0.000    2.375    1.250    2.250    0.000    5.000 
#    0.000    1.875    0.000    9.750    0.000    0.000 
#    0.000    0.000    0.000    0.000    0.000    0.000 
#
# Total GULP energy -178379.292681 kJ/mol
# GULP energy per Si atom -5574.352896 kJ/mol
# Density = 1.736204 g / cm^3
# Si number density = 17.401649 Si / 1000 Ang^3
#
#
#
# Elastic Constant Matrix: (Units=GPa)
#
#
# Indices 1 2 3 4 5 6 
#
# 1 47.5821 30.2929 9.1872 0.0000 4.5104 0.0000
# 2 30.2929 109.0890 32.5447 0.0000 -5.3317 0.0000
# 3 9.1872 32.5447 47.9656 0.0000 11.7470 0.0000
# 4 0.0000 0.0000 0.0000 17.2150 0.0000 -4.5305
# 5 4.5104 -5.3317 11.7470 0.0000 17.8429 0.0000
# 6 0.0000 0.0000 0.0000 -4.5305 0.0000 23.1145
#
#
#
# Elastic Compliance Matrix: (Units=1/GPa)
#
#
# Indices 1 2 3 4 5 6 
#
# 1 0.027441 -0.009514 0.004286 0.000000 -0.012601 0.000000
# 2 -0.009514 0.016600 -0.013406 0.000000 0.016191 0.000000
# 3 0.004286 -0.013406 0.036207 0.000000 -0.028926 0.000000
# 4 0.000000 0.000000 0.000000 0.061248 0.000000 0.012005
# 5 -0.012601 0.016191 -0.028926 0.000000 0.083112 0.000000
# 6 0.000000 0.000000 0.000000 0.012005 0.000000 0.045616
#
#
# Mechanical properties :
#
#
# Convention : Reuss Voigt Hill
#
# Bulk Modulus (GPa) = 23.26734 38.74290 31.00512
# Shear Modulus (GPa) = 15.53672 20.47528 18.00600
#
# Velocity S-wave (km/s) = 2.99127 3.43392 3.22021
# Velocity P-wave (km/s) = 5.03290 6.16723 5.62871
#
# Compressibility (1/GPa) = 0.04297870
#
# Stress axis : x y z
#
# Youngs Moduli (GPa) = 36.44243 60.24267 27.61868
#
# Poissons Ratio (x) = 0.57317 -0.11836
# Poissons Ratio (y) = 0.34673 0.37025
# Poissons Ratio (z) = -0.15618 0.80759
#
# Static dielectric constant tensor:
#      x y z
#    x 1.585230 0.000000 -0.004860 
#    y 0.000000 1.575930 0.000000 
#    z -0.004860 0.000000 1.591150 
# 
# From -- ./inp_files/104501.got.cif
#   From: 2010.05.17/outbox.cif.g08.bks.cpg/sg12_53_cif.got.tgz:104501.got - 2010.06.03 13:09:07.
