data_PCOD9176504
_publ_section_title
;
Structure prediction by ZEFSAII (Michael W. Deem and Ramdas Pophale) SiO2 
 PCOD9176504
Probable space group: C 2/M
;
_chemical_formula_sum "Si O2"
_cell_formula_units_Z 64
_cell_length_a 5.385129
_cell_length_b 14.606612
_cell_length_c 39.239563
_cell_angle_alpha 90.000000
_cell_angle_beta 93.917376
_cell_angle_gamma 90.000000
_cell_volume 3079.313431
_symmetry_space_group_name_H-M "C 2/M"
_symmetry_group_IT_number 12
_symmetry_cell_setting 'monoclinic'
loop_
_space_group_symop_operation_xyz
x,y,z
-x,y,-z
-x,-y,-z
x,-y,z
1/2+x,1/2+y,z
1/2-x,1/2+y,-z
1/2-x,1/2-y,-z
1/2+x,1/2-y,z
loop_
_atom_site_type_symbol
_atom_site_label
_atom_site_fract_x
_atom_site_fract_y
_atom_site_fract_z
Si Si1 0.890585 0.112162 0.275993
Si Si2 0.169952 0.360415 0.830801
Si Si3 0.240376 0.389852 0.980910
Si Si4 0.909784 0.608745 0.314694
Si Si5 0.844327 0.848462 0.197972
Si Si6 0.776292 0.309360 0.094260
Si Si7 0.483371 0.812386 0.463171
Si Si8 0.948099 0.310982 0.389019
O O1 0.654065 0.140158 0.296561
O O2 0.870184 0.156394 0.238628
O O3 0.148431 0.140305 0.296299
O O4 0.888802 0.000000 0.272243
O O5 0.167112 0.251882 0.819995
O O6 0.414660 0.396480 0.815043
O O7 0.186564 0.368981 0.871457
O O8 0.912469 0.396173 0.813961
O O9 0.240624 0.500000 0.982248
O O10 0.223020 0.360129 0.941699
O O11 0.500000 0.358176 0.000000
O O12 0.000000 0.357920 0.000000
O O13 0.907721 0.500000 0.310895
O O14 0.928808 0.631098 0.354652
O O15 0.510811 0.259497 0.095899
O O16 0.500000 0.862557 0.500000
O O17 0.734205 0.750469 0.463183
O O18 0.464546 0.860697 0.426158
O O19 0.699411 0.248982 0.388061
#
# Coordination Sequence:
#
# PCOD9176504 Si02
#       8
#     8   8   8   8   8   8   8   8
#     4  10  21  37  55  74 101 139 183 216 255 329
#     4  10  19  35  54  77 109 138 164 216 268 313
#     4  10  23  42  60  85 121 154 185 224 269 313
#     4  10  21  38  53  72 107 144 173 214 275 325
#     4  10  18  35  53  74 101 136 168 213 267 304
#     4  12  21  37  63  86 119 146 185 226 263 318
#     4   8  14  25  44  68  97 132 164 206 261 310
#     4  10  19  33  50  77 107 129 175 225 259 311
#
# _framework density 20.783854999999999
#
# number of rings (size 3 to 8) (size 9 to 14) (size 15 to 20)
#    0.000    2.000    2.500    2.250    0.000    1.500 
#   13.500    1.250    0.000    0.375    0.000    0.000 
#    0.000   13.000    0.000    0.000    0.000    2.000 
#
# Total GULP energy -178579.954985 kJ/mol
# GULP energy per Si atom -5580.623593 kJ/mol
# Density = 2.073655 g / cm^3
# Si number density = 20.783855 Si / 1000 Ang^3
#
#
#
# Elastic Constant Matrix: (Units=GPa)
#
#
# Indices 1 2 3 4 5 6 
#
# 1 187.5389 11.4822 73.9783 0.0000 1.9216 0.0000
# 2 11.4822 45.5637 9.0973 0.0000 1.2775 0.0000
# 3 73.9783 9.0973 233.5348 0.0000 3.7297 0.0000
# 4 0.0000 0.0000 0.0000 157.8572 0.0000 3.2751
# 5 1.9216 1.2775 3.7297 0.0000 43.2329 0.0000
# 6 0.0000 0.0000 0.0000 3.2751 0.0000 -14.1417
#
#
#
# Elastic Compliance Matrix: (Units=1/GPa)
#
#
# Indices 1 2 3 4 5 6 
#
# 1 0.006155 -0.001169 -0.001903 0.000000 -0.000075 0.000000
# 2 -0.001169 0.022356 -0.000491 0.000000 -0.000566 0.000000
# 3 -0.001903 -0.000491 0.004909 0.000000 -0.000324 0.000000
# 4 0.000000 0.000000 0.000000 0.006305 0.000000 0.001460
# 5 -0.000075 -0.000566 -0.000324 0.000000 0.023179 0.000000
# 6 0.000000 0.000000 0.000000 0.001460 0.000000 -0.070375
#
#
# Mechanical properties :
#
#
# Convention : Reuss Voigt Hill
#
# Bulk Modulus (GPa) = 38.03285 72.86146 55.44716
# Shear Modulus (GPa) = 593.79449 62.19498 327.99473
#
# Velocity S-wave (km/s) = 16.92100 5.47628 12.57596
# Velocity P-wave (km/s) = 20.00248 8.66712 15.41457
#
# Compressibility (1/GPa) = 0.02629306
#
# Stress axis : x y z
#
# Youngs Moduli (GPa) = 162.46186 44.73084 203.69893
#
# Poissons Ratio (x) = 0.05229 0.38766
# Poissons Ratio (y) = 0.18993 0.10012
# Poissons Ratio (z) = 0.30918 0.02198
#
# Static dielectric constant tensor:
#      x y z
#    x 1.750580 0.000000 -0.003450 
#    y 0.000000 1.744720 0.000000 
#    z -0.003450 0.000000 1.737890 
# 
# From -- ./inp_files/371605.got.cif
#   From: 2010.05.17/outbox.cif.g08.bks.cpg/sg12_186_cif.got.tgz:371605.got - 2010.06.03 13:09:07.
