data_PCOD9176497
_publ_section_title
;
Structure prediction by ZEFSAII (Michael W. Deem and Ramdas Pophale) SiO2 
 PCOD9176497
Probable space group: C 2/M
;
_chemical_formula_sum "Si O2"
_cell_formula_units_Z 42
_cell_length_a 30.126208
_cell_length_b 14.969682
_cell_length_c 14.795801
_cell_angle_alpha 90.000000
_cell_angle_beta 160.670985
_cell_angle_gamma 90.000000
_cell_volume 2208.581422
_symmetry_space_group_name_H-M "C 2/M"
_symmetry_group_IT_number 12
_symmetry_cell_setting 'monoclinic'
loop_
_space_group_symop_operation_xyz
x,y,z
-x,y,-z
-x,-y,-z
x,-y,z
1/2+x,1/2+y,z
1/2-x,1/2+y,-z
1/2-x,1/2-y,-z
1/2+x,1/2-y,z
loop_
_atom_site_type_symbol
_atom_site_label
_atom_site_fract_x
_atom_site_fract_y
_atom_site_fract_z
Si Si1 0.000000 0.000000 0.000000
Si Si2 0.826687 0.854548 0.726785
Si Si3 0.630307 0.857713 0.195472
Si Si4 0.825786 0.668468 0.385827
Si Si5 0.656011 0.000000 0.907588
Si Si6 0.331180 0.000000 0.273450
Si Si7 0.641296 0.841382 0.011030
O O1 0.948300 0.078753 0.970960
O O2 0.756857 0.884537 0.499089
O O3 0.868953 0.751167 0.803234
O O4 0.718588 0.861197 0.598886
O O5 0.500000 0.888064 0.000000
O O6 0.638999 0.883314 0.107756
O O7 0.791190 0.589120 0.250256
O O8 0.985912 0.684513 0.692914
O O9 0.739008 0.756458 0.199238
O O10 0.493752 0.000000 0.588177
O O11 0.711849 0.000000 0.913543
O O12 0.688971 0.087328 0.029067
#
# Coordination Sequence:
#
# PCOD9176497 Si02
#       7
#     2   8   8   8   4   4   8
#     4  12  22  34  48  82 110 148 186 244 264 322
#     4  10  21  32  53  79 116 145 187 221 278 322
#     4  10  18  35  52  76 109 155 180 220 264 334
#     4  10  20  37  59  87 111 152 187 238 277 347
#     4   9  20  39  57  83 113 148 188 244 283 349
#     4   9  19  38  61  80 113 149 189 232 300 339
#     4  10  21  36  60  85 117 147 195 231 285 331
#
# _framework density 19.016732000000001
#
# number of rings (size 3 to 8) (size 9 to 14) (size 15 to 20)
#    0.000    2.095    2.857    0.571    0.000    1.524 
#    0.000    1.905    0.000    1.143    0.000    0.000 
#    0.000    0.000    0.000    0.000    0.000    0.000 
#
# Total GULP energy -116911.420748 kJ/mol
# GULP energy per Si atom -5567.210512 kJ/mol
# Density = 1.897345 g / cm^3
# Si number density = 19.016732 Si / 1000 Ang^3
#
#
#
# Elastic Constant Matrix: (Units=GPa)
#
#
# Indices 1 2 3 4 5 6 
#
# 1 115.0548 52.0745 43.0433 0.0000 -25.4620 0.0000
# 2 52.0745 86.0445 34.1201 0.0000 -8.2558 0.0000
# 3 43.0433 34.1201 67.6179 0.0000 -4.0443 0.0000
# 4 0.0000 0.0000 0.0000 -1.5722 0.0000 -3.6593
# 5 -25.4620 -8.2558 -4.0443 0.0000 28.4027 0.0000
# 6 0.0000 0.0000 0.0000 -3.6593 0.0000 36.9021
#
#
#
# Elastic Compliance Matrix: (Units=1/GPa)
#
#
# Indices 1 2 3 4 5 6 
#
# 1 0.016789 -0.006298 -0.006777 0.000000 0.012256 0.000000
# 2 -0.006298 0.017187 -0.004743 0.000000 -0.001325 0.000000
# 3 -0.006777 -0.004743 0.021231 0.000000 -0.004430 0.000000
# 4 0.000000 0.000000 0.000000 -0.516776 0.000000 -0.051246
# 5 0.012256 -0.001325 -0.004430 0.000000 0.045178 0.000000
# 6 0.000000 0.000000 0.000000 -0.051246 0.000000 0.022017
#
#
# Mechanical properties :
#
#
# Convention : Reuss Voigt Hill
#
# Bulk Modulus (GPa) = 51.09163 58.57699 54.83431
# Shear Modulus (GPa) = -14.19588 22.04514 3.92463
#
# Velocity S-wave (km/s) = -2.73517 3.40847 1.43814
# Velocity P-wave (km/s) = 4.11705 6.80881 5.62628
#
# Compressibility (1/GPa) = 0.01957268
#
# Stress axis : x y z
#
# Youngs Moduli (GPa) = 59.56154 58.18366 47.10104
#
# Poissons Ratio (x) = 0.36644 0.31918
# Poissons Ratio (y) = 0.37511 0.22339
# Poissons Ratio (z) = 0.40362 0.27595
#
# Static dielectric constant tensor:
#      x y z
#    x 1.667490 0.000000 0.009570 
#    y 0.000000 1.672300 0.000000 
#    z 0.009570 0.000000 1.725890 
# 
# From -- ./inp_files/203888.got.cif
#   From: 2010.05.17/outbox.cif.g08.bks.cpg/sg12_102_cif.got.tgz:203888.got - 2010.06.03 13:09:07.
