data_PCOD9176438
_publ_section_title
;
Structure prediction by ZEFSAII (Michael W. Deem and Ramdas Pophale) SiO2 
 PCOD9176438
Probable space group: C 2/M
;
_chemical_formula_sum "Si O2"
_cell_formula_units_Z 34
_cell_length_a 20.417032
_cell_length_b 9.929325
_cell_length_c 19.643816
_cell_angle_alpha 90.000000
_cell_angle_beta 20.165125
_cell_angle_gamma 90.000000
_cell_volume 1372.819230
_symmetry_space_group_name_H-M "C 2/M"
_symmetry_group_IT_number 12
_symmetry_cell_setting 'monoclinic'
loop_
_space_group_symop_operation_xyz
x,y,z
-x,y,-z
-x,-y,-z
x,-y,z
1/2+x,1/2+y,z
1/2-x,1/2+y,-z
1/2-x,1/2-y,-z
1/2+x,1/2-y,z
loop_
_atom_site_type_symbol
_atom_site_label
_atom_site_fract_x
_atom_site_fract_y
_atom_site_fract_z
Si Si1 0.822194 0.715287 0.777668
Si Si2 0.796283 0.000000 0.363148
Si Si3 0.500000 0.182878 0.000000
Si Si4 0.224711 0.000000 0.984407
Si Si5 0.927907 0.500000 0.282160
Si Si6 0.500000 0.000000 0.500000
Si Si7 0.729047 0.296957 0.379127
O O1 0.620586 0.764270 0.946904
O O2 0.785924 0.632077 0.881851
O O3 0.890958 0.614778 0.651600
O O4 0.002434 0.813741 0.609267
O O5 0.766714 0.134314 0.347000
O O6 0.638967 0.000000 0.574708
O O7 0.997845 0.000000 0.203947
O O8 0.315114 0.142583 0.225792
O O9 0.343510 0.000000 0.938184
O O10 0.838502 0.370642 0.333223
#
# Coordination Sequence:
#
# PCOD9176438 Si02
#       7
#     8   4   4   4   4   2   8
#     4  11  22  38  67 105 141 172 230 298 352 395
#     4  12  24  44  75 103 135 180 244 286 343 394
#     4  12  24  42  72 106 138 178 240 288 354 410
#     4  11  24  40  72 108 138 177 231 296 347 409
#     4  12  29  48  68  99 156 188 229 273 357 427
#     4  10  18  34  62 102 136 164 222 296 346 384
#     4  12  26  46  71 106 141 190 225 295 344 419
#
# _framework density 24.766552000000001
#
# number of rings (size 3 to 8) (size 9 to 14) (size 15 to 20)
#    0.000    0.471    7.059    1.412    0.000    5.647 
#    0.000    2.353    0.000    0.000    0.000    0.000 
#    0.000    0.000    0.000    0.000    0.000    0.000 
#
# Total GULP energy -94639.050919 kJ/mol
# GULP energy per Si atom -5567.002995 kJ/mol
# Density = 2.471018 g / cm^3
# Si number density = 24.766552 Si / 1000 Ang^3
#
#
#
# Elastic Constant Matrix: (Units=GPa)
#
#
# Indices 1 2 3 4 5 6 
#
# 1 93.5150 29.5175 23.5314 0.0001 -40.0000 -0.0030
# 2 29.5175 104.5468 19.3207 -0.0019 -13.5169 -0.0059
# 3 23.5314 19.3207 127.8285 -0.0004 -48.6939 -0.0085
# 4 0.0001 -0.0019 -0.0004 -3.1583 0.0000 -42.5757
# 5 -40.0000 -13.5169 -48.6939 0.0000 64.8579 0.0029
# 6 -0.0030 -0.0059 -0.0085 -42.5757 0.0029 168.6476
#
#
#
# Elastic Compliance Matrix: (Units=1/GPa)
#
#
# Indices 1 2 3 4 5 6 
#
# 1 0.015710 -0.003403 0.001461 0.000000 0.010076 0.000000
# 2 -0.003403 0.010657 -0.001313 -0.000002 -0.000864 0.000000
# 3 0.001461 -0.001313 0.011192 -0.000001 0.009030 0.000000
# 4 0.000000 -0.000002 -0.000001 -0.071908 0.000000 -0.018153
# 5 0.010076 -0.000864 0.009030 0.000000 0.028233 0.000000
# 6 0.000000 0.000000 0.000000 -0.018153 0.000000 0.001347
#
#
# Mechanical properties :
#
#
# Convention : Reuss Voigt Hill
#
# Bulk Modulus (GPa) = 32.20730 52.29214 42.24972
# Shear Modulus (GPa) = 413.53440 62.97081 238.25260
#
# Velocity S-wave (km/s) = 12.93582 5.04787 9.81877
# Velocity P-wave (km/s) = 15.36706 7.42526 12.06816
#
# Compressibility (1/GPa) = 0.03104887
#
# Stress axis : x y z
#
# Youngs Moduli (GPa) = 63.65357 93.83626 89.34556
#
# Poissons Ratio (x) = 0.31930 -0.13051
# Poissons Ratio (y) = 0.21659 0.11734
# Poissons Ratio (z) = -0.09298 0.12324
#
# Static dielectric constant tensor:
#      x y z
#    x 1.974430 0.000000 -0.058690 
#    y 0.000000 1.999060 0.000000 
#    z -0.058690 0.000000 1.971300 
# 
# From -- ./inp_files/321157.got.cif
#   From: 2010.05.17/outbox.cif.g08.bks.cpg/sg12_161_cif.got.tgz:321157.got - 2010.06.03 13:09:07.
