data_PCOD9176223
_publ_section_title
;
Structure prediction by ZEFSAII (Michael W. Deem and Ramdas Pophale) SiO2 
 PCOD9176223
Probable space group: C 2/M
;
_chemical_formula_sum "Si O2"
_cell_formula_units_Z 64
_cell_length_a 19.240886
_cell_length_b 19.916098
_cell_length_c 18.668489
_cell_angle_alpha 90.000000
_cell_angle_beta 29.447315
_cell_angle_gamma 90.000000
_cell_volume 3516.986606
_symmetry_space_group_name_H-M "C 2/M"
_symmetry_group_IT_number 12
_symmetry_cell_setting 'monoclinic'
loop_
_space_group_symop_operation_xyz
x,y,z
-x,y,-z
-x,-y,-z
x,-y,z
1/2+x,1/2+y,z
1/2-x,1/2+y,-z
1/2-x,1/2-y,-z
1/2+x,1/2-y,z
loop_
_atom_site_type_symbol
_atom_site_label
_atom_site_fract_x
_atom_site_fract_y
_atom_site_fract_z
Si Si1 0.378021 0.675469 0.430012
Si Si2 0.543450 0.331185 0.878603
Si Si3 0.796467 0.313946 0.562923
Si Si4 0.501717 0.074752 0.335000
Si Si5 0.204210 0.186358 0.092524
Si Si6 0.474833 0.820404 0.938131
Si Si7 0.185318 0.922414 0.992231
Si Si8 0.348616 0.922742 0.317261
O O1 0.299649 0.678876 0.422911
O O2 0.338434 0.736247 0.519204
O O3 0.542803 0.685990 0.264244
O O4 0.306472 0.608875 0.527834
O O5 0.705906 0.339036 0.711555
O O6 0.517395 0.254878 0.876604
O O7 0.445020 0.384065 0.926604
O O8 0.500000 0.334624 0.000000
O O9 0.929976 0.362601 0.437255
O O10 0.439419 0.078097 0.309736
O O11 0.463179 0.000000 0.396926
O O12 0.670688 0.080504 0.182760
O O13 0.220299 0.119554 0.031215
O O14 0.250000 0.250000 0.000000
O O15 0.311430 0.178599 0.062025
O O16 0.566605 0.874923 0.813161
O O17 0.500000 0.827245 0.000000
O O18 0.152353 0.000000 0.035705
O O19 0.339623 0.000000 0.301674
#
# Coordination Sequence:
#
# PCOD9176223 Si02
#       8
#     8   8   8   8   8   8   8   8
#     4  10  20  32  58  90 115 148 196 251 298 348
#     4  11  23  40  59  84 122 162 200 247 300 359
#     4  10  18  34  57  86 115 148 197 245 296 351
#     4   9  19  33  56  87 117 147 191 245 294 352
#     4  12  21  37  64  91 119 157 201 250 303 346
#     4  11  23  39  62  90 122 158 202 246 295 365
#     4  11  22  37  59  91 122 152 202 253 296 353
#     4  10  20  37  58  86 123 157 190 240 305 358
#
# _framework density 18.197396999999999
#
# number of rings (size 3 to 8) (size 9 to 14) (size 15 to 20)
#    0.000    1.500    5.000    0.750    1.750    1.500 
#    0.000    1.250    0.000    2.250    0.000    0.000 
#    0.000    0.000    0.000    0.000    0.000    0.000 
#
# Total GULP energy -178347.818659 kJ/mol
# GULP energy per Si atom -5573.369333 kJ/mol
# Density = 1.815598 g / cm^3
# Si number density = 18.197397 Si / 1000 Ang^3
#
#
#
# Elastic Constant Matrix: (Units=GPa)
#
#
# Indices 1 2 3 4 5 6 
#
# 1 20.5557 16.0022 5.0396 -0.0027 -5.5471 0.0009
# 2 16.0022 141.3289 43.4286 -0.0067 -3.4599 0.0028
# 3 5.0396 43.4286 90.7741 -0.0085 -13.2389 0.0037
# 4 -0.0027 -0.0067 -0.0085 31.2505 0.0027 -2.7441
# 5 -5.5471 -3.4599 -13.2389 0.0027 20.5612 -0.0010
# 6 0.0009 0.0028 0.0037 -2.7441 -0.0010 13.1902
#
#
#
# Elastic Compliance Matrix: (Units=1/GPa)
#
#
# Indices 1 2 3 4 5 6 
#
# 1 0.057729 -0.006889 0.002421 0.000003 0.015973 -0.000001
# 2 -0.006889 0.009148 -0.004459 0.000000 -0.003191 0.000000
# 3 0.002421 -0.004459 0.014349 0.000002 0.009141 -0.000002
# 4 0.000003 0.000000 0.000002 0.032595 -0.000002 0.006781
# 5 0.015973 -0.003191 0.009141 -0.000002 0.058294 0.000001
# 6 -0.000001 0.000000 -0.000002 0.006781 0.000001 0.077225
#
#
# Mechanical properties :
#
#
# Convention : Reuss Voigt Hill
#
# Bulk Modulus (GPa) = 15.78054 42.39993 29.09023
# Shear Modulus (GPa) = 17.34198 25.54627 21.44413
#
# Velocity S-wave (km/s) = 3.09041 3.75085 3.43653
# Velocity P-wave (km/s) = 4.62870 6.48915 5.63622
#
# Compressibility (1/GPa) = 0.06336921
#
# Stress axis : x y z
#
# Youngs Moduli (GPa) = 17.32246 109.31393 69.69257
#
# Poissons Ratio (x) = 0.75309 -0.16870
# Poissons Ratio (y) = 0.11934 0.31079
# Poissons Ratio (z) = -0.04193 0.48748
#
# Static dielectric constant tensor:
#      x y z
#    x 1.620710 0.000000 -0.002440 
#    y 0.000000 1.630210 0.000000 
#    z -0.002440 0.000000 1.673860 
# 
# From -- ./inp_files/89607.got.cif
#   From: 2010.05.17/outbox.cif.g08.bks.cpg/sg12_45_cif.got.tgz:89607.got - 2010.06.03 13:09:07.
