data_PCOD9176810
_publ_section_title
;
Structure prediction by ZEFSAII (Michael W. Deem and Ramdas Pophale) SiO2 
 PCOD9176810
Probable space group: C 2/M
;
_chemical_formula_sum "Si O2"
_cell_formula_units_Z 52
_cell_length_a 13.723215
_cell_length_b 17.574539
_cell_length_c 11.213957
_cell_angle_alpha 90.000000
_cell_angle_beta 93.661261
_cell_angle_gamma 90.000000
_cell_volume 2699.052949
_symmetry_space_group_name_H-M "C 2/M"
_symmetry_group_IT_number 12
_symmetry_cell_setting 'monoclinic'
loop_
_space_group_symop_operation_xyz
x,y,z
-x,y,-z
-x,-y,-z
x,-y,z
1/2+x,1/2+y,z
1/2-x,1/2+y,-z
1/2-x,1/2-y,-z
1/2+x,1/2-y,z
loop_
_atom_site_type_symbol
_atom_site_label
_atom_site_fract_x
_atom_site_fract_y
_atom_site_fract_z
Si Si1 0.439887 0.583155 0.253955
Si Si2 0.500000 0.656325 0.500000
Si Si3 0.478166 0.257051 0.168378
Si Si4 0.227371 0.633463 0.267734
Si Si5 0.854246 0.264353 0.384186
Si Si6 0.383981 0.086972 0.513660
Si Si7 0.343812 0.208520 0.953504
O O1 0.468847 0.500000 0.213517
O O2 0.496300 0.606805 0.379526
O O3 0.451038 0.653509 0.163779
O O4 0.325886 0.584518 0.280701
O O5 0.404199 0.710254 0.487460
O O6 0.442042 0.230217 0.294326
O O7 0.590127 0.251471 0.140312
O O8 0.416361 0.205978 0.071362
O O9 0.267963 0.716655 0.314926
O O10 0.146853 0.603566 0.352608
O O11 0.191700 0.637948 0.128501
O O12 0.831822 0.346908 0.433130
O O13 0.500000 0.095339 0.500000
O O14 0.357064 0.000000 0.481458
O O15 0.250000 0.250000 0.000000
#
# Coordination Sequence:
#
# PCOD9176810 Si02
#       7
#     8   4   8   8   8   8   8
#     4  10  19  35  54  83 118 147 181 233 291 343
#     4   8  17  30  55  80 112 144 186 218 271 342
#     4   9  21  34  60  87 108 149 195 234 286 336
#     4  10  21  34  61  80 109 151 194 236 272 344
#     4  10  18  36  56  83 111 145 189 239 275 334
#     4  11  22  35  53  81 116 148 180 229 286 337
#     4  11  18  37  58  82 109 142 199 243 273 326
#
# _framework density 19.266016
#
# number of rings (size 3 to 8) (size 9 to 14) (size 15 to 20)
#    0.000    2.308    3.846    2.077    2.154    0.000 
#    0.000    1.538    0.000    4.615    0.000    7.538 
#    0.000    0.000    0.000    0.000    0.000    0.000 
#
# Total GULP energy -144734.859345 kJ/mol
# GULP energy per Si atom -5566.725359 kJ/mol
# Density = 1.922217 g / cm^3
# Si number density = 19.266016 Si / 1000 Ang^3
#
#
#
# Elastic Constant Matrix: (Units=GPa)
#
#
# Indices 1 2 3 4 5 6 
#
# 1 84.6017 -1.7426 26.5013 0.0000 -12.4119 0.0000
# 2 -1.7426 89.3739 20.4222 0.0000 13.4291 0.0000
# 3 26.5013 20.4222 72.1464 0.0000 1.0719 0.0000
# 4 0.0000 0.0000 0.0000 10.6593 0.0000 -6.7137
# 5 -12.4119 13.4291 1.0719 0.0000 43.0426 0.0000
# 6 0.0000 0.0000 0.0000 -6.7137 0.0000 5.5417
#
#
#
# Elastic Compliance Matrix: (Units=1/GPa)
#
#
# Indices 1 2 3 4 5 6 
#
# 1 0.014145 0.000949 -0.005522 0.000000 0.003920 0.000000
# 2 0.000949 0.012628 -0.003870 0.000000 -0.003570 0.000000
# 3 -0.005522 -0.003870 0.016997 0.000000 -0.000808 0.000000
# 4 0.000000 0.000000 0.000000 0.395923 0.000000 0.479657
# 5 0.003920 -0.003570 -0.000808 0.000000 0.025497 0.000000
# 6 0.000000 0.000000 0.000000 0.479657 0.000000 0.761551
#
#
# Mechanical properties :
#
#
# Convention : Reuss Voigt Hill
#
# Bulk Modulus (GPa) = 37.19982 37.38708 37.29345
# Shear Modulus (GPa) = 3.99173 25.24480 14.61827
#
# Velocity S-wave (km/s) = 1.44097 3.62377 2.75755
# Velocity P-wave (km/s) = 4.70308 6.07921 5.43488
#
# Compressibility (1/GPa) = 0.02688185
#
# Stress axis : x y z
#
# Youngs Moduli (GPa) = 70.69787 79.18802 58.83479
#
# Poissons Ratio (x) = -0.07512 0.32492
# Poissons Ratio (y) = -0.06707 0.22769
# Poissons Ratio (z) = 0.39043 0.30646
#
# Static dielectric constant tensor:
#      x y z
#    x 1.719770 0.000000 0.013400 
#    y 0.000000 1.699550 0.000000 
#    z 0.013400 0.000000 1.710700 
# 
# From -- ./inp_files/144883.got.cif
#   From: 2010.05.17/outbox.cif.g08.bks.cpg/sg12_73_cif.got.tgz:144883.got - 2010.06.03 13:09:07.
