data_PCOD9176064
_publ_section_title
;
Structure prediction by ZEFSAII (Michael W. Deem and Ramdas Pophale) SiO2 
 PCOD9176064
Probable space group: C 2/M
;
_chemical_formula_sum "Si O2"
_cell_formula_units_Z 56
_cell_length_a 16.035356
_cell_length_b 14.451506
_cell_length_c 26.887084
_cell_angle_alpha 90.000000
_cell_angle_beta 30.130551
_cell_angle_gamma 90.000000
_cell_volume 3127.626553
_symmetry_space_group_name_H-M "C 2/M"
_symmetry_group_IT_number 12
_symmetry_cell_setting 'monoclinic'
loop_
_space_group_symop_operation_xyz
x,y,z
-x,y,-z
-x,-y,-z
x,-y,z
1/2+x,1/2+y,z
1/2-x,1/2+y,-z
1/2-x,1/2-y,-z
1/2+x,1/2-y,z
loop_
_atom_site_type_symbol
_atom_site_label
_atom_site_fract_x
_atom_site_fract_y
_atom_site_fract_z
Si Si1 0.548115 0.389011 0.053818
Si Si2 0.935569 0.245817 0.307493
Si Si3 0.072981 0.109269 0.778776
Si Si4 0.226815 0.388711 0.151588
Si Si5 0.797980 0.900264 0.453387
Si Si6 0.459305 0.851676 0.578549
Si Si7 0.102256 0.845744 0.490384
O O1 0.557748 0.500000 0.051660
O O2 0.526365 0.356695 0.121289
O O3 0.379387 0.370371 0.110303
O O4 0.702946 0.362145 0.939439
O O5 0.969829 0.172783 0.246087
O O6 0.889899 0.184511 0.379174
O O7 0.766771 0.300264 0.382116
O O8 0.076017 0.322043 0.242540
O O9 0.271607 0.119514 0.686465
O O10 0.041063 0.000000 0.786583
O O11 0.190697 0.500000 0.171609
O O12 0.602953 0.891184 0.540202
O O13 0.836803 0.895713 0.491588
O O14 0.854293 0.000000 0.404376
O O15 0.500000 0.879358 0.500000
O O16 0.487903 0.741379 0.565674
O O17 0.000000 0.895944 0.500000
#
# Coordination Sequence:
#
# PCOD9176064 Si02
#       7
#     8   8   8   8   8   8   8
#     4   8  18  35  56  81 108 132 174 234 281 323
#     4  11  21  33  56  81 109 141 184 227 265 330
#     4  11  20  31  54  83 111 142 174 222 280 321
#     4   9  19  37  56  80 107 137 178 230 280 320
#     4  11  23  35  52  79 113 151 184 221 270 323
#     4  10  18  34  54  77 111 142 180 229 272 313
#     4  10  21  38  50  73 110 151 188 225 255 310
#
# _framework density 17.904951000000001
#
# number of rings (size 3 to 8) (size 9 to 14) (size 15 to 20)
#    0.000    2.000    4.286    3.429    4.000    2.000 
#    0.000    0.000    0.000    0.000    0.000    8.000 
#    0.000    0.000    0.000    0.000    0.000    0.000 
#
# Total GULP energy -156086.714816 kJ/mol
# GULP energy per Si atom -5574.525529 kJ/mol
# Density = 1.786420 g / cm^3
# Si number density = 17.904951 Si / 1000 Ang^3
#
#
#
# Elastic Constant Matrix: (Units=GPa)
#
#
# Indices 1 2 3 4 5 6 
#
# 1 92.6523 14.1432 -3.6273 0.0002 1.2948 0.0000
# 2 14.1432 74.9307 14.6971 -0.0004 -11.7678 -0.0001
# 3 -3.6273 14.6971 17.9179 -0.0026 -5.5979 -0.0002
# 4 0.0002 -0.0004 -0.0026 23.3400 0.0001 -0.9625
# 5 1.2948 -11.7678 -5.5979 0.0001 24.2396 0.0001
# 6 0.0000 -0.0001 -0.0002 -0.9625 0.0001 15.0861
#
#
#
# Elastic Compliance Matrix: (Units=1/GPa)
#
#
# Indices 1 2 3 4 5 6 
#
# 1 0.011488 -0.003256 0.004646 0.000000 -0.001121 0.000000
# 2 -0.003256 0.017428 -0.013210 -0.000001 0.005584 0.000000
# 3 0.004646 -0.013210 0.070598 0.000008 0.009643 0.000001
# 4 0.000000 -0.000001 0.000008 0.042958 0.000001 0.002741
# 5 -0.001121 0.005584 0.009643 0.000001 0.046252 0.000000
# 6 0.000000 0.000000 0.000001 0.002741 0.000000 0.066461
#
#
# Mechanical properties :
#
#
# Convention : Reuss Voigt Hill
#
# Bulk Modulus (GPa) = 13.17968 26.21410 19.69689
# Shear Modulus (GPa) = 16.44107 23.21901 19.83004
#
# Velocity S-wave (km/s) = 3.03354 3.60501 3.33155
# Velocity P-wave (km/s) = 4.43246 5.65691 5.08170
#
# Compressibility (1/GPa) = 0.07587440
#
# Stress axis : x y z
#
# Youngs Moduli (GPa) = 87.05086 57.37847 14.16464
#
# Poissons Ratio (x) = 0.18680 -0.06580
# Poissons Ratio (y) = 0.28340 0.18711
# Poissons Ratio (z) = -0.40440 0.75796
#
# Static dielectric constant tensor:
#      x y z
#    x 1.648960 0.000000 0.030970 
#    y 0.000000 1.618100 0.000000 
#    z 0.030970 0.000000 1.627010 
# 
# From -- ./inp_files/361385.got.cif
#   From: 2010.05.17/outbox.cif.g08.bks.cpg/sg12_181_cif.got.tgz:361385.got - 2010.06.03 13:09:07.
