data_PCOD9176925
_publ_section_title
;
Structure prediction by ZEFSAII (Michael W. Deem and Ramdas Pophale) SiO2 
 PCOD9176925
Probable space group: C 2/M
;
_chemical_formula_sum "Si O2"
_cell_formula_units_Z 50
_cell_length_a 20.858678
_cell_length_b 7.798406
_cell_length_c 17.115429
_cell_angle_alpha 90.000000
_cell_angle_beta 120.099259
_cell_angle_gamma 90.000000
_cell_volume 2408.661616
_symmetry_space_group_name_H-M "C 2/M"
_symmetry_group_IT_number 12
_symmetry_cell_setting 'monoclinic'
loop_
_space_group_symop_operation_xyz
x,y,z
-x,y,-z
-x,-y,-z
x,-y,z
1/2+x,1/2+y,z
1/2-x,1/2+y,-z
1/2-x,1/2-y,-z
1/2+x,1/2-y,z
loop_
_atom_site_type_symbol
_atom_site_label
_atom_site_fract_x
_atom_site_fract_y
_atom_site_fract_z
Si Si1 0.248259 0.704790 0.233359
Si Si2 0.583001 0.300786 0.116796
Si Si3 0.000000 0.500000 0.000000
Si Si4 0.309441 0.706107 0.102491
Si Si5 0.390063 0.195871 0.407074
Si Si6 0.477618 0.708687 0.197025
Si Si7 0.527895 0.303710 0.394683
O O1 0.240318 0.500000 0.225632
O O2 0.167859 0.785104 0.194350
O O3 0.281973 0.765294 0.170843
O O4 0.307438 0.749955 0.336032
O O5 0.570177 0.500000 0.086204
O O6 0.563905 0.154664 0.042402
O O7 0.529405 0.249204 0.155880
O O8 0.313973 0.500000 0.108711
O O9 0.392954 0.769598 0.137295
O O10 0.250000 0.750000 0.000000
O O11 0.448738 0.301004 0.390969
O O12 0.414824 0.215137 0.511822
O O13 0.401052 0.000000 0.390248
O O14 0.475564 0.500000 0.200015
O O15 0.513231 0.770307 0.300085
O O16 0.552286 0.500000 0.401280
#
# Coordination Sequence:
#
# PCOD9176925 Si02
#       7
#     8   8   2   8   8   8   8
#     4  11  22  42  63  90 124 167 211 258 314 382
#     4  11  25  44  68  93 129 167 216 265 313 379
#     4  12  26  48  64  98 120 180 218 250 324 382
#     4  10  22  38  59  86 120 156 204 255 311 373
#     4  11  21  34  56  94 128 162 207 258 319 377
#     4   9  20  41  63  88 120 162 208 262 315 373
#     4  10  18  36  62  89 121 165 209 257 320 380
#
# _framework density 20.758417000000001
#
# number of rings (size 3 to 8) (size 9 to 14) (size 15 to 20)
#    0.000    1.600    2.400    3.600    2.240    1.280 
#    2.880    0.800    0.000    0.000    0.000    0.000 
#    0.000    0.000    0.000    0.000    0.000    0.000 
#
# Total GULP energy -139412.410704 kJ/mol
# GULP energy per Si atom -5576.496428 kJ/mol
# Density = 2.071117 g / cm^3
# Si number density = 20.758417 Si / 1000 Ang^3
#
#
#
# Elastic Constant Matrix: (Units=GPa)
#
#
# Indices 1 2 3 4 5 6 
#
# 1 120.5028 15.6966 68.0177 0.0000 21.4152 0.0000
# 2 15.6966 80.0569 20.5401 0.0000 1.6537 0.0000
# 3 68.0177 20.5401 144.7093 0.0000 29.1053 0.0000
# 4 0.0000 0.0000 0.0000 24.4144 0.0000 16.4127
# 5 21.4152 1.6537 29.1053 0.0000 35.6841 0.0000
# 6 0.0000 0.0000 0.0000 16.4127 0.0000 28.5693
#
#
#
# Elastic Compliance Matrix: (Units=1/GPa)
#
#
# Indices 1 2 3 4 5 6 
#
# 1 0.011635 -0.001011 -0.004702 0.000000 -0.003101 0.000000
# 2 -0.001011 0.013086 -0.001654 0.000000 0.001349 0.000000
# 3 -0.004702 -0.001654 0.010494 0.000000 -0.005661 0.000000
# 4 0.000000 0.000000 0.000000 0.066731 0.000000 -0.038336
# 5 -0.003101 0.001349 -0.005661 0.000000 0.034439 0.000000
# 6 0.000000 0.000000 0.000000 -0.038336 0.000000 0.057026
#
#
# Mechanical properties :
#
#
# Convention : Reuss Voigt Hill
#
# Bulk Modulus (GPa) = 48.82300 61.53086 55.17693
# Shear Modulus (GPa) = 23.25892 33.80119 28.53006
#
# Velocity S-wave (km/s) = 3.35096 4.03961 3.71129
# Velocity P-wave (km/s) = 6.20826 7.17382 6.70844
#
# Compressibility (1/GPa) = 0.02048215
#
# Stress axis : x y z
#
# Youngs Moduli (GPa) = 85.94606 76.41924 95.29631
#
# Poissons Ratio (x) = 0.07725 0.44806
# Poissons Ratio (y) = 0.08688 0.15758
# Poissons Ratio (z) = 0.40409 0.12636
#
# Static dielectric constant tensor:
#      x y z
#    x 1.733390 0.000000 -0.012920 
#    y 0.000000 1.759810 0.000000 
#    z -0.012920 0.000000 1.771430 
# 
# From -- ./inp_files/275756.got.cif
#   From: 2010.05.17/outbox.cif.g08.bks.cpg/sg12_138_cif.got.tgz:275756.got - 2010.06.03 13:09:07.
