data_PCOD9176218
_publ_section_title
;
Structure prediction by ZEFSAII (Michael W. Deem and Ramdas Pophale) SiO2 
 PCOD9176218
Probable space group: C 2/M
;
_chemical_formula_sum "Si O2"
_cell_formula_units_Z 56
_cell_length_a 21.610920
_cell_length_b 15.215032
_cell_length_c 9.552947
_cell_angle_alpha 90.000000
_cell_angle_beta 126.092460
_cell_angle_gamma 90.000000
_cell_volume 2538.230672
_symmetry_space_group_name_H-M "C 2/M"
_symmetry_group_IT_number 12
_symmetry_cell_setting 'monoclinic'
loop_
_space_group_symop_operation_xyz
x,y,z
-x,y,-z
-x,-y,-z
x,-y,z
1/2+x,1/2+y,z
1/2-x,1/2+y,-z
1/2-x,1/2-y,-z
1/2+x,1/2-y,z
loop_
_atom_site_type_symbol
_atom_site_label
_atom_site_fract_x
_atom_site_fract_y
_atom_site_fract_z
Si Si1 0.492267 0.400930 0.156387
Si Si2 0.463431 0.236526 0.304490
Si Si3 0.816428 0.599040 0.781579
Si Si4 0.162331 0.855127 0.427652
Si Si5 0.323990 0.106733 0.112821
Si Si6 0.742808 0.598961 0.270233
Si Si7 0.385376 0.165351 0.606826
O O1 0.460374 0.500000 0.133253
O O2 0.452502 0.320812 0.187712
O O3 0.580505 0.400377 0.326125
O O4 0.500000 0.383213 0.000000
O O5 0.500000 0.267887 0.500000
O O6 0.391992 0.173664 0.241294
O O7 0.526956 0.172750 0.317730
O O8 0.846172 0.500000 0.821870
O O9 0.733110 0.600638 0.598916
O O10 0.872649 0.651518 0.754689
O O11 0.808085 0.626663 0.929900
O O12 0.189482 0.846295 0.302322
O O13 0.150899 0.759670 0.476444
O O14 0.253994 0.124800 0.125060
O O15 0.340013 0.000000 0.147864
O O16 0.712695 0.500000 0.239480
O O17 0.829158 0.600122 0.449956
#
# Coordination Sequence:
#
# PCOD9176218 Si02
#       7
#     8   8   8   8   8   8   8
#     4  10  23  43  69  93 115 153 208 260 306 361
#     4  11  23  40  60  85 129 166 200 251 303 354
#     4  10  20  36  57  86 122 156 200 248 299 359
#     4  10  20  37  63  90 115 152 198 250 307 363
#     4  10  23  37  57  93 130 165 202 244 295 365
#     4  10  18  34  57  84 120 157 196 240 292 358
#     4  10  20  35  57  84 113 158 206 245 298 354
#
# _framework density 22.062612000000001
#
# number of rings (size 3 to 8) (size 9 to 14) (size 15 to 20)
#    0.000    1.857    1.429    4.286    4.000    1.714 
#    0.000    7.143    0.000    3.429    0.000    0.000 
#    0.000    0.000    0.000    0.000    0.000    0.000 
#
# Total GULP energy -156279.759795 kJ/mol
# GULP energy per Si atom -5581.419993 kJ/mol
# Density = 2.201240 g / cm^3
# Si number density = 22.062612 Si / 1000 Ang^3
#
#
#
# Elastic Constant Matrix: (Units=GPa)
#
#
# Indices 1 2 3 4 5 6 
#
# 1 64.5483 14.8989 6.2923 0.0000 -6.2422 0.0000
# 2 14.8989 67.2048 17.8409 0.0000 -1.9288 0.0000
# 3 6.2923 17.8409 73.4663 0.0000 -28.5637 0.0000
# 4 0.0000 0.0000 0.0000 44.2349 0.0000 -11.1736
# 5 -6.2422 -1.9288 -28.5637 0.0000 31.2953 0.0000
# 6 0.0000 0.0000 0.0000 -11.1736 0.0000 13.4235
#
#
#
# Elastic Compliance Matrix: (Units=1/GPa)
#
#
# Indices 1 2 3 4 5 6 
#
# 1 0.016674 -0.003872 0.001104 0.000000 0.004095 0.000000
# 2 -0.003872 0.017125 -0.005762 0.000000 -0.004976 0.000000
# 3 0.001104 -0.005762 0.023040 0.000000 0.020894 0.000000
# 4 0.000000 0.000000 0.000000 0.028625 0.000000 0.023828
# 5 0.004095 -0.004976 0.020894 0.000000 0.051534 0.000000
# 6 0.000000 0.000000 0.000000 0.023828 0.000000 0.094330
#
#
# Mechanical properties :
#
#
# Convention : Reuss Voigt Hill
#
# Bulk Modulus (GPa) = 25.13791 31.47595 28.30693
# Shear Modulus (GPa) = 19.10964 28.86990 23.98977
#
# Velocity S-wave (km/s) = 2.94624 3.62130 3.30108
# Velocity P-wave (km/s) = 4.79504 5.63762 5.23332
#
# Compressibility (1/GPa) = 0.03978055
#
# Stress axis : x y z
#
# Youngs Moduli (GPa) = 59.97198 58.39388 43.40306
#
# Poissons Ratio (x) = 0.22612 -0.04794
# Poissons Ratio (y) = 0.23223 0.25007
# Poissons Ratio (z) = -0.06624 0.33644
#
# Static dielectric constant tensor:
#      x y z
#    x 1.789770 0.000000 -0.006070 
#    y 0.000000 1.793200 0.000000 
#    z -0.006070 0.000000 1.850890 
# 
# From -- ./inp_files/96965.got.cif
#   From: 2010.05.17/outbox.cif.g08.bks.cpg/sg12_49_cif.got.tgz:96965.got - 2010.06.03 13:09:07.
