data_PCOD9176034
_publ_section_title
;
Structure prediction by ZEFSAII (Michael W. Deem and Ramdas Pophale) SiO2 
 PCOD9176034
Probable space group: C 2/M
;
_chemical_formula_sum "Si O2"
_cell_formula_units_Z 40
_cell_length_a 17.474503
_cell_length_b 20.515114
_cell_length_c 5.036300
_cell_angle_alpha 90.000000
_cell_angle_beta 74.602429
_cell_angle_gamma 90.000000
_cell_volume 1740.665986
_symmetry_space_group_name_H-M "C 2/M"
_symmetry_group_IT_number 12
_symmetry_cell_setting 'monoclinic'
loop_
_space_group_symop_operation_xyz
x,y,z
-x,y,-z
-x,-y,-z
x,-y,z
1/2+x,1/2+y,z
1/2-x,1/2+y,-z
1/2-x,1/2-y,-z
1/2+x,1/2-y,z
loop_
_atom_site_type_symbol
_atom_site_label
_atom_site_fract_x
_atom_site_fract_y
_atom_site_fract_z
Si Si1 0.916178 0.236660 0.960850
Si Si2 0.081168 0.899387 0.300312
Si Si3 0.333111 0.378380 0.275461
Si Si4 0.657144 0.135884 0.214974
Si Si5 0.414871 0.074787 0.215352
O O1 0.933016 0.177681 0.742883
O O2 0.864842 0.292846 0.875107
O O3 0.867042 0.195931 0.226740
O O4 0.000000 0.260672 0.000000
O O5 0.151058 0.905363 0.448939
O O6 0.000000 0.925467 0.500000
O O7 0.887414 0.919216 0.017510
O O8 0.244328 0.373943 0.253552
O O9 0.599315 0.118187 0.512651
O O10 0.645109 0.090808 0.968186
O O11 0.407558 0.000000 0.308697
O O12 0.500000 0.084127 0.000000
#
# Coordination Sequence:
#
# PCOD9176034 Si02
#       5
#     8   8   8   8   8
#     4  10  22  35  57  85 128 169 198 230 278 355
#     4  10  18  34  52  77 123 171 197 225 271 339
#     4  10  21  35  55  86 126 158 195 245 286 344
#     4  12  24  38  64  92 116 155 207 248 304 357
#     4  11  26  47  65  84 115 154 203 263 310 350
#
# _framework density 22.979710000000001
#
# number of rings (size 3 to 8) (size 9 to 14) (size 15 to 20)
#    1.200    0.200    2.000    4.200    2.800    4.000 
#    0.000    0.000    0.000    0.000    0.000    0.000 
#    0.000   92.800    0.000    0.000    0.000    0.000 
#
# Total GULP energy -111673.575238 kJ/mol
# GULP energy per Si atom -5583.678762 kJ/mol
# Density = 2.292741 g / cm^3
# Si number density = 22.979710 Si / 1000 Ang^3
#
#
#
# Elastic Constant Matrix: (Units=GPa)
#
#
# Indices 1 2 3 4 5 6 
#
# 1 81.8504 -1.4378 -9.3658 0.0000 22.2707 0.0000
# 2 -1.4378 57.5820 0.2134 0.0000 -3.5576 0.0000
# 3 -9.3658 0.2134 93.6560 0.0000 11.9331 0.0000
# 4 0.0000 0.0000 0.0000 -30.6703 0.0000 12.1624
# 5 22.2707 -3.5576 11.9331 0.0000 41.3224 0.0000
# 6 0.0000 0.0000 0.0000 12.1624 0.0000 -2.3228
#
#
#
# Elastic Compliance Matrix: (Units=1/GPa)
#
#
# Indices 1 2 3 4 5 6 
#
# 1 0.014909 -0.000181 0.002613 0.000000 -0.008806 0.000000
# 2 -0.000181 0.017467 -0.000272 0.000000 0.001680 0.000000
# 3 0.002613 -0.000272 0.011547 0.000000 -0.004766 0.000000
# 4 0.000000 0.000000 0.000000 0.030292 0.000000 0.158608
# 5 -0.008806 0.001680 -0.004766 0.000000 0.030467 0.000000
# 6 0.000000 0.000000 0.000000 0.158608 0.000000 0.399965
#
#
# Mechanical properties :
#
#
# Convention : Reuss Voigt Hill
#
# Bulk Modulus (GPa) = 20.72867 23.54533 22.13700
# Shear Modulus (GPa) = 9.68229 17.91110 13.79669
#
# Velocity S-wave (km/s) = 2.05489 2.79486 2.45294
# Velocity P-wave (km/s) = 3.83015 4.54790 4.20437
#
# Compressibility (1/GPa) = 0.04824236
#
# Stress axis : x y z
#
# Youngs Moduli (GPa) = 67.07275 57.25140 86.60542
#
# Poissons Ratio (x) = 0.01039 -0.22633
# Poissons Ratio (y) = 0.01217 0.02356
# Poissons Ratio (z) = -0.17528 0.01557
#
# Static dielectric constant tensor:
#      x y z
#    x 1.864970 0.000000 -0.025980 
#    y 0.000000 1.886690 0.000000 
#    z -0.025980 0.000000 1.829470 
# 
# From -- ./inp_files/11402.got.cif
#   From: 2010.05.17/outbox.cif.g08.bks.cpg/sg12_6_cif.got.tgz:11402.got - 2010.06.03 13:09:07.
