data_PCOD9176322
_publ_section_title
;
Structure prediction by ZEFSAII (Michael W. Deem and Ramdas Pophale) SiO2 
 PCOD9176322
Probable space group: C 2/M
;
_chemical_formula_sum "Si O2"
_cell_formula_units_Z 64
_cell_length_a 20.803384
_cell_length_b 7.631197
_cell_length_c 20.496162
_cell_angle_alpha 90.000000
_cell_angle_beta 110.810741
_cell_angle_gamma 90.000000
_cell_volume 3041.577540
_symmetry_space_group_name_H-M "C 2/M"
_symmetry_group_IT_number 12
_symmetry_cell_setting 'monoclinic'
loop_
_space_group_symop_operation_xyz
x,y,z
-x,y,-z
-x,-y,-z
x,-y,z
1/2+x,1/2+y,z
1/2-x,1/2+y,-z
1/2-x,1/2-y,-z
1/2+x,1/2-y,z
loop_
_atom_site_type_symbol
_atom_site_label
_atom_site_fract_x
_atom_site_fract_y
_atom_site_fract_z
Si Si1 0.545644 0.714196 0.954430
Si Si2 0.325237 0.702185 0.331116
Si Si3 0.764187 0.791171 0.580034
Si Si4 0.943905 0.792716 0.809267
Si Si5 0.207235 0.704947 0.193141
Si Si6 0.198610 0.208828 0.040329
Si Si7 0.022929 0.785089 0.580675
Si Si8 0.920108 0.214438 0.657349
O O1 0.547771 0.500000 0.952628
O O2 0.503698 0.779156 0.876868
O O3 0.500000 0.761843 0.000000
O O4 0.623073 0.775888 0.992871
O O5 0.335865 0.500000 0.314534
O O6 0.288372 0.707898 0.388065
O O7 0.270408 0.779602 0.259319
O O8 0.401512 0.776998 0.369444
O O9 0.750000 0.750000 0.500000
O O10 0.841320 0.730606 0.622475
O O11 0.760493 0.000000 0.588675
O O12 0.867847 0.775754 0.813361
O O13 0.945492 0.722376 0.736718
O O14 0.956497 0.000000 0.808793
O O15 0.203589 0.500000 0.207630
O O16 0.218209 0.725170 0.119591
O O17 0.194279 0.000000 0.045468
O O18 0.250000 0.250000 0.000000
O O19 0.000000 0.729014 0.500000
O O20 0.966849 0.731020 0.613869
O O21 0.024942 0.000000 0.579801
O O22 0.920254 0.000000 0.657264
#
# Coordination Sequence:
#
# PCOD9176322 Si02
#       8
#     8   8   8   8   8   8   8   8
#     4   9  17  32  58  85 107 143 192 239 281 326
#     4  10  21  36  57  84 113 147 188 234 285 338
#     4  11  21  34  55  83 112 144 185 232 282 338
#     4  10  18  34  59  84 109 143 193 244 285 330
#     4  11  22  36  56  85 120 154 186 231 294 348
#     4  11  23  40  61  87 120 153 193 238 285 340
#     4   9  17  32  54  79 109 143 187 239 281 324
#     4   9  18  31  53  82 105 137 186 234 276 324
#
# _framework density 21.041713999999999
#
# number of rings (size 3 to 8) (size 9 to 14) (size 15 to 20)
#    0.000    2.000    2.500    1.875    0.000    3.500 
#    0.000    5.625    0.000    4.875    0.000    0.000 
#    0.000    0.000    0.000    0.000    0.000    0.000 
#
# Total GULP energy -178707.614619 kJ/mol
# GULP energy per Si atom -5584.612957 kJ/mol
# Density = 2.099382 g / cm^3
# Si number density = 21.041714 Si / 1000 Ang^3
#
#
#
# Elastic Constant Matrix: (Units=GPa)
#
#
# Indices 1 2 3 4 5 6 
#
# 1 67.8158 -11.4319 -15.3974 0.0000 -5.6036 0.0000
# 2 -11.4319 42.7157 -5.2691 0.0000 6.7486 0.0000
# 3 -15.3974 -5.2691 92.3180 0.0000 -6.1036 0.0000
# 4 0.0000 0.0000 0.0000 -9.1826 0.0000 5.8895
# 5 -5.6036 6.7486 -6.1036 0.0000 40.2440 0.0000
# 6 0.0000 0.0000 0.0000 5.8895 0.0000 14.5001
#
#
#
# Elastic Compliance Matrix: (Units=1/GPa)
#
#
# Indices 1 2 3 4 5 6 
#
# 1 0.016369 0.004448 0.003117 0.000000 0.002006 0.000000
# 2 0.004448 0.025371 0.001969 0.000000 -0.003336 0.000000
# 3 0.003117 0.001969 0.011587 0.000000 0.001861 0.000000
# 4 0.000000 0.000000 0.000000 -0.086395 0.000000 0.035091
# 5 0.002006 -0.003336 0.001861 0.000000 0.025970 0.000000
# 6 0.000000 0.000000 0.000000 0.035091 0.000000 0.054712
#
#
# Mechanical properties :
#
#
# Convention : Reuss Voigt Hill
#
# Bulk Modulus (GPa) = 13.81286 15.40588 14.60937
# Shear Modulus (GPa) = 94.91694 24.77548 59.84621
#
# Velocity S-wave (km/s) = 6.72361 3.43512 5.33886
# Velocity P-wave (km/s) = 8.17647 4.80321 6.70542
#
# Compressibility (1/GPa) = 0.07239629
#
# Stress axis : x y z
#
# Youngs Moduli (GPa) = 61.09085 39.41489 86.30072
#
# Poissons Ratio (x) = -0.17533 -0.26897
# Poissons Ratio (y) = -0.27175 -0.16996
# Poissons Ratio (z) = -0.19040 -0.07762
#
# Static dielectric constant tensor:
#      x y z
#    x 1.694920 0.000000 0.001870 
#    y 0.000000 1.803810 0.000000 
#    z 0.001870 0.000000 1.765670 
# 
# From -- ./inp_files/319990.got.cif
#   From: 2010.05.17/outbox.cif.g08.bks.cpg/sg12_160_cif.got.tgz:319990.got - 2010.06.03 13:09:07.
