data_PCOD9176653
_publ_section_title
;
Structure prediction by ZEFSAII (Michael W. Deem and Ramdas Pophale) SiO2 
 PCOD9176653
Probable space group: C 2/M
;
_chemical_formula_sum "Si O2"
_cell_formula_units_Z 64
_cell_length_a 20.763487
_cell_length_b 8.698206
_cell_length_c 25.056932
_cell_angle_alpha 90.000000
_cell_angle_beta 126.208132
_cell_angle_gamma 90.000000
_cell_volume 3651.446395
_symmetry_space_group_name_H-M "C 2/M"
_symmetry_group_IT_number 12
_symmetry_cell_setting 'monoclinic'
loop_
_space_group_symop_operation_xyz
x,y,z
-x,y,-z
-x,-y,-z
x,-y,z
1/2+x,1/2+y,z
1/2-x,1/2+y,-z
1/2-x,1/2-y,-z
1/2+x,1/2-y,z
loop_
_atom_site_type_symbol
_atom_site_label
_atom_site_fract_x
_atom_site_fract_y
_atom_site_fract_z
Si Si1 0.704740 0.813675 0.426755
Si Si2 0.023258 0.687133 0.321199
Si Si3 0.866291 0.315020 0.302683
Si Si4 0.274331 0.316263 0.848962
Si Si5 0.962530 0.686064 0.173704
Si Si6 0.785890 0.817097 0.071804
Si Si7 0.743390 0.684752 0.664452
Si Si8 0.384082 0.185150 0.815522
O O1 0.750000 0.750000 0.500000
O O2 0.612209 0.762821 0.379261
O O3 0.745415 0.764604 0.390879
O O4 0.705612 0.000000 0.428576
O O5 0.023864 0.500000 0.321872
O O6 0.953712 0.737841 0.327435
O O7 0.997934 0.731043 0.248829
O O8 0.866435 0.500000 0.305648
O O9 0.802613 0.272123 0.225196
O O10 0.832181 0.249940 0.340971
O O11 0.274520 0.500000 0.854103
O O12 0.263507 0.241639 0.901179
O O13 0.350781 0.260632 0.852901
O O14 0.954491 0.500000 0.169881
O O15 0.876496 0.758522 0.122975
O O16 0.027785 0.728267 0.160916
O O17 0.784229 0.000000 0.069367
O O18 0.750000 0.750000 0.000000
O O19 0.739495 0.500000 0.662943
O O20 0.821558 0.727606 0.737723
O O21 0.381247 0.000000 0.819557
#
# Coordination Sequence:
#
# PCOD9176653 Si02
#       8
#     8   8   8   8   8   8   8   8
#     4  10  20  35  54  76 106 146 183 223 270 324
#     4   9  16  32  56  79 105 140 183 223 267 322
#     4   9  17  30  53  80 105 135 176 224 269 318
#     4  10  19  34  56  82 114 146 180 225 276 325
#     4  10  18  35  60  84 111 144 184 228 276 329
#     4  12  25  40  58  82 114 149 186 226 273 330
#     4   9  17  31  51  76 107 141 177 218 270 323
#     4   9  17  31  56  85 111 142 181 225 274 330
#
# _framework density 17.527301999999999
#
# number of rings (size 3 to 8) (size 9 to 14) (size 15 to 20)
#    0.000    2.250    2.500    1.500    0.000    1.500 
#    0.000    2.500    0.000    7.500    0.000    0.000 
#    0.000    0.000    0.000    0.000    0.000    0.000 
#
# Total GULP energy -178538.226950 kJ/mol
# GULP energy per Si atom -5579.319592 kJ/mol
# Density = 1.748741 g / cm^3
# Si number density = 17.527302 Si / 1000 Ang^3
#
#
#
# Elastic Constant Matrix: (Units=GPa)
#
#
# Indices 1 2 3 4 5 6 
#
# 1 152.9176 37.1693 56.3482 0.0000 -18.7966 0.0000
# 2 37.1693 30.4230 26.2028 0.0000 -6.7433 0.0000
# 3 56.3482 26.2028 89.1264 0.0000 -12.2783 0.0000
# 4 0.0000 0.0000 0.0000 23.8020 0.0000 -2.1580
# 5 -18.7966 -6.7433 -12.2783 0.0000 26.9469 0.0000
# 6 0.0000 0.0000 0.0000 -2.1580 0.0000 30.9592
#
#
#
# Elastic Compliance Matrix: (Units=1/GPa)
#
#
# Indices 1 2 3 4 5 6 
#
# 1 0.010427 -0.008981 -0.003478 0.000000 0.003441 0.000000
# 2 -0.008981 0.052517 -0.009405 0.000000 0.002592 0.000000
# 3 -0.003478 -0.009405 0.016565 0.000000 0.002768 0.000000
# 4 0.000000 0.000000 0.000000 0.042281 0.000000 0.002947
# 5 0.003441 0.002592 0.002768 0.000000 0.041421 0.000000
# 6 0.000000 0.000000 0.000000 0.002947 0.000000 0.032506
#
#
# Mechanical properties :
#
#
# Convention : Reuss Voigt Hill
#
# Bulk Modulus (GPa) = 27.94682 56.87861 42.41272
# Shear Modulus (GPa) = 19.89097 26.52474 23.20785
#
# Velocity S-wave (km/s) = 3.37242 3.89439 3.64276
# Velocity P-wave (km/s) = 5.58065 7.26247 6.47639
#
# Compressibility (1/GPa) = 0.03578224
#
# Stress axis : x y z
#
# Youngs Moduli (GPa) = 95.90513 19.04144 60.36804
#
# Poissons Ratio (x) = 0.17101 0.20995
# Poissons Ratio (y) = 0.86133 0.56774
# Poissons Ratio (z) = 0.33353 0.17908
#
# Static dielectric constant tensor:
#      x y z
#    x 1.602880 0.000000 0.000070 
#    y 0.000000 1.595400 0.000000 
#    z 0.000070 0.000000 1.567900 
# 
# From -- ./inp_files/345955.got.cif
#   From: 2010.05.17/outbox.cif.g08.bks.cpg/sg12_173_cif.got.tgz:345955.got - 2010.06.03 13:09:07.
