data_PCOD9176914
_publ_section_title
;
Structure prediction by ZEFSAII (Michael W. Deem and Ramdas Pophale) SiO2 
 PCOD9176914
Probable space group: C 2/M
;
_chemical_formula_sum "Si O2"
_cell_formula_units_Z 64
_cell_length_a 9.206155
_cell_length_b 14.379726
_cell_length_c 27.207810
_cell_angle_alpha 90.000000
_cell_angle_beta 117.482300
_cell_angle_gamma 90.000000
_cell_volume 3195.370478
_symmetry_space_group_name_H-M "C 2/M"
_symmetry_group_IT_number 12
_symmetry_cell_setting 'monoclinic'
loop_
_space_group_symop_operation_xyz
x,y,z
-x,y,-z
-x,-y,-z
x,-y,z
1/2+x,1/2+y,z
1/2-x,1/2+y,-z
1/2-x,1/2-y,-z
1/2+x,1/2-y,z
loop_
_atom_site_type_symbol
_atom_site_label
_atom_site_fract_x
_atom_site_fract_y
_atom_site_fract_z
Si Si1 0.227070 0.739513 0.643712
Si Si2 0.771502 0.298610 0.110628
Si Si3 0.907456 0.204472 0.279872
Si Si4 0.498894 0.099950 0.444034
Si Si5 0.309027 0.675899 0.467923
Si Si6 0.113197 0.892640 0.823653
Si Si7 0.565936 0.213683 0.960962
Si Si8 0.723949 0.893543 0.784491
O O1 0.176111 0.806020 0.680379
O O2 0.399075 0.693576 0.683829
O O3 0.090538 0.662787 0.609869
O O4 0.236468 0.790093 0.593296
O O5 0.814268 0.190710 0.131483
O O6 0.577237 0.291541 0.067442
O O7 0.896227 0.329542 0.086758
O O8 0.792253 0.363308 0.161129
O O9 0.848322 0.139178 0.226279
O O10 0.869321 0.311916 0.259114
O O11 0.500000 0.138299 0.500000
O O12 0.687159 0.093197 0.459797
O O13 0.415996 0.000000 0.433379
O O14 0.500000 0.655556 0.500000
O O15 0.250000 0.750000 0.500000
O O16 0.916537 0.888301 0.800582
O O17 0.163856 0.000000 0.841244
O O18 0.500000 0.161549 0.000000
O O19 0.750000 0.250000 0.000000
O O20 0.669680 0.000000 0.767694
#
# Coordination Sequence:
#
# PCOD9176914 Si02
#       8
#     8   8   8   8   8   8   8   8
#     4  12  21  38  61  84 113 153 188 233 299 357
#     4  10  18  36  61  89 115 161 204 240 289 351
#     4  11  23  38  60  90 117 153 195 246 300 358
#     4  11  24  40  60  88 116 150 197 241 287 353
#     4  12  20  38  65  87 111 151 194 234 285 360
#     4  10  21  38  61  86 117 157 201 246 290 352
#     4   9  18  32  58  89 124 160 196 241 301 346
#     4  10  21  38  62  87 117 158 202 244 289 356
#
# _framework density 20.028977000000001
#
# number of rings (size 3 to 8) (size 9 to 14) (size 15 to 20)
#    0.000    1.375    6.250    0.000    0.000    1.250 
#    0.000    3.125    0.000   15.000    0.000    0.000 
#    0.000    0.000    0.000    0.000    0.000    0.000 
#
# Total GULP energy -178181.962445 kJ/mol
# GULP energy per Si atom -5568.186326 kJ/mol
# Density = 1.998339 g / cm^3
# Si number density = 20.028977 Si / 1000 Ang^3
#
#
#
# Elastic Constant Matrix: (Units=GPa)
#
#
# Indices 1 2 3 4 5 6 
#
# 1 105.5520 10.4591 29.6403 0.0000 -15.9093 0.0000
# 2 10.4591 87.6070 14.5586 0.0000 -1.1472 0.0000
# 3 29.6403 14.5586 87.1994 0.0000 -24.4704 0.0000
# 4 0.0000 0.0000 0.0000 1.8314 0.0000 -25.6246
# 5 -15.9093 -1.1472 -24.4704 0.0000 53.4287 0.0000
# 6 0.0000 0.0000 0.0000 -25.6246 0.0000 -46.8235
#
#
#
# Elastic Compliance Matrix: (Units=1/GPa)
#
#
# Indices 1 2 3 4 5 6 
#
# 1 0.010659 -0.000751 -0.002997 0.000000 0.001785 0.000000
# 2 -0.000751 0.011819 -0.001962 0.000000 -0.000868 0.000000
# 3 -0.002997 -0.001962 0.014403 0.000000 0.005662 0.000000
# 4 0.000000 0.000000 0.000000 0.063073 0.000000 -0.034517
# 5 0.001785 -0.000868 0.005662 0.000000 0.021823 0.000000
# 6 0.000000 0.000000 0.000000 -0.034517 0.000000 -0.002467
#
#
# Mechanical properties :
#
#
# Convention : Reuss Voigt Hill
#
# Bulk Modulus (GPa) = 39.27424 43.29714 41.28569
# Shear Modulus (GPa) = 35.91542 16.73401 26.32471
#
# Velocity S-wave (km/s) = 4.23918 2.89362 3.62930
# Velocity P-wave (km/s) = 6.60395 5.72959 6.18225
#
# Compressibility (1/GPa) = 0.02546198
#
# Stress axis : x y z
#
# Youngs Moduli (GPa) = 93.81702 84.61018 69.42964
#
# Poissons Ratio (x) = 0.06356 0.20806
# Poissons Ratio (y) = 0.07047 0.13619
# Poissons Ratio (z) = 0.28115 0.16597
#
# Static dielectric constant tensor:
#      x y z
#    x 1.735110 0.000000 -0.014800 
#    y 0.000000 1.728640 0.000000 
#    z -0.014800 0.000000 1.748360 
# 
# From -- ./inp_files/356178.got.cif
#   From: 2010.05.17/outbox.cif.g08.bks.cpg/sg12_179_cif.got.tgz:356178.got - 2010.06.03 13:09:07.
