data_PCOD9176291
_publ_section_title
;
Structure prediction by ZEFSAII (Michael W. Deem and Ramdas Pophale) SiO2 
 PCOD9176291
Probable space group: C 2/M
;
_chemical_formula_sum "Si O2"
_cell_formula_units_Z 36
_cell_length_a 9.969391
_cell_length_b 18.038293
_cell_length_c 10.634455
_cell_angle_alpha 90.000000
_cell_angle_beta 96.951348
_cell_angle_gamma 90.000000
_cell_volume 1898.344967
_symmetry_space_group_name_H-M "C 2/M"
_symmetry_group_IT_number 12
_symmetry_cell_setting 'monoclinic'
loop_
_space_group_symop_operation_xyz
x,y,z
-x,y,-z
-x,-y,-z
x,-y,z
1/2+x,1/2+y,z
1/2-x,1/2+y,-z
1/2-x,1/2-y,-z
1/2+x,1/2-y,z
loop_
_atom_site_type_symbol
_atom_site_label
_atom_site_fract_x
_atom_site_fract_y
_atom_site_fract_z
Si Si1 0.000000 0.818195 0.000000
Si Si2 0.888312 0.709714 0.174429
Si Si3 0.311316 0.585659 0.810212
Si Si4 0.644032 0.636499 0.463892
Si Si5 0.824823 0.710739 0.665656
O O1 0.896327 0.762728 0.055112
O O2 0.064168 0.869597 0.114400
O O3 0.816819 0.630748 0.152125
O O4 0.796048 0.754056 0.265011
O O5 0.041449 0.696556 0.238392
O O6 0.313256 0.500000 0.844652
O O7 0.316913 0.594950 0.659748
O O8 0.500000 0.610142 0.500000
O O9 0.762064 0.642082 0.581425
O O10 0.629408 0.722949 0.421980
#
# Coordination Sequence:
#
# PCOD9176291 Si02
#       5
#     4   8   8   8   8
#     4  12  21  42  67  86 114 168 216 244 283 368
#     4  11  21  39  64  92 118 155 214 250 295 351
#     4  11  25  39  58  90 130 160 194 252 312 354
#     4  10  18  34  58  88 121 156 200 244 300 357
#     4  10  19  33  60  92 119 148 200 262 290 345
#
# _framework density 18.963888000000001
#
# number of rings (size 3 to 8) (size 9 to 14) (size 15 to 20)
#    0.000    1.333    6.667    1.000    0.000    0.444 
#    0.000    2.778    0.000    0.000    0.000    0.000 
#    0.000    0.000    0.000    0.000    0.000    0.000 
#
# Total GULP energy -100399.472507 kJ/mol
# GULP energy per Si atom -5577.748473 kJ/mol
# Density = 1.892072 g / cm^3
# Si number density = 18.963888 Si / 1000 Ang^3
#
#
#
# Elastic Constant Matrix: (Units=GPa)
#
#
# Indices 1 2 3 4 5 6 
#
# 1 101.6187 40.9219 31.4703 0.0000 6.2266 0.0000
# 2 40.9219 105.5605 34.9691 0.0000 -3.7090 0.0000
# 3 31.4703 34.9691 54.6034 0.0000 -8.6165 0.0000
# 4 0.0000 0.0000 0.0000 12.5246 0.0000 1.9563
# 5 6.2266 -3.7090 -8.6165 0.0000 34.9853 0.0000
# 6 0.0000 0.0000 0.0000 1.9563 0.0000 10.4314
#
#
#
# Elastic Compliance Matrix: (Units=1/GPa)
#
#
# Indices 1 2 3 4 5 6 
#
# 1 0.013358 -0.003243 -0.006296 0.000000 -0.004272 0.000000
# 2 -0.003243 0.012826 -0.006283 0.000000 0.000389 0.000000
# 3 -0.006296 -0.006283 0.027091 0.000000 0.007127 0.000000
# 4 0.000000 0.000000 0.000000 0.082252 0.000000 -0.015425
# 5 -0.004272 0.000389 0.007127 0.000000 0.031140 0.000000
# 6 0.000000 0.000000 0.000000 -0.015425 0.000000 0.098757
#
#
# Mechanical properties :
#
#
# Convention : Reuss Voigt Hill
#
# Bulk Modulus (GPa) = 46.23164 52.94501 49.58832
# Shear Modulus (GPa) = 16.43228 21.88302 19.15765
#
# Velocity S-wave (km/s) = 2.94684 3.40064 3.18184
# Velocity P-wave (km/s) = 6.00085 6.58776 6.30114
#
# Compressibility (1/GPa) = 0.02163021
#
# Stress axis : x y z
#
# Youngs Moduli (GPa) = 74.86007 77.96957 36.91229
#
# Poissons Ratio (x) = 0.25284 0.23241
# Poissons Ratio (y) = 0.24276 0.23193
# Poissons Ratio (z) = 0.47134 0.48991
#
# Static dielectric constant tensor:
#      x y z
#    x 1.682890 0.000000 0.027920 
#    y 0.000000 1.632480 0.000000 
#    z 0.027920 0.000000 1.723420 
# 
# From -- ./inp_files/118608.got.cif
#   From: 2010.05.17/outbox.cif.g08.bks.cpg/sg12_60_cif.got.tgz:118608.got - 2010.06.03 13:09:07.
