data_PCOD9176479
_publ_section_title
;
Structure prediction by ZEFSAII (Michael W. Deem and Ramdas Pophale) SiO2 
 PCOD9176479
Probable space group: C 2/M
;
_chemical_formula_sum "Si O2"
_cell_formula_units_Z 52
_cell_length_a 13.655833
_cell_length_b 12.700356
_cell_length_c 19.557679
_cell_angle_alpha 90.000000
_cell_angle_beta 51.073135
_cell_angle_gamma 90.000000
_cell_volume 2638.774760
_symmetry_space_group_name_H-M "C 2/M"
_symmetry_group_IT_number 12
_symmetry_cell_setting 'monoclinic'
loop_
_space_group_symop_operation_xyz
x,y,z
-x,y,-z
-x,-y,-z
x,-y,z
1/2+x,1/2+y,z
1/2-x,1/2+y,-z
1/2-x,1/2-y,-z
1/2+x,1/2-y,z
loop_
_atom_site_type_symbol
_atom_site_label
_atom_site_fract_x
_atom_site_fract_y
_atom_site_fract_z
Si Si1 0.845910 0.375168 0.201136
Si Si2 0.618071 0.723282 0.524338
Si Si3 0.566427 0.500000 0.200880
Si Si4 0.628611 0.875915 0.105608
Si Si5 0.853160 0.282708 0.646655
Si Si6 0.768087 0.678403 0.089166
Si Si7 0.216301 0.000000 0.684692
Si Si8 0.086319 0.000000 0.600858
O O1 0.822395 0.500000 0.218726
O O2 0.734243 0.303130 0.278708
O O3 0.852068 0.348072 0.117893
O O4 0.979898 0.352523 0.178075
O O5 0.750000 0.750000 0.500000
O O6 0.497663 0.784591 0.608265
O O7 0.633460 0.747915 0.438062
O O8 0.590424 0.602201 0.552880
O O9 0.647288 0.601685 0.147227
O O10 0.428820 0.500000 0.227058
O O11 0.533832 0.500000 0.295971
O O12 0.715875 0.797475 0.110782
O O13 0.649665 0.000000 0.109061
O O14 0.663777 0.849567 0.011470
O O15 0.787636 0.395871 0.676713
O O16 0.198510 0.000000 0.609129
#
# Coordination Sequence:
#
# PCOD9176479 Si02
#       8
#     8   8   4   8   8   8   4   4
#     4  11  23  40  62  91 125 160 210 256 305 365
#     4  11  23  41  63  93 120 157 209 257 305 367
#     4  10  18  34  64  91 115 165 208 238 302 364
#     4  10  22  39  62  94 124 158 208 258 303 360
#     4  11  25  39  64  92 124 162 208 253 315 361
#     4  11  20  37  67  89 123 166 205 250 310 366
#     4  10  22  42  62  87 125 168 206 244 305 379
#     4  10  22  38  68  87 124 165 201 256 307 362
#
# _framework density 19.706115
#
# number of rings (size 3 to 8) (size 9 to 14) (size 15 to 20)
#    0.462    0.923    3.077    2.308    2.154    4.923 
#    1.385    0.000    0.000    1.846    0.000    0.000 
#    0.000    0.000    0.000    0.000    0.000    0.000 
#
# Total GULP energy -145162.995368 kJ/mol
# GULP energy per Si atom -5583.192130 kJ/mol
# Density = 1.966126 g / cm^3
# Si number density = 19.706115 Si / 1000 Ang^3
#
#
#
# Elastic Constant Matrix: (Units=GPa)
#
#
# Indices 1 2 3 4 5 6 
#
# 1 63.2604 28.7436 1.7628 0.0000 -26.0994 0.0000
# 2 28.7436 101.3591 17.7753 0.0000 -14.5357 0.0000
# 3 1.7628 17.7753 61.8867 0.0000 -19.4176 0.0000
# 4 0.0000 0.0000 0.0000 20.9820 0.0000 3.1830
# 5 -26.0994 -14.5357 -19.4176 0.0000 25.4957 0.0000
# 6 0.0000 0.0000 0.0000 3.1830 0.0000 17.7727
#
#
#
# Elastic Compliance Matrix: (Units=1/GPa)
#
#
# Indices 1 2 3 4 5 6 
#
# 1 0.037536 -0.006700 0.015391 0.000000 0.046327 0.000000
# 2 -0.006700 0.012052 -0.004293 0.000000 -0.003257 0.000000
# 3 0.015391 -0.004293 0.027763 0.000000 0.034452 0.000000
# 4 0.000000 0.000000 0.000000 0.048991 0.000000 -0.008774
# 5 0.046327 -0.003257 0.034452 0.000000 0.111027 0.000000
# 6 0.000000 0.000000 0.000000 -0.008774 0.000000 0.057837
#
#
# Mechanical properties :
#
#
# Convention : Reuss Voigt Hill
#
# Bulk Modulus (GPa) = 11.60813 35.89664 23.75239
# Shear Modulus (GPa) = 15.86669 24.73172 20.29921
#
# Velocity S-wave (km/s) = 2.84062 3.54648 3.21299
# Velocity P-wave (km/s) = 4.08194 5.91824 5.08369
#
# Compressibility (1/GPa) = 0.08614650
#
# Stress axis : x y z
#
# Youngs Moduli (GPa) = 26.64104 82.97636 36.01948
#
# Poissons Ratio (x) = 0.55594 -0.55436
# Poissons Ratio (y) = 0.17850 0.15462
# Poissons Ratio (z) = -0.41002 0.35618
#
# Static dielectric constant tensor:
#      x y z
#    x 1.609690 0.000000 -0.034830 
#    y 0.000000 1.661950 0.000000 
#    z -0.034830 0.000000 1.685540 
# 
# From -- ./inp_files/309807.got.cif
#   From: 2010.05.17/outbox.cif.g08.bks.cpg/sg12_155_cif.got.tgz:309807.got - 2010.06.03 13:09:07.
