data_PCOD9176103
_publ_section_title
;
Structure prediction by ZEFSAII (Michael W. Deem and Ramdas Pophale) SiO2 
 PCOD9176103
Probable space group: C 2/M
;
_chemical_formula_sum "Si O2"
_cell_formula_units_Z 56
_cell_length_a 24.031283
_cell_length_b 19.028046
_cell_length_c 6.326850
_cell_angle_alpha 90.000000
_cell_angle_beta 100.153870
_cell_angle_gamma 90.000000
_cell_volume 2847.756682
_symmetry_space_group_name_H-M "C 2/M"
_symmetry_group_IT_number 12
_symmetry_cell_setting 'monoclinic'
loop_
_space_group_symop_operation_xyz
x,y,z
-x,y,-z
-x,-y,-z
x,-y,z
1/2+x,1/2+y,z
1/2-x,1/2+y,-z
1/2-x,1/2-y,-z
1/2+x,1/2-y,z
loop_
_atom_site_type_symbol
_atom_site_label
_atom_site_fract_x
_atom_site_fract_y
_atom_site_fract_z
Si Si1 0.736929 0.081256 0.320506
Si Si2 0.679767 0.673079 0.863439
Si Si3 0.642907 0.919551 0.910688
Si Si4 0.053687 0.681961 0.882674
Si Si5 0.864949 0.767662 0.769279
Si Si6 0.704352 0.186977 0.635675
Si Si7 0.938253 0.804983 0.441651
O O1 0.782797 0.107718 0.181233
O O2 0.742907 0.134483 0.521496
O O3 0.744686 0.000000 0.385325
O O4 0.676723 0.086826 0.156272
O O5 0.710455 0.743102 0.786874
O O6 0.615952 0.666390 0.725930
O O7 0.673017 0.682685 0.109577
O O8 0.577336 0.896223 0.869032
O O9 0.670906 0.866691 0.762355
O O10 0.649360 0.000000 0.847721
O O11 0.049628 0.729729 0.668927
O O12 0.104919 0.717619 0.044159
O O13 0.000000 0.685406 0.000000
O O14 0.829967 0.723728 0.577776
O O15 0.914187 0.801450 0.662209
O O16 0.000000 0.840166 0.500000
#
# Coordination Sequence:
#
# PCOD9176103 Si02
#       7
#     8   8   8   8   8   8   8
#     4  11  24  40  56  78 117 154 184 230 284 336
#     4  10  22  35  58  89 108 143 192 233 275 336
#     4  11  23  37  52  79 115 157 195 223 271 331
#     4  11  19  33  55  79 114 148 188 231 271 325
#     4  10  18  34  55  80 112 140 182 234 280 320
#     4  11  19  37  59  82 109 148 190 237 277 323
#     4  10  19  33  58  87 112 141 179 234 291 328
#
# _framework density 19.664601000000001
#
# number of rings (size 3 to 8) (size 9 to 14) (size 15 to 20)
#    0.000    1.429    7.143    0.857    0.000    4.857 
#    0.000    0.000    0.000    1.714    0.000    1.000 
#    0.000    0.000    0.000    0.000    0.000    0.000 
#
# Total GULP energy -155935.004283 kJ/mol
# GULP energy per Si atom -5569.107296 kJ/mol
# Density = 1.961984 g / cm^3
# Si number density = 19.664601 Si / 1000 Ang^3
#
#
#
# Elastic Constant Matrix: (Units=GPa)
#
#
# Indices 1 2 3 4 5 6 
#
# 1 75.0586 22.8267 21.3028 0.0000 -9.9550 0.0000
# 2 22.8267 33.2137 7.1168 0.0000 -5.1473 0.0000
# 3 21.3028 7.1168 97.0111 0.0000 -7.5732 0.0000
# 4 0.0000 0.0000 0.0000 15.4538 0.0000 3.8003
# 5 -9.9550 -5.1473 -7.5732 0.0000 42.6318 0.0000
# 6 0.0000 0.0000 0.0000 3.8003 0.0000 15.4058
#
#
#
# Elastic Compliance Matrix: (Units=1/GPa)
#
#
# Indices 1 2 3 4 5 6 
#
# 1 0.017899 -0.011320 -0.002921 0.000000 0.002294 0.000000
# 2 -0.011320 0.038225 -0.000167 0.000000 0.001942 0.000000
# 3 -0.002921 -0.000167 0.011060 0.000000 0.001263 0.000000
# 4 0.000000 0.000000 0.000000 0.068888 0.000000 -0.016993
# 5 0.002294 0.001942 0.001263 0.000000 0.024451 0.000000
# 6 0.000000 0.000000 0.000000 -0.016993 0.000000 0.069103
#
#
# Mechanical properties :
#
#
# Convention : Reuss Voigt Hill
#
# Bulk Modulus (GPa) = 26.06304 34.19733 30.13019
# Shear Modulus (GPa) = 18.43455 24.96742 21.70098
#
# Velocity S-wave (km/s) = 3.06510 3.56710 3.32558
# Velocity P-wave (km/s) = 5.08026 5.86461 5.48647
#
# Compressibility (1/GPa) = 0.03836851
#
# Stress axis : x y z
#
# Youngs Moduli (GPa) = 55.86984 26.16115 90.41338
#
# Poissons Ratio (x) = 0.29614 0.26409
# Poissons Ratio (y) = 0.63244 0.01508
# Poissons Ratio (z) = 0.16319 0.00436
#
# Static dielectric constant tensor:
#      x y z
#    x 1.769390 0.000000 0.010190 
#    y 0.000000 1.681780 0.000000 
#    z 0.010190 0.000000 1.761940 
# 
# From -- ./inp_files/25445.got.cif
#   From: 2010.05.17/outbox.cif.g08.bks.cpg/sg12_13_cif.got.tgz:25445.got - 2010.06.03 13:09:07.
