data_PCOD9176140
_publ_section_title
;
Structure prediction by ZEFSAII (Michael W. Deem and Ramdas Pophale) SiO2 
 PCOD9176140
Probable space group: C 2/M
;
_chemical_formula_sum "Si O2"
_cell_formula_units_Z 60
_cell_length_a 23.271855
_cell_length_b 12.527831
_cell_length_c 12.497083
_cell_angle_alpha 90.000000
_cell_angle_beta 106.785589
_cell_angle_gamma 90.000000
_cell_volume 3488.232398
_symmetry_space_group_name_H-M "C 2/M"
_symmetry_group_IT_number 12
_symmetry_cell_setting 'monoclinic'
loop_
_space_group_symop_operation_xyz
x,y,z
-x,y,-z
-x,-y,-z
x,-y,z
1/2+x,1/2+y,z
1/2-x,1/2+y,-z
1/2-x,1/2-y,-z
1/2+x,1/2-y,z
loop_
_atom_site_type_symbol
_atom_site_label
_atom_site_fract_x
_atom_site_fract_y
_atom_site_fract_z
Si Si1 0.869208 0.626966 0.593117
Si Si2 0.602445 0.125844 0.755036
Si Si3 0.500000 0.214036 0.000000
Si Si4 0.455697 0.622276 0.805111
Si Si5 0.626673 0.123373 0.015510
Si Si6 0.512085 0.740223 0.384866
Si Si7 0.288856 0.126486 0.351343
Si Si8 0.333739 0.738939 0.776996
O O1 0.875585 0.500000 0.597928
O O2 0.931173 0.679599 0.587470
O O3 0.816618 0.655633 0.481405
O O4 0.853213 0.672391 0.700559
O O5 0.546161 0.197432 0.690678
O O6 0.657655 0.143687 0.704612
O O7 0.585419 0.000000 0.739785
O O8 0.623898 0.146551 0.887740
O O9 0.507016 0.292679 0.104803
O O10 0.558865 0.142614 0.020899
O O11 0.469124 0.500000 0.838362
O O12 0.470136 0.647981 0.689316
O O13 0.386472 0.650617 0.795377
O O14 0.665316 0.205218 0.106665
O O15 0.644410 0.000000 0.040548
O O16 0.500000 0.705600 0.500000
O O17 0.229945 0.190657 0.288179
O O18 0.275121 0.000000 0.344802
#
# Coordination Sequence:
#
# PCOD9176140 Si02
#       8
#     8   8   4   8   8   8   8   8
#     4  10  20  33  54  83 109 138 177 225 273 319
#     4  10  20  34  55  82 111 140 173 220 273 326
#     4  10  18  34  56  80 106 144 170 216 268 318
#     4  10  21  35  53  77 105 140 183 221 258 309
#     4  10  20  34  54  83 113 139 171 218 274 324
#     4  11  20  34  56  82 111 139 174 220 277 325
#     4  10  20  35  55  76 104 144 187 222 260 310
#     4  10  21  35  53  77 107 146 182 219 265 312
#
# _framework density 17.200690000000002
#
# number of rings (size 3 to 8) (size 9 to 14) (size 15 to 20)
#    0.000    1.867    2.667    2.000    0.000    1.333 
#    0.000    0.000    0.000    2.400    0.000    0.000 
#    0.000    0.000    0.000    0.000    0.000    0.000 
#
# Total GULP energy -167407.226586 kJ/mol
# GULP energy per Si atom -5580.240886 kJ/mol
# Density = 1.716154 g / cm^3
# Si number density = 17.200690 Si / 1000 Ang^3
#
#
#
# Elastic Constant Matrix: (Units=GPa)
#
#
# Indices 1 2 3 4 5 6 
#
# 1 38.8739 6.3230 7.3234 0.0000 15.8030 0.0000
# 2 6.3230 31.5860 12.9602 0.0000 0.4035 0.0000
# 3 7.3234 12.9602 81.0548 0.0000 -5.1138 0.0000
# 4 0.0000 0.0000 0.0000 16.9815 0.0000 1.9065
# 5 15.8030 0.4035 -5.1138 0.0000 24.6013 0.0000
# 6 0.0000 0.0000 0.0000 1.9065 0.0000 6.1554
#
#
#
# Elastic Compliance Matrix: (Units=1/GPa)
#
#
# Indices 1 2 3 4 5 6 
#
# 1 0.037484 -0.005516 -0.004072 0.000000 -0.024834 0.000000
# 2 -0.005516 0.034765 -0.004938 0.000000 0.001947 0.000000
# 3 -0.004072 -0.004938 0.013846 0.000000 0.005575 0.000000
# 4 0.000000 0.000000 0.000000 0.061009 0.000000 -0.018896
# 5 -0.024834 0.001947 0.005575 0.000000 0.057728 0.000000
# 6 0.000000 0.000000 0.000000 -0.018896 0.000000 0.168312
#
#
# Mechanical properties :
#
#
# Convention : Reuss Voigt Hill
#
# Bulk Modulus (GPa) = 17.52992 22.74757 20.13875
# Shear Modulus (GPa) = 11.87057 17.87484 14.87271
#
# Velocity S-wave (km/s) = 2.62987 3.22715 2.94370
# Velocity P-wave (km/s) = 4.40853 5.20956 4.82569
#
# Compressibility (1/GPa) = 0.05704533
#
# Stress axis : x y z
#
# Youngs Moduli (GPa) = 26.67800 28.76471 72.22096
#
# Poissons Ratio (x) = 0.15866 0.29406
# Poissons Ratio (y) = 0.14715 0.35659
# Poissons Ratio (z) = 0.10862 0.14203
#
# Static dielectric constant tensor:
#      x y z
#    x 1.552230 0.000000 -0.002740 
#    y 0.000000 1.550280 0.000000 
#    z -0.002740 0.000000 1.605000 
# 
# From -- ./inp_files/174698.got.cif
#   From: 2010.05.17/outbox.cif.g08.bks.cpg/sg12_88_cif.got.tgz:174698.got - 2010.06.03 13:09:07.
