data_PCOD9176294
_publ_section_title
;
Structure prediction by ZEFSAII (Michael W. Deem and Ramdas Pophale) SiO2 
 PCOD9176294
Probable space group: C 2/M
;
_chemical_formula_sum "Si O2"
_cell_formula_units_Z 58
_cell_length_a 17.824424
_cell_length_b 21.393048
_cell_length_c 9.267061
_cell_angle_alpha 90.000000
_cell_angle_beta 60.128949
_cell_angle_gamma 90.000000
_cell_volume 3064.246297
_symmetry_space_group_name_H-M "C 2/M"
_symmetry_group_IT_number 12
_symmetry_cell_setting 'monoclinic'
loop_
_space_group_symop_operation_xyz
x,y,z
-x,y,-z
-x,-y,-z
x,-y,z
1/2+x,1/2+y,z
1/2-x,1/2+y,-z
1/2-x,1/2-y,-z
1/2+x,1/2-y,z
loop_
_atom_site_type_symbol
_atom_site_label
_atom_site_fract_x
_atom_site_fract_y
_atom_site_fract_z
Si Si1 0.785763 0.867471 0.246052
Si Si2 0.946212 0.813616 0.275902
Si Si3 0.914454 0.683280 0.175474
Si Si4 0.092296 0.101036 0.109988
Si Si5 0.797938 0.427903 0.405214
Si Si6 0.638045 0.623683 0.376203
Si Si7 0.751011 0.738373 0.167723
Si Si8 0.000000 0.000000 0.000000
O O1 0.873327 0.845617 0.244556
O O2 0.733683 0.912352 0.402008
O O3 0.734669 0.803791 0.263828
O O4 0.818462 0.897044 0.065084
O O5 0.932952 0.739428 0.272207
O O6 0.929156 0.848443 0.443915
O O7 0.043338 0.832407 0.141298
O O8 0.870938 0.622173 0.288543
O O9 0.842018 0.711921 0.138133
O O10 0.000000 0.670163 0.000000
O O11 0.105294 0.087690 0.266330
O O12 0.030590 0.053458 0.086945
O O13 0.823973 0.500000 0.366026
O O14 0.712736 0.414191 0.388952
O O15 0.682401 0.686062 0.272287
O O16 0.750000 0.750000 0.000000
#
# Coordination Sequence:
#
# PCOD9176294 Si02
#       8
#     8   8   8   8   8   8   8   2
#     4  10  19  35  59  79 117 155 197 245 296 365
#     4  10  19  37  56  87 119 152 198 250 303 359
#     4  10  21  37  64  90 119 157 199 253 314 370
#     4  12  22  37  54  86 119 166 201 238 297 365
#     4  10  23  40  58  87 117 160 210 251 301 359
#     4  10  22  35  57  86 120 154 197 256 299 349
#     4  10  18  34  58  92 119 143 196 252 308 356
#     4  12  28  36  54  84 128 168 214 224 296 376
#
# _framework density 18.927982
#
# number of rings (size 3 to 8) (size 9 to 14) (size 15 to 20)
#    0.000    1.655    2.759    2.897    1.931    3.586 
#    0.000    0.690    0.000    0.000    0.000    0.966 
#    0.000    0.000    0.000    0.000    0.000    0.000 
#
# Total GULP energy -161541.958456 kJ/mol
# GULP energy per Si atom -5570.412361 kJ/mol
# Density = 1.888490 g / cm^3
# Si number density = 18.927982 Si / 1000 Ang^3
#
#
#
# Elastic Constant Matrix: (Units=GPa)
#
#
# Indices 1 2 3 4 5 6 
#
# 1 47.0994 27.3355 29.5023 0.0000 12.9330 0.0000
# 2 27.3355 122.8603 43.1907 0.0000 1.7638 0.0000
# 3 29.5023 43.1907 121.9470 0.0000 7.1983 0.0000
# 4 0.0000 0.0000 0.0000 -0.1727 0.0000 17.8976
# 5 12.9330 1.7638 7.1983 0.0000 32.1331 0.0000
# 6 0.0000 0.0000 0.0000 17.8976 0.0000 3.3445
#
#
#
# Elastic Compliance Matrix: (Units=1/GPa)
#
#
# Indices 1 2 3 4 5 6 
#
# 1 0.030055 -0.004797 -0.004939 0.000000 -0.010727 0.000000
# 2 -0.004797 0.010064 -0.002519 0.000000 0.001942 0.000000
# 3 -0.004939 -0.002519 0.010298 0.000000 -0.000181 0.000000
# 4 0.000000 0.000000 0.000000 -0.010422 0.000000 0.055773
# 5 -0.010727 0.001942 -0.000181 0.000000 0.035372 0.000000
# 6 0.000000 0.000000 0.000000 0.055773 0.000000 0.000538
#
#
# Mechanical properties :
#
#
# Convention : Reuss Voigt Hill
#
# Bulk Modulus (GPa) = 38.59807 54.66264 46.63035
# Shear Modulus (GPa) = 45.85087 19.85288 32.85188
#
# Velocity S-wave (km/s) = 4.92711 3.24213 4.17060
# Velocity P-wave (km/s) = 7.26670 6.55417 6.91961
#
# Compressibility (1/GPa) = 0.02590803
#
# Stress axis : x y z
#
# Youngs Moduli (GPa) = 33.27252 99.36320 97.10738
#
# Poissons Ratio (x) = 0.47662 0.47961
# Poissons Ratio (y) = 0.15960 0.24458
# Poissons Ratio (z) = 0.16433 0.25026
#
# Static dielectric constant tensor:
#      x y z
#    x 1.667830 0.000000 0.011960 
#    y 0.000000 1.646030 0.000000 
#    z 0.011960 0.000000 1.761120 
# 
# From -- ./inp_files/78013.got.cif
#   From: 2010.05.17/outbox.cif.g08.bks.cpg/sg12_40_cif.got.tgz:78013.got - 2010.06.03 13:09:07.
