data_PCOD9176177
_publ_section_title
;
Structure prediction by ZEFSAII (Michael W. Deem and Ramdas Pophale) SiO2 
 PCOD9176177
Probable space group: C 2/M
;
_chemical_formula_sum "Si O2"
_cell_formula_units_Z 64
_cell_length_a 15.154429
_cell_length_b 7.760681
_cell_length_c 28.212203
_cell_angle_alpha 90.000000
_cell_angle_beta 107.403364
_cell_angle_gamma 90.000000
_cell_volume 3166.111353
_symmetry_space_group_name_H-M "C 2/M"
_symmetry_group_IT_number 12
_symmetry_cell_setting 'monoclinic'
loop_
_space_group_symop_operation_xyz
x,y,z
-x,y,-z
-x,-y,-z
x,-y,z
1/2+x,1/2+y,z
1/2-x,1/2+y,-z
1/2-x,1/2-y,-z
1/2+x,1/2-y,z
loop_
_atom_site_type_symbol
_atom_site_label
_atom_site_fract_x
_atom_site_fract_y
_atom_site_fract_z
Si Si1 0.717052 0.711754 0.606290
Si Si2 0.467837 0.292989 0.135398
Si Si3 0.392542 0.302485 0.322147
Si Si4 0.826265 0.293161 0.866944
Si Si5 0.779032 0.792970 0.057666
Si Si6 0.104170 0.797352 0.497460
Si Si7 0.414746 0.198227 0.612115
Si Si8 0.864039 0.789090 0.212131
O O1 0.710039 0.500000 0.603957
O O2 0.666601 0.777706 0.644920
O O3 0.669740 0.770280 0.549723
O O4 0.823518 0.758873 0.623889
O O5 0.463698 0.500000 0.135342
O O6 0.570993 0.250930 0.134360
O O7 0.382643 0.231769 0.088266
O O8 0.436833 0.233313 0.183178
O O9 0.359721 0.500000 0.312282
O O10 0.495907 0.302144 0.358794
O O11 0.386665 0.227344 0.268623
O O12 0.823454 0.500000 0.867367
O O13 0.794765 0.231466 0.914401
O O14 0.740101 0.237735 0.819827
O O15 0.781122 0.000000 0.061741
O O16 0.750000 0.750000 0.000000
O O17 0.107739 0.709125 0.447276
O O18 0.000000 0.783909 0.500000
O O19 0.124505 0.000000 0.493067
O O20 0.433429 0.000000 0.627293
O O21 0.867053 0.000000 0.212309
#
# Coordination Sequence:
#
# PCOD9176177 Si02
#       8
#     8   8   8   8   8   8   8   8
#     4   9  19  34  52  74 100 130 164 201 244 299
#     4   9  18  34  53  77 105 136 172 216 260 304
#     4  10  19  37  58  73  96 136 174 202 243 308
#     4   9  18  34  54  78 103 136 177 216 254 304
#     4   9  19  34  51  74 110 144 178 215 256 304
#     4  10  18  34  57  74  94 132 175 201 233 305
#     4  11  22  34  50  78 108 128 157 209 262 297
#     4   8  17  34  56  75  97 132 173 211 252 301
#
# _framework density 20.214071000000001
#
# number of rings (size 3 to 8) (size 9 to 14) (size 15 to 20)
#    0.000    2.625    1.250    2.250    0.000    2.750 
#    0.000    8.750    0.000    0.000    0.000    0.000 
#    0.000    0.000    0.000    0.000    0.000    0.000 
#
# Total GULP energy -178446.027074 kJ/mol
# GULP energy per Si atom -5576.438346 kJ/mol
# Density = 2.016806 g / cm^3
# Si number density = 20.214071 Si / 1000 Ang^3
#
#
#
# Elastic Constant Matrix: (Units=GPa)
#
#
# Indices 1 2 3 4 5 6 
#
# 1 165.0514 9.4829 95.2722 0.0000 -9.3494 0.0000
# 2 9.4829 26.4851 -1.9803 0.0000 -5.1253 0.0000
# 3 95.2722 -1.9803 188.6129 0.0000 19.9786 0.0000
# 4 0.0000 0.0000 0.0000 7.3053 0.0000 1.5023
# 5 -9.3494 -5.1253 19.9786 0.0000 65.1940 0.0000
# 6 0.0000 0.0000 0.0000 1.5023 0.0000 19.6553
#
#
#
# Elastic Compliance Matrix: (Units=1/GPa)
#
#
# Indices 1 2 3 4 5 6 
#
# 1 0.009272 -0.003188 -0.004993 0.000000 0.002609 0.000000
# 2 -0.003188 0.039438 0.001803 0.000000 0.002091 0.000000
# 3 -0.004993 0.001803 0.008169 0.000000 -0.003078 0.000000
# 4 0.000000 0.000000 0.000000 0.139074 0.000000 -0.010630
# 5 0.002609 0.002091 -0.003078 0.000000 0.016821 0.000000
# 6 0.000000 0.000000 0.000000 -0.010630 0.000000 0.051689
#
#
# Mechanical properties :
#
#
# Convention : Reuss Voigt Hill
#
# Bulk Modulus (GPa) = 22.66445 65.07764 43.87104
# Shear Modulus (GPa) = 17.12759 36.92255 27.02507
#
# Velocity S-wave (km/s) = 2.91402 4.27848 3.66039
# Velocity P-wave (km/s) = 4.74958 7.52804 6.29404
#
# Compressibility (1/GPa) = 0.04412197
#
# Stress axis : x y z
#
# Youngs Moduli (GPa) = 107.85192 25.35630 122.41365
#
# Poissons Ratio (x) = 0.08084 0.61125
# Poissons Ratio (y) = 0.34385 -0.22072
# Poissons Ratio (z) = 0.53854 -0.04572
#
# Static dielectric constant tensor:
#      x y z
#    x 1.700930 0.000000 -0.014580 
#    y 0.000000 1.766510 0.000000 
#    z -0.014580 0.000000 1.714280 
# 
# From -- ./inp_files/359880.got.cif
#   From: 2010.05.17/outbox.cif.g08.bks.cpg/sg12_180_cif.got.tgz:359880.got - 2010.06.03 13:09:07.
