data_PCOD9176309
_publ_section_title
;
Structure prediction by ZEFSAII (Michael W. Deem and Ramdas Pophale) SiO2 
 PCOD9176309
Probable space group: C 2/M
;
_chemical_formula_sum "Si O2"
_cell_formula_units_Z 64
_cell_length_a 21.653688
_cell_length_b 16.719235
_cell_length_c 18.830881
_cell_angle_alpha 90.000000
_cell_angle_beta 29.496261
_cell_angle_gamma 90.000000
_cell_volume 3356.662239
_symmetry_space_group_name_H-M "C 2/M"
_symmetry_group_IT_number 12
_symmetry_cell_setting 'monoclinic'
loop_
_space_group_symop_operation_xyz
x,y,z
-x,y,-z
-x,-y,-z
x,-y,z
1/2+x,1/2+y,z
1/2-x,1/2+y,-z
1/2-x,1/2-y,-z
1/2+x,1/2-y,z
loop_
_atom_site_type_symbol
_atom_site_label
_atom_site_fract_x
_atom_site_fract_y
_atom_site_fract_z
Si Si1 0.599560 0.087746 0.335584
Si Si2 0.564915 0.857314 0.218763
Si Si3 0.428768 0.691614 0.327029
Si Si4 0.723086 0.780001 0.640987
Si Si5 0.243436 0.089839 0.179038
Si Si6 0.831734 0.907965 0.909948
Si Si7 0.024564 0.588464 0.845476
Si Si8 0.850235 0.748529 0.655486
O O1 0.500000 0.086705 0.500000
O O2 0.536416 0.100286 0.321781
O O3 0.677903 0.169153 0.270065
O O4 0.662362 0.000000 0.272816
O O5 0.507540 0.768941 0.274611
O O6 0.509159 0.900223 0.204519
O O7 0.715505 0.858709 0.058547
O O8 0.348848 0.719117 0.338964
O O9 0.327673 0.674106 0.489366
O O10 0.531881 0.625169 0.208038
O O11 0.621310 0.843504 0.769394
O O12 0.790850 0.737398 0.637758
O O13 0.184172 0.095007 0.159396
O O14 0.197756 0.167144 0.266580
O O15 0.214626 0.000000 0.236132
O O16 0.393089 0.095122 0.017874
O O17 0.814630 0.000000 0.949005
O O18 0.076238 0.500000 0.805522
O O19 0.000000 0.755179 0.500000
#
# Coordination Sequence:
#
# PCOD9176309 Si02
#       8
#     8   8   8   8   8   8   8   8
#     4  10  20  33  52  78 105 135 175 222 271 319
#     4  10  18  34  59  82 106 138 180 226 272 322
#     4  10  20  36  55  78 109 143 179 226 273 321
#     4  10  22  36  53  78 107 144 188 221 267 331
#     4   9  19  35  56  84 114 146 183 221 268 330
#     4  10  19  33  56  85 111 136 175 222 272 327
#     4   9  19  36  57  82 111 141 179 227 271 320
#     4  11  22  37  55  78 110 147 185 230 277 327
#
# _framework density 19.066559000000002
#
# number of rings (size 3 to 8) (size 9 to 14) (size 15 to 20)
#    0.000    2.125    0.000    5.250    0.000    3.750 
#    0.000    1.875    0.000    0.000    0.000    3.500 
#    0.000    0.000    0.000    0.000    0.000    0.000 
#
# Total GULP energy -178539.655485 kJ/mol
# GULP energy per Si atom -5579.364234 kJ/mol
# Density = 1.902316 g / cm^3
# Si number density = 19.066559 Si / 1000 Ang^3
#
#
#
# Elastic Constant Matrix: (Units=GPa)
#
#
# Indices 1 2 3 4 5 6 
#
# 1 78.2707 28.6971 27.3039 0.0000 -9.5458 0.0001
# 2 28.6971 101.7310 24.2267 -0.0001 1.3549 0.0001
# 3 27.3039 24.2267 48.1871 -0.0003 -10.9314 0.0002
# 4 0.0000 -0.0001 -0.0003 4.4353 0.0002 -1.0618
# 5 -9.5458 1.3549 -10.9314 0.0002 24.7177 -0.0001
# 6 0.0001 0.0001 0.0002 -1.0618 -0.0001 8.2809
#
#
#
# Elastic Compliance Matrix: (Units=1/GPa)
#
#
# Indices 1 2 3 4 5 6 
#
# 1 0.016845 -0.003083 -0.007203 -0.000001 0.003489 0.000000
# 2 -0.003083 0.012001 -0.005231 0.000000 -0.004162 0.000000
# 3 -0.007203 -0.005231 0.029897 0.000002 0.010727 0.000000
# 4 -0.000001 0.000000 0.000002 0.232607 -0.000001 0.029827
# 5 0.003489 -0.004162 0.010727 -0.000001 0.046776 0.000000
# 6 0.000000 0.000000 0.000000 0.029827 0.000000 0.124584
#
#
# Mechanical properties :
#
#
# Convention : Reuss Voigt Hill
#
# Bulk Modulus (GPa) = 36.08949 43.18271 39.63610
# Shear Modulus (GPa) = 9.94076 17.35084 13.64580
#
# Velocity S-wave (km/s) = 2.28583 3.01992 2.67815
# Velocity P-wave (km/s) = 5.09274 5.90402 5.51332
#
# Compressibility (1/GPa) = 0.02770890
#
# Stress axis : x y z
#
# Youngs Moduli (GPa) = 59.36595 83.32947 33.44784
#
# Poissons Ratio (x) = 0.25688 0.24094
# Poissons Ratio (y) = 0.18301 0.17496
# Poissons Ratio (z) = 0.42763 0.43588
#
# Static dielectric constant tensor:
#      x y z
#    x 1.671880 0.000000 0.024380 
#    y 0.000000 1.686440 0.000000 
#    z 0.024380 0.000000 1.659940 
# 
# From -- ./inp_files/285180.got.cif
#   From: 2010.05.17/outbox.cif.g08.bks.cpg/sg12_143_cif.got.tgz:285180.got - 2010.06.03 13:09:07.
