data_PCOD9176398
_publ_section_title
;
Structure prediction by ZEFSAII (Michael W. Deem and Ramdas Pophale) SiO2 
 PCOD9176398
Probable space group: C 2/M
;
_chemical_formula_sum "Si O2"
_cell_formula_units_Z 44
_cell_length_a 15.183969
_cell_length_b 17.230885
_cell_length_c 9.501867
_cell_angle_alpha 90.000000
_cell_angle_beta 63.395202
_cell_angle_gamma 90.000000
_cell_volume 2222.777871
_symmetry_space_group_name_H-M "C 2/M"
_symmetry_group_IT_number 12
_symmetry_cell_setting 'monoclinic'
loop_
_space_group_symop_operation_xyz
x,y,z
-x,y,-z
-x,-y,-z
x,-y,z
1/2+x,1/2+y,z
1/2-x,1/2+y,-z
1/2-x,1/2-y,-z
1/2+x,1/2-y,z
loop_
_atom_site_type_symbol
_atom_site_label
_atom_site_fract_x
_atom_site_fract_y
_atom_site_fract_z
Si Si1 0.546014 0.412887 0.246834
Si Si2 0.107137 0.721094 0.432847
Si Si3 0.881746 0.415640 0.351630
Si Si4 0.000000 0.646895 0.000000
Si Si5 0.365772 0.751780 0.898338
Si Si6 0.843487 0.883869 0.539733
O O1 0.559138 0.500000 0.174993
O O2 0.586946 0.335020 0.142282
O O3 0.429424 0.401969 0.365063
O O4 0.608630 0.411557 0.347688
O O5 0.102115 0.650728 0.543475
O O6 0.125031 0.703590 0.257761
O O7 0.174159 0.791110 0.437139
O O8 0.000000 0.760591 0.500000
O O9 0.912798 0.500000 0.383059
O O10 0.941675 0.398420 0.164972
O O11 0.764361 0.416950 0.407941
O O12 0.920620 0.700450 0.978317
O O13 0.250000 0.750000 0.000000
#
# Coordination Sequence:
#
# PCOD9176398 Si02
#       6
#     8   8   8   4   8   8
#     4  10  18  34  60  90 126 158 200 265 313 367
#     4  11  20  43  64  88 120 169 214 253 312 382
#     4  12  25  39  63  97 127 166 215 269 321 375
#     4  12  23  44  63  88 130 174 214 268 313 388
#     4  11  24  42  65  93 125 171 216 255 324 388
#     4  10  18  35  62  91 121 159 212 252 312 382
#
# _framework density 19.795051000000001
#
# number of rings (size 3 to 8) (size 9 to 14) (size 15 to 20)
#    0.000    1.091    5.455    5.182    0.000    1.818 
#    0.000    2.273    0.000    0.000    0.000    0.000 
#    0.000    0.000    0.000    0.000    0.000    0.000 
#
# Total GULP energy -122662.599664 kJ/mol
# GULP energy per Si atom -5575.572712 kJ/mol
# Density = 1.975000 g / cm^3
# Si number density = 19.795051 Si / 1000 Ang^3
#
#
#
# Elastic Constant Matrix: (Units=GPa)
#
#
# Indices 1 2 3 4 5 6 
#
# 1 81.1828 16.1651 22.2852 0.0000 -17.5119 0.0000
# 2 16.1651 142.3503 22.4183 0.0000 20.3176 0.0000
# 3 22.2852 22.4183 74.0439 0.0000 -0.7703 0.0000
# 4 0.0000 0.0000 0.0000 17.7905 0.0000 8.7892
# 5 -17.5119 20.3176 -0.7703 0.0000 29.1695 0.0000
# 6 0.0000 0.0000 0.0000 8.7892 0.0000 11.2163
#
#
#
# Elastic Compliance Matrix: (Units=1/GPa)
#
#
# Indices 1 2 3 4 5 6 
#
# 1 0.016561 -0.002954 -0.003966 0.000000 0.011895 0.000000
# 2 -0.002954 0.008786 -0.001854 0.000000 -0.007942 0.000000
# 3 -0.003966 -0.001854 0.015253 0.000000 -0.000687 0.000000
# 4 0.000000 0.000000 0.000000 0.091717 0.000000 -0.071870
# 5 0.011895 -0.007942 -0.000687 0.000000 0.046937 0.000000
# 6 0.000000 0.000000 0.000000 -0.071870 0.000000 0.145475
#
#
# Mechanical properties :
#
#
# Convention : Reuss Voigt Hill
#
# Bulk Modulus (GPa) = 43.37942 46.59046 44.98494
# Shear Modulus (GPa) = 14.28736 27.41582 20.85159
#
# Velocity S-wave (km/s) = 2.68948 3.72557 3.24909
# Velocity P-wave (km/s) = 5.62195 6.48799 6.07043
#
# Compressibility (1/GPa) = 0.02305241
#
# Stress axis : x y z
#
# Youngs Moduli (GPa) = 60.38427 113.81984 65.55946
#
# Poissons Ratio (x) = 0.33619 0.26003
# Poissons Ratio (y) = 0.17836 0.12153
# Poissons Ratio (z) = 0.23950 0.21099
#
# Static dielectric constant tensor:
#      x y z
#    x 1.446670 0.000000 0.142670 
#    y 0.000000 1.725300 0.000000 
#    z 0.142670 0.000000 1.612290 
# 
# From -- ./inp_files/61646.got.cif
#   From: 2010.05.17/outbox.cif.g08.bks.cpg/sg12_31_cif.got.tgz:61646.got - 2010.06.03 13:09:07.
