data_PCOD9176002
_publ_section_title
;
Structure prediction by ZEFSAII (Michael W. Deem and Ramdas Pophale) SiO2 
 PCOD9176002
Probable space group: C 2/M
;
_chemical_formula_sum "Si O2"
_cell_formula_units_Z 56
_cell_length_a 9.824226
_cell_length_b 28.188442
_cell_length_c 19.126984
_cell_angle_alpha 90.000000
_cell_angle_beta 137.756537
_cell_angle_gamma 90.000000
_cell_volume 3560.964313
_symmetry_space_group_name_H-M "C 2/M"
_symmetry_group_IT_number 12
_symmetry_cell_setting 'monoclinic'
loop_
_space_group_symop_operation_xyz
x,y,z
-x,y,-z
-x,-y,-z
x,-y,z
1/2+x,1/2+y,z
1/2-x,1/2+y,-z
1/2-x,1/2-y,-z
1/2+x,1/2-y,z
loop_
_atom_site_type_symbol
_atom_site_label
_atom_site_fract_x
_atom_site_fract_y
_atom_site_fract_z
Si Si1 0.251665 0.390021 0.210972
Si Si2 0.481868 0.799537 0.911787
Si Si3 0.168154 0.443164 0.941361
Si Si4 0.502731 0.395353 0.167341
Si Si5 0.448603 0.308139 0.055910
Si Si6 0.318769 0.444037 0.376865
Si Si7 0.859433 0.443916 0.231956
O O1 0.176229 0.335278 0.183395
O O2 0.412117 0.397384 0.210203
O O3 0.333183 0.410637 0.314788
O O4 0.045076 0.419726 0.117919
O O5 0.443420 0.743117 0.897293
O O6 0.500000 0.814513 0.000000
O O7 0.705651 0.803711 0.964918
O O8 0.157876 0.500000 0.943572
O O9 0.199122 0.431561 0.870797
O O10 0.345001 0.422471 0.056297
O O11 0.507864 0.341649 0.141721
O O12 0.720747 0.417564 0.234870
O O13 0.500000 0.329250 0.000000
O O14 0.500000 0.437328 0.500000
O O15 0.316157 0.500000 0.354158
O O16 0.099206 0.434679 0.327777
O O17 0.825849 0.500000 0.226826
#
# Coordination Sequence:
#
# PCOD9176002 Si02
#       7
#     8   8   8   8   8   8   8
#     4  11  20  32  49  72 100 132 170 209 250 299
#     4  10  18  34  46  71 108 139 174 208 237 290
#     4  10  19  30  44  66 104 145 168 188 231 298
#     4  12  20  29  45  76 108 135 163 203 246 293
#     4  10  20  29  48  69 106 147 174 198 237 286
#     4   9  20  40  59  72  92 127 173 219 261 308
#     4   9  19  32  48  72  99 129 168 204 243 300
#
# _framework density 15.726077
#
# number of rings (size 3 to 8) (size 9 to 14) (size 15 to 20)
#    0.000    1.857    2.857    3.429    2.000    4.000 
#    0.000    0.714    0.000    2.571    0.000    4.000 
#    0.000    0.000    0.000    0.000    0.000    0.000 
#
# Total GULP energy -156170.866876 kJ/mol
# GULP energy per Si atom -5577.530960 kJ/mol
# Density = 1.569028 g / cm^3
# Si number density = 15.726077 Si / 1000 Ang^3
#
#
#
# Elastic Constant Matrix: (Units=GPa)
#
#
# Indices 1 2 3 4 5 6 
#
# 1 115.4732 40.2975 35.9784 0.0000 -8.6302 0.0001
# 2 40.2975 80.6767 38.7926 0.0000 -3.1424 0.0000
# 3 35.9784 38.7926 69.6559 0.0001 4.8797 0.0002
# 4 0.0000 0.0000 0.0001 14.0190 0.0001 1.3953
# 5 -8.6302 -3.1424 4.8797 0.0001 11.0126 0.0001
# 6 0.0001 0.0000 0.0002 1.3953 0.0001 18.2571
#
#
#
# Elastic Compliance Matrix: (Units=1/GPa)
#
#
# Indices 1 2 3 4 5 6 
#
# 1 0.012246 -0.003100 -0.005376 0.000000 0.011095 0.000000
# 2 -0.003100 0.018688 -0.009299 0.000000 0.007024 0.000000
# 3 -0.005376 -0.009299 0.023523 0.000000 -0.017290 0.000000
# 4 0.000000 0.000000 0.000000 0.071879 0.000000 -0.005493
# 5 0.011095 0.007024 -0.017290 0.000000 0.109165 0.000000
# 6 0.000000 0.000000 0.000000 -0.005493 0.000000 0.055193
#
#
# Mechanical properties :
#
#
# Convention : Reuss Voigt Hill
#
# Bulk Modulus (GPa) = 52.88782 55.10475 53.99629
# Shear Modulus (GPa) = 15.03552 18.70689 16.87121
#
# Velocity S-wave (km/s) = 3.09542 3.45272 3.27894
# Velocity P-wave (km/s) = 6.81756 7.14223 6.98179
#
# Compressibility (1/GPa) = 0.01890794
#
# Stress axis : x y z
#
# Youngs Moduli (GPa) = 81.65956 53.50974 42.51128
#
# Poissons Ratio (x) = 0.16585 0.22855
# Poissons Ratio (y) = 0.25310 0.39531
# Poissons Ratio (z) = 0.43903 0.49758
#
# Static dielectric constant tensor:
#      x y z
#    x 1.542850 0.000000 -0.001480 
#    y 0.000000 1.560400 0.000000 
#    z -0.001480 0.000000 1.494420 
# 
# From -- ./inp_files/200835.got.cif
#   From: 2010.05.17/outbox.cif.g08.bks.cpg/sg12_101_cif.got.tgz:200835.got - 2010.06.03 13:09:07.
