data_PCOD9176919
_publ_section_title
;
Structure prediction by ZEFSAII (Michael W. Deem and Ramdas Pophale) SiO2 
 PCOD9176919
Probable space group: C 2/M
;
_chemical_formula_sum "Si O2"
_cell_formula_units_Z 48
_cell_length_a 17.675455
_cell_length_b 19.421568
_cell_length_c 15.234961
_cell_angle_alpha 90.000000
_cell_angle_beta 29.573797
_cell_angle_gamma 90.000000
_cell_volume 2581.203617
_symmetry_space_group_name_H-M "C 2/M"
_symmetry_group_IT_number 12
_symmetry_cell_setting 'monoclinic'
loop_
_space_group_symop_operation_xyz
x,y,z
-x,y,-z
-x,-y,-z
x,-y,z
1/2+x,1/2+y,z
1/2-x,1/2+y,-z
1/2-x,1/2-y,-z
1/2+x,1/2-y,z
loop_
_atom_site_type_symbol
_atom_site_label
_atom_site_fract_x
_atom_site_fract_y
_atom_site_fract_z
Si Si1 0.157523 0.422001 0.793580
Si Si2 0.111596 0.807870 0.802819
Si Si3 0.675534 0.294919 0.327543
Si Si4 0.003469 0.577666 0.221918
Si Si5 0.639223 0.225382 0.036722
Si Si6 0.377384 0.919521 0.546812
O O1 0.176642 0.500000 0.804277
O O2 0.295949 0.374628 0.682055
O O3 0.130871 0.421556 0.715962
O O4 0.000000 0.395677 0.000000
O O5 0.233427 0.746360 0.690457
O O6 0.221766 0.874725 0.694740
O O7 0.000156 0.779767 0.838066
O O8 0.000000 0.812730 0.000000
O O9 0.500000 0.276262 0.500000
O O10 0.762876 0.276383 0.150736
O O11 0.074213 0.500000 0.140101
O O12 0.954304 0.583906 0.372742
O O13 0.092607 0.646908 0.106274
O O14 0.750000 0.250000 0.000000
O O15 0.500000 0.897726 0.500000
O O16 0.341339 0.000000 0.601432
#
# Coordination Sequence:
#
# PCOD9176919 Si02
#       6
#     8   8   8   8   8   8
#     4  10  18  36  62  84 117 161 196 239 298 362
#     4  10  22  40  60  85 122 158 198 253 302 362
#     4  11  22  37  57  90 124 158 200 245 299 363
#     4  10  21  39  64  87 118 160 204 242 297 368
#     4  11  24  39  59  92 122 159 206 251 308 363
#     4  10  23  41  64  91 120 162 209 251 304 365
#
# _framework density 18.595976
#
# number of rings (size 3 to 8) (size 9 to 14) (size 15 to 20)
#    0.000    1.667    3.333    1.000    7.000    2.667 
#    0.000    0.833    0.000    0.000    0.000    0.000 
#    0.000    0.000    0.000    0.000    0.000    0.000 
#
# Total GULP energy -133650.211408 kJ/mol
# GULP energy per Si atom -5568.758809 kJ/mol
# Density = 1.855365 g / cm^3
# Si number density = 18.595976 Si / 1000 Ang^3
#
#
#
# Elastic Constant Matrix: (Units=GPa)
#
#
# Indices 1 2 3 4 5 6 
#
# 1 142.2788 47.1466 38.4990 0.0006 -14.2518 0.0006
# 2 47.1466 105.5299 39.6668 0.0028 -24.2450 -0.0024
# 3 38.4990 39.6668 62.7884 0.0026 -17.5716 -0.0010
# 4 0.0006 0.0028 0.0026 12.5937 -0.0011 2.2826
# 5 -14.2518 -24.2450 -17.5716 -0.0011 30.6539 -0.0002
# 6 0.0006 -0.0024 -0.0010 2.2826 -0.0002 15.4646
#
#
#
# Elastic Compliance Matrix: (Units=1/GPa)
#
#
# Indices 1 2 3 4 5 6 
#
# 1 0.008913 -0.002544 -0.003885 0.000001 -0.000095 -0.000001
# 2 -0.002544 0.014284 -0.005519 -0.000002 0.006951 0.000002
# 3 -0.003885 -0.005519 0.023902 -0.000003 0.007530 0.000001
# 4 0.000001 -0.000002 -0.000003 0.081587 0.000000 -0.012042
# 5 -0.000095 0.006951 0.007530 0.000000 0.042393 0.000002
# 6 -0.000001 0.000002 0.000001 -0.012042 0.000002 0.066441
#
#
# Mechanical properties :
#
#
# Convention : Reuss Voigt Hill
#
# Bulk Modulus (GPa) = 43.09413 62.35799 52.72606
# Shear Modulus (GPa) = 18.57703 24.09477 21.33590
#
# Velocity S-wave (km/s) = 3.16410 3.60349 3.39092
# Velocity P-wave (km/s) = 6.04755 7.13578 6.61408
#
# Compressibility (1/GPa) = 0.02320502
#
# Stress axis : x y z
#
# Youngs Moduli (GPa) = 112.19622 70.00917 41.83683
#
# Poissons Ratio (x) = 0.17807 0.16252
# Poissons Ratio (y) = 0.28538 0.23089
# Poissons Ratio (z) = 0.43584 0.38637
#
# Static dielectric constant tensor:
#      x y z
#    x 1.653970 0.000000 0.010570 
#    y 0.000000 1.703150 0.000000 
#    z 0.010570 0.000000 1.671440 
# 
# From -- ./inp_files/75060.got.cif
#   From: 2010.05.17/outbox.cif.g08.bks.cpg/sg12_38_cif.got.tgz:75060.got - 2010.06.03 13:09:07.
