data_PCOD9176812
_publ_section_title
;
Structure prediction by ZEFSAII (Michael W. Deem and Ramdas Pophale) SiO2 
 PCOD9176812
Probable space group: C 2/M
;
_chemical_formula_sum "Si O2"
_cell_formula_units_Z 56
_cell_length_a 26.733285
_cell_length_b 18.169710
_cell_length_c 16.784241
_cell_angle_alpha 90.000000
_cell_angle_beta 20.634784
_cell_angle_gamma 90.000000
_cell_volume 2873.095639
_symmetry_space_group_name_H-M "C 2/M"
_symmetry_group_IT_number 12
_symmetry_cell_setting 'monoclinic'
loop_
_space_group_symop_operation_xyz
x,y,z
-x,y,-z
-x,-y,-z
x,-y,z
1/2+x,1/2+y,z
1/2-x,1/2+y,-z
1/2-x,1/2-y,-z
1/2+x,1/2-y,z
loop_
_atom_site_type_symbol
_atom_site_label
_atom_site_fract_x
_atom_site_fract_y
_atom_site_fract_z
Si Si1 0.617285 0.083719 0.009484
Si Si2 0.598633 0.835870 0.774668
Si Si3 0.197753 0.854739 0.774780
Si Si4 0.110363 0.734907 0.255520
Si Si5 0.673730 0.713223 0.339824
Si Si6 0.391358 0.336315 0.275050
Si Si7 0.999330 0.582552 0.638424
O O1 0.740308 0.138759 0.797973
O O2 0.652719 0.000000 0.937229
O O3 0.475292 0.109206 0.176530
O O4 0.582301 0.089006 0.155216
O O5 0.589366 0.752300 0.755738
O O6 0.767776 0.853109 0.523456
O O7 0.500000 0.839533 0.000000
O O8 0.244110 0.771215 0.727744
O O9 0.167073 0.857356 0.726042
O O10 0.332921 0.903694 0.596334
O O11 0.049902 0.869616 0.041655
O O12 0.150495 0.753860 0.286000
O O13 0.058721 0.650893 0.325206
O O14 0.991080 0.786812 0.391376
O O15 0.250000 0.750000 0.000000
O O16 0.976684 0.500000 0.640967
#
# Coordination Sequence:
#
# PCOD9176812 Si02
#       7
#     8   8   8   8   8   8   8
#     4  11  21  36  56  84 122 157 190 234 292 354
#     4  11  20  34  53  85 115 155 200 243 281 333
#     4  10  18  36  56  84 117 150 197 241 279 343
#     4  10  20  37  60  84 112 145 194 242 283 351
#     4  10  20  36  57  88 109 147 196 235 293 336
#     4  10  19  32  56  85 116 149 201 243 279 325
#     4  10  21  37  60  87 117 154 189 239 300 349
#
# _framework density 19.491171000000001
#
# number of rings (size 3 to 8) (size 9 to 14) (size 15 to 20)
#    0.000    1.714    5.714    0.000    0.000    0.286 
#    2.571   10.000    0.000    0.000    0.000    0.000 
#    0.000    0.000    0.000    0.000    0.000    0.000 
#
# Total GULP energy -156137.476246 kJ/mol
# GULP energy per Si atom -5576.338437 kJ/mol
# Density = 1.944681 g / cm^3
# Si number density = 19.491171 Si / 1000 Ang^3
#
#
#
# Elastic Constant Matrix: (Units=GPa)
#
#
# Indices 1 2 3 4 5 6 
#
# 1 23.5684 6.6660 11.5024 0.0002 -4.2013 0.0000
# 2 6.6660 91.5490 29.3137 0.0005 -5.0707 -0.0001
# 3 11.5024 29.3137 173.1920 0.0005 0.2161 -0.0002
# 4 0.0002 0.0005 0.0005 19.6927 -0.0001 2.3603
# 5 -4.2013 -5.0707 0.2161 -0.0001 23.5448 0.0000
# 6 0.0000 -0.0001 -0.0002 2.3603 0.0000 16.4200
#
#
#
# Elastic Compliance Matrix: (Units=1/GPa)
#
#
# Indices 1 2 3 4 5 6 
#
# 1 0.045703 -0.002034 -0.002701 0.000000 0.007742 0.000000
# 2 -0.002034 0.011789 -0.001863 0.000000 0.002193 0.000000
# 3 -0.002701 -0.001863 0.006270 0.000000 -0.000941 0.000000
# 4 0.000000 0.000000 0.000000 0.051670 0.000000 -0.007427
# 5 0.007742 0.002193 -0.000941 0.000000 0.044335 0.000000
# 6 0.000000 0.000000 0.000000 -0.007427 0.000000 0.061969
#
#
# Mechanical properties :
#
#
# Convention : Reuss Voigt Hill
#
# Bulk Modulus (GPa) = 19.77604 42.58595 31.18099
# Shear Modulus (GPa) = 19.85803 27.98667 23.92235
#
# Velocity S-wave (km/s) = 3.19536 3.79339 3.50715
# Velocity P-wave (km/s) = 4.87668 6.40958 5.69494
#
# Compressibility (1/GPa) = 0.05056625
#
# Stress axis : x y z
#
# Youngs Moduli (GPa) = 21.88035 84.82309 159.49455
#
# Poissons Ratio (x) = 0.17255 0.43075
# Poissons Ratio (y) = 0.04451 0.29714
# Poissons Ratio (z) = 0.05909 0.15803
#
# Static dielectric constant tensor:
#      x y z
#    x 1.729100 0.000000 0.043480 
#    y 0.000000 2.755320 -0.000010 
#    z 0.043480 -0.000010 1.813840 
# 
# From -- ./inp_files/293848.got.cif
#   From: 2010.05.17/outbox.cif.g08.bks.cpg/sg12_147_cif.got.tgz:293848.got - 2010.06.03 13:09:07.
