data_PCOD9176540
_publ_section_title
;
Structure prediction by ZEFSAII (Michael W. Deem and Ramdas Pophale) SiO2 
 PCOD9176540
Probable space group: C 2/M
;
_chemical_formula_sum "Si O2"
_cell_formula_units_Z 48
_cell_length_a 17.214783
_cell_length_b 18.611121
_cell_length_c 23.837469
_cell_angle_alpha 90.000000
_cell_angle_beta 159.330720
_cell_angle_gamma 90.000000
_cell_volume 2695.727621
_symmetry_space_group_name_H-M "C 2/M"
_symmetry_group_IT_number 12
_symmetry_cell_setting 'monoclinic'
loop_
_space_group_symop_operation_xyz
x,y,z
-x,y,-z
-x,-y,-z
x,-y,z
1/2+x,1/2+y,z
1/2-x,1/2+y,-z
1/2-x,1/2-y,-z
1/2+x,1/2-y,z
loop_
_atom_site_type_symbol
_atom_site_label
_atom_site_fract_x
_atom_site_fract_y
_atom_site_fract_z
Si Si1 0.955012 0.706054 0.113066
Si Si2 0.322871 0.230371 0.286419
Si Si3 0.022429 0.581212 0.581504
Si Si4 0.689469 0.202089 0.379760
Si Si5 0.181353 0.081421 0.446284
Si Si6 0.670993 0.316340 0.819389
O O1 0.147309 0.753551 0.215834
O O2 0.078451 0.669922 0.248770
O O3 0.750000 0.750000 0.000000
O O4 0.845186 0.667357 0.985662
O O5 0.343352 0.144666 0.298569
O O6 0.565693 0.264562 0.463038
O O7 0.250207 0.268182 0.179598
O O8 0.111925 0.500000 0.647608
O O9 0.000000 0.596546 0.500000
O O10 0.792659 0.582461 0.459986
O O11 0.703381 0.140169 0.435888
O O12 0.530946 0.267096 0.292785
O O13 0.934754 0.110519 0.274325
O O14 0.197787 0.000000 0.478575
#
# Coordination Sequence:
#
# PCOD9176540 Si02
#       6
#     8   8   8   8   8   8
#     4  10  22  32  53  81 109 140 180 228 277 316
#     4  11  18  34  58  79 109 143 184 229 265 317
#     4  10  19  29  50  84 113 141 179 219 266 324
#     4  10  18  35  55  82 105 139 188 225 266 320
#     4  10  19  34  57  81 111 144 180 225 271 323
#     4  10  19  35  53  84 108 140 182 226 272 321
#
# _framework density 17.805952999999999
#
# number of rings (size 3 to 8) (size 9 to 14) (size 15 to 20)
#    0.000    1.833    3.333    3.000    2.333    0.000 
#    0.000    0.833    0.000   22.000    0.000    0.000 
#    0.000    0.000    0.000    0.000    0.000    0.000 
#
# Total GULP energy -133604.959496 kJ/mol
# GULP energy per Si atom -5566.873312 kJ/mol
# Density = 1.776543 g / cm^3
# Si number density = 17.805953 Si / 1000 Ang^3
#
#
#
# Elastic Constant Matrix: (Units=GPa)
#
#
# Indices 1 2 3 4 5 6 
#
# 1 92.4255 23.9291 32.9424 0.0060 -2.1957 -0.0018
# 2 23.9291 71.5744 17.9607 0.0202 -0.8040 0.0107
# 3 32.9424 17.9607 89.6493 0.0296 -17.2950 0.0058
# 4 0.0060 0.0202 0.0296 4.4220 -0.0074 1.9345
# 5 -2.1957 -0.8040 -17.2950 -0.0074 41.6586 -0.0069
# 6 -0.0018 0.0107 0.0058 1.9345 -0.0069 21.7127
#
#
#
# Elastic Compliance Matrix: (Units=1/GPa)
#
#
# Indices 1 2 3 4 5 6 
#
# 1 0.013230 -0.003326 -0.004428 0.000024 -0.001205 0.000001
# 2 -0.003326 0.015587 -0.002040 -0.000053 -0.000721 -0.000003
# 3 -0.004428 -0.002040 0.014281 -0.000073 0.005656 0.000005
# 4 0.000024 -0.000053 -0.000073 0.235315 0.000008 -0.020965
# 5 -0.001205 -0.000721 0.005656 0.000008 0.026276 0.000006
# 6 0.000001 -0.000003 0.000005 -0.020965 0.000006 0.047924
#
#
# Mechanical properties :
#
#
# Convention : Reuss Voigt Hill
#
# Bulk Modulus (GPa) = 42.53109 44.81261 43.67185
# Shear Modulus (GPa) = 13.15663 25.47978 19.31820
#
# Velocity S-wave (km/s) = 2.72120 3.78692 3.29740
# Velocity P-wave (km/s) = 5.81472 6.65904 6.25115
#
# Compressibility (1/GPa) = 0.02351221
#
# Stress axis : x y z
#
# Youngs Moduli (GPa) = 75.58561 64.15559 70.02068
#
# Poissons Ratio (x) = 0.21336 0.31003
# Poissons Ratio (y) = 0.25137 0.14284
# Poissons Ratio (z) = 0.33467 0.13087
#
# Static dielectric constant tensor:
#      x y z
#    x 1.662960 0.000000 -0.011570 
#    y 0.000000 1.583100 -0.000030 
#    z -0.011570 -0.000030 1.639620 
# 
# From -- ./inp_files/75458.got.cif
#   From: 2010.05.17/outbox.cif.g08.bks.cpg/sg12_38_cif.got.tgz:75458.got - 2010.06.03 13:09:07.
