data_PCOD9176190
_publ_section_title
;
Structure prediction by ZEFSAII (Michael W. Deem and Ramdas Pophale) SiO2 
 PCOD9176190
Probable space group: C 2/M
;
_chemical_formula_sum "Si O2"
_cell_formula_units_Z 40
_cell_length_a 24.017914
_cell_length_b 14.233440
_cell_length_c 9.234816
_cell_angle_alpha 90.000000
_cell_angle_beta 48.705655
_cell_angle_gamma 90.000000
_cell_volume 2371.940092
_symmetry_space_group_name_H-M "C 2/M"
_symmetry_group_IT_number 12
_symmetry_cell_setting 'monoclinic'
loop_
_space_group_symop_operation_xyz
x,y,z
-x,y,-z
-x,-y,-z
x,-y,z
1/2+x,1/2+y,z
1/2-x,1/2+y,-z
1/2-x,1/2-y,-z
1/2+x,1/2-y,z
loop_
_atom_site_type_symbol
_atom_site_label
_atom_site_fract_x
_atom_site_fract_y
_atom_site_fract_z
Si Si1 0.003611 0.719536 0.664483
Si Si2 0.697591 0.390956 0.661234
Si Si3 0.041738 0.108388 0.076017
Si Si4 0.344557 0.212296 0.427709
Si Si5 0.576493 0.893363 0.960360
O O1 0.086200 0.701700 0.584610
O O2 0.000000 0.708402 0.500000
O O3 0.981535 0.823644 0.756022
O O4 0.946729 0.651906 0.847900
O O5 0.707432 0.500000 0.602686
O O6 0.675995 0.320876 0.566751
O O7 0.772620 0.346769 0.596348
O O8 0.628599 0.387348 0.890078
O O9 0.020369 0.000000 0.136804
O O10 0.000000 0.140976 0.000000
O O11 0.369009 0.169759 0.229423
O O12 0.603731 0.000000 0.927168
O O13 0.500000 0.895367 0.000000
#
# Coordination Sequence:
#
# PCOD9176190 Si02
#       5
#     8   8   8   8   8
#     4  11  21  34  51  80 114 143 174 209 264 322
#     4  10  19  32  58  83 103 133 177 229 268 301
#     4  10  18  34  57  79 105 137 180 223 260 306
#     4  10  19  34  55  82 106 134 177 223 264 311
#     4   9  17  32  53  74 100 135 178 219 255 301
#
# _framework density 16.863831999999999
#
# number of rings (size 3 to 8) (size 9 to 14) (size 15 to 20)
#    0.000    2.000    4.000    1.200    0.000    1.600 
#    0.000    1.000    0.000    0.000    0.000    0.000 
#    0.000    0.000    0.000    0.000    0.000    0.000 
#
# Total GULP energy -111509.773193 kJ/mol
# GULP energy per Si atom -5575.488660 kJ/mol
# Density = 1.682545 g / cm^3
# Si number density = 16.863832 Si / 1000 Ang^3
#
#
#
# Elastic Constant Matrix: (Units=GPa)
#
#
# Indices 1 2 3 4 5 6 
#
# 1 77.0858 31.5242 53.7529 0.0000 -0.2502 0.0000
# 2 31.5242 114.2826 35.6809 0.0000 8.0363 0.0000
# 3 53.7529 35.6809 86.9921 0.0000 9.0532 0.0000
# 4 0.0000 0.0000 0.0000 19.8859 0.0000 -8.6683
# 5 -0.2502 8.0363 9.0532 0.0000 36.9585 0.0000
# 6 0.0000 0.0000 0.0000 -8.6683 0.0000 15.1134
#
#
#
# Elastic Compliance Matrix: (Units=1/GPa)
#
#
# Indices 1 2 3 4 5 6 
#
# 1 0.023879 -0.002452 -0.014183 0.000000 0.004169 0.000000
# 2 -0.002452 0.010340 -0.002555 0.000000 -0.001639 0.000000
# 3 -0.014183 -0.002555 0.021816 0.000000 -0.004884 0.000000
# 4 0.000000 0.000000 0.000000 0.067050 0.000000 0.038456
# 5 0.004169 -0.001639 -0.004884 0.000000 0.028638 0.000000
# 6 0.000000 0.000000 0.000000 0.038456 0.000000 0.088223
#
#
# Mechanical properties :
#
#
# Convention : Reuss Voigt Hill
#
# Bulk Modulus (GPa) = 56.64624 57.80849 57.22736
# Shear Modulus (GPa) = 17.59262 24.88506 21.23884
#
# Velocity S-wave (km/s) = 3.23339 3.84558 3.55270
# Velocity P-wave (km/s) = 6.89950 7.35337 7.13004
#
# Compressibility (1/GPa) = 0.01765342
#
# Stress axis : x y z
#
# Youngs Moduli (GPa) = 41.87816 96.71521 45.83890
#
# Poissons Ratio (x) = 0.23713 0.65014
# Poissons Ratio (y) = 0.10268 0.11714
# Poissons Ratio (z) = 0.59396 0.24715
#
# Static dielectric constant tensor:
#      x y z
#    x 1.561120 0.000000 -0.035460 
#    y 0.000000 1.607720 0.000000 
#    z -0.035460 0.000000 1.562720 
# 
# From -- ./inp_files/72332.got.cif
#   From: 2010.05.17/outbox.cif.g08.bks.cpg/sg12_37_cif.got.tgz:72332.got - 2010.06.03 13:09:07.
