data_PCOD9176286
_publ_section_title
;
Structure prediction by ZEFSAII (Michael W. Deem and Ramdas Pophale) SiO2 
 PCOD9176286
Probable space group: C 2/M
;
_chemical_formula_sum "Si O2"
_cell_formula_units_Z 56
_cell_length_a 26.109991
_cell_length_b 7.635964
_cell_length_c 15.223359
_cell_angle_alpha 90.000000
_cell_angle_beta 132.715901
_cell_angle_gamma 90.000000
_cell_volume 2230.009460
_symmetry_space_group_name_H-M "C 2/M"
_symmetry_group_IT_number 12
_symmetry_cell_setting 'monoclinic'
loop_
_space_group_symop_operation_xyz
x,y,z
-x,y,-z
-x,-y,-z
x,-y,z
1/2+x,1/2+y,z
1/2-x,1/2+y,-z
1/2-x,1/2-y,-z
1/2+x,1/2-y,z
loop_
_atom_site_type_symbol
_atom_site_label
_atom_site_fract_x
_atom_site_fract_y
_atom_site_fract_z
Si Si1 0.560490 0.215907 0.504089
Si Si2 0.555742 0.708621 0.168960
Si Si3 0.797138 0.305159 0.332353
Si Si4 0.644738 0.714428 0.114143
Si Si5 0.326511 0.291047 0.555979
Si Si6 0.524012 0.795077 0.758762
Si Si7 0.325874 0.707408 0.049008
O O1 0.500000 0.264109 0.500000
O O2 0.634733 0.282841 0.629132
O O3 0.531750 0.280562 0.375478
O O4 0.564146 0.000000 0.508041
O O5 0.556896 0.500000 0.159798
O O6 0.580158 0.775979 0.100856
O O7 0.617947 0.764583 0.306787
O O8 0.489512 0.738471 0.155700
O O9 0.789130 0.500000 0.284516
O O10 0.718940 0.235704 0.245920
O O11 0.827939 0.309299 0.466264
O O12 0.639271 0.500000 0.105542
O O13 0.660316 0.778444 0.033666
O O14 0.333886 0.500000 0.550780
O O15 0.250000 0.250000 0.500000
O O16 0.603141 0.763226 0.820104
O O17 0.512232 0.000000 0.745390
O O18 0.327978 0.500000 0.045590
O O19 0.250000 0.750000 0.000000
#
# Coordination Sequence:
#
# PCOD9176286 Si02
#       7
#     8   8   8   8   8   8   8
#     4   9  19  33  57  89 119 157 204 247 289 352
#     4  10  20  37  60  87 122 160 204 249 297 362
#     4  10  18  34  58  86 119 154 201 248 293 353
#     4   9  20  38  63  90 117 162 211 249 294 363
#     4  11  20  31  52  83 123 161 193 234 292 354
#     4  11  23  40  64  93 124 159 199 250 310 360
#     4  11  25  46  69  90 117 157 206 254 302 359
#
# _framework density 25.112000999999999
#
# number of rings (size 3 to 8) (size 9 to 14) (size 15 to 20)
#    0.000    1.857    2.857    1.286    2.000    1.143 
#    0.000    5.714    0.000    2.143    0.000    0.000 
#    0.000    0.000    0.000    0.000    0.000    0.000 
#
# Total GULP energy -156132.908091 kJ/mol
# GULP energy per Si atom -5576.175289 kJ/mol
# Density = 2.505485 g / cm^3
# Si number density = 25.112001 Si / 1000 Ang^3
#
#
#
# Elastic Constant Matrix: (Units=GPa)
#
#
# Indices 1 2 3 4 5 6 
#
# 1 181.7345 -4.6946 28.2965 0.0000 17.3207 0.0000
# 2 -4.6946 60.8565 -6.7641 0.0000 -6.0014 0.0000
# 3 28.2965 -6.7641 62.9484 0.0000 -2.3448 0.0000
# 4 0.0000 0.0000 0.0000 11.1272 0.0000 4.3204
# 5 17.3207 -6.0014 -2.3448 0.0000 44.2794 0.0000
# 6 0.0000 0.0000 0.0000 4.3204 0.0000 20.0868
#
#
#
# Elastic Compliance Matrix: (Units=1/GPa)
#
#
# Indices 1 2 3 4 5 6 
#
# 1 0.006197 -0.000099 -0.002893 0.000000 -0.002591 0.000000
# 2 -0.000099 0.016881 0.001949 0.000000 0.002430 0.000000
# 3 -0.002893 0.001949 0.017482 0.000000 0.002322 0.000000
# 4 0.000000 0.000000 0.000000 0.098059 0.000000 -0.021091
# 5 -0.002591 0.002430 0.002322 0.000000 0.024050 0.000000
# 6 0.000000 0.000000 0.000000 -0.021091 0.000000 0.054320
#
#
# Mechanical properties :
#
#
# Convention : Reuss Voigt Hill
#
# Bulk Modulus (GPa) = 25.99135 37.69057 31.84096
# Shear Modulus (GPa) = 21.56096 34.34545 27.95321
#
# Velocity S-wave (km/s) = 2.93335 3.70224 3.34000
# Velocity P-wave (km/s) = 4.67390 5.77209 5.25178
#
# Compressibility (1/GPa) = 0.03847434
#
# Stress axis : x y z
#
# Youngs Moduli (GPa) = 161.35947 59.23926 57.20052
#
# Poissons Ratio (x) = 0.00586 0.16548
# Poissons Ratio (y) = 0.01597 -0.11148
# Poissons Ratio (z) = 0.46681 -0.11545
#
# Static dielectric constant tensor:
#      x y z
#    x 1.802570 0.000000 -0.185890 
#    y 0.000000 1.972940 0.000000 
#    z -0.185890 0.000000 2.016270 
# 
# From -- ./inp_files/238913.got.cif
#   From: 2010.05.17/outbox.cif.g08.bks.cpg/sg12_120_cif.got.tgz:238913.got - 2010.06.03 13:09:07.
