data_PCOD9176196
_publ_section_title
;
Structure prediction by ZEFSAII (Michael W. Deem and Ramdas Pophale) SiO2 
 PCOD9176196
Probable space group: C 2/M
;
_chemical_formula_sum "Si O2"
_cell_formula_units_Z 58
_cell_length_a 29.706752
_cell_length_b 7.714770
_cell_length_c 12.477875
_cell_angle_alpha 90.000000
_cell_angle_beta 90.515241
_cell_angle_gamma 90.000000
_cell_volume 2859.573237
_symmetry_space_group_name_H-M "C 2/M"
_symmetry_group_IT_number 12
_symmetry_cell_setting 'monoclinic'
loop_
_space_group_symop_operation_xyz
x,y,z
-x,y,-z
-x,-y,-z
x,-y,z
1/2+x,1/2+y,z
1/2-x,1/2+y,-z
1/2-x,1/2-y,-z
1/2+x,1/2-y,z
loop_
_atom_site_type_symbol
_atom_site_label
_atom_site_fract_x
_atom_site_fract_y
_atom_site_fract_z
Si Si1 0.312860 0.702232 0.093405
Si Si2 0.411257 0.287128 0.138339
Si Si3 0.632083 0.202750 0.256468
Si Si4 0.053480 0.300423 0.092928
Si Si5 0.217391 0.201541 0.137799
Si Si6 0.500000 0.500000 0.000000
Si Si7 0.435841 0.708687 0.575385
Si Si8 0.031257 0.788725 0.657286
O O1 0.321624 0.500000 0.075017
O O2 0.358725 0.762123 0.149374
O O3 0.266533 0.719604 0.157170
O O4 0.303064 0.777558 0.974158
O O5 0.417151 0.500000 0.125284
O O6 0.426150 0.207451 0.026358
O O7 0.440734 0.230646 0.239716
O O8 0.679861 0.282907 0.227828
O O9 0.610326 0.233801 0.371563
O O10 0.637697 0.000000 0.238906
O O11 0.593398 0.260455 0.172311
O O12 0.040077 0.500000 0.116015
O O13 0.015537 0.153710 0.085963
O O14 0.226431 0.000000 0.119171
O O15 0.436478 0.500000 0.576306
O O16 0.444972 0.764200 0.453784
O O17 0.479243 0.768283 0.646086
O O18 0.031296 0.000000 0.658331
#
# Coordination Sequence:
#
# PCOD9176196 Si02
#       8
#     8   8   8   8   8   2   8   8
#     4   9  18  31  51  78 109 143 181 220 278 342
#     4  10  18  34  57  80 113 151 184 227 282 339
#     4  11  23  36  53  79 114 144 184 236 278 333
#     4  11  25  38  54  84 114 152 195 229 280 340
#     4  10  19  32  53  77 106 143 182 221 279 338
#     4  12  26  40  56  70 122 164 186 232 280 344
#     4   9  18  34  56  80 106 142 191 232 273 329
#     4   8  17  33  56  82 105 142 191 232 271 329
#
# _framework density 20.282745999999999
#
# number of rings (size 3 to 8) (size 9 to 14) (size 15 to 20)
#    0.000    2.207    2.069    1.862    3.862    1.103 
#    0.000    2.069    0.000    0.828    0.000    0.000 
#    0.000    0.000    0.000    0.000    0.000    0.000 
#
# Total GULP energy -161644.692723 kJ/mol
# GULP energy per Si atom -5573.954921 kJ/mol
# Density = 2.023658 g / cm^3
# Si number density = 20.282746 Si / 1000 Ang^3
#
#
#
# Elastic Constant Matrix: (Units=GPa)
#
#
# Indices 1 2 3 4 5 6 
#
# 1 95.1475 6.5338 40.1757 0.0000 -16.4072 0.0000
# 2 6.5338 52.1215 -7.8984 0.0000 4.5829 0.0000
# 3 40.1757 -7.8984 75.4536 0.0000 -11.5993 0.0000
# 4 0.0000 0.0000 0.0000 12.4200 0.0000 -8.7687
# 5 -16.4072 4.5829 -11.5993 0.0000 30.2186 0.0000
# 6 0.0000 0.0000 0.0000 -8.7687 0.0000 18.8351
#
#
#
# Elastic Compliance Matrix: (Units=1/GPa)
#
#
# Indices 1 2 3 4 5 6 
#
# 1 0.014866 -0.003491 -0.007395 0.000000 0.005762 0.000000
# 2 -0.003491 0.020468 0.003435 0.000000 -0.003681 0.000000
# 3 -0.007395 0.003435 0.017910 0.000000 0.002338 0.000000
# 4 0.000000 0.000000 0.000000 0.119936 0.000000 0.055836
# 5 0.005762 -0.003681 0.002338 0.000000 0.037677 0.000000
# 6 0.000000 0.000000 0.000000 0.055836 0.000000 0.079087
#
#
# Mechanical properties :
#
#
# Convention : Reuss Voigt Hill
#
# Bulk Modulus (GPa) = 26.08063 33.37164 29.72614
# Shear Modulus (GPa) = 15.74182 24.55551 20.14867
#
# Velocity S-wave (km/s) = 2.78891 3.48323 3.15523
# Velocity P-wave (km/s) = 4.82257 5.71543 5.28788
#
# Compressibility (1/GPa) = 0.03834263
#
# Stress axis : x y z
#
# Youngs Moduli (GPa) = 67.26812 48.85729 55.83528
#
# Poissons Ratio (x) = 0.17055 0.41290
# Poissons Ratio (y) = 0.23482 -0.19182
# Poissons Ratio (z) = 0.49745 -0.16785
#
# Static dielectric constant tensor:
#      x y z
#    x 1.791840 0.000000 -0.027210 
#    y 0.000000 1.747800 0.000000 
#    z -0.027210 0.000000 1.734620 
# 
# From -- ./inp_files/186524.got.cif
#   From: 2010.05.17/outbox.cif.g08.bks.cpg/sg12_94_cif.got.tgz:186524.got - 2010.06.03 13:09:07.
