data_PCOD9176799
_publ_section_title
;
Structure prediction by ZEFSAII (Michael W. Deem and Ramdas Pophale) SiO2 
 PCOD9176799
Probable space group: C 2/M
;
_chemical_formula_sum "Si O2"
_cell_formula_units_Z 64
_cell_length_a 20.966851
_cell_length_b 15.079773
_cell_length_c 32.496291
_cell_angle_alpha 90.000000
_cell_angle_beta 20.108670
_cell_angle_gamma 90.000000
_cell_volume 3532.400578
_symmetry_space_group_name_H-M "C 2/M"
_symmetry_group_IT_number 12
_symmetry_cell_setting 'monoclinic'
loop_
_space_group_symop_operation_xyz
x,y,z
-x,y,-z
-x,-y,-z
x,-y,z
1/2+x,1/2+y,z
1/2-x,1/2+y,-z
1/2-x,1/2-y,-z
1/2+x,1/2-y,z
loop_
_atom_site_type_symbol
_atom_site_label
_atom_site_fract_x
_atom_site_fract_y
_atom_site_fract_z
Si Si1 0.458752 0.096171 0.658174
Si Si2 0.151284 0.095254 0.531744
Si Si3 0.812400 0.402768 0.087685
Si Si4 0.465739 0.252504 0.193063
Si Si5 0.554807 0.729765 0.291214
Si Si6 0.781414 0.707054 0.388369
Si Si7 0.063384 0.332188 0.418577
Si Si8 0.800287 0.392846 0.997790
O O1 0.672318 0.097007 0.544424
O O2 0.369887 0.178091 0.736496
O O3 0.449620 0.110888 0.614974
O O4 0.380144 0.000000 0.716553
O O5 0.228393 0.112184 0.439261
O O6 0.012371 0.171568 0.629673
O O7 0.059315 0.000000 0.590713
O O8 0.719427 0.500000 0.148532
O O9 0.691815 0.325714 0.180264
O O10 0.843423 0.389725 0.020412
O O11 0.000000 0.404780 0.000000
O O12 0.421017 0.216327 0.265984
O O13 0.268418 0.290257 0.296924
O O14 0.609111 0.336070 0.107138
O O15 0.550505 0.169340 0.116428
O O16 0.378084 0.747881 0.369245
O O17 0.592303 0.756076 0.491399
O O18 0.000000 0.377993 0.500000
O O19 0.791844 0.500000 0.992011
#
# Coordination Sequence:
#
# PCOD9176799 Si02
#       8
#     8   8   8   8   8   8   8   8
#     4  10  20  33  51  81 114 146 185 224 272 337
#     4  10  19  31  56  85 113 149 185 223 282 347
#     4  10  22  37  59  88 109 138 191 246 293 336
#     4  10  22  38  62  83 113 156 191 233 290 337
#     4  11  18  35  59  77 116 155 180 232 289 332
#     4  10  18  36  55  84 117 150 183 227 281 346
#     4  10  20  35  56  83 117 151 188 230 281 344
#     4  10  22  42  62  84 111 148 199 244 282 333
#
# _framework density 18.117989999999999
#
# number of rings (size 3 to 8) (size 9 to 14) (size 15 to 20)
#    0.000    1.875    3.750    1.125    1.750    1.250 
#    0.000    2.500    0.000    2.625    0.000    0.000 
#    0.000    0.000    0.000    0.000    0.000    0.000 
#
# Total GULP energy -178179.066782 kJ/mol
# GULP energy per Si atom -5568.095837 kJ/mol
# Density = 1.807675 g / cm^3
# Si number density = 18.117990 Si / 1000 Ang^3
#
#
#
# Elastic Constant Matrix: (Units=GPa)
#
#
# Indices 1 2 3 4 5 6 
#
# 1 66.9299 46.6006 24.6108 0.0162 6.5223 -0.0073
# 2 46.6006 147.8039 56.0983 0.0031 18.6694 -0.0005
# 3 24.6108 56.0983 80.5655 -0.0177 8.1832 -0.0049
# 4 0.0162 0.0031 -0.0177 -9.4726 -0.0229 3.0013
# 5 6.5223 18.6694 8.1832 -0.0229 28.2252 0.0065
# 6 -0.0073 -0.0005 -0.0049 3.0013 0.0065 6.3466
#
#
#
# Elastic Compliance Matrix: (Units=1/GPa)
#
#
# Indices 1 2 3 4 5 6 
#
# 1 0.019448 -0.005224 -0.002265 0.000038 -0.000382 0.000003
# 2 -0.005224 0.011150 -0.005710 0.000013 -0.004512 -0.000011
# 3 -0.002265 -0.005710 0.017148 -0.000028 -0.000672 0.000024
# 4 0.000038 0.000013 -0.000028 -0.091810 -0.000094 0.043418
# 5 -0.000382 -0.004512 -0.000672 -0.000094 0.038697 0.000003
# 6 0.000003 -0.000011 0.000024 0.043418 0.000003 0.137032
#
#
# Mechanical properties :
#
#
# Convention : Reuss Voigt Hill
#
# Bulk Modulus (GPa) = 46.83932 61.10208 53.97070
# Shear Modulus (GPa) = 30.27047 16.21914 23.24480
#
# Velocity S-wave (km/s) = 4.09190 2.99523 3.58574
# Velocity P-wave (km/s) = 6.94503 6.76458 6.85540
#
# Compressibility (1/GPa) = 0.02134958
#
# Stress axis : x y z
#
# Youngs Moduli (GPa) = 51.41858 89.68788 58.31626
#
# Poissons Ratio (x) = 0.46853 0.13207
# Poissons Ratio (y) = 0.26861 0.33296
# Poissons Ratio (z) = 0.11644 0.51208
#
# Static dielectric constant tensor:
#      x y z
#    x 1.631610 0.000000 0.008520 
#    y 0.000000 1.667260 0.000020 
#    z 0.008520 0.000020 1.617020 
# 
# From -- ./inp_files/381435.got.cif
#   From: 2010.05.17/outbox.cif.g08.bks.cpg/sg12_191_cif.got.tgz:381435.got - 2010.06.03 13:09:07.
