data_PCOD9176585
_publ_section_title
;
Structure prediction by ZEFSAII (Michael W. Deem and Ramdas Pophale) SiO2 
 PCOD9176585
Probable space group: C 2/M
;
_chemical_formula_sum "Si O2"
_cell_formula_units_Z 56
_cell_length_a 15.270565
_cell_length_b 16.164705
_cell_length_c 19.442990
_cell_angle_alpha 90.000000
_cell_angle_beta 35.536280
_cell_angle_gamma 90.000000
_cell_volume 2789.492853
_symmetry_space_group_name_H-M "C 2/M"
_symmetry_group_IT_number 12
_symmetry_cell_setting 'monoclinic'
loop_
_space_group_symop_operation_xyz
x,y,z
-x,y,-z
-x,-y,-z
x,-y,z
1/2+x,1/2+y,z
1/2-x,1/2+y,-z
1/2-x,1/2-y,-z
1/2+x,1/2-y,z
loop_
_atom_site_type_symbol
_atom_site_label
_atom_site_fract_x
_atom_site_fract_y
_atom_site_fract_z
Si Si1 0.756405 0.329356 0.067160
Si Si2 0.319475 0.000000 0.626743
Si Si3 0.709747 0.664870 0.618229
Si Si4 0.822014 0.000000 0.127653
Si Si5 0.061597 0.905533 0.299779
Si Si6 0.004003 0.231534 0.861959
Si Si7 0.726516 0.677490 0.838277
Si Si8 0.009497 0.745309 0.412975
O O1 0.701023 0.397437 0.156778
O O2 0.632000 0.321277 0.086393
O O3 0.752307 0.247054 0.117826
O O4 0.924557 0.319538 0.929441
O O5 0.500000 0.000000 0.500000
O O6 0.264395 0.915950 0.625097
O O7 0.241814 0.000000 0.752564
O O8 0.582879 0.628186 0.649558
O O9 0.630557 0.728153 0.722313
O O10 0.846735 0.711784 0.494015
O O11 0.771306 0.087315 0.130459
O O12 0.000000 0.000000 0.000000
O O13 0.066945 0.836769 0.355852
O O14 0.044959 0.000000 0.332381
O O15 0.081872 0.194526 0.880928
O O16 0.868330 0.684955 0.697498
O O17 0.000000 0.738382 0.500000
#
# Coordination Sequence:
#
# PCOD9176585 Si02
#       8
#     8   4   8   4   8   8   8   8
#     4   9  21  35  57  84 110 153 194 240 289 350
#     4  12  22  34  56  88 133 160 192 240 295 369
#     4  11  20  36  59  88 118 155 197 232 293 357
#     4  12  22  32  54  90 126 154 193 243 305 369
#     4  10  22  39  59  87 113 149 197 251 294 343
#     4  10  18  35  58  80 113 148 196 236 283 349
#     4  11  21  36  57  85 122 153 191 240 296 352
#     4  11  21  38  60  85 112 154 197 239 294 358
#
# _framework density 20.075334000000002
#
# number of rings (size 3 to 8) (size 9 to 14) (size 15 to 20)
#    0.000    1.429    3.571    3.000    0.000    0.286 
#    0.000    0.000    0.000    7.714    0.000    0.000 
#    0.000    0.000    0.000    0.000    0.000    0.000 
#
# Total GULP energy -156051.698696 kJ/mol
# GULP energy per Si atom -5573.274953 kJ/mol
# Density = 2.002964 g / cm^3
# Si number density = 20.075334 Si / 1000 Ang^3
#
#
#
# Elastic Constant Matrix: (Units=GPa)
#
#
# Indices 1 2 3 4 5 6 
#
# 1 56.0632 3.7277 10.3215 -0.0001 -1.7932 0.0001
# 2 3.7277 100.1992 28.4702 0.0002 -3.1821 0.0001
# 3 10.3215 28.4702 123.4248 0.0005 -6.5999 0.0001
# 4 -0.0001 0.0002 0.0005 24.6886 -0.0004 -1.8283
# 5 -1.7932 -3.1821 -6.5999 -0.0004 22.4143 0.0000
# 6 0.0001 0.0001 0.0001 -1.8283 0.0000 16.0192
#
#
#
# Elastic Compliance Matrix: (Units=1/GPa)
#
#
# Indices 1 2 3 4 5 6 
#
# 1 0.018144 -0.000243 -0.001408 0.000000 0.001003 0.000000
# 2 -0.000243 0.010698 -0.002405 0.000000 0.000791 0.000000
# 3 -0.001408 -0.002405 0.008890 0.000000 0.002164 0.000000
# 4 0.000000 0.000000 0.000000 0.040850 0.000001 0.004662
# 5 0.001003 0.000791 0.002164 0.000001 0.045444 0.000000
# 6 0.000000 0.000000 0.000000 0.004662 0.000000 0.062957
#
#
# Mechanical properties :
#
#
# Convention : Reuss Voigt Hill
#
# Bulk Modulus (GPa) = 33.76018 40.52510 37.14264
# Shear Modulus (GPa) = 24.39398 28.43560 26.41479
#
# Velocity S-wave (km/s) = 3.48964 3.76765 3.63131
# Velocity P-wave (km/s) = 5.75240 6.25758 6.01030
#
# Compressibility (1/GPa) = 0.02962069
#
# Stress axis : x y z
#
# Youngs Moduli (GPa) = 55.11336 93.47863 112.48264
#
# Poissons Ratio (x) = 0.02274 0.15833
# Poissons Ratio (y) = 0.01341 0.27052
# Poissons Ratio (z) = 0.07758 0.22481
#
# Static dielectric constant tensor:
#      x y z
#    x 1.747320 0.000000 -0.010010 
#    y 0.000000 1.699860 0.000000 
#    z -0.010010 0.000000 1.815410 
# 
# From -- ./inp_files/311720.got.cif
#   From: 2010.05.17/outbox.cif.g08.bks.cpg/sg12_156_cif.got.tgz:311720.got - 2010.06.03 13:09:07.
