data_PCOD9176359
_publ_section_title
;
Structure prediction by ZEFSAII (Michael W. Deem and Ramdas Pophale) SiO2 
 PCOD9176359
Probable space group: C 2/M
;
_chemical_formula_sum "Si O2"
_cell_formula_units_Z 56
_cell_length_a 15.053514
_cell_length_b 7.440900
_cell_length_c 22.268963
_cell_angle_alpha 90.000000
_cell_angle_beta 121.935175
_cell_angle_gamma 90.000000
_cell_volume 2116.851967
_symmetry_space_group_name_H-M "C 2/M"
_symmetry_group_IT_number 12
_symmetry_cell_setting 'monoclinic'
loop_
_space_group_symop_operation_xyz
x,y,z
-x,y,-z
-x,-y,-z
x,-y,z
1/2+x,1/2+y,z
1/2-x,1/2+y,-z
1/2-x,1/2-y,-z
1/2+x,1/2-y,z
loop_
_atom_site_type_symbol
_atom_site_label
_atom_site_fract_x
_atom_site_fract_y
_atom_site_fract_z
Si Si1 0.819685 0.796389 0.761469
Si Si2 0.461373 0.789463 0.135277
Si Si3 0.332923 0.218910 0.449764
Si Si4 0.112768 0.215888 0.016990
Si Si5 0.800106 0.279222 0.171087
Si Si6 0.388921 0.715782 0.657423
Si Si7 0.478014 0.787948 0.399781
O O1 0.732737 0.716486 0.774294
O O2 0.862085 0.716381 0.714459
O O3 0.928014 0.803249 0.837916
O O4 0.784182 0.000000 0.734869
O O5 0.383586 0.766707 0.051578
O O6 0.406202 0.720987 0.176252
O O7 0.482367 0.000000 0.148949
O O8 0.214275 0.279081 0.416216
O O9 0.421764 0.284593 0.527123
O O10 0.374678 0.274130 0.398007
O O11 0.330462 0.000000 0.452090
O O12 0.112977 0.000000 0.019948
O O13 0.207146 0.277286 0.092669
O O14 0.000000 0.282021 0.000000
O O15 0.801900 0.500000 0.173609
O O16 0.389985 0.500000 0.660346
O O17 0.493473 0.765288 0.659374
O O18 0.477012 0.000000 0.409413
#
# Coordination Sequence:
#
# PCOD9176359 Si02
#       7
#     8   8   8   8   8   8   8
#     4  10  21  39  55  70 101 146 183 209 248 314
#     4  11  22  35  55  83 108 129 169 226 267 297
#     4   8  16  32  53  79 106 139 174 206 255 317
#     4  10  18  34  60  80 103 139 172 203 253 324
#     4   9  19  36  56  77 102 138 176 206 253 317
#     4  10  20  33  53  77 103 137 179 217 253 302
#     4   9  17  32  55  79 107 136 169 213 261 312
#
# _framework density 26.454377000000001
#
# number of rings (size 3 to 8) (size 9 to 14) (size 15 to 20)
#    0.000    2.429    1.429    2.143    0.000    2.000 
#    0.000    7.143    0.000    0.000    0.000    0.000 
#    0.000    0.000    0.000    0.000    0.000    0.000 
#
# Total GULP energy -156558.616746 kJ/mol
# GULP energy per Si atom -5591.379169 kJ/mol
# Density = 2.639417 g / cm^3
# Si number density = 26.454377 Si / 1000 Ang^3
#
#
#
# Elastic Constant Matrix: (Units=GPa)
#
#
# Indices 1 2 3 4 5 6 
#
# 1 185.0545 -3.5902 28.3287 0.0000 -29.9834 0.0000
# 2 -3.5902 88.4699 -10.0244 0.0000 2.6247 0.0000
# 3 28.3287 -10.0244 75.7290 0.0000 -20.4249 0.0000
# 4 0.0000 0.0000 0.0000 4.1828 0.0000 -9.0401
# 5 -29.9834 2.6247 -20.4249 0.0000 55.5632 0.0000
# 6 0.0000 0.0000 0.0000 -9.0401 0.0000 10.7764
#
#
#
# Elastic Compliance Matrix: (Units=1/GPa)
#
#
# Indices 1 2 3 4 5 6 
#
# 1 0.006080 -0.000009 -0.001543 0.000000 0.002714 0.000000
# 2 -0.000009 0.011475 0.001526 0.000000 0.000014 0.000000
# 3 -0.001543 0.001526 0.015252 0.000000 0.004702 0.000000
# 4 0.000000 0.000000 0.000000 -0.294055 0.000000 -0.246676
# 5 0.002714 0.000014 0.004702 0.000000 0.021190 0.000000
# 6 0.000000 0.000000 0.000000 -0.246676 0.000000 -0.114136
#
#
# Mechanical properties :
#
#
# Convention : Reuss Voigt Hill
#
# Bulk Modulus (GPa) = 30.52930 42.07575 36.30253
# Shear Modulus (GPa) = -14.56779 36.40709 10.91965
#
# Velocity S-wave (km/s) = -2.34919 3.71377 2.03389
# Velocity P-wave (km/s) = 2.05113 5.85910 4.38954
#
# Compressibility (1/GPa) = 0.03275542
#
# Stress axis : x y z
#
# Youngs Moduli (GPa) = 164.48382 87.14274 65.56304
#
# Poissons Ratio (x) = 0.00076 0.10120
# Poissons Ratio (y) = 0.00143 -0.10006
# Poissons Ratio (z) = 0.25388 -0.13299
#
# Static dielectric constant tensor:
#      x y z
#    x 2.031140 0.000000 -0.018070 
#    y 0.000000 2.012120 0.000000 
#    z -0.018070 0.000000 2.161030 
# 
# From -- ./inp_files/338165.got.cif
#   From: 2010.05.17/outbox.cif.g08.bks.cpg/sg12_170_cif.got.tgz:338165.got - 2010.06.03 13:09:07.
