data_PCOD9176137
_publ_section_title
;
Structure prediction by ZEFSAII (Michael W. Deem and Ramdas Pophale) SiO2 
 PCOD9176137
Probable space group: C 2/M
;
_chemical_formula_sum "Si O2"
_cell_formula_units_Z 56
_cell_length_a 16.800624
_cell_length_b 17.423141
_cell_length_c 14.364521
_cell_angle_alpha 90.000000
_cell_angle_beta 133.771172
_cell_angle_gamma 90.000000
_cell_volume 3036.305034
_symmetry_space_group_name_H-M "C 2/M"
_symmetry_group_IT_number 12
_symmetry_cell_setting 'monoclinic'
loop_
_space_group_symop_operation_xyz
x,y,z
-x,y,-z
-x,-y,-z
x,-y,z
1/2+x,1/2+y,z
1/2-x,1/2+y,-z
1/2-x,1/2-y,-z
1/2+x,1/2-y,z
loop_
_atom_site_type_symbol
_atom_site_label
_atom_site_fract_x
_atom_site_fract_y
_atom_site_fract_z
Si Si1 0.814950 0.248395 0.923513
Si Si2 0.578885 0.286749 0.809947
Si Si3 0.929650 0.293232 0.532438
Si Si4 0.185872 0.586817 0.428241
Si Si5 0.868584 0.086573 0.893281
Si Si6 0.797238 0.285300 0.699882
Si Si7 0.386355 0.372908 0.699916
O O1 0.703375 0.286393 0.872044
O O2 0.807436 0.155812 0.896792
O O3 0.834829 0.280693 0.836785
O O4 0.906640 0.255670 0.078202
O O5 0.508590 0.246967 0.671743
O O6 0.516050 0.366563 0.783205
O O7 0.874623 0.365291 0.539605
O O8 0.832150 0.236552 0.417860
O O9 0.000000 0.316627 0.500000
O O10 0.148204 0.500000 0.391735
O O11 0.174400 0.635215 0.325253
O O12 0.314658 0.591122 0.560881
O O13 0.847929 0.090051 0.765730
O O14 0.848193 0.000000 0.911202
O O15 0.000000 0.102808 0.000000
O O16 0.853985 0.216553 0.687767
#
# Coordination Sequence:
#
# PCOD9176137 Si02
#       7
#     8   8   8   8   8   8   8
#     4  10  22  33  56  87 110 152 196 238 270 332
#     4  11  19  35  57  83 112 142 201 235 280 322
#     4  11  20  37  60  83 110 147 189 242 288 328
#     4  11  22  36  57  87 117 147 186 233 290 347
#     4  10  19  32  51  80 116 147 177 225 292 338
#     4  10  19  35  59  81 109 146 193 236 272 331
#     4  10  18  34  56  79 108 145 189 236 274 330
#
# _framework density 18.443470000000001
#
# number of rings (size 3 to 8) (size 9 to 14) (size 15 to 20)
#    0.000    1.571    5.714    1.286    0.000    0.286 
#    0.000    0.714    0.000    9.857    0.000    0.000 
#    0.000    0.000    0.000    0.000    0.000    0.000 
#
# Total GULP energy -156011.690142 kJ/mol
# GULP energy per Si atom -5571.846077 kJ/mol
# Density = 1.840149 g / cm^3
# Si number density = 18.443470 Si / 1000 Ang^3
#
#
#
# Elastic Constant Matrix: (Units=GPa)
#
#
# Indices 1 2 3 4 5 6 
#
# 1 81.3467 29.2940 14.3491 0.0000 -9.3115 0.0000
# 2 29.2940 49.6593 1.3987 0.0000 -14.0306 0.0000
# 3 14.3491 1.3987 79.1062 0.0000 -21.1591 0.0000
# 4 0.0000 0.0000 0.0000 9.4506 0.0000 -1.2362
# 5 -9.3115 -14.0306 -21.1591 0.0000 34.8872 0.0000
# 6 0.0000 0.0000 0.0000 -1.2362 0.0000 13.1864
#
#
#
# Elastic Compliance Matrix: (Units=1/GPa)
#
#
# Indices 1 2 3 4 5 6 
#
# 1 0.016259 -0.009955 -0.003203 0.000000 -0.001607 0.000000
# 2 -0.009955 0.029214 0.004442 0.000000 0.011786 0.000000
# 3 -0.003203 0.004442 0.015986 0.000000 0.010627 0.000000
# 4 0.000000 0.000000 0.000000 0.107127 0.000000 0.010043
# 5 -0.001607 0.011786 0.010627 0.000000 0.039420 0.000000
# 6 0.000000 0.000000 0.000000 0.010043 0.000000 0.076777
#
#
# Mechanical properties :
#
#
# Convention : Reuss Voigt Hill
#
# Bulk Modulus (GPa) = 22.71314 33.35509 28.03411
# Shear Modulus (GPa) = 15.77823 22.50953 19.14388
#
# Velocity S-wave (km/s) = 2.92805 3.49730 3.22526
# Velocity P-wave (km/s) = 4.87576 5.86792 5.39470
#
# Compressibility (1/GPa) = 0.04402738
#
# Stress axis : x y z
#
# Youngs Moduli (GPa) = 61.50440 34.22965 62.55408
#
# Poissons Ratio (x) = 0.34075 0.20036
# Poissons Ratio (y) = 0.61227 -0.27784
# Poissons Ratio (z) = 0.19699 -0.15204
#
# Static dielectric constant tensor:
#      x y z
#    x 1.677220 0.000000 0.013650 
#    y 0.000000 1.632820 0.000000 
#    z 0.013650 0.000000 1.703100 
# 
# From -- ./inp_files/216424.got.cif
#   From: 2010.05.17/outbox.cif.g08.bks.cpg/sg12_109_cif.got.tgz:216424.got - 2010.06.03 13:09:07.
