data_PCOD9176956
_publ_section_title
;
Structure prediction by ZEFSAII (Michael W. Deem and Ramdas Pophale) SiO2 
 PCOD9176956
Probable space group: C 2/M
;
_chemical_formula_sum "Si O2"
_cell_formula_units_Z 40
_cell_length_a 15.559239
_cell_length_b 9.867182
_cell_length_c 20.186859
_cell_angle_alpha 90.000000
_cell_angle_beta 41.668034
_cell_angle_gamma 90.000000
_cell_volume 2060.393619
_symmetry_space_group_name_H-M "C 2/M"
_symmetry_group_IT_number 12
_symmetry_cell_setting 'monoclinic'
loop_
_space_group_symop_operation_xyz
x,y,z
-x,y,-z
-x,-y,-z
x,-y,z
1/2+x,1/2+y,z
1/2-x,1/2+y,-z
1/2-x,1/2-y,-z
1/2+x,1/2-y,z
loop_
_atom_site_type_symbol
_atom_site_label
_atom_site_fract_x
_atom_site_fract_y
_atom_site_fract_z
Si Si1 0.239025 0.500000 0.135765
Si Si2 0.730306 0.000000 0.765380
Si Si3 0.063620 0.000000 0.094545
Si Si4 0.100072 0.778990 0.573985
Si Si5 0.902485 0.771602 0.115178
Si Si6 0.322109 0.500000 0.565131
Si Si7 0.538684 0.000000 0.656148
Si Si8 0.040466 0.000000 0.262656
O O1 0.293795 0.368179 0.143693
O O2 0.084819 0.500000 0.224741
O O3 0.306776 0.500000 0.024757
O O4 0.650261 0.138356 0.819393
O O5 0.802384 0.000000 0.654003
O O6 0.832490 0.000000 0.765945
O O7 0.077222 0.000000 0.165036
O O8 0.981574 0.130662 0.118737
O O9 0.250000 0.750000 0.500000
O O10 0.032153 0.634305 0.615025
O O11 0.101424 0.870649 0.507792
O O12 0.042405 0.869999 0.666433
O O13 0.000000 0.732067 0.000000
O O14 0.176368 0.500000 0.616025
#
# Coordination Sequence:
#
# PCOD9176956 Si02
#       8
#     4   4   4   8   8   4   4   4
#     4   9  18  40  62  89 118 155 204 248 287 354
#     4  12  23  38  59  93 123 154 200 249 300 349
#     4   9  21  40  65  86 118 166 199 236 299 361
#     4   9  20  38  58  86 116 155 198 246 297 352
#     4   9  20  40  61  85 124 162 196 240 298 357
#     4   9  22  38  56  82 121 166 190 242 312 358
#     4  10  18  36  64  89 117 151 206 251 290 351
#     4  11  23  39  62  88 124 159 194 252 300 345
#
# _framework density 19.413768000000001
#
# number of rings (size 3 to 8) (size 9 to 14) (size 15 to 20)
#    0.000    2.400    0.000    3.300    5.600    1.600 
#    3.600    3.000    0.000    2.400    0.000    0.000 
#    0.000    0.000    0.000    0.000    0.000    0.000 
#
# Total GULP energy -111614.100067 kJ/mol
# GULP energy per Si atom -5580.705003 kJ/mol
# Density = 1.936958 g / cm^3
# Si number density = 19.413768 Si / 1000 Ang^3
#
#
#
# Elastic Constant Matrix: (Units=GPa)
#
#
# Indices 1 2 3 4 5 6 
#
# 1 66.7670 27.3288 62.0891 0.0000 18.7361 0.0000
# 2 27.3288 168.2183 92.1229 0.0000 14.5080 0.0000
# 3 62.0891 92.1229 153.8317 0.0000 21.5178 0.0000
# 4 0.0000 0.0000 0.0000 21.1050 0.0000 1.8494
# 5 18.7361 14.5080 21.5178 0.0000 45.4434 0.0000
# 6 0.0000 0.0000 0.0000 1.8494 0.0000 -15.1968
#
#
#
# Elastic Compliance Matrix: (Units=1/GPa)
#
#
# Indices 1 2 3 4 5 6 
#
# 1 0.026043 0.002360 -0.011049 0.000000 -0.006259 0.000000
# 2 0.002360 0.009064 -0.006254 0.000000 -0.000905 0.000000
# 3 -0.011049 -0.006254 0.014767 0.000000 -0.000440 0.000000
# 4 0.000000 0.000000 0.000000 0.046882 0.000000 0.005705
# 5 -0.006259 -0.000905 -0.000440 0.000000 0.025083 0.000000
# 6 0.000000 0.000000 0.000000 0.005705 0.000000 -0.065109
#
#
# Mechanical properties :
#
#
# Convention : Reuss Voigt Hill
#
# Bulk Modulus (GPa) = 50.03100 83.54432 66.78766
# Shear Modulus (GPa) = 53.60246 24.08876 38.84561
#
# Velocity S-wave (km/s) = 5.26027 3.52633 4.47803
# Velocity P-wave (km/s) = 7.91965 7.72703 7.82393
#
# Compressibility (1/GPa) = 0.01998761
#
# Stress axis : x y z
#
# Youngs Moduli (GPa) = 38.39836 110.32288 67.71870
#
# Poissons Ratio (x) = -0.26033 0.74822
# Poissons Ratio (y) = -0.09061 0.42351
# Poissons Ratio (z) = 0.42426 0.68996
#
# Static dielectric constant tensor:
#      x y z
#    x 1.681920 0.000000 -0.025110 
#    y 0.000000 1.695040 0.000000 
#    z -0.025110 0.000000 1.659620 
# 
# From -- ./inp_files/313565.got.cif
#   From: 2010.05.17/outbox.cif.g08.bks.cpg/sg12_157_cif.got.tgz:313565.got - 2010.06.03 13:09:07.
