data_PCOD9176334
_publ_section_title
;
Structure prediction by ZEFSAII (Michael W. Deem and Ramdas Pophale) SiO2 
 PCOD9176334
Probable space group: C 2/M
;
_chemical_formula_sum "Si O2"
_cell_formula_units_Z 56
_cell_length_a 18.874636
_cell_length_b 13.687140
_cell_length_c 13.077167
_cell_angle_alpha 90.000000
_cell_angle_beta 115.698304
_cell_angle_gamma 90.000000
_cell_volume 3044.199188
_symmetry_space_group_name_H-M "C 2/M"
_symmetry_group_IT_number 12
_symmetry_cell_setting 'monoclinic'
loop_
_space_group_symop_operation_xyz
x,y,z
-x,y,-z
-x,-y,-z
x,-y,z
1/2+x,1/2+y,z
1/2-x,1/2+y,-z
1/2-x,1/2-y,-z
1/2+x,1/2-y,z
loop_
_atom_site_type_symbol
_atom_site_label
_atom_site_fract_x
_atom_site_fract_y
_atom_site_fract_z
Si Si1 0.257226 0.611562 0.594621
Si Si2 0.915993 0.884336 0.581594
Si Si3 0.869004 0.612518 0.657160
Si Si4 0.479564 0.224855 0.285493
Si Si5 0.063161 0.384295 0.947481
Si Si6 0.205324 0.383195 0.178162
Si Si7 0.655144 0.264948 0.653719
O O1 0.250802 0.500000 0.628573
O O2 0.346799 0.632440 0.621464
O O3 0.209863 0.616614 0.458183
O O4 0.214211 0.688172 0.638888
O O5 0.887873 0.830402 0.460036
O O6 0.994186 0.836489 0.677651
O O7 0.922688 0.000000 0.567664
O O8 0.893417 0.500000 0.682139
O O9 0.846801 0.648328 0.755838
O O10 0.938689 0.668065 0.644336
O O11 0.455555 0.186432 0.158712
O O12 0.410072 0.208180 0.321712
O O13 0.058929 0.500000 0.915591
O O14 0.150101 0.364687 0.046506
O O15 0.000000 0.371804 0.000000
O O16 0.215978 0.500000 0.194440
O O17 0.289147 0.331552 0.239848
#
# Coordination Sequence:
#
# PCOD9176334 Si02
#       7
#     8   8   8   8   8   8   8
#     4  10  21  36  57  84 117 157 196 234 285 350
#     4  11  23  40  60  84 117 161 205 235 272 346
#     4  10  18  34  59  86 114 148 194 242 288 342
#     4  12  24  35  56  89 123 152 185 237 302 345
#     4  10  21  39  64  91 113 144 197 249 293 341
#     4  10  20  37  64  87 108 149 201 248 281 328
#     4  12  23  36  57  88 125 153 188 236 300 351
#
# _framework density 18.395644000000001
#
# number of rings (size 3 to 8) (size 9 to 14) (size 15 to 20)
#    0.000    1.286    4.286    2.571    0.000    3.429 
#    0.000    1.429    0.000    1.286    0.000    0.000 
#    0.000    0.000    0.000    0.000    0.000    0.000 
#
# Total GULP energy -156288.625737 kJ/mol
# GULP energy per Si atom -5581.736633 kJ/mol
# Density = 1.835377 g / cm^3
# Si number density = 18.395644 Si / 1000 Ang^3
#
#
#
# Elastic Constant Matrix: (Units=GPa)
#
#
# Indices 1 2 3 4 5 6 
#
# 1 54.1627 21.8834 17.1104 0.0000 -8.1459 0.0000
# 2 21.8834 65.6468 38.0145 0.0000 -6.8693 0.0000
# 3 17.1104 38.0145 80.9523 0.0000 10.2331 0.0000
# 4 0.0000 0.0000 0.0000 26.3283 0.0000 9.9795
# 5 -8.1459 -6.8693 10.2331 0.0000 22.6272 0.0000
# 6 0.0000 0.0000 0.0000 9.9795 0.0000 18.3574
#
#
#
# Elastic Compliance Matrix: (Units=1/GPa)
#
#
# Indices 1 2 3 4 5 6 
#
# 1 0.022759 -0.004511 -0.003770 0.000000 0.008529 0.000000
# 2 -0.004511 0.025045 -0.012264 0.000000 0.011526 0.000000
# 3 -0.003770 -0.012264 0.020737 0.000000 -0.014459 0.000000
# 4 0.000000 0.000000 0.000000 0.047839 0.000000 -0.026007
# 5 0.008529 0.011526 -0.014459 0.000000 0.057303 0.000000
# 6 0.000000 0.000000 0.000000 -0.026007 0.000000 0.068612
#
#
# Mechanical properties :
#
#
# Convention : Reuss Voigt Hill
#
# Bulk Modulus (GPa) = 36.43042 39.41983 37.92512
# Shear Modulus (GPa) = 17.09188 21.71281 19.40235
#
# Velocity S-wave (km/s) = 3.05146 3.43931 3.25118
# Velocity P-wave (km/s) = 5.67997 6.10305 5.89531
#
# Compressibility (1/GPa) = 0.02744959
#
# Stress axis : x y z
#
# Youngs Moduli (GPa) = 43.93802 39.92835 48.22343
#
# Poissons Ratio (x) = 0.18012 0.18182
# Poissons Ratio (y) = 0.19821 0.59143
# Poissons Ratio (z) = 0.16566 0.48969
#
# Static dielectric constant tensor:
#      x y z
#    x 1.631510 0.000000 0.013940 
#    y 0.000000 1.667680 0.000000 
#    z 0.013940 0.000000 1.639660 
# 
# From -- ./inp_files/155958.got.cif
#   From: 2010.05.17/outbox.cif.g08.bks.cpg/sg12_78_cif.got.tgz:155958.got - 2010.06.03 13:09:07.
