data_PCOD9176145
_publ_section_title
;
Structure prediction by ZEFSAII (Michael W. Deem and Ramdas Pophale) SiO2 
 PCOD9176145
Probable space group: C 2/M
;
_chemical_formula_sum "Si O2"
_cell_formula_units_Z 40
_cell_length_a 13.955926
_cell_length_b 17.590183
_cell_length_c 9.673496
_cell_angle_alpha 90.000000
_cell_angle_beta 112.737793
_cell_angle_gamma 90.000000
_cell_volume 2190.165008
_symmetry_space_group_name_H-M "C 2/M"
_symmetry_group_IT_number 12
_symmetry_cell_setting 'monoclinic'
loop_
_space_group_symop_operation_xyz
x,y,z
-x,y,-z
-x,-y,-z
x,-y,z
1/2+x,1/2+y,z
1/2-x,1/2+y,-z
1/2-x,1/2-y,-z
1/2+x,1/2-y,z
loop_
_atom_site_type_symbol
_atom_site_label
_atom_site_fract_x
_atom_site_fract_y
_atom_site_fract_z
Si Si1 0.105624 0.256046 0.991114
Si Si2 0.851896 0.244884 0.463308
Si Si3 0.784521 0.339746 0.193390
Si Si4 0.174250 0.000000 0.104740
Si Si5 0.509314 0.500000 0.772788
Si Si6 0.957754 0.836694 0.296106
O O1 0.156209 0.316182 0.914271
O O2 0.076793 0.184726 0.876633
O O3 0.188017 0.220342 0.142996
O O4 0.000000 0.284163 0.000000
O O5 0.750000 0.250000 0.500000
O O6 0.851780 0.320128 0.366786
O O7 0.864967 0.179454 0.352298
O O8 0.549140 0.277366 0.387573
O O9 0.741883 0.424210 0.161177
O O10 0.085621 0.000000 0.172761
O O11 0.114222 0.000000 0.924392
O O12 0.505945 0.422952 0.683173
#
# Coordination Sequence:
#
# PCOD9176145 Si02
#       6
#     8   8   8   4   4   8
#     4  10  18  34  56  81 107 144 189 234 271 320
#     4  10  20  35  52  76 112 149 183 222 266 325
#     4  10  21  33  55  84 108 146 189 225 275 336
#     4  11  20  34  55  83 120 144 174 227 290 337
#     4  11  20  33  56  86 118 144 167 231 301 335
#     4  10  21  34  55  84 113 142 184 225 278 339
#
# _framework density 18.263463999999999
#
# number of rings (size 3 to 8) (size 9 to 14) (size 15 to 20)
#    0.000    1.800    2.000    3.600    0.000    1.600 
#    0.000    1.500    0.000    9.600    0.000    0.000 
#    0.000    0.000    0.000    0.000    0.000    0.000 
#
# Total GULP energy -111455.058878 kJ/mol
# GULP energy per Si atom -5572.752944 kJ/mol
# Density = 1.822190 g / cm^3
# Si number density = 18.263464 Si / 1000 Ang^3
#
#
#
# Elastic Constant Matrix: (Units=GPa)
#
#
# Indices 1 2 3 4 5 6 
#
# 1 122.4987 59.5185 20.4720 0.0000 -12.3539 0.0000
# 2 59.5185 122.0568 29.2646 0.0000 6.1171 0.0000
# 3 20.4720 29.2646 66.6678 0.0000 7.6596 0.0000
# 4 0.0000 0.0000 0.0000 15.6522 0.0000 9.1982
# 5 -12.3539 6.1171 7.6596 0.0000 30.7824 0.0000
# 6 0.0000 0.0000 0.0000 9.1982 0.0000 18.6759
#
#
#
# Elastic Compliance Matrix: (Units=1/GPa)
#
#
# Indices 1 2 3 4 5 6 
#
# 1 0.011867 -0.005651 -0.001894 0.000000 0.006357 0.000000
# 2 -0.005651 0.011869 -0.003030 0.000000 -0.003873 0.000000
# 3 -0.001894 -0.003030 0.017428 0.000000 -0.004494 0.000000
# 4 0.000000 0.000000 0.000000 0.089912 0.000000 -0.044283
# 5 0.006357 -0.003873 -0.004494 0.000000 0.036925 0.000000
# 6 0.000000 0.000000 0.000000 -0.044283 0.000000 0.075355
#
#
# Mechanical properties :
#
#
# Convention : Reuss Voigt Hill
#
# Bulk Modulus (GPa) = 49.96462 58.85927 54.41195
# Shear Modulus (GPa) = 18.43823 26.48666 22.46245
#
# Velocity S-wave (km/s) = 3.18082 3.81235 3.51081
# Velocity P-wave (km/s) = 6.39588 7.18864 6.80381
#
# Compressibility (1/GPa) = 0.02001416
#
# Stress axis : x y z
#
# Youngs Moduli (GPa) = 84.27065 84.25292 57.38028
#
# Poissons Ratio (x) = 0.47611 0.10866
# Poissons Ratio (y) = 0.47621 0.17385
# Poissons Ratio (z) = 0.15958 0.25527
#
# Static dielectric constant tensor:
#      x y z
#    x 1.655960 0.000000 0.010690 
#    y 0.000000 1.601480 0.000000 
#    z 0.010690 0.000000 1.684090 
# 
# From -- ./inp_files/130508.got.cif
#   From: 2010.05.17/outbox.cif.g08.bks.cpg/sg12_66_cif.got.tgz:130508.got - 2010.06.03 13:09:07.
