data_PCOD9176895
_publ_section_title
;
Structure prediction by ZEFSAII (Michael W. Deem and Ramdas Pophale) SiO2 
 PCOD9176895
Probable space group: C 2/M
;
_chemical_formula_sum "Si O2"
_cell_formula_units_Z 52
_cell_length_a 10.456129
_cell_length_b 27.761468
_cell_length_c 17.491435
_cell_angle_alpha 90.000000
_cell_angle_beta 28.820659
_cell_angle_gamma 90.000000
_cell_volume 2447.645711
_symmetry_space_group_name_H-M "C 2/M"
_symmetry_group_IT_number 12
_symmetry_cell_setting 'monoclinic'
loop_
_space_group_symop_operation_xyz
x,y,z
-x,y,-z
-x,-y,-z
x,-y,z
1/2+x,1/2+y,z
1/2-x,1/2+y,-z
1/2-x,1/2-y,-z
1/2+x,1/2-y,z
loop_
_atom_site_type_symbol
_atom_site_label
_atom_site_fract_x
_atom_site_fract_y
_atom_site_fract_z
Si Si1 0.135206 0.847208 0.717435
Si Si2 0.451114 0.149331 0.241867
Si Si3 0.287402 0.500000 0.889961
Si Si4 0.000000 0.196150 0.000000
Si Si5 0.930433 0.749393 0.181483
Si Si6 0.635265 0.098035 0.011484
Si Si7 0.181460 0.500000 0.481444
Si Si8 0.122220 0.391100 0.556220
O O1 0.343176 0.872762 0.665808
O O2 0.176022 0.870059 0.612855
O O3 0.163341 0.790075 0.709849
O O4 0.842095 0.858804 0.898348
O O5 0.760796 0.162561 0.096643
O O6 0.343165 0.197683 0.257805
O O7 0.335116 0.131773 0.382998
O O8 0.443599 0.107568 0.182323
O O9 0.296461 0.548446 0.934206
O O10 0.517078 0.500000 0.707155
O O11 0.000000 0.500000 0.000000
O O12 0.851571 0.230531 0.139443
O O13 0.250000 0.750000 0.000000
O O14 0.500000 0.097496 0.000000
O O15 0.000000 0.500000 0.500000
O O16 0.131178 0.449296 0.550406
#
# Coordination Sequence:
#
# PCOD9176895 Si02
#       8
#     8   8   4   4   8   8   4   8
#     4  11  20  40  62  93 126 169 206 268 325 391
#     4  11  22  37  60  95 126 167 216 273 323 385
#     4  10  22  41  66  93 126 179 224 267 323 403
#     4  10  18  36  60  89 124 159 214 276 322 370
#     4  10  20  33  60  87 122 167 208 260 327 380
#     4  11  22  38  64  88 124 166 222 264 312 389
#     4  12  20  39  72 103 131 178 218 271 354 403
#     4  11  23  38  67  95 136 163 212 273 339 391
#
# _framework density 21.244903999999998
#
# number of rings (size 3 to 8) (size 9 to 14) (size 15 to 20)
#    0.000    1.231    7.692    0.000    1.077    1.231 
#    0.000    0.769    0.000    5.538    0.000    0.000 
#    0.000    0.000    0.000    0.000    0.000    0.000 
#
# Total GULP energy -145046.833456 kJ/mol
# GULP energy per Si atom -5578.724364 kJ/mol
# Density = 2.119655 g / cm^3
# Si number density = 21.244904 Si / 1000 Ang^3
#
#
#
# Elastic Constant Matrix: (Units=GPa)
#
#
# Indices 1 2 3 4 5 6 
#
# 1 52.5149 15.1802 31.6434 0.0002 32.4166 -0.0005
# 2 15.1802 138.1637 29.1655 -0.0002 27.9620 -0.0001
# 3 31.6434 29.1655 65.0589 -0.0014 29.1718 0.0025
# 4 0.0002 -0.0002 -0.0014 34.2228 0.0004 12.2061
# 5 32.4166 27.9620 29.1718 0.0004 51.6017 -0.0006
# 6 -0.0005 -0.0001 0.0025 12.2061 -0.0006 10.0527
#
#
#
# Elastic Compliance Matrix: (Units=1/GPa)
#
#
# Indices 1 2 3 4 5 6 
#
# 1 0.035471 0.001798 -0.010221 -0.000003 -0.017479 0.000007
# 2 0.001798 0.008471 -0.002823 0.000000 -0.004124 0.000001
# 3 -0.010221 -0.002823 0.024169 0.000006 -0.005713 -0.000015
# 4 -0.000003 0.000000 0.000006 0.051541 -0.000003 -0.062582
# 5 -0.017479 -0.004124 -0.005713 -0.000003 0.035824 0.000006
# 6 0.000007 0.000001 -0.000015 -0.062582 0.000006 0.175463
#
#
# Mechanical properties :
#
#
# Convention : Reuss Voigt Hill
#
# Bulk Modulus (GPa) = 21.92067 45.30176 33.61121
# Shear Modulus (GPa) = 13.56351 31.15868 22.36109
#
# Velocity S-wave (km/s) = 2.52947 3.83383 3.24781
# Velocity P-wave (km/s) = 4.34413 6.40059 5.46987
#
# Compressibility (1/GPa) = 0.04561904
#
# Stress axis : x y z
#
# Youngs Moduli (GPa) = 28.19225 118.05401 41.37543
#
# Poissons Ratio (x) = -0.21224 0.42289
# Poissons Ratio (y) = -0.05068 0.11679
# Poissons Ratio (z) = 0.28815 0.33323
#
# Static dielectric constant tensor:
#      x y z
#    x 1.836970 0.000000 0.009090 
#    y 0.000000 1.878740 0.000000 
#    z 0.009090 0.000000 1.779140 
# 
# From -- ./inp_files/265947.got.cif
#   From: 2010.05.17/outbox.cif.g08.bks.cpg/sg12_133_cif.got.tgz:265947.got - 2010.06.03 13:09:07.
