data_PCOD9176106
_publ_section_title
;
Structure prediction by ZEFSAII (Michael W. Deem and Ramdas Pophale) SiO2 
 PCOD9176106
Probable space group: C 2/M
;
_chemical_formula_sum "Si O2"
_cell_formula_units_Z 64
_cell_length_a 14.847763
_cell_length_b 20.740160
_cell_length_c 14.774481
_cell_angle_alpha 90.000000
_cell_angle_beta 35.591966
_cell_angle_gamma 90.000000
_cell_volume 2647.981993
_symmetry_space_group_name_H-M "C 2/M"
_symmetry_group_IT_number 12
_symmetry_cell_setting 'monoclinic'
loop_
_space_group_symop_operation_xyz
x,y,z
-x,y,-z
-x,-y,-z
x,-y,z
1/2+x,1/2+y,z
1/2-x,1/2+y,-z
1/2-x,1/2-y,-z
1/2+x,1/2-y,z
loop_
_atom_site_type_symbol
_atom_site_label
_atom_site_fract_x
_atom_site_fract_y
_atom_site_fract_z
Si Si1 0.858398 0.126680 0.251571
Si Si2 0.948454 0.259362 0.240097
Si Si3 0.077837 0.098117 0.528024
Si Si4 0.636034 0.572917 0.122588
Si Si5 0.143546 0.389742 0.596275
Si Si6 0.393173 0.124346 0.671882
Si Si7 0.083695 0.776272 0.310505
Si Si8 0.125616 0.649552 0.962145
O O1 0.848363 0.203185 0.278145
O O2 0.753300 0.099327 0.419550
O O3 0.779575 0.109770 0.220866
O O4 0.033684 0.106081 0.127977
O O5 0.866340 0.314427 0.366772
O O6 0.065852 0.226731 0.215879
O O7 0.038005 0.294752 0.087614
O O8 0.256155 0.080857 0.403490
O O9 0.000000 0.074289 0.500000
O O10 0.973406 0.075823 0.697956
O O11 0.055273 0.176627 0.546018
O O12 0.664044 0.500000 0.073692
O O13 0.791850 0.605858 0.030607
O O14 0.971947 0.404389 0.698001
O O15 0.500000 0.104154 0.500000
O O16 0.409592 0.202456 0.665115
O O17 0.238231 0.816212 0.205852
O O18 0.000000 0.616828 0.000000
#
# Coordination Sequence:
#
# PCOD9176106 Si02
#       8
#     8   8   8   8   8   8   8   8
#     4  10  18  34  55  81 110 143 179 224 280 341
#     4  11  19  31  55  78 120 146 172 221 287 344
#     4  10  20  32  57  83 115 150 186 222 273 330
#     4  10  23  42  58  75 103 147 203 242 270 319
#     4   9  19  30  49  84 118 143 169 210 274 344
#     4   9  18  27  50  79 115 144 168 210 274 345
#     4  10  19  32  46  82 116 149 174 214 272 345
#     4  11  23  35  52  79 111 145 186 234 276 332
#
# _framework density 24.169349
#
# number of rings (size 3 to 8) (size 9 to 14) (size 15 to 20)
#    0.000    2.000    3.750    1.875    8.750    0.500 
#    0.000    0.000    0.000   10.125    0.000    6.125 
#    0.000    0.000    0.000    0.000    0.000    0.000 
#
# Total GULP energy -178565.002348 kJ/mol
# GULP energy per Si atom -5580.156323 kJ/mol
# Density = 2.411434 g / cm^3
# Si number density = 24.169349 Si / 1000 Ang^3
#
#
#
# Elastic Constant Matrix: (Units=GPa)
#
#
# Indices 1 2 3 4 5 6 
#
# 1 203.3189 18.3151 63.1551 -0.0040 -61.2692 0.0037
# 2 18.3151 25.1173 -1.5061 -0.0081 -6.6715 0.0009
# 3 63.1551 -1.5061 43.9489 0.0286 -16.1317 -0.0353
# 4 -0.0040 -0.0081 0.0286 -24.9061 0.0025 18.9277
# 5 -61.2692 -6.6715 -16.1317 0.0025 50.8615 -0.0011
# 6 0.0037 0.0009 -0.0353 18.9277 -0.0011 -17.6437
#
#
#
# Elastic Compliance Matrix: (Units=1/GPa)
#
#
# Indices 1 2 3 4 5 6 
#
# 1 0.013954 -0.008381 -0.016493 0.000049 0.010479 0.000088
# 2 -0.008381 0.046867 0.013808 -0.000101 0.000431 -0.000135
# 3 -0.016493 0.013808 0.045610 -0.000114 -0.003591 -0.000216
# 4 0.000049 -0.000101 -0.000114 -0.217352 0.000015 -0.233170
# 5 0.010479 0.000431 -0.003591 0.000015 0.031203 0.000024
# 6 0.000088 -0.000135 -0.000216 -0.233170 0.000024 -0.306817
#
#
# Mechanical properties :
#
#
# Convention : Reuss Voigt Hill
#
# Bulk Modulus (GPa) = 11.86266 48.03480 29.94873
# Shear Modulus (GPa) = -14.86756 14.49042 -0.18857
#
# Velocity S-wave (km/s) = -2.48289 2.45120 -0.27963
# Velocity P-wave (km/s) = 1.81684 5.28475 3.50911
#
# Compressibility (1/GPa) = 0.08429810
#
# Stress axis : x y z
#
# Youngs Moduli (GPa) = 71.66181 21.33703 21.92514
#
# Poissons Ratio (x) = 0.17882 0.36162
# Poissons Ratio (y) = 0.60059 -0.30274
# Poissons Ratio (z) = 1.18194 -0.29462
#
# Static dielectric constant tensor:
#      x y z
#    x 1.987250 0.000000 -0.058380 
#    y 0.000000 1.904140 0.000010 
#    z -0.058380 0.000010 1.961760 
# 
# From -- ./inp_files/272803.got.cif
#   From: 2010.05.17/outbox.cif.g08.bks.cpg/sg12_137_cif.got.tgz:272803.got - 2010.06.03 13:09:07.
