data_PCOD9176581
_publ_section_title
;
Structure prediction by ZEFSAII (Michael W. Deem and Ramdas Pophale) SiO2 
 PCOD9176581
Probable space group: C 2/M
;
_chemical_formula_sum "Si O2"
_cell_formula_units_Z 64
_cell_length_a 29.269502
_cell_length_b 15.693181
_cell_length_c 9.737169
_cell_angle_alpha 90.000000
_cell_angle_beta 129.805952
_cell_angle_gamma 90.000000
_cell_volume 3435.919274
_symmetry_space_group_name_H-M "C 2/M"
_symmetry_group_IT_number 12
_symmetry_cell_setting 'monoclinic'
loop_
_space_group_symop_operation_xyz
x,y,z
-x,y,-z
-x,-y,-z
x,-y,z
1/2+x,1/2+y,z
1/2-x,1/2+y,-z
1/2-x,1/2-y,-z
1/2+x,1/2-y,z
loop_
_atom_site_type_symbol
_atom_site_label
_atom_site_fract_x
_atom_site_fract_y
_atom_site_fract_z
Si Si1 0.481450 0.596117 0.125901
Si Si2 0.694358 0.848304 0.171909
Si Si3 0.043199 0.403299 0.455406
Si Si4 0.071735 0.760492 0.352746
Si Si5 0.326140 0.908427 0.157135
Si Si6 0.244376 0.598396 0.553385
Si Si7 0.630011 0.308253 0.176130
Si Si8 0.698582 0.228813 0.693484
O O1 0.485915 0.500000 0.187943
O O2 0.524970 0.663326 0.282391
O O3 0.500000 0.593561 0.000000
O O4 0.414611 0.631483 0.993018
O O5 0.711298 0.896704 0.343672
O O6 0.650745 0.771473 0.126948
O O7 0.755025 0.803452 0.238830
O O8 0.668875 0.900491 0.996303
O O9 0.029272 0.500000 0.380380
O O10 0.042805 0.330182 0.338702
O O11 0.109655 0.405647 0.646455
O O12 0.000000 0.382784 0.500000
O O13 0.095530 0.771667 0.242816
O O14 0.132003 0.765186 0.557673
O O15 0.292173 0.827787 0.153798
O O16 0.298137 0.000000 0.137065
O O17 0.247476 0.500000 0.604260
O O18 0.310417 0.639695 0.667462
O O19 0.209188 0.660241 0.590380
#
# Coordination Sequence:
#
# PCOD9176581 Si02
#       8
#     8   8   8   8   8   8   8   8
#     4   9  19  33  54  82 108 141 185 225 271 332
#     4  11  20  34  54  81 111 142 181 232 277 336
#     4   9  20  37  57  79 104 143 193 230 273 338
#     4  10  18  35  58  79 110 146 185 230 278 323
#     4  10  21  35  53  78 107 140 185 230 274 331
#     4  11  20  33  57  82 114 148 182 233 281 331
#     4  10  19  35  53  81 114 143 184 224 287 337
#     4  10  19  37  53  79 108 149 185 220 278 346
#
# _framework density 18.626747000000002
#
# number of rings (size 3 to 8) (size 9 to 14) (size 15 to 20)
#    0.000    2.000    2.500    2.250    1.750    1.000 
#    0.000    0.000    0.000    3.750    0.000    0.000 
#    0.000    0.000    0.000    0.000    0.000    0.000 
#
# Total GULP energy -178400.848163 kJ/mol
# GULP energy per Si atom -5575.026505 kJ/mol
# Density = 1.858435 g / cm^3
# Si number density = 18.626747 Si / 1000 Ang^3
#
#
#
# Elastic Constant Matrix: (Units=GPa)
#
#
# Indices 1 2 3 4 5 6 
#
# 1 31.5110 18.1667 15.2526 0.0000 11.1936 0.0000
# 2 18.1667 119.1883 43.6346 0.0000 10.2414 0.0000
# 3 15.2526 43.6346 63.7782 0.0000 -5.8233 0.0000
# 4 0.0000 0.0000 0.0000 17.4225 0.0000 -0.4866
# 5 11.1936 10.2414 -5.8233 0.0000 20.2574 0.0000
# 6 0.0000 0.0000 0.0000 -0.4866 0.0000 10.9431
#
#
#
# Elastic Compliance Matrix: (Units=1/GPa)
#
#
# Indices 1 2 3 4 5 6 
#
# 1 0.050480 0.000859 -0.015658 0.000000 -0.032829 0.000000
# 2 0.000859 0.012661 -0.009751 0.000000 -0.009678 0.000000
# 3 -0.015658 -0.009751 0.028072 0.000000 0.021651 0.000000
# 4 0.000000 0.000000 0.000000 0.057469 0.000000 0.002556
# 5 -0.032829 -0.009678 0.021651 0.000000 0.078622 0.000000
# 6 0.000000 0.000000 0.000000 0.002556 0.000000 0.091496
#
#
# Mechanical properties :
#
#
# Convention : Reuss Voigt Hill
#
# Bulk Modulus (GPa) = 23.74526 40.95395 32.34960
# Shear Modulus (GPa) = 13.09116 18.88615 15.98866
#
# Velocity S-wave (km/s) = 2.65394 3.18768 2.93298
# Velocity P-wave (km/s) = 4.70817 5.96513 5.37353
#
# Compressibility (1/GPa) = 0.04211367
#
# Stress axis : x y z
#
# Youngs Moduli (GPa) = 19.80965 78.98486 35.62260
#
# Poissons Ratio (x) = -0.06783 0.55776
# Poissons Ratio (y) = -0.01701 0.34736
# Poissons Ratio (z) = 0.31017 0.77018
#
# Static dielectric constant tensor:
#      x y z
#    x 1.646270 0.000000 0.001850 
#    y 0.000000 1.656780 0.000000 
#    z 0.001850 0.000000 1.645290 
# 
# From -- ./inp_files/112005.got.cif
#   From: 2010.05.17/outbox.cif.g08.bks.cpg/sg12_57_cif.got.tgz:112005.got - 2010.06.03 13:09:07.
