data_PCOD9176952
_publ_section_title
;
Structure prediction by ZEFSAII (Michael W. Deem and Ramdas Pophale) SiO2 
 PCOD9176952
Probable space group: C 2/M
;
_chemical_formula_sum "Si O2"
_cell_formula_units_Z 48
_cell_length_a 13.081407
_cell_length_b 13.772303
_cell_length_c 11.510567
_cell_angle_alpha 90.000000
_cell_angle_beta 93.464032
_cell_angle_gamma 90.000000
_cell_volume 2069.967515
_symmetry_space_group_name_H-M "C 2/M"
_symmetry_group_IT_number 12
_symmetry_cell_setting 'monoclinic'
loop_
_space_group_symop_operation_xyz
x,y,z
-x,y,-z
-x,-y,-z
x,-y,z
1/2+x,1/2+y,z
1/2-x,1/2+y,-z
1/2-x,1/2-y,-z
1/2+x,1/2-y,z
loop_
_atom_site_type_symbol
_atom_site_label
_atom_site_fract_x
_atom_site_fract_y
_atom_site_fract_z
Si Si1 0.614508 0.898094 0.342682
Si Si2 0.253823 0.612460 0.734943
Si Si3 0.556472 0.758354 0.667915
Si Si4 0.688833 0.192510 0.118066
Si Si5 0.913971 0.808187 0.074502
Si Si6 0.190016 0.149689 0.509102
O O1 0.545531 0.810205 0.382169
O O2 0.637665 0.873845 0.210702
O O3 0.722651 0.904879 0.413212
O O4 0.558658 0.000000 0.352651
O O5 0.247664 0.500000 0.776502
O O6 0.143352 0.657113 0.688193
O O7 0.292734 0.699285 0.822759
O O8 0.322833 0.611721 0.622094
O O9 0.541558 0.717009 0.796693
O O10 0.596894 0.673300 0.587897
O O11 0.800309 0.150075 0.091525
O O12 0.618599 0.212579 0.002160
O O13 0.000000 0.858509 0.000000
O O14 0.250000 0.250000 0.500000
#
# Coordination Sequence:
#
# PCOD9176952 Si02
#       6
#     8   8   8   8   8   8
#     4  12  22  37  62  98 127 157 205 259 311 369
#     4  10  20  39  63  86 122 165 209 255 309 367
#     4  10  21  37  62  94 126 160 204 256 315 373
#     4  10  21  37  59  91 118 163 203 255 309 366
#     4  10  18  36  64  82 119 166 203 244 308 367
#     4  10  20  39  59  89 126 167 199 251 315 365
#
# _framework density 23.188770000000002
#
# number of rings (size 3 to 8) (size 9 to 14) (size 15 to 20)
#    0.000    1.667    6.667    1.000    0.000    2.667 
#    0.000   13.333    0.000    7.000    0.000    0.000 
#    0.000    0.000    0.000    0.000    0.000    0.000 
#
# Total GULP energy -133864.631917 kJ/mol
# GULP energy per Si atom -5577.692997 kJ/mol
# Density = 2.313599 g / cm^3
# Si number density = 23.188770 Si / 1000 Ang^3
#
#
#
# Elastic Constant Matrix: (Units=GPa)
#
#
# Indices 1 2 3 4 5 6 
#
# 1 111.4775 5.5205 29.2189 0.0000 -9.1959 0.0000
# 2 5.5205 65.8006 3.9039 0.0000 2.9064 0.0000
# 3 29.2189 3.9039 120.7053 0.0000 -18.8398 0.0000
# 4 0.0000 0.0000 0.0000 239.8701 0.0000 35.1325
# 5 -9.1959 2.9064 -18.8398 0.0000 41.8926 0.0000
# 6 0.0000 0.0000 0.0000 35.1325 0.0000 23.2336
#
#
#
# Elastic Compliance Matrix: (Units=1/GPa)
#
#
# Indices 1 2 3 4 5 6 
#
# 1 0.009665 -0.000738 -0.002126 0.000000 0.001217 0.000000
# 2 -0.000738 0.015357 -0.000548 0.000000 -0.001474 0.000000
# 3 -0.002126 -0.000548 0.009411 0.000000 0.003803 0.000000
# 4 0.000000 0.000000 0.000000 0.005355 0.000000 -0.008097
# 5 0.001217 -0.001474 0.003803 0.000000 0.025950 0.000000
# 6 0.000000 0.000000 0.000000 -0.008097 0.000000 0.055286
#
#
# Mechanical properties :
#
#
# Convention : Reuss Voigt Hill
#
# Bulk Modulus (GPa) = 36.22159 41.69668 38.95913
# Shear Modulus (GPa) = 36.48309 78.28860 57.38585
#
# Velocity S-wave (km/s) = 3.97080 5.81676 4.98006
# Velocity P-wave (km/s) = 6.05617 7.94565 7.06437
#
# Compressibility (1/GPa) = 0.02760785
#
# Stress axis : x y z
#
# Youngs Moduli (GPa) = 103.47136 65.11688 106.26342
#
# Poissons Ratio (x) = 0.04809 0.22588
# Poissons Ratio (y) = 0.07641 0.05823
# Poissons Ratio (z) = 0.21995 0.03568
#
# Static dielectric constant tensor:
#      x y z
#    x 1.970340 0.000000 -0.019280 
#    y 0.000000 1.825750 0.000000 
#    z -0.019280 0.000000 1.916650 
# 
# From -- ./inp_files/143017.got.cif
#   From: 2010.05.17/outbox.cif.g08.bks.cpg/sg12_72_cif.got.tgz:143017.got - 2010.06.03 13:09:07.
