data_PCOD9176093
_publ_section_title
;
Structure prediction by ZEFSAII (Michael W. Deem and Ramdas Pophale) SiO2 
 PCOD9176093
Probable space group: C 2/M
;
_chemical_formula_sum "Si O2"
_cell_formula_units_Z 42
_cell_length_a 8.253549
_cell_length_b 31.648770
_cell_length_c 10.186475
_cell_angle_alpha 90.000000
_cell_angle_beta 46.775760
_cell_angle_gamma 90.000000
_cell_volume 1938.910306
_symmetry_space_group_name_H-M "C 2/M"
_symmetry_group_IT_number 12
_symmetry_cell_setting 'monoclinic'
loop_
_space_group_symop_operation_xyz
x,y,z
-x,y,-z
-x,-y,-z
x,-y,z
1/2+x,1/2+y,z
1/2-x,1/2+y,-z
1/2-x,1/2-y,-z
1/2+x,1/2-y,z
loop_
_atom_site_type_symbol
_atom_site_label
_atom_site_fract_x
_atom_site_fract_y
_atom_site_fract_z
Si Si1 0.698009 0.209526 0.285306
Si Si2 0.307915 0.388836 0.700960
Si Si3 0.500000 0.000000 0.500000
Si Si4 0.141194 0.876760 0.723158
Si Si5 0.404507 0.802215 0.193579
Si Si6 0.002257 0.583247 0.674696
O O1 0.500000 0.208527 0.500000
O O2 0.863797 0.172420 0.237093
O O3 0.589371 0.199819 0.204614
O O4 0.803450 0.255631 0.234973
O O5 0.500000 0.407186 0.500000
O O6 0.409910 0.391424 0.789371
O O7 0.270573 0.339498 0.685285
O O8 0.084112 0.411585 0.777883
O O9 0.524784 0.037407 0.598888
O O10 0.327041 0.886738 0.505644
O O11 0.253582 0.900593 0.783143
O O12 0.500000 0.814236 0.000000
#
# Coordination Sequence:
#
# PCOD9176093 Si02
#       6
#     8   8   2   8   8   8
#     4  12  20  37  55  75 104 152 203 237 276 331
#     4  10  18  34  55  76 104 151 189 226 268 336
#     4   8  16  28  54  84 122 140 164 236 300 328
#     4   9  16  30  52  74 101 140 185 225 263 322
#     4  12  25  36  50  80 117 148 192 248 286 322
#     4   9  16  32  50  83 115 136 177 225 290 327
#
# _framework density 21.661650999999999
#
# number of rings (size 3 to 8) (size 9 to 14) (size 15 to 20)
#    0.000    1.905    3.810    4.000    0.000    0.000 
#    0.000   11.905    0.000    0.000    0.000    0.667 
#    0.000   13.714    0.000    0.000    0.000    0.000 
#
# Total GULP energy -116919.134887 kJ/mol
# GULP energy per Si atom -5567.577852 kJ/mol
# Density = 2.161235 g / cm^3
# Si number density = 21.661651 Si / 1000 Ang^3
#
#
#
# Elastic Constant Matrix: (Units=GPa)
#
#
# Indices 1 2 3 4 5 6 
#
# 1 207.8849 46.5370 29.5785 0.0000 46.0451 0.0000
# 2 46.5370 108.8664 5.9349 0.0000 2.8406 0.0000
# 3 29.5785 5.9349 52.4112 0.0000 12.9374 0.0000
# 4 0.0000 0.0000 0.0000 -7.4961 0.0000 3.8986
# 5 46.0451 2.8406 12.9374 0.0000 26.3866 0.0000
# 6 0.0000 0.0000 0.0000 3.8986 0.0000 10.1887
#
#
#
# Elastic Compliance Matrix: (Units=1/GPa)
#
#
# Indices 1 2 3 4 5 6 
#
# 1 0.009009 -0.003407 -0.001033 0.000000 -0.014847 0.000000
# 2 -0.003407 0.010538 -0.000521 0.000000 0.005067 0.000000
# 3 -0.001033 -0.000521 0.021916 0.000000 -0.008886 0.000000
# 4 0.000000 0.000000 0.000000 -0.111261 0.000000 0.042573
# 5 -0.014847 0.005067 -0.008886 0.000000 0.067617 0.000000
# 6 0.000000 0.000000 0.000000 0.042573 0.000000 0.081858
#
#
# Mechanical properties :
#
#
# Convention : Reuss Voigt Hill
#
# Bulk Modulus (GPa) = 31.70686 59.25149 45.47917
# Shear Modulus (GPa) = 49.94381 24.95664 37.45022
#
# Velocity S-wave (km/s) = 4.80691 3.39796 4.16248
# Velocity P-wave (km/s) = 6.74371 6.54274 6.64398
#
# Compressibility (1/GPa) = 0.03153892
#
# Stress axis : x y z
#
# Youngs Moduli (GPa) = 111.00590 94.89265 45.62980
#
# Poissons Ratio (x) = 0.32331 0.04715
# Poissons Ratio (y) = 0.37821 0.02378
# Poissons Ratio (z) = 0.11471 0.04945
#
# Static dielectric constant tensor:
#      x y z
#    x 1.879680 0.000000 -0.010800 
#    y 0.000000 1.751530 0.000000 
#    z -0.010800 0.000000 1.907730 
# 
# From -- ./inp_files/42065.got.cif
#   From: 2010.05.17/outbox.cif.g08.bks.cpg/sg12_22_cif.got.tgz:42065.got - 2010.06.03 13:09:07.
