data_PCOD9176511
_publ_section_title
;
Structure prediction by ZEFSAII (Michael W. Deem and Ramdas Pophale) SiO2 
 PCOD9176511
Probable space group: C 2/M
;
_chemical_formula_sum "Si O2"
_cell_formula_units_Z 56
_cell_length_a 14.550897
_cell_length_b 19.232668
_cell_length_c 11.503029
_cell_angle_alpha 90.000000
_cell_angle_beta 104.095704
_cell_angle_gamma 90.000000
_cell_volume 3122.224464
_symmetry_space_group_name_H-M "C 2/M"
_symmetry_group_IT_number 12
_symmetry_cell_setting 'monoclinic'
loop_
_space_group_symop_operation_xyz
x,y,z
-x,y,-z
-x,-y,-z
x,-y,z
1/2+x,1/2+y,z
1/2-x,1/2+y,-z
1/2-x,1/2-y,-z
1/2+x,1/2-y,z
loop_
_atom_site_type_symbol
_atom_site_label
_atom_site_fract_x
_atom_site_fract_y
_atom_site_fract_z
Si Si1 0.251894 0.224981 0.633471
Si Si2 0.234626 0.078396 0.726865
Si Si3 0.893404 0.075246 0.920228
Si Si4 0.642640 0.236838 0.827615
Si Si5 0.563923 0.699174 0.234139
Si Si6 0.988784 0.076339 0.358583
Si Si7 0.262240 0.136032 0.971289
O O1 0.250000 0.250000 0.500000
O O2 0.246244 0.141589 0.640969
O O3 0.174492 0.258818 0.700447
O O4 0.353486 0.248021 0.712676
O O5 0.120758 0.080468 0.715136
O O6 0.292656 0.097250 0.862034
O O7 0.256031 0.000000 0.693794
O O8 0.896670 0.147760 0.852638
O O9 0.873000 0.000000 0.857142
O O10 0.814308 0.086226 0.992707
O O11 0.000000 0.070882 0.000000
O O12 0.534435 0.260348 0.814985
O O13 0.706566 0.297308 0.903803
O O14 0.667862 0.166901 0.908122
O O15 0.542574 0.642695 0.327239
O O16 0.000000 0.077513 0.500000
O O17 0.023252 0.000000 0.330389
#
# Coordination Sequence:
#
# PCOD9176511 Si02
#       7
#     8   8   8   8   8   8   8
#     4  11  23  38  59  86 112 151 196 238 287 341
#     4  10  20  38  59  82 116 153 189 234 288 346
#     4  11  20  30  50  84 119 151 183 220 283 356
#     4  10  21  35  54  81 115 146 191 235 281 334
#     4  12  21  34  55  80 117 145 188 236 281 337
#     4  10  19  32  52  79 113 149 182 226 287 347
#     4  10  18  35  53  79 116 151 188 228 277 340
#
# _framework density 17.935932000000001
#
# number of rings (size 3 to 8) (size 9 to 14) (size 15 to 20)
#    0.000    1.429    5.714    1.714    0.000    2.286 
#    0.000    0.714    0.000    2.571    0.000    1.000 
#    0.000    0.000    0.000    0.000    0.000    0.000 
#
# Total GULP energy -155895.165817 kJ/mol
# GULP energy per Si atom -5567.684493 kJ/mol
# Density = 1.789511 g / cm^3
# Si number density = 17.935932 Si / 1000 Ang^3
#
#
#
# Elastic Constant Matrix: (Units=GPa)
#
#
# Indices 1 2 3 4 5 6 
#
# 1 37.5037 23.8018 13.6321 0.0000 -4.4285 0.0000
# 2 23.8018 96.1398 28.4299 0.0000 -10.6507 0.0000
# 3 13.6321 28.4299 77.5232 0.0000 -16.2382 0.0000
# 4 0.0000 0.0000 0.0000 32.3455 0.0000 5.0047
# 5 -4.4285 -10.6507 -16.2382 0.0000 18.4177 0.0000
# 6 0.0000 0.0000 0.0000 5.0047 0.0000 26.4666
#
#
#
# Elastic Compliance Matrix: (Units=1/GPa)
#
#
# Indices 1 2 3 4 5 6 
#
# 1 0.032298 -0.007020 -0.002856 0.000000 0.001188 0.000000
# 2 -0.007020 0.013396 -0.002955 0.000000 0.003454 0.000000
# 3 -0.002856 -0.002955 0.017151 0.000000 0.012726 0.000000
# 4 0.000000 0.000000 0.000000 0.031848 0.000000 -0.006022
# 5 0.001188 0.003454 0.012726 0.000000 0.067798 0.000000
# 6 0.000000 0.000000 0.000000 -0.006022 0.000000 0.038922
#
#
# Mechanical properties :
#
#
# Convention : Reuss Voigt Hill
#
# Bulk Modulus (GPa) = 26.89422 38.09936 32.49679
# Shear Modulus (GPa) = 20.87955 25.13281 23.00618
#
# Velocity S-wave (km/s) = 3.41562 3.74739 3.58535
# Velocity P-wave (km/s) = 5.53014 6.32550 5.94115
#
# Compressibility (1/GPa) = 0.03718271
#
# Stress axis : x y z
#
# Youngs Moduli (GPa) = 30.96192 74.65006 58.30643
#
# Poissons Ratio (x) = 0.52403 0.16653
# Poissons Ratio (y) = 0.21735 0.17229
# Poissons Ratio (z) = 0.08843 0.22058
#
# Static dielectric constant tensor:
#      x y z
#    x 1.617880 0.000000 -0.047670 
#    y 0.000000 1.661730 0.000000 
#    z -0.047670 0.000000 1.695320 
# 
# From -- ./inp_files/145656.got.cif
#   From: 2010.05.17/outbox.cif.g08.bks.cpg/sg12_73_cif.got.tgz:145656.got - 2010.06.03 13:09:07.
