data_PCOD9176440
_publ_section_title
;
Structure prediction by ZEFSAII (Michael W. Deem and Ramdas Pophale) SiO2 
 PCOD9176440
Probable space group: C 2/M
;
_chemical_formula_sum "Si O2"
_cell_formula_units_Z 44
_cell_length_a 11.329099
_cell_length_b 11.178798
_cell_length_c 19.704828
_cell_angle_alpha 90.000000
_cell_angle_beta 46.469332
_cell_angle_gamma 90.000000
_cell_volume 1809.275165
_symmetry_space_group_name_H-M "C 2/M"
_symmetry_group_IT_number 12
_symmetry_cell_setting 'monoclinic'
loop_
_space_group_symop_operation_xyz
x,y,z
-x,y,-z
-x,-y,-z
x,-y,z
1/2+x,1/2+y,z
1/2-x,1/2+y,-z
1/2-x,1/2-y,-z
1/2+x,1/2-y,z
loop_
_atom_site_type_symbol
_atom_site_label
_atom_site_fract_x
_atom_site_fract_y
_atom_site_fract_z
Si Si1 0.745111 0.625781 0.421641
Si Si2 0.690130 0.500000 0.941343
Si Si3 0.500000 0.187064 0.500000
Si Si4 0.879506 0.629044 0.688915
Si Si5 0.804739 0.500000 0.056779
Si Si6 0.828670 0.255368 0.893640
Si Si7 0.808475 0.360906 0.239282
O O1 0.682738 0.500000 0.475107
O O2 0.629325 0.731672 0.489021
O O3 0.738478 0.624744 0.342857
O O4 0.935179 0.630824 0.359937
O O5 0.752795 0.373080 0.889286
O O6 0.500000 0.500000 0.000000
O O7 0.758322 0.500000 0.993459
O O8 0.395822 0.126156 0.600065
O O9 0.803389 0.500000 0.738173
O O10 0.803445 0.753374 0.743814
O O11 0.721003 0.624246 0.114921
O O12 0.000000 0.500000 0.000000
O O13 0.016409 0.294286 0.826594
O O14 0.750000 0.250000 0.000000
O O15 0.822045 0.500000 0.208114
#
# Coordination Sequence:
#
# PCOD9176440 Si02
#       7
#     8   4   4   8   4   8   8
#     4   9  19  36  56  87 116 156 197 239 290 354
#     4  10  20  40  64  90 116 157 210 257 298 366
#     4  10  18  34  62  84 119 152 189 242 289 356
#     4  10  21  37  58  89 121 152 193 240 298 353
#     4  10  22  40  60  92 126 153 196 263 322 360
#     4  10  21  40  61  87 119 158 208 254 306 367
#     4  10  21  41  59  82 120 157 200 246 295 355
#
# _framework density 24.319130999999999
#
# number of rings (size 3 to 8) (size 9 to 14) (size 15 to 20)
#    0.000    2.182    0.909    1.636    1.273    0.727 
#   13.091    4.545    0.000    0.000    0.000    0.000 
#    0.000    0.000    0.000    0.000    0.000    0.000 
#
# Total GULP energy -122613.988666 kJ/mol
# GULP energy per Si atom -5573.363121 kJ/mol
# Density = 2.426378 g / cm^3
# Si number density = 24.319131 Si / 1000 Ang^3
#
#
#
# Elastic Constant Matrix: (Units=GPa)
#
#
# Indices 1 2 3 4 5 6 
#
# 1 91.2261 68.0565 14.7749 0.0000 -17.2788 0.0000
# 2 68.0565 300.7825 60.3279 0.0000 -19.7570 0.0000
# 3 14.7749 60.3279 63.2523 0.0000 -5.3172 0.0000
# 4 0.0000 0.0000 0.0000 191.9708 0.0000 -66.1247
# 5 -17.2788 -19.7570 -5.3172 0.0000 50.0079 0.0000
# 6 0.0000 0.0000 0.0000 -66.1247 0.0000 55.4208
#
#
#
# Elastic Compliance Matrix: (Units=1/GPa)
#
#
# Indices 1 2 3 4 5 6 
#
# 1 0.013803 -0.002843 -0.000208 0.000000 0.003624 0.000000
# 2 -0.002843 0.004772 -0.003845 0.000000 0.000494 0.000000
# 3 -0.000208 -0.003845 0.019567 0.000000 0.000490 0.000000
# 4 0.000000 0.000000 0.000000 0.008844 0.000000 0.010552
# 5 0.003624 0.000494 0.000490 0.000000 0.021496 0.000000
# 6 0.000000 0.000000 0.000000 0.010552 0.000000 0.030633
#
#
# Mechanical properties :
#
#
# Convention : Reuss Voigt Hill
#
# Bulk Modulus (GPa) = 41.06972 82.39773 61.73373
# Shear Modulus (GPa) = 41.31402 80.28667 60.80034
#
# Velocity S-wave (km/s) = 4.12616 5.75200 5.00553
# Velocity P-wave (km/s) = 6.29482 8.83569 7.67118
#
# Compressibility (1/GPa) = 0.02434884
#
# Stress axis : x y z
#
# Youngs Moduli (GPa) = 72.44769 209.56633 51.10653
#
# Poissons Ratio (x) = 0.59590 0.01061
# Poissons Ratio (y) = 0.20600 0.19653
# Poissons Ratio (z) = 0.01504 0.80587
#
# Static dielectric constant tensor:
#      x y z
#    x 8.839260 0.000000 3.870930 
#    y 0.000000 1.993000 0.000000 
#    z 3.870930 0.000000 4.086370 
# 
# From -- ./inp_files/335548.got.cif
#   From: 2010.05.17/outbox.cif.g08.bks.cpg/sg12_168_cif.got.tgz:335548.got - 2010.06.03 13:09:07.
