data_PCOD9176185
_publ_section_title
;
Structure prediction by ZEFSAII (Michael W. Deem and Ramdas Pophale) SiO2 
 PCOD9176185
Probable space group: C 2/M
;
_chemical_formula_sum "Si O2"
_cell_formula_units_Z 64
_cell_length_a 25.977851
_cell_length_b 7.554755
_cell_length_c 14.508272
_cell_angle_alpha 90.000000
_cell_angle_beta 79.711919
_cell_angle_gamma 90.000000
_cell_volume 2801.560853
_symmetry_space_group_name_H-M "C 2/M"
_symmetry_group_IT_number 12
_symmetry_cell_setting 'monoclinic'
loop_
_space_group_symop_operation_xyz
x,y,z
-x,y,-z
-x,-y,-z
x,-y,z
1/2+x,1/2+y,z
1/2-x,1/2+y,-z
1/2-x,1/2-y,-z
1/2+x,1/2-y,z
loop_
_atom_site_type_symbol
_atom_site_label
_atom_site_fract_x
_atom_site_fract_y
_atom_site_fract_z
Si Si1 0.960218 0.207572 0.671091
Si Si2 0.637342 0.794934 0.423937
Si Si3 0.575959 0.785584 0.614082
Si Si4 0.356036 0.793464 0.912831
Si Si5 0.793061 0.717888 0.757218
Si Si6 0.032030 0.297626 0.118449
Si Si7 0.689321 0.293252 0.887597
Si Si8 0.919061 0.285586 0.175893
O O1 0.913638 0.286497 0.625864
O O2 0.964912 0.295345 0.770407
O O3 0.017044 0.231043 0.607125
O O4 0.950079 0.000000 0.687492
O O5 0.618061 0.717512 0.527007
O O6 0.684621 0.719634 0.347786
O O7 0.650254 0.000000 0.437466
O O8 0.584777 0.726989 0.716346
O O9 0.577172 0.000000 0.612518
O O10 0.332177 0.721898 0.826201
O O11 0.412087 0.714958 0.925435
O O12 0.366519 0.000000 0.891542
O O13 0.315117 0.784160 0.008824
O O14 0.794017 0.500000 0.754918
O O15 0.735608 0.775390 0.807577
O O16 0.031567 0.500000 0.083857
O O17 0.974587 0.220790 0.116560
O O18 0.699307 0.500000 0.897142
O O19 0.633102 0.266473 0.859352
O O20 0.922111 0.500000 0.174396
#
# Coordination Sequence:
#
# PCOD9176185 Si02
#       8
#     8   8   8   8   8   8   8   8
#     4  11  20  29  47  80 120 147 167 209 273 330
#     4  10  18  34  57  78 103 140 186 226 259 310
#     4   9  19  34  56  79 102 141 188 224 257 308
#     4  10  19  36  61  83 104 135 178 230 273 314
#     4   9  19  36  58  81 107 139 181 224 267 317
#     4   9  18  35  59  81 105 141 185 223 262 314
#     4  11  23  37  54  79 109 145 180 219 274 329
#     4   9  19  37  56  78 106 140 184 225 261 311
#
# _framework density 22.844407
#
# number of rings (size 3 to 8) (size 9 to 14) (size 15 to 20)
#    0.000    2.250    1.250    3.000    0.000    5.000 
#    0.000    5.000    0.000    0.000    0.000    0.000 
#    0.000    0.000    0.000    0.000    0.000    0.000 
#
# Total GULP energy -178726.147710 kJ/mol
# GULP energy per Si atom -5585.192116 kJ/mol
# Density = 2.279241 g / cm^3
# Si number density = 22.844407 Si / 1000 Ang^3
#
#
#
# Elastic Constant Matrix: (Units=GPa)
#
#
# Indices 1 2 3 4 5 6 
#
# 1 91.7773 -0.8851 37.5214 0.0000 -32.8812 0.0000
# 2 -0.8851 64.9104 -2.5082 0.0000 -3.1361 0.0000
# 3 37.5214 -2.5082 113.6855 0.0000 -40.4009 0.0000
# 4 0.0000 0.0000 0.0000 17.3661 0.0000 15.7143
# 5 -32.8812 -3.1361 -40.4009 0.0000 43.1125 0.0000
# 6 0.0000 0.0000 0.0000 15.7143 0.0000 53.7973
#
#
#
# Elastic Compliance Matrix: (Units=1/GPa)
#
#
# Indices 1 2 3 4 5 6 
#
# 1 0.015155 0.000659 -0.001293 0.000000 0.010394 0.000000
# 2 0.000659 0.015583 0.001061 0.000000 0.002630 0.000000
# 3 -0.001293 0.001061 0.013379 0.000000 0.011628 0.000000
# 4 0.000000 0.000000 0.000000 0.078272 0.000000 -0.022863
# 5 0.010394 0.002630 0.011628 0.000000 0.042211 0.000000
# 6 0.000000 0.000000 0.000000 -0.022863 0.000000 0.025267
#
#
# Mechanical properties :
#
#
# Convention : Reuss Voigt Hill
#
# Bulk Modulus (GPa) = 22.23705 37.62548 29.93126
# Shear Modulus (GPa) = 24.50940 38.60487 31.55713
#
# Velocity S-wave (km/s) = 3.27904 4.11530 3.72074
# Velocity P-wave (km/s) = 4.90830 6.25196 5.62043
#
# Compressibility (1/GPa) = 0.04496999
#
# Stress axis : x y z
#
# Youngs Moduli (GPa) = 65.98443 64.17281 74.74504
#
# Poissons Ratio (x) = -0.04228 0.09668
# Poissons Ratio (y) = -0.04348 -0.07932
# Poissons Ratio (z) = 0.08535 -0.06810
#
# Static dielectric constant tensor:
#      x y z
#    x 1.854860 0.000000 -0.042230 
#    y 0.000000 1.903520 0.000000 
#    z -0.042230 0.000000 1.876730 
# 
# From -- ./inp_files/243839.got.cif
#   From: 2010.05.17/outbox.cif.g08.bks.cpg/sg12_122_cif.got.tgz:243839.got - 2010.06.03 13:09:07.
