data_PCOD9176528
_publ_section_title
;
Structure prediction by ZEFSAII (Michael W. Deem and Ramdas Pophale) SiO2 
 PCOD9176528
Probable space group: C 2/M
;
_chemical_formula_sum "Si O2"
_cell_formula_units_Z 64
_cell_length_a 20.210149
_cell_length_b 24.606802
_cell_length_c 9.220643
_cell_angle_alpha 90.000000
_cell_angle_beta 48.681441
_cell_angle_gamma 90.000000
_cell_volume 3443.934848
_symmetry_space_group_name_H-M "C 2/M"
_symmetry_group_IT_number 12
_symmetry_cell_setting 'monoclinic'
loop_
_space_group_symop_operation_xyz
x,y,z
-x,y,-z
-x,-y,-z
x,-y,z
1/2+x,1/2+y,z
1/2-x,1/2+y,-z
1/2-x,1/2-y,-z
1/2+x,1/2-y,z
loop_
_atom_site_type_symbol
_atom_site_label
_atom_site_fract_x
_atom_site_fract_y
_atom_site_fract_z
Si Si1 0.960666 0.058752 0.244406
Si Si2 0.263709 0.880120 0.376869
Si Si3 0.655269 0.280603 0.633586
Si Si4 0.210902 0.062480 0.712710
Si Si5 0.113725 0.131163 0.080881
Si Si6 0.650618 0.561556 0.311194
Si Si7 0.410192 0.797749 0.050791
Si Si8 0.518900 0.258044 0.303107
O O1 0.876697 0.058359 0.261831
O O2 0.927794 0.062106 0.457489
O O3 0.027555 0.107016 0.126410
O O4 0.006660 0.000000 0.161021
O O5 0.183748 0.840834 0.547374
O O6 0.283082 0.915872 0.491885
O O7 0.231197 0.917115 0.291978
O O8 0.337761 0.840351 0.207223
O O9 0.750000 0.250000 0.500000
O O10 0.615807 0.261993 0.845481
O O11 0.576889 0.264111 0.636794
O O12 0.227871 0.000000 0.739439
O O13 0.191446 0.109101 0.861422
O O14 0.131338 0.099253 0.204315
O O15 0.082683 0.190533 0.177869
O O16 0.663963 0.500000 0.243264
O O17 0.500000 0.813228 0.000000
O O18 0.430723 0.790890 0.851952
O O19 0.500000 0.252154 0.500000
#
# Coordination Sequence:
#
# PCOD9176528 Si02
#       8
#     8   8   8   8   8   8   8   8
#     4   9  17  28  42  63  95 136 176 208 238 285
#     4  10  18  35  55  73 100 135 175 214 265 320
#     4   9  18  34  54  76 103 140 180 219 266 318
#     4  10  20  31  47  72 101 134 174 218 256 301
#     4  12  20  29  46  73 107 143 174 204 251 308
#     4  10  20  32  47  70 104 143 177 212 258 311
#     4   9  20  37  57  77  99 132 173 224 278 323
#     4  11  21  34  52  78 109 139 179 223 264 314
#
# _framework density 18.583393999999998
#
# number of rings (size 3 to 8) (size 9 to 14) (size 15 to 20)
#    0.000    2.000    0.000    6.750    0.000    4.000 
#    0.000    9.375    0.000    1.500    0.000    0.000 
#    0.000    4.000    0.000    0.000    0.000    0.000 
#
# Total GULP energy -178153.623889 kJ/mol
# GULP energy per Si atom -5567.300747 kJ/mol
# Density = 1.854110 g / cm^3
# Si number density = 18.583394 Si / 1000 Ang^3
#
#
#
# Elastic Constant Matrix: (Units=GPa)
#
#
# Indices 1 2 3 4 5 6 
#
# 1 38.6809 13.2455 41.4662 0.0000 12.7095 0.0000
# 2 13.2455 57.0920 42.5391 0.0000 -2.7021 0.0000
# 3 41.4662 42.5391 130.2712 0.0000 23.4916 0.0000
# 4 0.0000 0.0000 0.0000 5.6960 0.0000 4.9254
# 5 12.7095 -2.7021 23.4916 0.0000 33.1993 0.0000
# 6 0.0000 0.0000 0.0000 4.9254 0.0000 18.8838
#
#
#
# Elastic Compliance Matrix: (Units=1/GPa)
#
#
# Indices 1 2 3 4 5 6 
#
# 1 0.040860 -0.001634 -0.011036 0.000000 -0.007966 0.000000
# 2 -0.001634 0.025391 -0.009464 0.000000 0.009389 0.000000
# 3 -0.011036 -0.009464 0.015654 0.000000 -0.007622 0.000000
# 4 0.000000 0.000000 0.000000 0.226689 0.000000 -0.059127
# 5 -0.007966 0.009389 -0.007622 0.000000 0.039328 0.000000
# 6 0.000000 0.000000 0.000000 -0.059127 0.000000 0.068377
#
#
# Mechanical properties :
#
#
# Convention : Reuss Voigt Hill
#
# Bulk Modulus (GPa) = 26.56959 46.72730 36.64845
# Shear Modulus (GPa) = 10.56829 20.14205 15.35517
#
# Velocity S-wave (km/s) = 2.38732 3.29580 2.87764
# Velocity P-wave (km/s) = 4.68269 6.29939 5.55022
#
# Compressibility (1/GPa) = 0.03763701
#
# Stress axis : x y z
#
# Youngs Moduli (GPa) = 24.47370 39.38441 63.88103
#
# Poissons Ratio (x) = 0.06435 0.70499
# Poissons Ratio (y) = 0.03998 0.60458
# Poissons Ratio (z) = 0.27009 0.37274
#
# Static dielectric constant tensor:
#      x y z
#    x 1.632080 0.000000 -0.005280 
#    y 0.000000 1.706310 0.000000 
#    z -0.005280 0.000000 1.715250 
# 
# From -- ./inp_files/90630.got.cif
#   From: 2010.05.17/outbox.cif.g08.bks.cpg/sg12_46_cif.got.tgz:90630.got - 2010.06.03 13:09:07.
