data_PCOD9176558
_publ_section_title
;
Structure prediction by ZEFSAII (Michael W. Deem and Ramdas Pophale) SiO2 
 PCOD9176558
Probable space group: C 2/M
;
_chemical_formula_sum "Si O2"
_cell_formula_units_Z 48
_cell_length_a 20.506660
_cell_length_b 24.096180
_cell_length_c 10.364870
_cell_angle_alpha 90.000000
_cell_angle_beta 29.566966
_cell_angle_gamma 90.000000
_cell_volume 2527.212491
_symmetry_space_group_name_H-M "C 2/M"
_symmetry_group_IT_number 12
_symmetry_cell_setting 'monoclinic'
loop_
_space_group_symop_operation_xyz
x,y,z
-x,y,-z
-x,-y,-z
x,-y,z
1/2+x,1/2+y,z
1/2-x,1/2+y,-z
1/2-x,1/2-y,-z
1/2+x,1/2-y,z
loop_
_atom_site_type_symbol
_atom_site_label
_atom_site_fract_x
_atom_site_fract_y
_atom_site_fract_z
Si Si1 0.000000 0.656482 0.000000
Si Si2 0.483511 0.500000 0.378667
Si Si3 0.353019 0.744808 0.115365
Si Si4 0.000000 0.846577 0.000000
Si Si5 0.368669 0.500000 0.133840
Si Si6 0.860119 0.108215 0.485860
Si Si7 0.070139 0.224243 0.518473
Si Si8 0.158752 0.435879 0.635270
O O1 0.109142 0.698890 0.871818
O O2 0.055072 0.613814 0.795003
O O3 0.500000 0.500000 0.500000
O O4 0.405574 0.555224 0.483020
O O5 0.598549 0.500000 0.072685
O O6 0.205664 0.742205 0.312001
O O7 0.380240 0.694571 0.167532
O O8 0.461494 0.738439 0.814876
O O9 0.957551 0.880156 0.197737
O O10 0.277433 0.447052 0.329929
O O11 0.500000 0.500000 0.000000
O O12 0.876331 0.161815 0.547244
O O13 0.726211 0.087614 0.648934
O O14 0.000000 0.230139 0.500000
O O15 0.110051 0.500000 0.732294
#
# Coordination Sequence:
#
# PCOD9176558 Si02
#       8
#     4   4   8   4   4   8   8   8
#     4  11  21  38  61  93 120 155 203 266 314 366
#     4  12  22  36  56  92 128 166 203 249 298 381
#     4  10  23  38  63  88 121 155 211 260 315 366
#     4   9  22  33  59  91 121 148 203 264 318 352
#     4  10  18  35  56  85 125 158 199 256 304 361
#     4  11  19  35  57  86 119 158 196 252 306 360
#     4  11  23  41  58  84 123 169 204 251 309 386
#     4  10  20  33  60  85 124 156 197 252 316 362
#
# _framework density 18.993258999999998
#
# number of rings (size 3 to 8) (size 9 to 14) (size 15 to 20)
#    0.500    1.000    4.167    2.250    2.333    2.000 
#    0.000    0.000    0.000    0.000    0.000    1.167 
#    0.000    0.000    0.000    0.083    0.000    0.000 
#
# Total GULP energy -133617.485784 kJ/mol
# GULP energy per Si atom -5567.395241 kJ/mol
# Density = 1.895003 g / cm^3
# Si number density = 18.993259 Si / 1000 Ang^3
#
#
#
# Elastic Constant Matrix: (Units=GPa)
#
#
# Indices 1 2 3 4 5 6 
#
# 1 102.5838 7.2225 19.0406 -0.0022 -2.7836 0.0110
# 2 7.2225 51.3521 -23.7103 0.0008 1.1068 0.0010
# 3 19.0406 -23.7103 68.4301 -0.0071 -4.2689 0.0176
# 4 -0.0022 0.0008 -0.0071 -136.4830 -0.0223 561.2280
# 5 -2.7836 1.1068 -4.2689 -0.0223 27.5731 0.0861
# 6 0.0110 0.0010 0.0176 561.2280 0.0861-2097.0032
#
#
#
# Elastic Compliance Matrix: (Units=1/GPa)
#
#
# Indices 1 2 3 4 5 6 
#
# 1 0.010778 -0.003448 -0.004157 -0.000001 0.000583 0.000000
# 2 -0.003448 0.024288 0.009383 0.000000 0.000130 0.000000
# 3 -0.004157 0.009383 0.019157 0.000003 0.002170 0.000001
# 4 -0.000001 0.000000 0.000003 0.072884 -0.000002 0.019506
# 5 0.000583 0.000130 0.002170 -0.000002 0.036657 0.000001
# 6 0.000000 0.000000 0.000001 0.019506 0.000001 0.004744
#
#
# Mechanical properties :
#
#
# Convention : Reuss Voigt Hill
#
# Bulk Modulus (GPa) = 17.30761 25.27460 21.29110
# Shear Modulus (GPa) = 27.14265 -426.52839 -199.69287
#
# Velocity S-wave (km/s) = 3.78440 -15.00186 -10.26485
# Velocity P-wave (km/s) = 5.31299 16.93335 11.36905
#
# Compressibility (1/GPa) = 0.05777807
#
# Stress axis : x y z
#
# Youngs Moduli (GPa) = 92.77843 41.17274 52.20100
#
# Poissons Ratio (x) = 0.14197 0.21702
# Poissons Ratio (y) = 0.31991 -0.48980
# Poissons Ratio (z) = 0.38572 -0.38633
#
# Static dielectric constant tensor:
#      x y z
#    x 1.590960 0.000000 -0.052010 
#    y 0.000000 1.710870 0.000000 
#    z -0.052010 0.000000 1.772260 
# 
# From -- ./inp_files/170139.got.cif
#   From: 2010.05.17/outbox.cif.g08.bks.cpg/sg12_86_cif.got.tgz:170139.got - 2010.06.03 13:09:07.
