data_PCOD9176435
_publ_section_title
;
Structure prediction by ZEFSAII (Michael W. Deem and Ramdas Pophale) SiO2 
 PCOD9176435
Probable space group: C 2/M
;
_chemical_formula_sum "Si O2"
_cell_formula_units_Z 64
_cell_length_a 29.917470
_cell_length_b 14.409591
_cell_length_c 9.055997
_cell_angle_alpha 90.000000
_cell_angle_beta 132.007539
_cell_angle_gamma 90.000000
_cell_volume 2900.913548
_symmetry_space_group_name_H-M "C 2/M"
_symmetry_group_IT_number 12
_symmetry_cell_setting 'monoclinic'
loop_
_space_group_symop_operation_xyz
x,y,z
-x,y,-z
-x,-y,-z
x,-y,z
1/2+x,1/2+y,z
1/2-x,1/2+y,-z
1/2-x,1/2-y,-z
1/2+x,1/2-y,z
loop_
_atom_site_type_symbol
_atom_site_label
_atom_site_fract_x
_atom_site_fract_y
_atom_site_fract_z
Si Si1 0.887654 0.895765 0.290537
Si Si2 0.126326 0.600735 0.628606
Si Si3 0.076163 0.216951 0.366930
Si Si4 0.556480 0.299089 0.847903
Si Si5 0.947647 0.399827 0.259833
Si Si6 0.842142 0.786029 0.730123
Si Si7 0.734164 0.109515 0.324613
Si Si8 0.247473 0.860224 0.986586
O O1 0.888534 0.858856 0.459253
O O2 0.932261 0.830411 0.295516
O O3 0.817226 0.890756 0.096465
O O4 0.909636 0.000000 0.325360
O O5 0.107151 0.500000 0.528158
O O6 0.089789 0.684913 0.477613
O O7 0.111504 0.602475 0.770084
O O8 0.198070 0.608674 0.786786
O O9 0.106652 0.232003 0.278350
O O10 0.007871 0.179754 0.223501
O O11 0.554689 0.187640 0.848091
O O12 0.617337 0.335347 0.056622
O O13 0.953087 0.500000 0.198719
O O14 0.000000 0.392759 0.500000
O O15 0.792284 0.851439 0.543548
O O16 0.813994 0.689806 0.732280
O O17 0.744409 0.113423 0.168919
O O18 0.721232 0.000000 0.331371
O O19 0.250000 0.750000 0.000000
#
# Coordination Sequence:
#
# PCOD9176435 Si02
#       8
#     8   8   8   8   8   8   8   8
#     4  12  25  43  69  99 132 173 227 288 346 404
#     4  11  21  35  62  98 132 168 215 278 346 407
#     4  12  24  44  65  95 137 180 224 283 338 403
#     4  12  24  43  66  97 136 178 228 284 336 401
#     4  10  18  34  61  93 129 172 219 273 340 405
#     4  11  26  44  68  99 133 184 232 277 333 421
#     4  11  24  46  70  96 139 187 227 284 351 411
#     4  12  21  41  71 104 137 172 225 286 353 412
#
# _framework density 22.062014999999999
#
# number of rings (size 3 to 8) (size 9 to 14) (size 15 to 20)
#    0.000    0.625    5.000    3.375    0.000    4.500 
#    0.000    0.000    0.000    4.500    0.000    0.000 
#    0.000    0.000    0.000    0.000    0.000    0.000 
#
# Total GULP energy -178532.897161 kJ/mol
# GULP energy per Si atom -5579.153036 kJ/mol
# Density = 2.201180 g / cm^3
# Si number density = 22.062015 Si / 1000 Ang^3
#
#
#
# Elastic Constant Matrix: (Units=GPa)
#
#
# Indices 1 2 3 4 5 6 
#
# 1 115.7721 4.9381 22.6299 0.0000 12.6047 0.0000
# 2 4.9381 90.7668 3.8513 0.0000 3.1527 0.0000
# 3 22.6299 3.8513 73.1416 0.0000 21.4738 0.0000
# 4 0.0000 0.0000 0.0000 -46.1939 0.0000 -34.4008
# 5 12.6047 3.1527 21.4738 0.0000 37.8619 0.0000
# 6 0.0000 0.0000 0.0000 -34.4008 0.0000 -9.1651
#
#
#
# Elastic Compliance Matrix: (Units=1/GPa)
#
#
# Indices 1 2 3 4 5 6 
#
# 1 0.009301 -0.000346 -0.002350 0.000000 -0.001735 0.000000
# 2 -0.000346 0.011071 -0.000287 0.000000 -0.000644 0.000000
# 3 -0.002350 -0.000287 0.017010 0.000000 -0.008841 0.000000
# 4 0.000000 0.000000 0.000000 0.012059 0.000000 -0.045261
# 5 -0.001735 -0.000644 -0.008841 0.000000 0.032057 0.000000
# 6 0.000000 0.000000 0.000000 -0.045261 0.000000 0.060778
#
#
# Mechanical properties :
#
#
# Convention : Reuss Voigt Hill
#
# Bulk Modulus (GPa) = 31.83153 38.05768 34.94461
# Shear Modulus (GPa) = 31.50355 13.05133 22.27744
#
# Velocity S-wave (km/s) = 3.78293 2.43487 3.18113
# Velocity P-wave (km/s) = 5.79139 5.01922 5.41908
#
# Compressibility (1/GPa) = 0.03141539
#
# Stress axis : x y z
#
# Youngs Moduli (GPa) = 107.51939 90.32926 58.78885
#
# Poissons Ratio (x) = 0.03126 0.13816
# Poissons Ratio (y) = 0.03721 0.01686
# Poissons Ratio (z) = 0.25268 0.02591
#
# Static dielectric constant tensor:
#      x y z
#    x 1.850350 0.000000 0.033490 
#    y 0.000000 1.698610 0.000000 
#    z 0.033490 0.000000 1.883140 
# 
# From -- ./inp_files/112001.got.cif
#   From: 2010.05.17/outbox.cif.g08.bks.cpg/sg12_57_cif.got.tgz:112001.got - 2010.06.03 13:09:07.
