data_PCOD9176165
_publ_section_title
;
Structure prediction by ZEFSAII (Michael W. Deem and Ramdas Pophale) SiO2 
 PCOD9176165
Probable space group: C 2/M
;
_chemical_formula_sum "Si O2"
_cell_formula_units_Z 52
_cell_length_a 20.327653
_cell_length_b 15.787442
_cell_length_c 25.781636
_cell_angle_alpha 90.000000
_cell_angle_beta 160.527806
_cell_angle_gamma 90.000000
_cell_volume 2758.094180
_symmetry_space_group_name_H-M "C 2/M"
_symmetry_group_IT_number 12
_symmetry_cell_setting 'monoclinic'
loop_
_space_group_symop_operation_xyz
x,y,z
-x,y,-z
-x,-y,-z
x,-y,z
1/2+x,1/2+y,z
1/2-x,1/2+y,-z
1/2-x,1/2-y,-z
1/2+x,1/2-y,z
loop_
_atom_site_type_symbol
_atom_site_label
_atom_site_fract_x
_atom_site_fract_y
_atom_site_fract_z
Si Si1 0.419911 0.806487 0.283985
Si Si2 0.058378 0.744300 0.820764
Si Si3 0.318071 0.090975 0.689706
Si Si4 0.312135 0.594967 0.600489
Si Si5 0.502540 0.380384 0.630848
Si Si6 0.386535 0.094004 0.857428
Si Si7 0.500000 0.252184 0.000000
O O1 0.405135 0.788677 0.211184
O O2 0.584858 0.876423 0.420409
O O3 0.507383 0.720841 0.373745
O O4 0.197212 0.808187 0.141042
O O5 0.933671 0.671034 0.755058
O O6 0.934555 0.832301 0.722418
O O7 0.250000 0.750000 0.000000
O O8 0.124831 0.088617 0.511547
O O9 0.285151 0.100240 0.726227
O O10 0.423919 0.000000 0.760663
O O11 0.318984 0.500000 0.628319
O O12 0.417704 0.591230 0.622644
O O13 0.724200 0.405815 0.782167
O O14 0.484320 0.000000 0.929845
O O15 0.494617 0.183938 0.948079
#
# Coordination Sequence:
#
# PCOD9176165 Si02
#       7
#     8   8   8   8   8   8   4
#     4  10  20  38  58  82 111 152 197 237 288 340
#     4  11  22  37  57  85 121 150 190 239 285 348
#     4  11  20  32  52  83 117 150 181 223 282 343
#     4  11  21  38  63  85 110 154 200 242 287 335
#     4  10  18  34  56  84 116 146 181 229 278 343
#     4  10  20  31  50  83 118 150 183 220 279 356
#     4  10  21  36  55  76 114 158 192 238 288 332
#
# _framework density 18.8536
#
# number of rings (size 3 to 8) (size 9 to 14) (size 15 to 20)
#    0.000    1.538    3.077    3.923    0.000    1.846 
#    0.000    4.231    0.000    0.000    0.000   14.000 
#    0.000    0.000    0.000    0.000    0.000    0.000 
#
# Total GULP energy -144776.091362 kJ/mol
# GULP energy per Si atom -5568.311206 kJ/mol
# Density = 1.881069 g / cm^3
# Si number density = 18.853600 Si / 1000 Ang^3
#
#
#
# Elastic Constant Matrix: (Units=GPa)
#
#
# Indices 1 2 3 4 5 6 
#
# 1 72.9098 40.1715 35.9912 0.0415 -5.0029 0.0270
# 2 40.1715 113.1237 50.5778 0.0984 4.7732 0.0565
# 3 35.9912 50.5778 114.8111 0.1901 -7.4743 0.0999
# 4 0.0415 0.0984 0.1901 -14.2149 -0.0262 -32.0576
# 5 -5.0029 4.7732 -7.4743 -0.0262 35.3608 -0.0128
# 6 0.0270 0.0565 0.0999 -32.0576 -0.0128 -6.7304
#
#
#
# Elastic Compliance Matrix: (Units=1/GPa)
#
#
# Indices 1 2 3 4 5 6 
#
# 1 0.018369 -0.005147 -0.003322 -0.000002 0.002591 -0.000013
# 2 -0.005147 0.012681 -0.004189 0.000005 -0.003325 0.000008
# 3 -0.003322 -0.004189 0.011765 0.000016 0.002582 0.000043
# 4 -0.000002 0.000005 0.000016 0.007221 -0.000005 -0.034396
# 5 0.002591 -0.003325 0.002582 -0.000005 0.029641 -0.000014
# 6 -0.000013 0.000008 0.000043 -0.034396 -0.000014 0.015252
#
#
# Mechanical properties :
#
#
# Convention : Reuss Voigt Hill
#
# Bulk Modulus (GPa) = 57.14969 61.59174 59.37071
# Shear Modulus (GPa) = 39.65725 14.49002 27.07363
#
# Velocity S-wave (km/s) = 4.59129 2.77529 3.79356
# Velocity P-wave (km/s) = 7.64753 6.55812 7.12368
#
# Compressibility (1/GPa) = 0.01749791
#
# Stress axis : x y z
#
# Youngs Moduli (GPa) = 54.43859 78.85773 84.99763
#
# Poissons Ratio (x) = 0.40589 0.28239
# Poissons Ratio (y) = 0.28020 0.35609
# Poissons Ratio (z) = 0.18086 0.33037
#
# Static dielectric constant tensor:
#      x y z
#    x 1.640970 0.000000 -0.001760 
#    y 0.000000 1.696990 -0.000020 
#    z -0.001760 -0.000020 1.763250 
# 
# From -- ./inp_files/366473.got.cif
#   From: 2010.05.17/outbox.cif.g08.bks.cpg/sg12_184_cif.got.tgz:366473.got - 2010.06.03 13:09:07.
