data_PCOD9176735
_publ_section_title
;
Structure prediction by ZEFSAII (Michael W. Deem and Ramdas Pophale) SiO2 
 PCOD9176735
Probable space group: C 2/M
;
_chemical_formula_sum "Si O2"
_cell_formula_units_Z 56
_cell_length_a 19.718288
_cell_length_b 16.601928
_cell_length_c 14.925056
_cell_angle_alpha 90.000000
_cell_angle_beta 32.146403
_cell_angle_gamma 90.000000
_cell_volume 2599.706318
_symmetry_space_group_name_H-M "C 2/M"
_symmetry_group_IT_number 12
_symmetry_cell_setting 'monoclinic'
loop_
_space_group_symop_operation_xyz
x,y,z
-x,y,-z
-x,-y,-z
x,-y,z
1/2+x,1/2+y,z
1/2-x,1/2+y,-z
1/2-x,1/2-y,-z
1/2+x,1/2-y,z
loop_
_atom_site_type_symbol
_atom_site_label
_atom_site_fract_x
_atom_site_fract_y
_atom_site_fract_z
Si Si1 0.064459 0.597050 0.205153
Si Si2 0.728143 0.670158 0.899122
Si Si3 0.533291 0.328639 0.279436
Si Si4 0.985839 0.000000 0.666551
Si Si5 0.178593 0.299792 0.502336
Si Si6 0.263691 0.156532 0.151373
Si Si7 0.296477 0.500000 0.721446
Si Si8 0.647484 0.407531 0.820399
O O1 0.069977 0.500000 0.210822
O O2 0.140093 0.645332 0.199510
O O3 0.921685 0.630674 0.356668
O O4 0.141305 0.624492 0.031307
O O5 0.715374 0.750301 0.852543
O O6 0.701437 0.598657 0.860925
O O7 0.628352 0.690211 0.090711
O O8 0.492707 0.419537 0.302495
O O9 0.418251 0.268752 0.427021
O O10 0.621349 0.337416 0.268514
O O11 0.849135 0.000000 0.766616
O O12 0.086679 0.000000 0.475121
O O13 0.250000 0.250000 0.500000
O O14 0.278350 0.345672 0.327021
O O15 0.270582 0.085807 0.216072
O O16 0.657549 0.500000 0.776551
O O17 0.500000 0.386069 0.000000
#
# Coordination Sequence:
#
# PCOD9176735 Si02
#       8
#     8   8   8   4   8   8   4   8
#     4  11  21  39  66 100 132 169 223 277 333 397
#     4  11  21  39  69  99 134 170 216 268 336 397
#     4  10  20  38  61  94 124 167 216 262 311 392
#     4   9  20  32  54  87 127 162 210 250 308 366
#     4  12  25  45  64  88 127 172 222 267 326 398
#     4  10  18  35  62  96 131 168 212 263 328 388
#     4   9  18  32  54  89 132 170 199 263 318 367
#     4  11  27  47  67  95 130 174 221 276 336 395
#
# _framework density 21.540894999999999
#
# number of rings (size 3 to 8) (size 9 to 14) (size 15 to 20)
#    0.000    1.429    3.571    2.571    6.000    0.571 
#    2.571    1.429    0.000    0.000    0.000    3.000 
#    0.000    0.000    0.000    0.000    0.000    0.000 
#
# Total GULP energy -156015.534410 kJ/mol
# GULP energy per Si atom -5571.983372 kJ/mol
# Density = 2.149187 g / cm^3
# Si number density = 21.540895 Si / 1000 Ang^3
#
#
#
# Elastic Constant Matrix: (Units=GPa)
#
#
# Indices 1 2 3 4 5 6 
#
# 1 44.1807 4.7615 37.9208 0.0000 -10.8215 0.0000
# 2 4.7615 176.4642 63.1524 0.0000 -8.0921 0.0000
# 3 37.9208 63.1524 114.5374 0.0000 -20.9289 0.0000
# 4 0.0000 0.0000 0.0000 44.9071 0.0000 -1.8105
# 5 -10.8215 -8.0921 -20.9289 0.0000 15.1810 0.0000
# 6 0.0000 0.0000 0.0000 -1.8105 0.0000 21.1474
#
#
#
# Elastic Compliance Matrix: (Units=1/GPa)
#
#
# Indices 1 2 3 4 5 6 
#
# 1 0.034844 0.003709 -0.011605 0.000000 0.010817 0.000000
# 2 0.003709 0.007507 -0.005551 0.000000 -0.001008 0.000000
# 3 -0.011605 -0.005551 0.018155 0.000000 0.013797 0.000000
# 4 0.000000 0.000000 0.000000 0.022345 0.000000 0.001913
# 5 0.010817 -0.001008 0.013797 0.000000 0.092067 0.000000
# 6 0.000000 0.000000 0.000000 0.001913 0.000000 0.047451
#
#
# Mechanical properties :
#
#
# Convention : Reuss Voigt Hill
#
# Bulk Modulus (GPa) = 29.75108 60.76129 45.25619
# Shear Modulus (GPa) = 19.19623 31.53694 25.36659
#
# Velocity S-wave (km/s) = 2.98846 3.83044 3.43534
# Velocity P-wave (km/s) = 5.07437 6.91605 6.06552
#
# Compressibility (1/GPa) = 0.03361223
#
# Stress axis : x y z
#
# Youngs Moduli (GPa) = 28.69901 133.20411 55.08196
#
# Poissons Ratio (x) = -0.49404 0.63921
# Poissons Ratio (y) = -0.10644 0.30578
# Poissons Ratio (z) = 0.33304 0.73946
#
# Static dielectric constant tensor:
#      x y z
#    x 1.796400 0.000000 -0.014440 
#    y 0.000000 1.929590 0.000000 
#    z -0.014440 0.000000 1.771960 
# 
# From -- ./inp_files/234690.got.cif
#   From: 2010.05.17/outbox.cif.g08.bks.cpg/sg12_118_cif.got.tgz:234690.got - 2010.06.03 13:09:07.
