data_PCOD9176674
_publ_section_title
;
Structure prediction by ZEFSAII (Michael W. Deem and Ramdas Pophale) SiO2 
 PCOD9176674
Probable space group: C 2/M
;
_chemical_formula_sum "Si O2"
_cell_formula_units_Z 52
_cell_length_a 14.196342
_cell_length_b 21.447657
_cell_length_c 14.668182
_cell_angle_alpha 90.000000
_cell_angle_beta 148.414306
_cell_angle_gamma 90.000000
_cell_volume 2339.245983
_symmetry_space_group_name_H-M "C 2/M"
_symmetry_group_IT_number 12
_symmetry_cell_setting 'monoclinic'
loop_
_space_group_symop_operation_xyz
x,y,z
-x,y,-z
-x,-y,-z
x,-y,z
1/2+x,1/2+y,z
1/2-x,1/2+y,-z
1/2-x,1/2-y,-z
1/2+x,1/2-y,z
loop_
_atom_site_type_symbol
_atom_site_label
_atom_site_fract_x
_atom_site_fract_y
_atom_site_fract_z
Si Si1 0.902334 0.500000 0.822417
Si Si2 0.806913 0.132901 0.889068
Si Si3 0.196065 0.000000 0.117938
Si Si4 0.286877 0.500000 0.077988
Si Si5 0.312006 0.366142 0.111713
Si Si6 0.386889 0.138064 0.763839
Si Si7 0.792500 0.266298 0.323885
Si Si8 0.300424 0.680353 0.565393
O O1 0.821530 0.569629 0.744517
O O2 0.000000 0.500000 0.000000
O O3 0.070503 0.500000 0.890780
O O4 0.712266 0.066655 0.786538
O O5 0.730535 0.197458 0.789594
O O6 0.818461 0.135463 0.007046
O O7 0.000000 0.129664 0.000000
O O8 0.000000 0.000000 0.000000
O O9 0.148473 0.000000 0.971680
O O10 0.345783 0.436782 0.173039
O O11 0.101918 0.354470 0.958452
O O12 0.489596 0.329039 0.286002
O O13 0.306404 0.200371 0.743806
O O14 0.326753 0.140629 0.607222
O O15 0.734660 0.317196 0.354551
O O16 0.000000 0.251728 0.500000
O O17 0.250000 0.750000 0.500000
#
# Coordination Sequence:
#
# PCOD9176674 Si02
#       8
#     4   8   4   4   8   8   8   8
#     4  10  22  47  68  96 127 164 236 290 329 393
#     4  10  18  35  60  94 126 167 204 255 323 387
#     4   8  16  30  59  93 132 156 202 253 303 399
#     4   8  18  35  65  97 122 163 203 265 321 391
#     4  10  19  40  67  93 126 165 214 257 332 397
#     4  10  24  45  67  90 127 172 216 281 336 381
#     4  11  23  41  59  93 136 169 219 268 321 398
#     4  10  22  40  59  92 126 163 214 264 316 397
#
# _framework density 22.229385000000001
#
# number of rings (size 3 to 8) (size 9 to 14) (size 15 to 20)
#    0.000    2.154    1.538    0.923    0.000    3.692 
#   16.615    1.538    0.000    0.000    0.000    0.000 
#    0.000    0.000    0.000    0.000    0.000    0.000 
#
# Total GULP energy -144796.779444 kJ/mol
# GULP energy per Si atom -5569.106902 kJ/mol
# Density = 2.217879 g / cm^3
# Si number density = 22.229385 Si / 1000 Ang^3
#
#
#
# Elastic Constant Matrix: (Units=GPa)
#
#
# Indices 1 2 3 4 5 6 
#
# 1 51.4627 28.1871 23.2843 0.0001 13.9750 0.0001
# 2 28.1871 178.9999 66.9445 0.0000 12.1429 0.0000
# 3 23.2843 66.9445 80.5176 0.0001 16.3591 0.0001
# 4 0.0001 0.0000 0.0001 129.1640 0.0001 108.7915
# 5 13.9750 12.1429 16.3591 0.0001 42.9446 0.0001
# 6 0.0001 0.0000 0.0001 108.7915 0.0001 150.9524
#
#
#
# Elastic Compliance Matrix: (Units=1/GPa)
#
#
# Indices 1 2 3 4 5 6 
#
# 1 0.023872 -0.001775 -0.004282 0.000000 -0.005635 0.000000
# 2 -0.001775 0.008243 -0.006486 0.000000 0.000718 0.000000
# 3 -0.004282 -0.006486 0.019938 0.000000 -0.004368 0.000000
# 4 0.000000 0.000000 0.000000 0.019701 0.000000 -0.014199
# 5 -0.005635 0.000718 -0.004368 0.000000 0.026580 0.000000
# 6 0.000000 0.000000 0.000000 -0.014199 0.000000 0.016858
#
#
# Mechanical properties :
#
#
# Convention : Reuss Voigt Hill
#
# Bulk Modulus (GPa) = 37.08431 60.86800 48.97616
# Shear Modulus (GPa) = 33.49673 77.44982 55.47328
#
# Velocity S-wave (km/s) = 3.88605 5.90905 5.00091
# Velocity P-wave (km/s) = 6.07075 8.60215 7.44483
#
# Compressibility (1/GPa) = 0.02696558
#
# Stress axis : x y z
#
# Youngs Moduli (GPa) = 41.89067 121.31229 50.15522
#
# Poissons Ratio (x) = 0.21536 0.21479
# Poissons Ratio (y) = 0.07437 0.32531
# Poissons Ratio (z) = 0.17939 0.78684
#
# Static dielectric constant tensor:
#      x y z
#    x 2.057870 0.000000 -0.219570 
#    y 0.000000 1.914820 0.000000 
#    z -0.219570 0.000000 2.028240 
# 
# From -- ./inp_files/216915.got.cif
#   From: 2010.05.17/outbox.cif.g08.bks.cpg/sg12_109_cif.got.tgz:216915.got - 2010.06.03 13:09:07.
