data_PCOD9176608
_publ_section_title
;
Structure prediction by ZEFSAII (Michael W. Deem and Ramdas Pophale) SiO2 
 PCOD9176608
Probable space group: C 2/M
;
_chemical_formula_sum "Si O2"
_cell_formula_units_Z 64
_cell_length_a 28.758795
_cell_length_b 7.452528
_cell_length_c 22.757854
_cell_angle_alpha 90.000000
_cell_angle_beta 36.075769
_cell_angle_gamma 90.000000
_cell_volume 2872.193389
_symmetry_space_group_name_H-M "C 2/M"
_symmetry_group_IT_number 12
_symmetry_cell_setting 'monoclinic'
loop_
_space_group_symop_operation_xyz
x,y,z
-x,y,-z
-x,-y,-z
x,-y,z
1/2+x,1/2+y,z
1/2-x,1/2+y,-z
1/2-x,1/2-y,-z
1/2+x,1/2-y,z
loop_
_atom_site_type_symbol
_atom_site_label
_atom_site_fract_x
_atom_site_fract_y
_atom_site_fract_z
Si Si1 0.150449 0.284869 0.497719
Si Si2 0.574858 0.780660 0.696224
Si Si3 0.667856 0.214193 0.715395
Si Si4 0.409161 0.780674 0.085599
Si Si5 0.189208 0.280381 0.927144
Si Si6 0.362742 0.292587 0.766509
Si Si7 0.892530 0.717061 0.869087
Si Si8 0.020619 0.705411 0.541907
O O1 0.140002 0.500000 0.510045
O O2 0.123906 0.220299 0.589148
O O3 0.240719 0.247664 0.390914
O O4 0.090819 0.213329 0.508932
O O5 0.614846 0.717779 0.715554
O O6 0.483803 0.727287 0.782826
O O7 0.575779 0.000000 0.696172
O O8 0.639536 0.280330 0.807665
O O9 0.656372 0.000000 0.728488
O O10 0.367575 0.723347 0.067759
O O11 0.408909 0.000000 0.084623
O O12 0.500000 0.725369 0.000000
O O13 0.190097 0.500000 0.926705
O O14 0.279700 0.221408 0.827122
O O15 0.156223 0.223699 0.024206
O O16 0.369563 0.500000 0.742125
O O17 0.360414 0.281358 0.839470
O O18 0.441705 0.202748 0.661755
O O19 0.890797 0.500000 0.869316
O O20 0.045450 0.500000 0.503967
O O21 0.000000 0.788650 0.500000
#
# Coordination Sequence:
#
# PCOD9176608 Si02
#       8
#     8   8   8   8   8   8   8   8
#     4  10  20  36  54  76 108 140 178 225 267 315
#     4   9  17  32  54  79 104 138 182 224 264 311
#     4  10  20  32  54  83 108 137 178 223 270 323
#     4   9  17  32  53  80 110 139 177 219 262 318
#     4   9  19  32  51  79 110 143 177 223 273 317
#     4  11  22  35  53  83 117 140 172 226 284 323
#     4  10  18  35  59  77 105 148 189 221 259 318
#     4  10  22  40  60  79 104 146 193 222 255 322
#
# _framework density 22.282620000000001
#
# number of rings (size 3 to 8) (size 9 to 14) (size 15 to 20)
#    0.000    2.250    1.250    1.875    1.750    3.750 
#    0.000    1.250    0.000    1.125    0.000    0.000 
#    0.000    0.000    0.000    0.000    0.000    0.000 
#
# Total GULP energy -178878.111680 kJ/mol
# GULP energy per Si atom -5589.940990 kJ/mol
# Density = 2.223190 g / cm^3
# Si number density = 22.282620 Si / 1000 Ang^3
#
#
#
# Elastic Constant Matrix: (Units=GPa)
#
#
# Indices 1 2 3 4 5 6 
#
# 1 140.3882 -4.0062 18.8394 -0.0505 -8.8818 -0.1161
# 2 -4.0062 65.8883 -7.6367 -0.0755 2.1924 -0.0993
# 3 18.8394 -7.6367 55.8925 -0.0930 -16.4567 -0.2003
# 4 -0.0505 -0.0755 -0.0930 -61.8419 0.0169 -62.0213
# 5 -8.8818 2.1924 -16.4567 0.0169 43.5671 0.0102
# 6 -0.1161 -0.0993 -0.2003 -62.0213 0.0102 -72.7999
#
#
#
# Elastic Compliance Matrix: (Units=1/GPa)
#
#
# Indices 1 2 3 4 5 6 
#
# 1 0.007478 0.000166 -0.002308 0.000021 0.000644 -0.000024
# 2 0.000166 0.015425 0.002062 0.000034 0.000037 -0.000056
# 3 -0.002308 0.002062 0.021132 0.000179 0.007408 -0.000209
# 4 0.000021 0.000034 0.000179 -0.111069 0.000091 0.094624
# 5 0.000644 0.000037 0.007408 0.000091 0.025881 -0.000095
# 6 -0.000024 -0.000056 -0.000209 0.094624 -0.000095 -0.094350
#
#
# Mechanical properties :
#
#
# Convention : Reuss Voigt Hill
#
# Bulk Modulus (GPa) = 22.79218 30.72910 26.76064
# Shear Modulus (GPa) = -41.41918 -1.21677 -21.31797
#
# Velocity S-wave (km/s) = -4.31607 -0.73976 -3.09643
# Velocity P-wave (km/s) = 3.81930 3.61813 0.86492
#
# Compressibility (1/GPa) = 0.04387469
#
# Stress axis : x y z
#
# Youngs Moduli (GPa) = 133.71913 64.82966 47.32150
#
# Poissons Ratio (x) = -0.01074 0.10924
# Poissons Ratio (y) = -0.02216 -0.09759
# Poissons Ratio (z) = 0.30868 -0.13370
#
# Static dielectric constant tensor:
#      x y z
#    x 1.795300 0.000000 0.003960 
#    y 0.000000 1.889880 0.000010 
#    z 0.003960 0.000010 1.764000 
# 
# From -- ./inp_files/353269.got.cif
#   From: 2010.05.17/outbox.cif.g08.bks.cpg/sg12_177_cif.got.tgz:353269.got - 2010.06.03 13:09:07.
