data_PCOD9176583
_publ_section_title
;
Structure prediction by ZEFSAII (Michael W. Deem and Ramdas Pophale) SiO2 
 PCOD9176583
Probable space group: C 2/M
;
_chemical_formula_sum "Si O2"
_cell_formula_units_Z 48
_cell_length_a 25.916668
_cell_length_b 8.463527
_cell_length_c 12.851495
_cell_angle_alpha 90.000000
_cell_angle_beta 70.609101
_cell_angle_gamma 90.000000
_cell_volume 2659.026789
_symmetry_space_group_name_H-M "C 2/M"
_symmetry_group_IT_number 12
_symmetry_cell_setting 'monoclinic'
loop_
_space_group_symop_operation_xyz
x,y,z
-x,y,-z
-x,-y,-z
x,-y,z
1/2+x,1/2+y,z
1/2-x,1/2+y,-z
1/2-x,1/2-y,-z
1/2+x,1/2-y,z
loop_
_atom_site_type_symbol
_atom_site_label
_atom_site_fract_x
_atom_site_fract_y
_atom_site_fract_z
Si Si1 0.617419 0.809253 0.220968
Si Si2 0.186041 0.690970 0.380812
Si Si3 0.499881 0.190698 0.379553
Si Si4 0.808605 0.192773 0.245935
Si Si5 0.307070 0.310977 0.008836
Si Si6 0.384774 0.688796 0.379084
O O1 0.654779 0.764975 0.295299
O O2 0.555569 0.756834 0.286042
O O3 0.618142 0.000000 0.214444
O O4 0.644416 0.742599 0.099161
O O5 0.183885 0.500000 0.390365
O O6 0.249175 0.740430 0.329673
O O7 0.154537 0.761830 0.499639
O O8 0.500000 0.245076 0.500000
O O9 0.444772 0.244420 0.360751
O O10 0.500535 0.000000 0.381528
O O11 0.813982 0.245508 0.123051
O O12 0.856347 0.245303 0.291485
O O13 0.808762 0.000000 0.245178
O O14 0.304536 0.500000 0.012573
O O15 0.250000 0.250000 0.000000
O O16 0.388191 0.500000 0.373656
#
# Coordination Sequence:
#
# PCOD9176583 Si02
#       6
#     8   8   8   8   8   8
#     4  10  20  36  59  84 109 141 185 229 272 324
#     4  10  18  35  58  79 112 150 179 218 279 335
#     4  10  20  38  59  78 107 150 186 219 275 333
#     4   9  20  37  55  78 114 152 179 218 277 334
#     4  11  21  37  59  82 112 147 185 225 273 324
#     4  11  22  35  54  84 115 143 184 229 271 323
#
# _framework density 18.051717
#
# number of rings (size 3 to 8) (size 9 to 14) (size 15 to 20)
#    0.000    1.833    3.333    1.500    0.000    1.667 
#    0.000    5.000    0.000    5.000    0.000    0.000 
#    0.000    0.000    0.000    0.000    0.000    0.000 
#
# Total GULP energy -134021.026911 kJ/mol
# GULP energy per Si atom -5584.209455 kJ/mol
# Density = 1.801063 g / cm^3
# Si number density = 18.051717 Si / 1000 Ang^3
#
#
#
# Elastic Constant Matrix: (Units=GPa)
#
#
# Indices 1 2 3 4 5 6 
#
# 1 178.7752 20.0342 81.6950 0.0000 -3.7699 0.0000
# 2 20.0342 11.6510 14.3146 0.0000 -3.5956 0.0000
# 3 81.6950 14.3146 103.5540 0.0000 -12.9056 0.0000
# 4 0.0000 0.0000 0.0000 29.2851 0.0000 -4.7255
# 5 -3.7699 -3.5956 -12.9056 0.0000 32.6606 0.0000
# 6 0.0000 0.0000 0.0000 -4.7255 0.0000 24.7251
#
#
#
# Elastic Compliance Matrix: (Units=1/GPa)
#
#
# Indices 1 2 3 4 5 6 
#
# 1 0.009586 -0.009134 -0.006613 0.000000 -0.002512 0.000000
# 2 -0.009134 0.113234 -0.007388 0.000000 0.008492 0.000000
# 3 -0.006613 -0.007388 0.016512 0.000000 0.004948 0.000000
# 4 0.000000 0.000000 0.000000 0.035234 0.000000 0.006734
# 5 -0.002512 0.008492 0.004948 0.000000 0.033218 0.000000
# 6 0.000000 0.000000 0.000000 0.006734 0.000000 0.041732
#
#
# Mechanical properties :
#
#
# Convention : Reuss Voigt Hill
#
# Bulk Modulus (GPa) = 10.74563 58.45198 34.59881
# Shear Modulus (GPa) = 15.29954 29.19659 22.24807
#
# Velocity S-wave (km/s) = 2.91441 4.02604 3.51445
# Velocity P-wave (km/s) = 4.15821 7.35272 5.97299
#
# Compressibility (1/GPa) = 0.09306110
#
# Stress axis : x y z
#
# Youngs Moduli (GPa) = 104.31582 8.83126 60.56212
#
# Poissons Ratio (x) = 0.08067 0.40051
# Poissons Ratio (y) = 0.95283 0.44745
# Poissons Ratio (z) = 0.68986 0.06525
#
# Static dielectric constant tensor:
#      x y z
#    x 1.604750 0.000000 0.007110 
#    y 0.000000 1.625690 0.000000 
#    z 0.007110 0.000000 1.600410 
# 
# From -- ./inp_files/172033.got.cif
#   From: 2010.05.17/outbox.cif.g08.bks.cpg/sg12_87_cif.got.tgz:172033.got - 2010.06.03 13:09:07.
