data_PCOD9176041
_publ_section_title
;
Structure prediction by ZEFSAII (Michael W. Deem and Ramdas Pophale) SiO2 
 PCOD9176041
Probable space group: C 2/M
;
_chemical_formula_sum "Si O2"
_cell_formula_units_Z 56
_cell_length_a 16.329202
_cell_length_b 24.006906
_cell_length_c 13.733482
_cell_angle_alpha 90.000000
_cell_angle_beta 145.740604
_cell_angle_gamma 90.000000
_cell_volume 3030.709360
_symmetry_space_group_name_H-M "C 2/M"
_symmetry_group_IT_number 12
_symmetry_cell_setting 'monoclinic'
loop_
_space_group_symop_operation_xyz
x,y,z
-x,y,-z
-x,-y,-z
x,-y,z
1/2+x,1/2+y,z
1/2-x,1/2+y,-z
1/2-x,1/2-y,-z
1/2+x,1/2-y,z
loop_
_atom_site_type_symbol
_atom_site_label
_atom_site_fract_x
_atom_site_fract_y
_atom_site_fract_z
Si Si1 0.005794 0.000000 0.674289
Si Si2 0.550060 0.817165 0.866239
Si Si3 0.763044 0.000000 0.261859
Si Si4 0.829439 0.381971 0.764060
Si Si5 0.340638 0.718950 0.674839
Si Si6 0.654722 0.687687 0.749624
Si Si7 0.925902 0.882965 0.635030
Si Si8 0.965650 0.301994 0.564283
O O1 0.156115 0.000000 0.762487
O O2 0.885444 0.000000 0.468423
O O3 0.981308 0.944428 0.711839
O O4 0.485450 0.863337 0.876167
O O5 0.469035 0.761294 0.824057
O O6 0.502798 0.826320 0.707398
O O7 0.721337 0.809814 0.046099
O O8 0.678458 0.942144 0.193284
O O9 0.744914 0.334840 0.745037
O O10 0.730124 0.386221 0.569688
O O11 0.250000 0.750000 0.500000
O O12 0.409506 0.661988 0.703773
O O13 0.207307 0.708985 0.615305
O O14 0.537654 0.641377 0.664912
O O15 0.562339 0.744837 0.654967
O O16 0.000000 0.335517 0.500000
#
# Coordination Sequence:
#
# PCOD9176041 Si02
#       8
#     4   8   4   8   8   8   8   8
#     4   9  18  30  49  84 103 135 191 220 235 313
#     4  11  22  34  47  79 111 138 179 222 264 314
#     4   9  18  30  52  77 108 143 188 211 237 311
#     4  11  20  35  52  78 111 150 177 209 256 317
#     4  10  18  34  53  72 102 136 179 221 261 315
#     4  12  21  30  52  77 110 145 171 209 270 317
#     4  11  18  33  55  74 108 142 178 211 256 306
#     4  11  21  35  54  72  97 143 184 218 264 315
#
# _framework density 18.477522
#
# number of rings (size 3 to 8) (size 9 to 14) (size 15 to 20)
#    0.000    1.286    7.143    3.000    0.000    0.000 
#    0.000    2.143    0.000    0.000    0.000    2.000 
#    0.000    1.143    0.000    0.000    0.000    0.000 
#
# Total GULP energy -156099.061740 kJ/mol
# GULP energy per Si atom -5574.966491 kJ/mol
# Density = 1.843547 g / cm^3
# Si number density = 18.477522 Si / 1000 Ang^3
#
#
#
# Elastic Constant Matrix: (Units=GPa)
#
#
# Indices 1 2 3 4 5 6 
#
# 1 91.9068 32.2523 6.0675 0.0000 5.1082 0.0000
# 2 32.2523 107.4900 8.5928 0.0000 1.8507 0.0000
# 3 6.0675 8.5928 63.9692 0.0000 14.0739 0.0000
# 4 0.0000 0.0000 0.0000 11.4229 0.0000 0.9294
# 5 5.1082 1.8507 14.0739 0.0000 22.2260 0.0000
# 6 0.0000 0.0000 0.0000 0.9294 0.0000 28.5043
#
#
#
# Elastic Compliance Matrix: (Units=1/GPa)
#
#
# Indices 1 2 3 4 5 6 
#
# 1 0.012302 -0.003638 -0.000143 0.000000 -0.002434 0.000000
# 2 -0.003638 0.010480 -0.001225 0.000000 0.000739 0.000000
# 3 -0.000143 -0.001225 0.018335 0.000000 -0.011476 0.000000
# 4 0.000000 0.000000 0.000000 0.087777 0.000000 -0.002862
# 5 -0.002434 0.000739 -0.011476 0.000000 0.052757 0.000000
# 6 0.000000 0.000000 0.000000 -0.002862 0.000000 0.035176
#
#
# Mechanical properties :
#
#
# Convention : Reuss Voigt Hill
#
# Bulk Modulus (GPa) = 32.14863 39.68790 35.91826
# Shear Modulus (GPa) = 21.07867 26.86086 23.96977
#
# Velocity S-wave (km/s) = 3.38120 3.81688 3.60563
# Velocity P-wave (km/s) = 5.71663 6.39925 6.06755
#
# Compressibility (1/GPa) = 0.03110553
#
# Stress axis : x y z
#
# Youngs Moduli (GPa) = 81.28825 95.42032 54.53929
#
# Poissons Ratio (x) = 0.34713 0.00778
# Poissons Ratio (y) = 0.29572 0.06683
# Poissons Ratio (z) = 0.01160 0.11692
#
# Static dielectric constant tensor:
#      x y z
#    x 1.706410 0.000000 0.023180 
#    y 0.000000 1.648030 0.000000 
#    z 0.023180 0.000000 1.713760 
# 
# From -- ./inp_files/218311.got.cif
#   From: 2010.05.17/outbox.cif.g08.bks.cpg/sg12_110_cif.got.tgz:218311.got - 2010.06.03 13:09:07.
