data_PCOD9176161
_publ_section_title
;
Structure prediction by ZEFSAII (Michael W. Deem and Ramdas Pophale) SiO2 
 PCOD9176161
Probable space group: C 2/M
;
_chemical_formula_sum "Si O2"
_cell_formula_units_Z 48
_cell_length_a 11.677411
_cell_length_b 18.429138
_cell_length_c 12.705928
_cell_angle_alpha 90.000000
_cell_angle_beta 104.595902
_cell_angle_gamma 90.000000
_cell_volume 2646.128465
_symmetry_space_group_name_H-M "C 2/M"
_symmetry_group_IT_number 12
_symmetry_cell_setting 'monoclinic'
loop_
_space_group_symop_operation_xyz
x,y,z
-x,y,-z
-x,-y,-z
x,-y,z
1/2+x,1/2+y,z
1/2-x,1/2+y,-z
1/2-x,1/2-y,-z
1/2+x,1/2-y,z
loop_
_atom_site_type_symbol
_atom_site_label
_atom_site_fract_x
_atom_site_fract_y
_atom_site_fract_z
Si Si1 0.235078 0.346294 0.881801
Si Si2 0.617138 0.693092 0.271020
Si Si3 0.375774 0.298400 0.109046
Si Si4 0.367023 0.701698 0.495845
Si Si5 0.347461 0.000000 0.061988
Si Si6 0.779347 0.652574 0.731112
Si Si7 0.625737 0.000000 0.175573
O O1 0.272081 0.334887 0.770164
O O2 0.132367 0.289022 0.886648
O O3 0.204262 0.427599 0.900485
O O4 0.340771 0.322031 0.984480
O O5 0.499778 0.674640 0.180245
O O6 0.612595 0.662844 0.387660
O O7 0.631062 0.781173 0.275064
O O8 0.277647 0.326979 0.169111
O O9 0.500000 0.733271 0.500000
O O10 0.250000 0.750000 0.500000
O O11 0.320792 0.658298 0.383180
O O12 0.486299 0.000000 0.120578
O O13 0.321985 0.000000 0.931042
O O14 0.835726 0.573348 0.755705
#
# Coordination Sequence:
#
# PCOD9176161 Si02
#       7
#     8   8   8   8   4   8   4
#     4  10  21  34  54  85 117 150 192 240 296 358
#     4  10  20  35  59  85 115 153 192 248 295 352
#     4  10  18  34  56  83 115 147 192 243 292 350
#     4  10  20  37  63  91 118 153 202 251 300 351
#     4  11  22  38  57  82 120 158 194 240 302 365
#     4  10  20  36  58  85 115 151 199 242 297 351
#     4  11  22  38  59  83 116 159 197 242 300 365
#
# _framework density 18.139707999999999
#
# number of rings (size 3 to 8) (size 9 to 14) (size 15 to 20)
#    0.000    1.833    3.333    1.500    0.000    0.000 
#    0.000    3.750    0.000    1.000    0.000    0.000 
#    0.000    0.000    0.000    0.000    0.000    0.000 
#
# Total GULP energy -133621.577362 kJ/mol
# GULP energy per Si atom -5567.565723 kJ/mol
# Density = 1.809842 g / cm^3
# Si number density = 18.139708 Si / 1000 Ang^3
#
#
#
# Elastic Constant Matrix: (Units=GPa)
#
#
# Indices 1 2 3 4 5 6 
#
# 1 51.7497 5.5025 15.8354 0.0000 6.8988 0.0000
# 2 5.5025 89.9583 10.2170 0.0000 -4.3587 0.0000
# 3 15.8354 10.2170 101.8538 0.0000 -2.4542 0.0000
# 4 0.0000 0.0000 0.0000 8.4146 0.0000 -4.4115
# 5 6.8988 -4.3587 -2.4542 0.0000 30.0652 0.0000
# 6 0.0000 0.0000 0.0000 -4.4115 0.0000 4.4789
#
#
#
# Elastic Compliance Matrix: (Units=1/GPa)
#
#
# Indices 1 2 3 4 5 6 
#
# 1 0.021165 -0.001176 -0.003300 0.000000 -0.005296 0.000000
# 2 -0.001176 0.011381 -0.000914 0.000000 0.001845 0.000000
# 3 -0.003300 -0.000914 0.010458 0.000000 0.001478 0.000000
# 4 0.000000 0.000000 0.000000 0.245729 0.000000 0.242029
# 5 -0.005296 0.001845 0.001478 0.000000 0.034865 0.000000
# 6 0.000000 0.000000 0.000000 0.242029 0.000000 0.461654
#
#
# Mechanical properties :
#
#
# Convention : Reuss Voigt Hill
#
# Bulk Modulus (GPa) = 31.03378 34.07462 32.55420
# Shear Modulus (GPa) = 6.19752 22.72553 14.46152
#
# Velocity S-wave (km/s) = 1.85040 3.54334 2.82659
# Velocity P-wave (km/s) = 4.65947 5.96370 5.35146
#
# Compressibility (1/GPa) = 0.03222295
#
# Stress axis : x y z
#
# Youngs Moduli (GPa) = 47.24825 87.86207 95.61685
#
# Poissons Ratio (x) = 0.10336 0.31555
# Poissons Ratio (y) = 0.05558 0.08742
# Poissons Ratio (z) = 0.15593 0.08033
#
# Static dielectric constant tensor:
#      x y z
#    x 1.656280 0.000000 0.003770 
#    y 0.000000 1.601340 0.000000 
#    z 0.003770 0.000000 1.646100 
# 
# From -- ./inp_files/131257.got.cif
#   From: 2010.05.17/outbox.cif.g08.bks.cpg/sg12_66_cif.got.tgz:131257.got - 2010.06.03 13:09:07.
