data_PCOD9176428
_publ_section_title
;
Structure prediction by ZEFSAII (Michael W. Deem and Ramdas Pophale) SiO2 
 PCOD9176428
Probable space group: C 2/M
;
_chemical_formula_sum "Si O2"
_cell_formula_units_Z 56
_cell_length_a 26.930075
_cell_length_b 14.964042
_cell_length_c 12.310587
_cell_angle_alpha 90.000000
_cell_angle_beta 34.378807
_cell_angle_gamma 90.000000
_cell_volume 2801.261321
_symmetry_space_group_name_H-M "C 2/M"
_symmetry_group_IT_number 12
_symmetry_cell_setting 'monoclinic'
loop_
_space_group_symop_operation_xyz
x,y,z
-x,y,-z
-x,-y,-z
x,-y,z
1/2+x,1/2+y,z
1/2-x,1/2+y,-z
1/2-x,1/2-y,-z
1/2+x,1/2-y,z
loop_
_atom_site_type_symbol
_atom_site_label
_atom_site_fract_x
_atom_site_fract_y
_atom_site_fract_z
Si Si1 0.333837 0.354631 0.550934
Si Si2 0.879143 0.500000 0.812507
Si Si3 0.320351 0.850722 0.523933
Si Si4 0.235980 0.323638 0.930998
Si Si5 0.999901 0.902190 0.874447
Si Si6 0.147102 0.400718 0.781237
Si Si7 0.579301 0.000000 0.517734
Si Si8 0.137303 0.772907 0.916028
O O1 0.349363 0.251538 0.488489
O O2 0.320911 0.354461 0.705099
O O3 0.408531 0.405732 0.352079
O O4 0.242415 0.391005 0.666253
O O5 0.902399 0.500000 0.643432
O O6 0.971247 0.500000 0.716142
O O7 0.820078 0.411599 0.938822
O O8 0.341656 0.888432 0.367129
O O9 0.371143 0.914870 0.516771
O O10 0.214034 0.835560 0.724973
O O11 0.180449 0.269653 0.942711
O O12 0.250000 0.250000 0.000000
O O13 0.958813 0.000000 0.952350
O O14 0.941795 0.835287 0.911646
O O15 0.000000 0.871232 0.000000
O O16 0.110687 0.500000 0.871010
O O17 0.102938 0.310279 0.905712
#
# Coordination Sequence:
#
# PCOD9176428 Si02
#       8
#     8   4   8   8   8   8   4   8
#     4  10  22  37  65  87 129 168 222 266 324 385
#     4  11  24  42  67  94 127 156 223 272 328 386
#     4  10  19  37  59  89 125 169 208 257 324 395
#     4  10  23  46  69  91 123 173 216 271 328 386
#     4  11  23  39  62  96 133 172 214 272 331 389
#     4  10  18  34  61  90 124 168 212 257 319 401
#     4  11  24  38  65  96 123 166 211 272 332 391
#     4  10  23  37  60  92 129 167 218 266 316 394
#
# _framework density 19.990995000000002
#
# number of rings (size 3 to 8) (size 9 to 14) (size 15 to 20)
#    0.000    2.000    0.714    5.571    8.000    1.143 
#    1.286    0.000    0.000    5.571    0.000    0.000 
#    0.000    0.000    0.000    0.000    0.000    0.000 
#
# Total GULP energy -155959.251425 kJ/mol
# GULP energy per Si atom -5569.973265 kJ/mol
# Density = 1.994549 g / cm^3
# Si number density = 19.990995 Si / 1000 Ang^3
#
#
#
# Elastic Constant Matrix: (Units=GPa)
#
#
# Indices 1 2 3 4 5 6 
#
# 1 49.3351 20.6385 25.0378 0.0000 22.4918 0.0000
# 2 20.6385 103.2466 23.8092 0.0000 -4.8785 0.0000
# 3 25.0378 23.8092 74.7048 0.0000 16.0479 0.0000
# 4 0.0000 0.0000 0.0000 14.8072 0.0000 8.4660
# 5 22.4918 -4.8785 16.0479 0.0000 29.7088 0.0000
# 6 0.0000 0.0000 0.0000 8.4660 0.0000 23.8356
#
#
#
# Elastic Compliance Matrix: (Units=1/GPa)
#
#
# Indices 1 2 3 4 5 6 
#
# 1 0.038774 -0.008092 -0.004327 0.000000 -0.028346 0.000000
# 2 -0.008092 0.012576 -0.003457 0.000000 0.010059 0.000000
# 3 -0.004327 -0.003457 0.017372 0.000000 -0.006676 0.000000
# 4 0.000000 0.000000 0.000000 0.084744 0.000000 -0.030100
# 5 -0.028346 0.010059 -0.006676 0.000000 0.060378 0.000000
# 6 0.000000 0.000000 0.000000 -0.030100 0.000000 0.052645
#
#
# Mechanical properties :
#
#
# Convention : Reuss Voigt Hill
#
# Bulk Modulus (GPa) = 27.04914 40.69527 33.87220
# Shear Modulus (GPa) = 16.09980 24.19039 20.14510
#
# Velocity S-wave (km/s) = 2.84095 3.48237 3.17789
# Velocity P-wave (km/s) = 4.93167 6.04733 5.51777
#
# Compressibility (1/GPa) = 0.03696975
#
# Stress axis : x y z
#
# Youngs Moduli (GPa) = 25.79062 79.51957 57.56427
#
# Poissons Ratio (x) = 0.64349 0.24908
# Poissons Ratio (y) = 0.20870 0.19897
# Poissons Ratio (z) = 0.11159 0.27486
#
# Static dielectric constant tensor:
#      x y z
#    x 1.724340 0.000000 0.014770 
#    y 0.000000 1.780970 0.000000 
#    z 0.014770 0.000000 1.888780 
# 
# From -- ./inp_files/183505.got.cif
#   From: 2010.05.17/outbox.cif.g08.bks.cpg/sg12_92_cif.got.tgz:183505.got - 2010.06.03 13:09:07.
