data_PCOD9176606
_publ_section_title
;
Structure prediction by ZEFSAII (Michael W. Deem and Ramdas Pophale) SiO2 
 PCOD9176606
Probable space group: C 2/M
;
_chemical_formula_sum "Si O2"
_cell_formula_units_Z 64
_cell_length_a 14.959976
_cell_length_b 8.023218
_cell_length_c 28.894046
_cell_angle_alpha 90.000000
_cell_angle_beta 64.570539
_cell_angle_gamma 90.000000
_cell_volume 3132.064676
_symmetry_space_group_name_H-M "C 2/M"
_symmetry_group_IT_number 12
_symmetry_cell_setting 'monoclinic'
loop_
_space_group_symop_operation_xyz
x,y,z
-x,y,-z
-x,-y,-z
x,-y,z
1/2+x,1/2+y,z
1/2-x,1/2+y,-z
1/2-x,1/2-y,-z
1/2+x,1/2-y,z
loop_
_atom_site_type_symbol
_atom_site_label
_atom_site_fract_x
_atom_site_fract_y
_atom_site_fract_z
Si Si1 0.478468 0.799209 0.358186
Si Si2 0.945254 0.296453 0.558351
Si Si3 0.348902 0.191508 0.176448
Si Si4 0.402540 0.200296 0.991741
Si Si5 0.768511 0.799413 0.362515
Si Si6 0.437578 0.204215 0.878746
Si Si7 0.727548 0.304618 0.899006
Si Si8 0.310104 0.198463 0.718243
O O1 0.498816 0.745621 0.406809
O O2 0.373425 0.748901 0.360591
O O3 0.576490 0.739277 0.308458
O O4 0.479168 0.000000 0.357908
O O5 0.945903 0.500000 0.557719
O O6 0.830099 0.244743 0.587690
O O7 0.000000 0.238276 0.500000
O O8 0.456998 0.265238 0.163085
O O9 0.336313 0.205826 0.124026
O O10 0.255289 0.269516 0.222362
O O11 0.349730 0.000000 0.190378
O O12 0.312288 0.277893 0.040329
O O13 0.389786 0.000000 0.994015
O O14 0.500000 0.239443 0.000000
O O15 0.419108 0.258436 0.935775
O O16 0.748756 0.739106 0.314258
O O17 0.766621 0.000000 0.362154
O O18 0.341219 0.251005 0.871423
O O19 0.441121 0.000000 0.878904
O O20 0.720667 0.500000 0.889280
O O21 0.317515 0.000000 0.711378
#
# Coordination Sequence:
#
# PCOD9176606 Si02
#       8
#     8   8   8   8   8   8   8   8
#     4   9  18  33  54  77 105 141 179 218 264 316
#     4   8  15  30  51  76 109 149 184 215 260 316
#     4  11  22  39  58  77 102 136 174 212 263 315
#     4  10  18  35  59  77 104 141 172 207 253 306
#     4   9  18  33  54  78 106 139 179 223 262 309
#     4   9  20  37  55  76 105 138 167 204 257 311
#     4  11  22  36  55  81 109 135 170 212 255 309
#     4   9  20  38  54  73 103 137 172 215 266 313
#
# _framework density 20.433806000000001
#
# number of rings (size 3 to 8) (size 9 to 14) (size 15 to 20)
#    0.000    2.500    1.250    2.625    0.000    2.750 
#    0.000    8.750    0.000    0.750    0.000    0.000 
#    0.000    0.000    0.000    0.000    0.000    0.000 
#
# Total GULP energy -178499.849141 kJ/mol
# GULP energy per Si atom -5578.120286 kJ/mol
# Density = 2.038730 g / cm^3
# Si number density = 20.433806 Si / 1000 Ang^3
#
#
#
# Elastic Constant Matrix: (Units=GPa)
#
#
# Indices 1 2 3 4 5 6 
#
# 1 126.3585 7.7583 29.3551 0.0000 -25.9098 0.0000
# 2 7.7583 13.0193 -0.7272 0.0000 -3.4489 0.0000
# 3 29.3551 -0.7272 90.2196 0.0000 -20.9384 0.0000
# 4 0.0000 0.0000 0.0000 12.2687 0.0000 0.1155
# 5 -25.9098 -3.4489 -20.9384 0.0000 19.1079 0.0000
# 6 0.0000 0.0000 0.0000 0.1155 0.0000 23.6448
#
#
#
# Elastic Compliance Matrix: (Units=1/GPa)
#
#
# Indices 1 2 3 4 5 6 
#
# 1 0.011063 -0.002878 -0.000351 0.000000 0.014097 0.000000
# 2 -0.002878 0.083428 0.005630 0.000000 0.017325 0.000000
# 3 -0.000351 0.005630 0.015246 0.000000 0.017247 0.000000
# 4 0.000000 0.000000 0.000000 0.081512 0.000000 -0.000398
# 5 0.014097 0.017325 0.017247 0.000000 0.093476 0.000000
# 6 0.000000 0.000000 0.000000 -0.000398 0.000000 0.042295
#
#
# Mechanical properties :
#
#
# Convention : Reuss Voigt Hill
#
# Bulk Modulus (GPa) = 8.73065 33.59664 21.16364
# Shear Modulus (GPa) = 13.87357 23.88502 18.87930
#
# Velocity S-wave (km/s) = 2.60850 3.42262 3.04291
# Velocity P-wave (km/s) = 3.65435 5.66538 4.76712
#
# Compressibility (1/GPa) = 0.11453900
#
# Stress axis : x y z
#
# Youngs Moduli (GPa) = 90.39323 11.98637 65.58908
#
# Poissons Ratio (x) = 0.03449 0.02303
# Poissons Ratio (y) = 0.26013 -0.36925
# Poissons Ratio (z) = 0.03174 -0.06748
#
# Static dielectric constant tensor:
#      x y z
#    x 1.735100 0.000000 -0.015550 
#    y 0.000000 1.740930 0.000000 
#    z -0.015550 0.000000 1.745840 
# 
# From -- ./inp_files/375039.got.cif
#   From: 2010.05.17/outbox.cif.g08.bks.cpg/sg12_188_cif.got.tgz:375039.got - 2010.06.03 13:09:07.
