data_PCOD9176902
_publ_section_title
;
Structure prediction by ZEFSAII (Michael W. Deem and Ramdas Pophale) SiO2 
 PCOD9176902
Probable space group: C 2/M
;
_chemical_formula_sum "Si O2"
_cell_formula_units_Z 64
_cell_length_a 26.699537
_cell_length_b 8.691560
_cell_length_c 15.622904
_cell_angle_alpha 90.000000
_cell_angle_beta 75.633460
_cell_angle_gamma 90.000000
_cell_volume 3512.086322
_symmetry_space_group_name_H-M "C 2/M"
_symmetry_group_IT_number 12
_symmetry_cell_setting 'monoclinic'
loop_
_space_group_symop_operation_xyz
x,y,z
-x,y,-z
-x,-y,-z
x,-y,z
1/2+x,1/2+y,z
1/2-x,1/2+y,-z
1/2-x,1/2-y,-z
1/2+x,1/2-y,z
loop_
_atom_site_type_symbol
_atom_site_label
_atom_site_fract_x
_atom_site_fract_y
_atom_site_fract_z
Si Si1 0.120414 0.184854 0.213030
Si Si2 0.225964 0.316513 0.423584
Si Si3 0.486261 0.184457 0.762933
Si Si4 0.096702 0.314429 0.740849
Si Si5 0.294220 0.813022 0.239555
Si Si6 0.382034 0.316359 0.587957
Si Si7 0.768300 0.185843 0.902072
Si Si8 0.945135 0.317038 0.418595
O O1 0.067855 0.241726 0.191692
O O2 0.117944 0.235699 0.313341
O O3 0.173720 0.237838 0.147547
O O4 0.120818 0.000000 0.212657
O O5 0.227713 0.500000 0.424834
O O6 0.250000 0.250000 0.500000
O O7 0.258594 0.252601 0.329708
O O8 0.167456 0.260391 0.435469
O O9 0.538436 0.235594 0.790996
O O10 0.502965 0.220788 0.656996
O O11 0.482272 0.000000 0.770877
O O12 0.096506 0.500000 0.747882
O O13 0.146955 0.258837 0.768764
O O14 0.097547 0.282053 0.638125
O O15 0.270236 0.768913 0.158547
O O16 0.293022 0.000000 0.245485
O O17 0.376227 0.500000 0.589627
O O18 0.431357 0.269309 0.510446
O O19 0.768683 0.000000 0.905311
O O20 0.750000 0.250000 0.000000
O O21 0.944953 0.500000 0.434645
#
# Coordination Sequence:
#
# PCOD9176902 Si02
#       8
#     8   8   8   8   8   8   8   8
#     4  10  21  37  54  77 109 144 183 231 285 338
#     4  12  24  35  51  79 114 153 193 232 278 334
#     4   8  17  33  53  79 107 143 188 228 269 329
#     4   7  14  30  53  77 104 139 178 220 266 317
#     4  10  18  36  61  82 111 148 185 233 289 337
#     4  11  21  34  50  73 108 147 193 235 277 332
#     4  10  22  40  61  85 113 143 184 236 294 352
#     4   8  16  31  48  75 108 141 184 230 271 320
#
# _framework density 18.222787
#
# number of rings (size 3 to 8) (size 9 to 14) (size 15 to 20)
#    0.750    1.750    1.250    2.250    0.000    4.000 
#    0.000    3.125    0.000    0.750    0.000    5.250 
#    0.000    0.000    0.000    0.000    0.000    0.000 
#
# Total GULP energy -178246.684244 kJ/mol
# GULP energy per Si atom -5570.208883 kJ/mol
# Density = 1.818131 g / cm^3
# Si number density = 18.222787 Si / 1000 Ang^3
#
#
#
# Elastic Constant Matrix: (Units=GPa)
#
#
# Indices 1 2 3 4 5 6 
#
# 1 122.7416 17.6259 53.4340 0.0000 -11.5884 0.0000
# 2 17.6259 20.9070 21.9333 0.0000 -1.6861 0.0000
# 3 53.4340 21.9333 96.0058 0.0000 -2.8438 0.0000
# 4 0.0000 0.0000 0.0000 24.4971 0.0000 -3.7801
# 5 -11.5884 -1.6861 -2.8438 0.0000 17.1170 0.0000
# 6 0.0000 0.0000 0.0000 -3.7801 0.0000 22.9438
#
#
#
# Elastic Compliance Matrix: (Units=1/GPa)
#
#
# Indices 1 2 3 4 5 6 
#
# 1 0.011674 -0.003546 -0.005490 0.000000 0.006642 0.000000
# 2 -0.003546 0.064236 -0.012647 0.000000 0.001826 0.000000
# 3 -0.005490 -0.012647 0.016294 0.000000 -0.002256 0.000000
# 4 0.000000 0.000000 0.000000 0.041886 0.000000 0.006901
# 5 0.006642 0.001826 -0.002256 0.000000 0.062723 0.000000
# 6 0.000000 0.000000 0.000000 0.006901 0.000000 0.044722
#
#
# Mechanical properties :
#
#
# Convention : Reuss Voigt Hill
#
# Bulk Modulus (GPa) = 20.47659 47.29342 33.88501
# Shear Modulus (GPa) = 16.60128 22.68899 19.64514
#
# Velocity S-wave (km/s) = 3.02158 3.53241 3.28693
# Velocity P-wave (km/s) = 4.84092 6.53043 5.74808
#
# Compressibility (1/GPa) = 0.04883625
#
# Stress axis : x y z
#
# Youngs Moduli (GPa) = 85.66311 15.56757 61.37084
#
# Poissons Ratio (x) = 0.05520 0.33695
# Poissons Ratio (y) = 0.30377 0.77619
# Poissons Ratio (z) = 0.47032 0.19689
#
# Static dielectric constant tensor:
#      x y z
#    x 1.675530 0.000000 0.003760 
#    y 0.000000 1.617340 0.000000 
#    z 0.003760 0.000000 1.607440 
# 
# From -- ./inp_files/243915.got.cif
#   From: 2010.05.17/outbox.cif.g08.bks.cpg/sg12_122_cif.got.tgz:243915.got - 2010.06.03 13:09:07.
