data_PCOD9176014
_publ_section_title
;
Structure prediction by ZEFSAII (Michael W. Deem and Ramdas Pophale) SiO2 
 PCOD9176014
Probable space group: C 2/M
;
_chemical_formula_sum "Si O2"
_cell_formula_units_Z 46
_cell_length_a 19.788595
_cell_length_b 22.763980
_cell_length_c 6.628437
_cell_angle_alpha 90.000000
_cell_angle_beta 88.920311
_cell_angle_gamma 90.000000
_cell_volume 2985.363197
_symmetry_space_group_name_H-M "C 2/M"
_symmetry_group_IT_number 12
_symmetry_cell_setting 'monoclinic'
loop_
_space_group_symop_operation_xyz
x,y,z
-x,y,-z
-x,-y,-z
x,-y,z
1/2+x,1/2+y,z
1/2-x,1/2+y,-z
1/2-x,1/2-y,-z
1/2+x,1/2-y,z
loop_
_atom_site_type_symbol
_atom_site_label
_atom_site_fract_x
_atom_site_fract_y
_atom_site_fract_z
Si Si1 0.000000 0.500000 0.000000
Si Si2 0.500000 0.208747 0.500000
Si Si3 0.664321 0.854336 0.074581
Si Si4 0.755699 0.334029 0.314590
Si Si5 0.553270 0.109140 0.754988
Si Si6 0.852977 0.256228 0.585173
Si Si7 0.171914 0.430573 0.455812
O O1 0.014173 0.552042 0.830803
O O2 0.508407 0.163621 0.686237
O O3 0.568593 0.245185 0.476273
O O4 0.726707 0.842731 0.920415
O O5 0.602261 0.869209 0.931276
O O6 0.654294 0.798664 0.220155
O O7 0.673098 0.908983 0.225564
O O8 0.810953 0.288842 0.409106
O O9 0.684118 0.304532 0.364205
O O10 0.769944 0.394966 0.428624
O O11 0.602776 0.091196 0.567271
O O12 0.177365 0.500000 0.473822
#
# Coordination Sequence:
#
# PCOD9176014 Si02
#       7
#     2   4   8   8   8   8   8
#     4  12  24  30  48  60 106 148 176 208 238 280
#     4  12  20  37  48  72 109 136 170 212 254 304
#     4  10  18  34  50  69  97 136 174 209 254 296
#     4   9  19  35  52  74  96 132 173 213 258 301
#     4  11  23  33  44  72 101 141 181 206 241 293
#     4  10  19  33  53  72 102 131 168 217 256 301
#     4  10  20  35  52  71 101 133 176 216 246 294
#
# _framework density 15.40851
#
# number of rings (size 3 to 8) (size 9 to 14) (size 15 to 20)
#    0.000    1.739    6.087    1.565    1.217    1.043 
#    0.000    0.000    0.000    0.000    0.000    0.609 
#    0.000    1.391    0.000    0.000    0.000    0.000 
#
# Total GULP energy -128056.591847 kJ/mol
# GULP energy per Si atom -5567.677906 kJ/mol
# Density = 1.537344 g / cm^3
# Si number density = 15.408510 Si / 1000 Ang^3
#
#
#
# Elastic Constant Matrix: (Units=GPa)
#
#
# Indices 1 2 3 4 5 6 
#
# 1 86.2254 37.0988 26.4261 0.0000 -13.7493 0.0000
# 2 37.0988 54.0061 22.7921 0.0000 -8.3862 0.0000
# 3 26.4261 22.7921 87.3358 0.0000 -12.5105 0.0000
# 4 0.0000 0.0000 0.0000 19.7503 0.0000 -8.5108
# 5 -13.7493 -8.3862 -12.5105 0.0000 14.9365 0.0000
# 6 0.0000 0.0000 0.0000 -8.5108 0.0000 9.1680
#
#
#
# Elastic Compliance Matrix: (Units=1/GPa)
#
#
# Indices 1 2 3 4 5 6 
#
# 1 0.017974 -0.010270 -0.001380 0.000000 0.009623 0.000000
# 2 -0.010270 0.027578 -0.003665 0.000000 0.002960 0.000000
# 3 -0.001380 -0.003665 0.014031 0.000000 0.008424 0.000000
# 4 0.000000 0.000000 0.000000 0.084391 0.000000 0.078342
# 5 0.009623 0.002960 0.008424 0.000000 0.084525 0.000000
# 6 0.000000 0.000000 0.000000 0.078342 0.000000 0.181801
#
#
# Mechanical properties :
#
#
# Convention : Reuss Voigt Hill
#
# Bulk Modulus (GPa) = 34.54057 44.46680 39.50369
# Shear Modulus (GPa) = 11.09679 18.18766 14.64222
#
# Velocity S-wave (km/s) = 2.68651 3.43937 3.08599
# Velocity P-wave (km/s) = 5.66466 6.68533 6.19605
#
# Compressibility (1/GPa) = 0.02895146
#
# Stress axis : x y z
#
# Youngs Moduli (GPa) = 55.63719 36.26093 71.27177
#
# Poissons Ratio (x) = 0.37240 0.09834
# Poissons Ratio (y) = 0.57140 0.26125
# Poissons Ratio (z) = 0.07677 0.13291
#
# Static dielectric constant tensor:
#      x y z
#    x 1.531790 0.000000 -0.001460 
#    y 0.000000 1.494610 0.000000 
#    z -0.001460 0.000000 1.549990 
# 
# From -- ./inp_files/16619.got.cif
#   From: 2010.05.17/outbox.cif.g08.bks.cpg/sg12_9_cif.got.tgz:16619.got - 2010.06.03 13:09:07.
