data_PCOD9176150
_publ_section_title
;
Structure prediction by ZEFSAII (Michael W. Deem and Ramdas Pophale) SiO2 
 PCOD9176150
Probable space group: C 2/M
;
_chemical_formula_sum "Si O2"
_cell_formula_units_Z 50
_cell_length_a 14.415295
_cell_length_b 7.603940
_cell_length_c 22.722143
_cell_angle_alpha 90.000000
_cell_angle_beta 113.519350
_cell_angle_gamma 90.000000
_cell_volume 2283.733839
_symmetry_space_group_name_H-M "C 2/M"
_symmetry_group_IT_number 12
_symmetry_cell_setting 'monoclinic'
loop_
_space_group_symop_operation_xyz
x,y,z
-x,y,-z
-x,-y,-z
x,-y,z
1/2+x,1/2+y,z
1/2-x,1/2+y,-z
1/2-x,1/2-y,-z
1/2+x,1/2-y,z
loop_
_atom_site_type_symbol
_atom_site_label
_atom_site_fract_x
_atom_site_fract_y
_atom_site_fract_z
Si Si1 0.859612 0.210061 0.003431
Si Si2 0.931544 0.215021 0.894328
Si Si3 0.411376 0.795103 0.332586
Si Si4 0.866518 0.292870 0.633250
Si Si5 0.000000 0.000000 0.500000
Si Si6 0.696238 0.714230 0.249704
Si Si7 0.648682 0.194227 0.544630
O O1 0.877027 0.272123 0.940973
O O2 0.870227 0.000000 0.003506
O O3 0.750000 0.250000 0.000000
O O4 0.952119 0.272468 0.067930
O O5 0.873841 0.274453 0.821526
O O6 0.929795 0.000000 0.891942
O O7 0.522171 0.716929 0.351363
O O8 0.312808 0.722602 0.274280
O O9 0.380179 0.789037 0.393103
O O10 0.420121 0.000000 0.317585
O O11 0.865759 0.500000 0.619443
O O12 0.845623 0.270219 0.697527
O O13 0.769707 0.215445 0.574844
O O14 0.918142 0.846558 0.499170
O O15 0.698894 0.500000 0.250875
O O16 0.620688 0.000000 0.516366
#
# Coordination Sequence:
#
# PCOD9176150 Si02
#       7
#     8   8   8   8   2   8   8
#     4   9  17  31  49  69  94 140 180 224 276 328
#     4   8  16  31  49  67 101 138 182 219 268 340
#     4   8  17  33  56  77 107 143 178 219 277 331
#     4  10  18  34  56  82 111 142 178 226 275 326
#     4  12  22  40  64  90 112 150 190 238 268 310
#     4   9  17  32  51  77 101 140 182 223 273 336
#     4  10  21  40  61  83 115 153 185 225 278 332
#
# _framework density 21.893971000000001
#
# number of rings (size 3 to 8) (size 9 to 14) (size 15 to 20)
#    0.000    2.880    0.800    2.640    0.000    1.280 
#    2.880    5.600    0.000    0.000    0.000    0.000 
#    0.000    0.000    0.000    0.000    0.000    0.000 
#
# Total GULP energy -139339.786481 kJ/mol
# GULP energy per Si atom -5573.591459 kJ/mol
# Density = 2.184414 g / cm^3
# Si number density = 21.893971 Si / 1000 Ang^3
#
#
#
# Elastic Constant Matrix: (Units=GPa)
#
#
# Indices 1 2 3 4 5 6 
#
# 1 164.9423 12.9620 77.6973 0.0000 43.8231 0.0000
# 2 12.9620 85.4753 26.4145 0.0000 8.2636 0.0000
# 3 77.6973 26.4145 158.8483 0.0000 17.8859 0.0000
# 4 0.0000 0.0000 0.0000 9.2539 0.0000 8.4010
# 5 43.8231 8.2636 17.8859 0.0000 27.2207 0.0000
# 6 0.0000 0.0000 0.0000 8.4010 0.0000 7.9833
#
#
#
# Elastic Compliance Matrix: (Units=1/GPa)
#
#
# Indices 1 2 3 4 5 6 
#
# 1 0.012909 0.001181 -0.004460 0.000000 -0.018211 0.000000
# 2 0.001181 0.012612 -0.002192 0.000000 -0.004290 0.000000
# 3 -0.004460 -0.002192 0.008594 0.000000 0.002199 0.000000
# 4 0.000000 0.000000 0.000000 2.419177 0.000000 -2.545747
# 5 -0.018211 -0.004290 0.002199 0.000000 0.065912 0.000000
# 6 0.000000 0.000000 0.000000 -2.545747 0.000000 2.804200
#
#
# Mechanical properties :
#
#
# Convention : Reuss Voigt Hill
#
# Bulk Modulus (GPa) = 43.15256 71.49037 57.32146
# Shear Modulus (GPa) = 0.93597 28.37105 14.65351
#
# Velocity S-wave (km/s) = 0.65454 3.60368 2.58988
# Velocity P-wave (km/s) = 4.50819 7.07384 5.93140
#
# Compressibility (1/GPa) = 0.02317360
#
# Stress axis : x y z
#
# Youngs Moduli (GPa) = 77.46310 79.28753 116.36266
#
# Poissons Ratio (x) = -0.09366 0.51901
# Poissons Ratio (y) = -0.09151 0.25507
# Poissons Ratio (z) = 0.34551 0.17380
#
# Static dielectric constant tensor:
#      x y z
#    x 1.812420 0.000000 0.018600 
#    y 0.000000 1.814290 0.000000 
#    z 0.018600 0.000000 1.808790 
# 
# From -- ./inp_files/337765.got.cif
#   From: 2010.05.17/outbox.cif.g08.bks.cpg/sg12_169_cif.got.tgz:337765.got - 2010.06.03 13:09:07.
