data_PCOD9176518
_publ_section_title
;
Structure prediction by ZEFSAII (Michael W. Deem and Ramdas Pophale) SiO2 
 PCOD9176518
Probable space group: C 2/M
;
_chemical_formula_sum "Si O2"
_cell_formula_units_Z 56
_cell_length_a 27.312167
_cell_length_b 14.681968
_cell_length_c 9.555174
_cell_angle_alpha 90.000000
_cell_angle_beta 56.206515
_cell_angle_gamma 90.000000
_cell_volume 3184.234140
_symmetry_space_group_name_H-M "C 2/M"
_symmetry_group_IT_number 12
_symmetry_cell_setting 'monoclinic'
loop_
_space_group_symop_operation_xyz
x,y,z
-x,y,-z
-x,-y,-z
x,-y,z
1/2+x,1/2+y,z
1/2-x,1/2+y,-z
1/2-x,1/2-y,-z
1/2+x,1/2-y,z
loop_
_atom_site_type_symbol
_atom_site_label
_atom_site_fract_x
_atom_site_fract_y
_atom_site_fract_z
Si Si1 0.313494 0.286413 0.186556
Si Si2 0.717462 0.158915 0.998914
Si Si3 0.594233 0.608334 0.147821
Si Si4 0.359927 0.733323 0.421308
Si Si5 0.472804 0.606980 0.198677
Si Si6 0.689268 0.107528 0.340774
Si Si7 0.334703 0.399285 0.700761
O O1 0.311976 0.193829 0.096630
O O2 0.327606 0.266229 0.324309
O O3 0.253217 0.345339 0.269730
O O4 0.365522 0.345067 0.033222
O O5 0.772524 0.095287 0.878126
O O6 0.750000 0.250000 0.000000
O O7 0.680027 0.122411 0.188208
O O8 0.604734 0.500000 0.124758
O O9 0.525958 0.623072 0.223184
O O10 0.617691 0.637448 0.263098
O O11 0.421729 0.680518 0.303112
O O12 0.356986 0.833172 0.495653
O O13 0.327045 0.668806 0.585394
O O14 0.453899 0.500000 0.240297
O O15 0.500000 0.616541 0.000000
O O16 0.689989 0.000000 0.370464
O O17 0.352643 0.500000 0.626082
#
# Coordination Sequence:
#
# PCOD9176518 Si02
#       7
#     8   8   8   8   8   8   8
#     4  11  20  35  57  84 117 149 188 233 286 342
#     4  10  18  35  54  77 112 150 193 223 274 343
#     4  10  19  34  57  83 113 152 195 229 278 347
#     4  12  23  37  54  85 123 149 188 240 284 338
#     4  10  21  37  57  84 116 154 194 232 285 344
#     4  11  22  37  58  83 115 153 190 232 284 339
#     4  11  21  34  55  84 117 153 187 232 283 339
#
# _framework density 17.586645999999998
#
# number of rings (size 3 to 8) (size 9 to 14) (size 15 to 20)
#    0.000    1.286    7.143    1.714    0.000    2.286 
#    0.000    2.857    0.000    0.429    0.000    5.000 
#    0.000    0.000    0.000    0.000    0.000    0.000 
#
# Total GULP energy -156109.780466 kJ/mol
# GULP energy per Si atom -5575.349302 kJ/mol
# Density = 1.754662 g / cm^3
# Si number density = 17.586646 Si / 1000 Ang^3
#
#
#
# Elastic Constant Matrix: (Units=GPa)
#
#
# Indices 1 2 3 4 5 6 
#
# 1 89.3150 41.6805 47.2327 0.0000 18.8965 0.0000
# 2 41.6805 106.3590 51.4479 0.0000 1.6554 0.0000
# 3 47.2327 51.4479 92.2935 0.0000 13.8420 0.0000
# 4 0.0000 0.0000 0.0000 11.3211 0.0000 -3.6007
# 5 18.8965 1.6554 13.8420 0.0000 40.5136 0.0000
# 6 0.0000 0.0000 0.0000 -3.6007 0.0000 17.9375
#
#
#
# Elastic Compliance Matrix: (Units=1/GPa)
#
#
# Indices 1 2 3 4 5 6 
#
# 1 0.017346 -0.003892 -0.005816 0.000000 -0.005944 0.000000
# 2 -0.003892 0.013907 -0.006269 0.000000 0.003389 0.000000
# 3 -0.005816 -0.006269 0.017771 0.000000 -0.003103 0.000000
# 4 0.000000 0.000000 0.000000 0.094354 0.000000 0.018940
# 5 -0.005944 0.003389 -0.003103 0.000000 0.028377 0.000000
# 6 0.000000 0.000000 0.000000 0.018940 0.000000 0.059551
#
#
# Mechanical properties :
#
#
# Convention : Reuss Voigt Hill
#
# Bulk Modulus (GPa) = 58.57963 63.18775 60.88369
# Shear Modulus (GPa) = 18.59080 23.79487 21.19284
#
# Velocity S-wave (km/s) = 3.25483 3.68232 3.47515
# Velocity P-wave (km/s) = 6.89251 7.35436 7.12718
#
# Compressibility (1/GPa) = 0.01707078
#
# Stress axis : x y z
#
# Youngs Moduli (GPa) = 57.65058 71.90724 56.27037
#
# Poissons Ratio (x) = 0.27984 0.32728
# Poissons Ratio (y) = 0.22436 0.35275
# Poissons Ratio (z) = 0.33530 0.45077
#
# Static dielectric constant tensor:
#      x y z
#    x 1.633190 0.000000 0.011350 
#    y 0.000000 1.296410 0.000000 
#    z 0.011350 0.000000 1.638450 
# 
# From -- ./inp_files/104436.got.cif
#   From: 2010.05.17/outbox.cif.g08.bks.cpg/sg12_53_cif.got.tgz:104436.got - 2010.06.03 13:09:07.
