data_PCOD9176036
_publ_section_title
;
Structure prediction by ZEFSAII (Michael W. Deem and Ramdas Pophale) SiO2 
 PCOD9176036
Probable space group: C 2/M
;
_chemical_formula_sum "Si O2"
_cell_formula_units_Z 64
_cell_length_a 15.092223
_cell_length_b 12.969000
_cell_length_c 21.428696
_cell_angle_alpha 90.000000
_cell_angle_beta 138.641556
_cell_angle_gamma 90.000000
_cell_volume 2771.431931
_symmetry_space_group_name_H-M "C 2/M"
_symmetry_group_IT_number 12
_symmetry_cell_setting 'monoclinic'
loop_
_space_group_symop_operation_xyz
x,y,z
-x,y,-z
-x,-y,-z
x,-y,z
1/2+x,1/2+y,z
1/2-x,1/2+y,-z
1/2-x,1/2-y,-z
1/2+x,1/2-y,z
loop_
_atom_site_type_symbol
_atom_site_label
_atom_site_fract_x
_atom_site_fract_y
_atom_site_fract_z
Si Si1 0.346662 0.163238 0.922155
Si Si2 0.032889 0.829841 0.164471
Si Si3 0.060959 0.824642 0.744552
Si Si4 0.590335 0.885410 0.911031
Si Si5 0.515943 0.123815 0.356026
Si Si6 0.816945 0.378878 0.357853
Si Si7 0.276567 0.622831 0.557128
Si Si8 0.336759 0.388629 0.950691
O O1 0.212366 0.134509 0.813712
O O2 0.500000 0.122424 0.000000
O O3 0.319671 0.137887 0.980349
O O4 0.355052 0.286808 0.919734
O O5 0.186358 0.862414 0.246178
O O6 0.977723 0.853446 0.204846
O O7 0.015853 0.706394 0.147379
O O8 0.943786 0.880692 0.063755
O O9 0.050026 0.701044 0.728231
O O10 0.936133 0.862377 0.636978
O O11 0.532084 0.000000 0.883804
O O12 0.694169 0.881383 0.909584
O O13 0.444454 0.151934 0.384181
O O14 0.673249 0.151471 0.447622
O O15 0.498942 0.000000 0.335154
O O16 0.837333 0.500000 0.378438
O O17 0.777812 0.333598 0.404871
O O18 0.257797 0.500000 0.551152
O O19 0.346718 0.500000 0.924548
#
# Coordination Sequence:
#
# PCOD9176036 Si02
#       8
#     8   8   8   8   8   8   8   8
#     4  11  23  37  52  78 115 143 176 224 266 314
#     4  10  18  34  52  78 107 137 183 221 251 316
#     4  11  21  34  53  81 108 145 178 214 268 321
#     4  10  20  36  56  71 100 146 190 225 254 299
#     4  10  21  35  54  84 114 136 167 220 281 327
#     4   9  18  32  57  84 107 134 168 215 275 325
#     4   9  19  37  59  80 105 139 180 221 261 320
#     4  10  19  35  57  76 103 141 182 222 264 312
#
# _framework density 23.092753999999999
#
# number of rings (size 3 to 8) (size 9 to 14) (size 15 to 20)
#    0.000    2.000    2.500    1.875    3.500    4.000 
#    0.000    0.000    0.000    0.000    0.000    0.000 
#    0.000    9.000    0.000    0.000    0.000    0.000 
#
# Total GULP energy -178578.912906 kJ/mol
# GULP energy per Si atom -5580.591028 kJ/mol
# Density = 2.304019 g / cm^3
# Si number density = 23.092754 Si / 1000 Ang^3
#
#
#
# Elastic Constant Matrix: (Units=GPa)
#
#
# Indices 1 2 3 4 5 6 
#
# 1 61.2597 9.8397 29.1002 0.0000 21.2041 0.0000
# 2 9.8397 58.9100 -4.7058 0.0000 4.7980 0.0000
# 3 29.1002 -4.7058 136.9821 0.0000 30.5111 0.0000
# 4 0.0000 0.0000 0.0000 4.3675 0.0000 7.8929
# 5 21.2041 4.7980 30.5111 0.0000 34.8695 0.0000
# 6 0.0000 0.0000 0.0000 7.8929 0.0000 14.6670
#
#
#
# Elastic Compliance Matrix: (Units=1/GPa)
#
#
# Indices 1 2 3 4 5 6 
#
# 1 0.021595 -0.002918 -0.002301 0.000000 -0.010717 0.000000
# 2 -0.002918 0.017776 0.001714 0.000000 -0.002172 0.000000
# 3 -0.002301 0.001714 0.009426 0.000000 -0.007085 0.000000
# 4 0.000000 0.000000 0.000000 8.328892 0.000000 -4.482089
# 5 -0.010717 -0.002172 -0.007085 0.000000 0.041693 0.000000
# 6 0.000000 0.000000 0.000000 -4.482089 0.000000 2.480160
#
#
# Mechanical properties :
#
#
# Convention : Reuss Voigt Hill
#
# Bulk Modulus (GPa) = 23.93002 36.17997 30.05500
# Shear Modulus (GPa) = 0.45786 25.64199 13.04992
#
# Velocity S-wave (km/s) = 0.44576 3.33587 2.37978
# Velocity P-wave (km/s) = 3.26343 5.52617 4.53809
#
# Compressibility (1/GPa) = 0.04178851
#
# Stress axis : x y z
#
# Youngs Moduli (GPa) = 46.30660 56.25488 106.09105
#
# Poissons Ratio (x) = 0.16415 0.24409
# Poissons Ratio (y) = 0.13512 -0.18187
# Poissons Ratio (z) = 0.10654 -0.09643
#
# Static dielectric constant tensor:
#      x y z
#    x 1.943450 0.000000 0.009990 
#    y 0.000000 1.909040 0.000000 
#    z 0.009990 0.000000 1.894260 
# 
# From -- ./inp_files/340196.got.cif
#   From: 2010.05.17/outbox.cif.g08.bks.cpg/sg12_171_cif.got.tgz:340196.got - 2010.06.03 13:09:07.
