data_PCOD9176934
_publ_section_title
;
Structure prediction by ZEFSAII (Michael W. Deem and Ramdas Pophale) SiO2 
 PCOD9176934
Probable space group: C 2/M
;
_chemical_formula_sum "Si O2"
_cell_formula_units_Z 40
_cell_length_a 12.475182
_cell_length_b 22.504606
_cell_length_c 9.219866
_cell_angle_alpha 90.000000
_cell_angle_beta 125.841437
_cell_angle_gamma 90.000000
_cell_volume 2098.317691
_symmetry_space_group_name_H-M "C 2/M"
_symmetry_group_IT_number 12
_symmetry_cell_setting 'monoclinic'
loop_
_space_group_symop_operation_xyz
x,y,z
-x,y,-z
-x,-y,-z
x,-y,z
1/2+x,1/2+y,z
1/2-x,1/2+y,-z
1/2-x,1/2-y,-z
1/2+x,1/2-y,z
loop_
_atom_site_type_symbol
_atom_site_label
_atom_site_fract_x
_atom_site_fract_y
_atom_site_fract_z
Si Si1 0.000000 0.332255 0.000000
Si Si2 0.859633 0.000000 0.804941
Si Si3 0.781999 0.880358 0.150728
Si Si4 0.053092 0.000000 0.704239
Si Si5 0.343438 0.627785 0.876350
Si Si6 0.381769 0.734828 0.688108
Si Si7 0.000000 0.182354 0.500000
O O1 0.127360 0.372267 0.061268
O O2 0.051334 0.287278 0.166350
O O3 0.788224 0.062572 0.786064
O O4 0.917625 0.000000 0.689117
O O5 0.000000 0.000000 0.000000
O O6 0.867515 0.853701 0.352345
O O7 0.853098 0.944019 0.189178
O O8 0.800715 0.853207 0.003715
O O9 0.000000 0.000000 0.500000
O O10 0.334965 0.681261 0.756151
O O11 0.500000 0.618124 0.000000
O O12 0.250000 0.750000 0.500000
O O13 0.477379 0.716088 0.632597
#
# Coordination Sequence:
#
# PCOD9176934 Si02
#       7
#     4   4   8   4   8   8   4
#     4  12  28  43  60  93 142 182 208 270 336 398
#     4  10  18  36  62  95 121 149 210 270 325 367
#     4  12  24  41  65  97 131 172 219 267 338 387
#     4  12  22  37  70 102 125 165 217 286 320 386
#     4  11  20  39  65  94 123 162 216 274 320 382
#     4  12  25  41  64  95 131 174 221 270 330 388
#     4  12  22  39  66  94 124 165 228 276 312 396
#
# _framework density 19.062889999999999
#
# number of rings (size 3 to 8) (size 9 to 14) (size 15 to 20)
#    0.000    0.400   10.000    0.000    2.800    2.000 
#    0.000    0.000    0.000    0.000    0.000    4.200 
#    0.000    0.000    0.000    0.000    0.000    0.000 
#
# Total GULP energy -111350.457850 kJ/mol
# GULP energy per Si atom -5567.522893 kJ/mol
# Density = 1.901950 g / cm^3
# Si number density = 19.062890 Si / 1000 Ang^3
#
#
#
# Elastic Constant Matrix: (Units=GPa)
#
#
# Indices 1 2 3 4 5 6 
#
# 1 92.3856 3.3776 33.1793 0.0000 -2.4843 0.0000
# 2 3.3776 57.2788 27.0306 0.0000 1.5183 0.0000
# 3 33.1793 27.0306 102.3187 0.0000 -8.5697 0.0000
# 4 0.0000 0.0000 0.0000 46.2873 0.0000 -11.0617
# 5 -2.4843 1.5183 -8.5697 0.0000 44.4681 0.0000
# 6 0.0000 0.0000 0.0000 -11.0617 0.0000 17.0897
#
#
#
# Elastic Compliance Matrix: (Units=1/GPa)
#
#
# Indices 1 2 3 4 5 6 
#
# 1 0.012340 0.001341 -0.004373 0.000000 -0.000199 0.000000
# 2 0.001341 0.020222 -0.005924 0.000000 -0.001757 0.000000
# 3 -0.004373 -0.005924 0.012962 0.000000 0.002456 0.000000
# 4 0.000000 0.000000 0.000000 0.025558 0.000000 0.016543
# 5 -0.000199 -0.001757 0.002456 0.000000 0.023010 0.000000
# 6 0.000000 0.000000 0.000000 0.016543 0.000000 0.069222
#
#
# Mechanical properties :
#
#
# Convention : Reuss Voigt Hill
#
# Bulk Modulus (GPa) = 36.21549 42.12867 39.17208
# Shear Modulus (GPa) = 26.25642 34.12872 30.19257
#
# Velocity S-wave (km/s) = 3.71530 4.23581 3.98407
# Velocity P-wave (km/s) = 6.11913 6.78753 6.46198
#
# Compressibility (1/GPa) = 0.02761250
#
# Stress axis : x y z
#
# Youngs Moduli (GPa) = 81.03618 49.45185 77.14826
#
# Poissons Ratio (x) = -0.06632 0.33733
# Poissons Ratio (y) = -0.10867 0.45704
# Poissons Ratio (z) = 0.35433 0.29296
#
# Static dielectric constant tensor:
#      x y z
#    x 1.988770 0.000000 -0.079820 
#    y 0.000000 2.107450 0.000000 
#    z -0.079820 0.000000 1.722930 
# 
# From -- ./inp_files/51023.got.cif
#   From: 2010.05.17/outbox.cif.g08.bks.cpg/sg12_26_cif.got.tgz:51023.got - 2010.06.03 13:09:07.
