data_PCOD9176065
_publ_section_title
;
Structure prediction by ZEFSAII (Michael W. Deem and Ramdas Pophale) SiO2 
 PCOD9176065
Probable space group: C 2/M
;
_chemical_formula_sum "Si O2"
_cell_formula_units_Z 64
_cell_length_a 13.443823
_cell_length_b 15.595667
_cell_length_c 21.877722
_cell_angle_alpha 90.000000
_cell_angle_beta 130.674757
_cell_angle_gamma 90.000000
_cell_volume 3478.880487
_symmetry_space_group_name_H-M "C 2/M"
_symmetry_group_IT_number 12
_symmetry_cell_setting 'monoclinic'
loop_
_space_group_symop_operation_xyz
x,y,z
-x,y,-z
-x,-y,-z
x,-y,z
1/2+x,1/2+y,z
1/2-x,1/2+y,-z
1/2-x,1/2-y,-z
1/2+x,1/2-y,z
loop_
_atom_site_type_symbol
_atom_site_label
_atom_site_fract_x
_atom_site_fract_y
_atom_site_fract_z
Si Si1 0.623550 0.715715 0.078472
Si Si2 0.860955 0.595342 0.136245
Si Si3 0.380587 0.157578 0.693233
Si Si4 0.940857 0.231259 0.308400
Si Si5 0.945490 0.901701 0.195842
Si Si6 0.669734 0.305057 0.230080
Si Si7 0.092947 0.902493 0.595469
Si Si8 0.286188 0.161213 0.980307
O O1 0.755404 0.662542 0.119578
O O2 0.598525 0.724043 0.139640
O O3 0.637595 0.805133 0.048599
O O4 0.500000 0.667829 0.000000
O O5 0.813059 0.500000 0.129644
O O6 0.998747 0.608600 0.225867
O O7 0.862242 0.609186 0.063181
O O8 0.434869 0.207963 0.655686
O O9 0.348612 0.232861 0.727402
O O10 0.244537 0.107219 0.634520
O O11 0.921548 0.169147 0.240445
O O12 0.822172 0.298165 0.273518
O O13 0.942226 0.166226 0.366022
O O14 0.090956 0.885313 0.225940
O O15 0.841673 0.884053 0.099542
O O16 0.931772 0.000000 0.211617
O O17 0.000000 0.889092 0.500000
O O18 0.074407 0.000000 0.610801
O O19 0.250000 0.250000 0.000000
#
# Coordination Sequence:
#
# PCOD9176065 Si02
#       8
#     8   8   8   8   8   8   8   8
#     4  11  19  31  51  71 100 147 194 230 275 327
#     4  11  21  33  49  75 110 144 184 239 288 321
#     4  10  20  37  60  81 111 149 185 224 276 340
#     4  10  19  38  60  82 115 153 187 219 277 345
#     4  11  21  34  55  84 112 145 190 245 282 317
#     4  10  18  34  54  78 104 145 187 224 271 333
#     4  10  22  39  62  91 117 143 180 229 282 335
#     4  10  19  34  49  69 103 152 192 230 277 327
#
# _framework density 18.396723999999999
#
# number of rings (size 3 to 8) (size 9 to 14) (size 15 to 20)
#    0.000    1.625    2.500    5.625    0.000    1.250 
#    0.000    0.000    0.000    1.500    0.000    0.000 
#    0.000   13.000    0.000    0.000    0.000    0.000 
#
# Total GULP energy -178175.191597 kJ/mol
# GULP energy per Si atom -5567.974737 kJ/mol
# Density = 1.835485 g / cm^3
# Si number density = 18.396724 Si / 1000 Ang^3
#
#
#
# Elastic Constant Matrix: (Units=GPa)
#
#
# Indices 1 2 3 4 5 6 
#
# 1 87.8010 17.3364 31.1104 0.0000 3.9819 0.0000
# 2 17.3364 58.0056 21.4002 0.0000 2.6303 0.0000
# 3 31.1104 21.4002 92.3048 0.0000 11.0352 0.0000
# 4 0.0000 0.0000 0.0000 -12.0743 0.0000 0.2370
# 5 3.9819 2.6303 11.0352 0.0000 20.0777 0.0000
# 6 0.0000 0.0000 0.0000 0.2370 0.0000 14.7638
#
#
#
# Elastic Compliance Matrix: (Units=1/GPa)
#
#
# Indices 1 2 3 4 5 6 
#
# 1 0.013266 -0.002532 -0.003863 0.000000 -0.000176 0.000000
# 2 -0.002532 0.019335 -0.003625 0.000000 -0.000039 0.000000
# 3 -0.003863 -0.003625 0.013730 0.000000 -0.006305 0.000000
# 4 0.000000 0.000000 0.000000 -0.082795 0.000000 0.001329
# 5 -0.000176 -0.000039 -0.006305 0.000000 0.053312 0.000000
# 6 0.000000 0.000000 0.000000 0.001329 0.000000 0.067712
#
#
# Mechanical properties :
#
#
# Convention : Reuss Voigt Hill
#
# Bulk Modulus (GPa) = 38.03443 41.97838 40.00640
# Shear Modulus (GPa) = 44.10562 15.77107 29.93834
#
# Velocity S-wave (km/s) = 4.90171 2.93110 4.03845
# Velocity P-wave (km/s) = 7.26327 5.85859 6.59842
#
# Compressibility (1/GPa) = 0.02629197
#
# Stress axis : x y z
#
# Youngs Moduli (GPa) = 75.38009 51.71842 72.83352
#
# Poissons Ratio (x) = 0.13093 0.28137
# Poissons Ratio (y) = 0.19084 0.26401
# Poissons Ratio (z) = 0.29121 0.18747
#
# Static dielectric constant tensor:
#      x y z
#    x 1.713880 0.000000 0.029370 
#    y 0.000000 1.622510 0.000000 
#    z 0.029370 0.000000 1.671200 
# 
# From -- ./inp_files/306207.got.cif
#   From: 2010.05.17/outbox.cif.g08.bks.cpg/sg12_154_cif.got.tgz:306207.got - 2010.06.03 13:09:07.
