data_PCOD9176367
_publ_section_title
;
Structure prediction by ZEFSAII (Michael W. Deem and Ramdas Pophale) SiO2 
 PCOD9176367
Probable space group: C 2/M
;
_chemical_formula_sum "Si O2"
_cell_formula_units_Z 64
_cell_length_a 15.148020
_cell_length_b 7.991341
_cell_length_c 28.498249
_cell_angle_alpha 90.000000
_cell_angle_beta 129.151659
_cell_angle_gamma 90.000000
_cell_volume 2675.240865
_symmetry_space_group_name_H-M "C 2/M"
_symmetry_group_IT_number 12
_symmetry_cell_setting 'monoclinic'
loop_
_space_group_symop_operation_xyz
x,y,z
-x,y,-z
-x,-y,-z
x,-y,z
1/2+x,1/2+y,z
1/2-x,1/2+y,-z
1/2-x,1/2-y,-z
1/2+x,1/2-y,z
loop_
_atom_site_type_symbol
_atom_site_label
_atom_site_fract_x
_atom_site_fract_y
_atom_site_fract_z
Si Si1 0.264093 0.690781 0.651000
Si Si2 0.074797 0.200720 0.978216
Si Si3 0.747698 0.200309 0.801383
Si Si4 0.974228 0.296136 0.398898
Si Si5 0.682534 0.694696 0.523911
Si Si6 0.981377 0.692156 0.847587
Si Si7 0.496479 0.199800 0.694888
Si Si8 0.282650 0.794883 0.105558
O O1 0.273657 0.500000 0.669247
O O2 0.156639 0.763691 0.643072
O O3 0.220170 0.704816 0.582381
O O4 0.391321 0.760703 0.693218
O O5 0.025393 0.289410 0.916047
O O6 0.073482 0.000000 0.968283
O O7 0.201047 0.257553 0.035857
O O8 0.000000 0.225933 0.000000
O O9 0.853618 0.240371 0.803818
O O10 0.622027 0.267070 0.748089
O O11 0.770892 0.254308 0.862711
O O12 0.740050 0.000000 0.799211
O O13 0.975501 0.500000 0.403286
O O14 0.051457 0.223255 0.465865
O O15 0.027603 0.247919 0.366781
O O16 0.706184 0.500000 0.541408
O O17 0.750000 0.750000 0.500000
O O18 0.973641 0.500000 0.831111
O O19 0.087685 0.766856 0.854621
O O20 0.505624 0.000000 0.697402
O O21 0.284220 0.000000 0.104643
#
# Coordination Sequence:
#
# PCOD9176367 Si02
#       8
#     8   8   8   8   8   8   8   8
#     4  11  23  39  61  88 122 158 190 237 297 347
#     4  10  18  34  60  82 109 152 190 222 276 351
#     4  10  21  41  62  80 109 155 202 234 279 343
#     4  10  22  40  60  88 123 156 191 238 295 344
#     4  12  23  37  61  91 121 155 195 238 290 349
#     4  11  22  35  55  86 118 145 182 240 296 333
#     4  10  22  40  63  85 111 153 201 245 282 337
#     4   9  19  36  57  82 114 150 188 232 284 343
#
# _framework density 23.923079999999999
#
# number of rings (size 3 to 8) (size 9 to 14) (size 15 to 20)
#    0.000    1.625    2.500    2.625    0.000    4.250 
#    0.000    1.875    0.000    0.000    0.000    0.000 
#    0.000    0.000    0.000    0.000    0.000    0.000 
#
# Total GULP energy -178878.695914 kJ/mol
# GULP energy per Si atom -5589.959247 kJ/mol
# Density = 2.386863 g / cm^3
# Si number density = 23.923080 Si / 1000 Ang^3
#
#
#
# Elastic Constant Matrix: (Units=GPa)
#
#
# Indices 1 2 3 4 5 6 
#
# 1 134.1786 4.5445 9.9981 0.0000 33.1400 0.0000
# 2 4.5445 16.9631 -1.4852 0.0000 3.9888 0.0000
# 3 9.9981 -1.4852 62.5768 0.0000 34.9906 0.0000
# 4 0.0000 0.0000 0.0000 18.8094 0.0000 11.0822
# 5 33.1400 3.9888 34.9906 0.0000 45.0251 0.0000
# 6 0.0000 0.0000 0.0000 11.0822 0.0000 22.7364
#
#
#
# Elastic Compliance Matrix: (Units=1/GPa)
#
#
# Indices 1 2 3 4 5 6 
#
# 1 0.009732 0.000263 0.004367 0.000000 -0.010580 0.000000
# 2 0.000263 0.062446 0.008209 0.000000 -0.012105 0.000000
# 3 0.004367 0.008209 0.031270 0.000000 -0.028242 0.000000
# 4 0.000000 0.000000 0.000000 0.074584 0.000000 -0.036354
# 5 -0.010580 -0.012105 -0.028242 0.000000 0.053018 0.000000
# 6 0.000000 0.000000 0.000000 -0.036354 0.000000 0.061702
#
#
# Mechanical properties :
#
#
# Convention : Reuss Voigt Hill
#
# Bulk Modulus (GPa) = 7.74439 26.64816 17.19627
# Shear Modulus (GPa) = 16.12307 30.69159 23.40733
#
# Velocity S-wave (km/s) = 2.59888 3.58568 3.13140
# Velocity P-wave (km/s) = 3.49997 5.32035 4.50311
#
# Compressibility (1/GPa) = 0.12912572
#
# Stress axis : x y z
#
# Youngs Moduli (GPa) = 102.75871 16.01380 31.98001
#
# Poissons Ratio (x) = -0.00421 -0.13967
# Poissons Ratio (y) = -0.02704 -0.26251
# Poissons Ratio (z) = -0.44879 -0.13145
#
# Static dielectric constant tensor:
#      x y z
#    x 1.936750 0.000000 0.043660 
#    y 0.000000 1.859950 0.000000 
#    z 0.043660 0.000000 1.943240 
# 
# From -- ./inp_files/375579.got.cif
#   From: 2010.05.17/outbox.cif.g08.bks.cpg/sg12_188_cif.got.tgz:375579.got - 2010.06.03 13:09:07.
