data_PCOD9176887
_publ_section_title
;
Structure prediction by ZEFSAII (Michael W. Deem and Ramdas Pophale) SiO2 
 PCOD9176887
Probable space group: C 2/M
;
_chemical_formula_sum "Si O2"
_cell_formula_units_Z 64
_cell_length_a 18.951098
_cell_length_b 18.082137
_cell_length_c 20.661420
_cell_angle_alpha 90.000000
_cell_angle_beta 152.605695
_cell_angle_gamma 90.000000
_cell_volume 3257.672500
_symmetry_space_group_name_H-M "C 2/M"
_symmetry_group_IT_number 12
_symmetry_cell_setting 'monoclinic'
loop_
_space_group_symop_operation_xyz
x,y,z
-x,y,-z
-x,-y,-z
x,-y,z
1/2+x,1/2+y,z
1/2-x,1/2+y,-z
1/2-x,1/2-y,-z
1/2+x,1/2-y,z
loop_
_atom_site_type_symbol
_atom_site_label
_atom_site_fract_x
_atom_site_fract_y
_atom_site_fract_z
Si Si1 0.752703 0.412778 0.626324
Si Si2 0.444715 0.173924 0.388928
Si Si3 0.271864 0.586449 0.886214
Si Si4 0.384952 0.274903 0.562987
Si Si5 0.227984 0.186261 0.871964
Si Si6 0.114343 0.585031 0.895137
Si Si7 0.517366 0.705218 0.936975
Si Si8 0.241263 0.314114 0.252025
O O1 0.713430 0.500000 0.584959
O O2 0.661754 0.350617 0.511701
O O3 0.728925 0.385697 0.680837
O O4 0.932622 0.403173 0.755589
O O5 0.500000 0.135847 0.500000
O O6 0.316738 0.129002 0.244430
O O7 0.581362 0.203481 0.455083
O O8 0.370875 0.252207 0.350115
O O9 0.281967 0.500000 0.879345
O O10 0.167292 0.596106 0.864718
O O11 0.442503 0.619350 0.040424
O O12 0.250000 0.250000 0.500000
O O13 0.549190 0.294397 0.728806
O O14 0.280348 0.162880 0.841144
O O15 0.285948 0.131904 0.973817
O O16 0.326111 0.260093 0.961471
O O17 0.143495 0.500000 0.935088
O O18 0.386110 0.764381 0.812861
O O19 0.500000 0.710005 0.000000
#
# Coordination Sequence:
#
# PCOD9176887 Si02
#       8
#     8   8   8   8   8   8   8   8
#     4  11  23  38  62  93 128 166 205 256 318 372
#     4  11  21  41  63  87 124 162 209 260 306 378
#     4  11  23  39  60  87 123 157 201 265 321 361
#     4  11  23  40  63  93 123 169 216 253 304 376
#     4  10  21  37  63  89 119 161 209 252 306 369
#     4  10  23  40  58  88 127 163 202 256 313 371
#     4  10  18  36  60  86 116 149 200 252 305 367
#     4  10  20  38  61  94 123 156 202 258 309 370
#
# _framework density 19.645928999999999
#
# number of rings (size 3 to 8) (size 9 to 14) (size 15 to 20)
#    0.000    1.500    6.250    0.750    0.000    3.000 
#    0.000    5.625    0.000    0.000    0.000    0.000 
#    0.000    0.000    0.000    0.000    0.000    0.000 
#
# Total GULP energy -178136.377450 kJ/mol
# GULP energy per Si atom -5566.761795 kJ/mol
# Density = 1.960121 g / cm^3
# Si number density = 19.645929 Si / 1000 Ang^3
#
#
#
# Elastic Constant Matrix: (Units=GPa)
#
#
# Indices 1 2 3 4 5 6 
#
# 1 34.7236 29.7424 29.0814 -0.0081 16.7061 -0.0085
# 2 29.7424 88.1028 29.1912 -0.0090 1.1136 -0.0097
# 3 29.0814 29.1912 73.1213 -0.0109 3.7020 -0.0104
# 4 -0.0081 -0.0090 -0.0109 18.2381 -0.0042 3.6258
# 5 16.7061 1.1136 3.7020 -0.0042 29.2286 -0.0021
# 6 -0.0085 -0.0097 -0.0104 3.6258 -0.0021 24.1052
#
#
#
# Elastic Compliance Matrix: (Units=1/GPa)
#
#
# Indices 1 2 3 4 5 6 
#
# 1 0.092813 -0.022247 -0.025553 0.000002 -0.048965 0.000008
# 2 -0.022247 0.018414 0.000894 0.000002 0.011901 0.000001
# 3 -0.025553 0.000894 0.022891 0.000005 0.011672 0.000002
# 4 0.000002 0.000002 0.000005 0.056520 0.000006 -0.008502
# 5 -0.048965 0.011901 0.011672 0.000006 0.060268 -0.000003
# 6 0.000008 0.000001 0.000002 -0.008502 -0.000003 0.042764
#
#
# Mechanical properties :
#
#
# Convention : Reuss Voigt Hill
#
# Bulk Modulus (GPa) = 24.80986 41.33086 33.07036
# Shear Modulus (GPa) = 12.47147 21.50991 16.99069
#
# Velocity S-wave (km/s) = 2.52228 3.31248 2.94402
# Velocity P-wave (km/s) = 4.59766 5.97609 5.33161
#
# Compressibility (1/GPa) = 0.04030655
#
# Stress axis : x y z
#
# Youngs Moduli (GPa) = 10.77439 54.30667 43.68599
#
# Poissons Ratio (x) = 1.20816 1.11629
# Poissons Ratio (y) = 0.23970 -0.03907
# Poissons Ratio (z) = 0.27531 -0.04857
#
# Static dielectric constant tensor:
#      x y z
#    x 1.748850 0.000000 -0.005550 
#    y 0.000000 1.777370 0.000000 
#    z -0.005550 0.000000 1.779960 
# 
# From -- ./inp_files/317389.got.cif
#   From: 2010.05.17/outbox.cif.g08.bks.cpg/sg12_159_cif.got.tgz:317389.got - 2010.06.03 13:09:07.
