data_PCOD9176505
_publ_section_title
;
Structure prediction by ZEFSAII (Michael W. Deem and Ramdas Pophale) SiO2 
 PCOD9176505
Probable space group: C 2/M
;
_chemical_formula_sum "Si O2"
_cell_formula_units_Z 60
_cell_length_a 19.741357
_cell_length_b 20.917491
_cell_length_c 8.424285
_cell_angle_alpha 90.000000
_cell_angle_beta 104.469377
_cell_angle_gamma 90.000000
_cell_volume 3368.380923
_symmetry_space_group_name_H-M "C 2/M"
_symmetry_group_IT_number 12
_symmetry_cell_setting 'monoclinic'
loop_
_space_group_symop_operation_xyz
x,y,z
-x,y,-z
-x,-y,-z
x,-y,z
1/2+x,1/2+y,z
1/2-x,1/2+y,-z
1/2-x,1/2-y,-z
1/2+x,1/2-y,z
loop_
_atom_site_type_symbol
_atom_site_label
_atom_site_fract_x
_atom_site_fract_y
_atom_site_fract_z
Si Si1 0.170861 0.174247 0.867048
Si Si2 0.784862 0.228690 0.783227
Si Si3 0.071981 0.430467 0.446798
Si Si4 0.221175 0.424112 0.084428
Si Si5 0.452718 0.750472 0.314485
Si Si6 0.000000 0.716238 0.000000
Si Si7 0.124598 0.660880 0.228890
Si Si8 0.664118 0.137804 0.726978
O O1 0.232496 0.219781 0.833402
O O2 0.199922 0.103086 0.866321
O O3 0.100617 0.191094 0.734480
O O4 0.168551 0.196532 0.050089
O O5 0.834595 0.273462 0.706252
O O6 0.731179 0.174845 0.691322
O O7 0.076150 0.500000 0.369301
O O8 0.077442 0.370317 0.335545
O O9 0.135691 0.419496 0.604083
O O10 0.000000 0.428530 0.500000
O O11 0.216028 0.500000 0.076035
O O12 0.178971 0.393291 0.206274
O O13 0.188474 0.390201 0.909238
O O14 0.500000 0.748634 0.500000
O O15 0.494178 0.750908 0.170011
O O16 0.399779 0.811651 0.293313
O O17 0.928680 0.676229 0.944104
#
# Coordination Sequence:
#
# PCOD9176505 Si02
#       8
#     8   8   8   8   8   4   8   8
#     4   8  15  32  51  76 107 130 170 222 269 322
#     4   8  15  30  55  75  96 133 165 229 279 303
#     4  11  24  37  46  67 111 154 182 212 251 312
#     4  10  19  33  58  79  99 142 183 217 263 314
#     4  11  20  33  55  80 110 145 173 221 286 328
#     4  12  20  32  53  78 113 140 178 222 262 338
#     4  11  20  34  51  75 105 135 179 221 265 313
#     4  10  18  35  53  75 105 135 176 219 271 323
#
# _framework density 17.812711
#
# number of rings (size 3 to 8) (size 9 to 14) (size 15 to 20)
#    0.000    2.000    2.667    4.400    0.000    0.533 
#    0.000    2.000    0.000    0.400    0.000    0.467 
#    0.000    0.000    0.000    0.000    0.000    9.600 
#
# Total GULP energy -167100.432176 kJ/mol
# GULP energy per Si atom -5570.014406 kJ/mol
# Density = 1.777217 g / cm^3
# Si number density = 17.812711 Si / 1000 Ang^3
#
#
#
# Elastic Constant Matrix: (Units=GPa)
#
#
# Indices 1 2 3 4 5 6 
#
# 1 73.3354 50.7532 33.4466 0.0000 11.1972 0.0000
# 2 50.7532 82.0220 15.5798 0.0000 7.1311 0.0000
# 3 33.4466 15.5798 74.0538 0.0000 9.4781 0.0000
# 4 0.0000 0.0000 0.0000 22.2759 0.0000 0.5428
# 5 11.1972 7.1311 9.4781 0.0000 21.9262 0.0000
# 6 0.0000 0.0000 0.0000 0.5428 0.0000 25.0232
#
#
#
# Elastic Compliance Matrix: (Units=1/GPa)
#
#
# Indices 1 2 3 4 5 6 
#
# 1 0.030167 -0.016355 -0.009414 0.000000 -0.006017 0.000000
# 2 -0.016355 0.021775 0.002798 0.000000 0.000061 0.000000
# 3 -0.009414 0.002798 0.017644 0.000000 -0.003730 0.000000
# 4 0.000000 0.000000 0.000000 0.044915 0.000000 -0.000974
# 5 -0.006017 0.000061 -0.003730 0.000000 0.050273 0.000000
# 6 0.000000 0.000000 0.000000 -0.000974 0.000000 0.039984
#
#
# Mechanical properties :
#
#
# Convention : Reuss Voigt Hill
#
# Bulk Modulus (GPa) = 42.29422 47.66338 44.97880
# Shear Modulus (GPa) = 19.33611 22.48718 20.91165
#
# Velocity S-wave (km/s) = 3.29830 3.55691 3.43005
# Velocity P-wave (km/s) = 6.18874 6.60946 6.40256
#
# Compressibility (1/GPa) = 0.02364389
#
# Stress axis : x y z
#
# Youngs Moduli (GPa) = 33.14846 45.92325 56.67561
#
# Poissons Ratio (x) = 0.75110 0.53355
# Poissons Ratio (y) = 0.54216 -0.15858
# Poissons Ratio (z) = 0.31206 -0.12849
#
# Static dielectric constant tensor:
#      x y z
#    x 1.653730 0.000000 -0.020830 
#    y 0.000000 1.608550 0.000000 
#    z -0.020830 0.000000 1.684080 
# 
# From -- ./inp_files/77463.got.cif
#   From: 2010.05.17/outbox.cif.g08.bks.cpg/sg12_39_cif.got.tgz:77463.got - 2010.06.03 13:09:07.
