data_PCOD9176866
_publ_section_title
;
Structure prediction by ZEFSAII (Michael W. Deem and Ramdas Pophale) SiO2 
 PCOD9176866
Probable space group: C 2/M
;
_chemical_formula_sum "Si O2"
_cell_formula_units_Z 64
_cell_length_a 16.623632
_cell_length_b 23.346013
_cell_length_c 13.891040
_cell_angle_alpha 90.000000
_cell_angle_beta 35.735152
_cell_angle_gamma 90.000000
_cell_volume 3148.585527
_symmetry_space_group_name_H-M "C 2/M"
_symmetry_group_IT_number 12
_symmetry_cell_setting 'monoclinic'
loop_
_space_group_symop_operation_xyz
x,y,z
-x,y,-z
-x,-y,-z
x,-y,z
1/2+x,1/2+y,z
1/2-x,1/2+y,-z
1/2-x,1/2-y,-z
1/2+x,1/2-y,z
loop_
_atom_site_type_symbol
_atom_site_label
_atom_site_fract_x
_atom_site_fract_y
_atom_site_fract_z
Si Si1 0.902665 0.137404 0.973207
Si Si2 0.590084 0.757872 0.507388
Si Si3 0.370721 0.565688 0.336943
Si Si4 0.834632 0.567060 0.729852
Si Si5 0.069065 0.937703 0.328719
Si Si6 0.848986 0.820576 0.815016
Si Si7 0.152424 0.746395 0.871231
Si Si8 0.100961 0.615764 0.544108
O O1 0.847523 0.165338 0.928203
O O2 0.053976 0.112399 0.804500
O O3 0.814093 0.082122 0.085959
O O4 0.871990 0.186768 0.079998
O O5 0.500000 0.773674 0.500000
O O6 0.496777 0.709433 0.647800
O O7 0.739811 0.740176 0.321725
O O8 0.602274 0.816059 0.555674
O O9 0.376199 0.500000 0.294680
O O10 0.454715 0.566978 0.355296
O O11 0.213107 0.584698 0.500619
O O12 0.855346 0.500000 0.695279
O O13 0.854461 0.599086 0.608794
O O14 0.946831 0.591530 0.695716
O O15 0.000000 0.936364 0.500000
O O16 0.159979 0.881582 0.229405
O O17 0.137453 0.000000 0.249695
O O18 0.729536 0.781515 0.887418
O O19 0.000000 0.722331 0.000000
#
# Coordination Sequence:
#
# PCOD9176866 Si02
#       8
#     8   8   8   8   8   8   8   8
#     4  11  22  38  55  82 117 155 201 243 293 345
#     4  10  18  36  59  79 115 160 198 235 286 352
#     4  10  21  35  56  86 118 150 196 251 289 341
#     4  11  21  34  56  82 121 167 198 231 286 351
#     4   9  18  37  61  82 105 139 188 243 294 346
#     4  10  22  39  60  83 111 153 198 236 296 363
#     4  11  21  36  57  84 115 146 190 248 300 351
#     4  11  19  36  54  86 121 157 198 238 288 345
#
# _framework density 20.326587
#
# number of rings (size 3 to 8) (size 9 to 14) (size 15 to 20)
#    0.000    1.625    2.500    4.875    0.000    0.500 
#    0.000   11.875    0.000    0.375    0.000    0.000 
#    0.000    0.000    0.000    0.000    0.000    0.000 
#
# Total GULP energy -178615.388532 kJ/mol
# GULP energy per Si atom -5581.730892 kJ/mol
# Density = 2.028032 g / cm^3
# Si number density = 20.326587 Si / 1000 Ang^3
#
#
#
# Elastic Constant Matrix: (Units=GPa)
#
#
# Indices 1 2 3 4 5 6 
#
# 1 33.4401 13.9054 22.1565 0.0034 -12.9878 -0.0042
# 2 13.9054 114.3849 13.8638 -0.0041 -2.3644 0.0011
# 3 22.1565 13.8638 55.7096 -0.0129 -10.9916 0.0090
# 4 0.0034 -0.0041 -0.0129 -1.3304 0.0034 23.0399
# 5 -12.9878 -2.3644 -10.9916 0.0034 26.2785 -0.0009
# 6 -0.0042 0.0011 0.0090 23.0399 -0.0009 1.5102
#
#
#
# Elastic Compliance Matrix: (Units=1/GPa)
#
#
# Indices 1 2 3 4 5 6 
#
# 1 0.047861 -0.003678 -0.014734 0.000016 0.017161 -0.000018
# 2 -0.003678 0.009297 -0.001139 -0.000001 -0.001457 0.000002
# 3 -0.014734 -0.001139 0.024673 -0.000013 0.002935 0.000015
# 4 0.000016 -0.000001 -0.000013 -0.002834 0.000004 0.043239
# 5 0.017161 -0.001457 0.002935 0.000004 0.047632 -0.000008
# 6 -0.000018 0.000002 0.000015 0.043239 -0.000008 0.002497
#
#
# Mechanical properties :
#
#
# Convention : Reuss Voigt Hill
#
# Bulk Modulus (GPa) = 23.40249 33.70957 28.55603
# Shear Modulus (GPa) = 27.40180 15.53224 21.46702
#
# Velocity S-wave (km/s) = 3.67560 2.76730 3.25330
# Velocity P-wave (km/s) = 5.43614 5.17982 5.30953
#
# Compressibility (1/GPa) = 0.04273050
#
# Stress axis : x y z
#
# Youngs Moduli (GPa) = 20.89385 107.55716 40.53071
#
# Poissons Ratio (x) = 0.39557 0.59717
# Poissons Ratio (y) = 0.07684 0.04615
# Poissons Ratio (z) = 0.30785 0.12246
#
# Static dielectric constant tensor:
#      x y z
#    x 1.734270 0.000000 -0.004720 
#    y 0.000000 1.729820 0.000000 
#    z -0.004720 0.000000 1.718360 
# 
# From -- ./inp_files/228150.got.cif
#   From: 2010.05.17/outbox.cif.g08.bks.cpg/sg12_115_cif.got.tgz:228150.got - 2010.06.03 13:09:07.
