data_PCOD9176694
_publ_section_title
;
Structure prediction by ZEFSAII (Michael W. Deem and Ramdas Pophale) SiO2 
 PCOD9176694
Probable space group: C 2/M
;
_chemical_formula_sum "Si O2"
_cell_formula_units_Z 40
_cell_length_a 19.923494
_cell_length_b 14.771424
_cell_length_c 13.435607
_cell_angle_alpha 90.000000
_cell_angle_beta 154.478438
_cell_angle_gamma 90.000000
_cell_volume 1703.617126
_symmetry_space_group_name_H-M "C 2/M"
_symmetry_group_IT_number 12
_symmetry_cell_setting 'monoclinic'
loop_
_space_group_symop_operation_xyz
x,y,z
-x,y,-z
-x,-y,-z
x,-y,z
1/2+x,1/2+y,z
1/2-x,1/2+y,-z
1/2-x,1/2-y,-z
1/2+x,1/2-y,z
loop_
_atom_site_type_symbol
_atom_site_label
_atom_site_fract_x
_atom_site_fract_y
_atom_site_fract_z
Si Si1 0.668014 0.636528 0.688311
Si Si2 0.208991 0.656110 0.557991
Si Si3 0.681625 0.146558 0.730426
Si Si4 0.617384 0.100555 0.845847
Si Si5 0.336124 0.855864 0.723668
O O1 0.500000 0.609007 0.500000
O O2 0.683944 0.745452 0.721278
O O3 0.706056 0.611667 0.626698
O O4 0.795266 0.600227 0.933783
O O5 0.256244 0.611209 0.727487
O O6 0.311911 0.746423 0.684261
O O7 0.193675 0.610826 0.428761
O O8 0.023961 0.672436 0.334830
O O9 0.500000 0.117220 0.500000
O O10 0.736144 0.121661 0.914198
O O11 0.550438 0.000000 0.741898
O O12 0.500000 0.873951 0.000000
#
# Coordination Sequence:
#
# PCOD9176694 Si02
#       5
#     8   8   8   8   8
#     4  10  20  36  57  87 117 147 194 249 284 333
#     4   9  19  34  54  86 110 147 189 233 286 341
#     4   8  17  32  53  82 107 143 185 240 279 326
#     4  11  21  35  58  84 119 159 193 233 289 350
#     4  10  18  35  61  87 115 144 187 243 297 332
#
# _framework density 23.479452999999999
#
# number of rings (size 3 to 8) (size 9 to 14) (size 15 to 20)
#    0.000    2.400    2.000    1.800    0.000    4.000 
#    3.600    2.000    0.000    0.600    0.000    0.000 
#    0.000    0.000    0.000    0.000    0.000    0.000 
#
# Total GULP energy -111364.625805 kJ/mol
# GULP energy per Si atom -5568.231290 kJ/mol
# Density = 2.342601 g / cm^3
# Si number density = 23.479453 Si / 1000 Ang^3
#
#
#
# Elastic Constant Matrix: (Units=GPa)
#
#
# Indices 1 2 3 4 5 6 
#
# 1 217.1465 2.4638 15.9098 0.0000 -47.8133 0.0000
# 2 2.4638 80.4530 10.0946 0.0000 -3.1447 0.0000
# 3 15.9098 10.0946 26.8106 0.0000 -5.7135 0.0000
# 4 0.0000 0.0000 0.0000 9.0021 0.0000 -2.8113
# 5 -47.8133 -3.1447 -5.7135 0.0000 43.7622 0.0000
# 6 0.0000 0.0000 0.0000 -2.8113 0.0000 -17.6516
#
#
#
# Elastic Compliance Matrix: (Units=1/GPa)
#
#
# Indices 1 2 3 4 5 6 
#
# 1 0.006209 0.000370 -0.002440 0.000000 0.006492 0.000000
# 2 0.000370 0.013072 -0.004994 0.000000 0.000691 0.000000
# 3 -0.002440 -0.004994 0.041127 0.000000 0.002344 0.000000
# 4 0.000000 0.000000 0.000000 0.105821 0.000000 -0.016854
# 5 0.006492 0.000691 0.002344 0.000000 0.030299 0.000000
# 6 0.000000 0.000000 0.000000 -0.016854 0.000000 -0.053968
#
#
# Mechanical properties :
#
#
# Convention : Reuss Voigt Hill
#
# Bulk Modulus (GPa) = 21.60814 42.37186 31.99000
# Shear Modulus (GPa) = 29.05013 26.75201 27.90107
#
# Velocity S-wave (km/s) = 3.52128 3.37913 3.45094
# Velocity P-wave (km/s) = 5.07499 5.77150 5.43442
#
# Compressibility (1/GPa) = 0.04627885
#
# Stress axis : x y z
#
# Youngs Moduli (GPa) = 161.04962 76.49991 24.31509
#
# Poissons Ratio (x) = -0.02829 0.05934
# Poissons Ratio (y) = -0.05956 0.12143
# Poissons Ratio (z) = 0.39303 0.38203
#
# Static dielectric constant tensor:
#      x y z
#    x 1.991260 0.000000 -0.090280 
#    y 0.000000 1.937090 0.000000 
#    z -0.090280 0.000000 1.932450 
# 
# From -- ./inp_files/77764.got.cif
#   From: 2010.05.17/outbox.cif.g08.bks.cpg/sg12_39_cif.got.tgz:77764.got - 2010.06.03 13:09:07.
