data_PCOD9176750
_publ_section_title
;
Structure prediction by ZEFSAII (Michael W. Deem and Ramdas Pophale) SiO2 
 PCOD9176750
Probable space group: C 2/M
;
_chemical_formula_sum "Si O2"
_cell_formula_units_Z 36
_cell_length_a 15.828378
_cell_length_b 13.274490
_cell_length_c 7.039689
_cell_angle_alpha 90.000000
_cell_angle_beta 68.394543
_cell_angle_gamma 90.000000
_cell_volume 1375.212815
_symmetry_space_group_name_H-M "C 2/M"
_symmetry_group_IT_number 12
_symmetry_cell_setting 'monoclinic'
loop_
_space_group_symop_operation_xyz
x,y,z
-x,y,-z
-x,-y,-z
x,-y,z
1/2+x,1/2+y,z
1/2-x,1/2+y,-z
1/2-x,1/2-y,-z
1/2+x,1/2-y,z
loop_
_atom_site_type_symbol
_atom_site_label
_atom_site_fract_x
_atom_site_fract_y
_atom_site_fract_z
Si Si1 0.122645 0.840625 0.564380
Si Si2 0.221570 0.000000 0.866039
Si Si3 0.926830 0.852557 0.830802
Si Si4 0.324875 0.111049 0.402717
Si Si5 0.672499 0.166452 0.038327
O O1 0.104899 0.869452 0.360748
O O2 0.217254 0.890697 0.550531
O O3 0.135643 0.719122 0.565223
O O4 0.033319 0.875276 0.749358
O O5 0.142870 0.914080 0.984892
O O6 0.303338 0.913773 0.824152
O O7 0.917810 0.732511 0.871633
O O8 0.322191 0.119923 0.175018
O O9 0.364195 0.000000 0.411690
O O10 0.750000 0.250000 0.000000
#
# Coordination Sequence:
#
# PCOD9176750 Si02
#       5
#     8   4   8   8   8
#     4  10  22  37  59  88 121 143 190 248 283 334
#     4  10  18  35  64  87 106 152 196 230 292 339
#     4  10  21  38  60  89 114 150 195 241 279 341
#     4  11  21  40  60  84 116 158 189 231 296 344
#     4  10  18  36  59  86 111 149 193 231 281 344
#
# _framework density 26.177765000000001
#
# number of rings (size 3 to 8) (size 9 to 14) (size 15 to 20)
#    0.000    1.778    5.556    0.000    1.556    1.778 
#    4.000    2.222    0.000    5.333    0.000    0.000 
#    0.000    0.000    0.000    0.000    0.000    0.000 
#
# Total GULP energy -100251.255912 kJ/mol
# GULP energy per Si atom -5569.514217 kJ/mol
# Density = 2.611818 g / cm^3
# Si number density = 26.177765 Si / 1000 Ang^3
#
#
#
# Elastic Constant Matrix: (Units=GPa)
#
#
# Indices 1 2 3 4 5 6 
#
# 1 70.0057 4.2851 10.3945 0.0000 2.9464 0.0000
# 2 4.2851 154.6627 -27.7689 0.0000 11.2988 0.0000
# 3 10.3945 -27.7689 81.3793 0.0000 3.5936 0.0000
# 4 0.0000 0.0000 0.0000 -23.8261 0.0000 -7.6507
# 5 2.9464 11.2988 3.5936 0.0000 52.7657 0.0000
# 6 0.0000 0.0000 0.0000 -7.6507 0.0000 11.0024
#
#
#
# Elastic Compliance Matrix: (Units=1/GPa)
#
#
# Indices 1 2 3 4 5 6 
#
# 1 0.014665 -0.000747 -0.002105 0.000000 -0.000516 0.000000
# 2 -0.000747 0.007070 0.002581 0.000000 -0.001648 0.000000
# 3 -0.002105 0.002581 0.013497 0.000000 -0.001354 0.000000
# 4 0.000000 0.000000 0.000000 -0.034310 0.000000 -0.023858
# 5 -0.000516 -0.001648 -0.001354 0.000000 0.019426 0.000000
# 6 0.000000 0.000000 0.000000 -0.023858 0.000000 0.074299
#
#
# Mechanical properties :
#
#
# Convention : Reuss Voigt Hill
#
# Bulk Modulus (GPa) = 28.82673 31.09657 29.96165
# Shear Modulus (GPa) = 46.83730 29.26420 38.05075
#
# Velocity S-wave (km/s) = 4.23448 3.34713 3.81668
# Velocity P-wave (km/s) = 5.91131 5.18098 5.55815
#
# Compressibility (1/GPa) = 0.03469002
#
# Stress axis : x y z
#
# Youngs Moduli (GPa) = 68.19183 141.44061 74.08830
#
# Poissons Ratio (x) = 0.10560 0.15596
# Poissons Ratio (y) = 0.05091 -0.19120
# Poissons Ratio (z) = 0.14355 -0.36501
#
# Static dielectric constant tensor:
#      x y z
#    x 2.095580 0.000000 0.074350 
#    y 0.000000 1.982880 0.000000 
#    z 0.074350 0.000000 2.249720 
# 
# From -- ./inp_files/71117.got.cif
#   From: 2010.05.17/outbox.cif.g08.bks.cpg/sg12_36_cif.got.tgz:71117.got - 2010.06.03 13:09:07.
