data_PCOD9176670
_publ_section_title
;
Structure prediction by ZEFSAII (Michael W. Deem and Ramdas Pophale) SiO2 
 PCOD9176670
Probable space group: C 2/M
;
_chemical_formula_sum "Si O2"
_cell_formula_units_Z 44
_cell_length_a 22.293071
_cell_length_b 7.615826
_cell_length_c 13.654440
_cell_angle_alpha 90.000000
_cell_angle_beta 84.999651
_cell_angle_gamma 90.000000
_cell_volume 2309.429985
_symmetry_space_group_name_H-M "C 2/M"
_symmetry_group_IT_number 12
_symmetry_cell_setting 'monoclinic'
loop_
_space_group_symop_operation_xyz
x,y,z
-x,y,-z
-x,-y,-z
x,-y,z
1/2+x,1/2+y,z
1/2-x,1/2+y,-z
1/2-x,1/2-y,-z
1/2+x,1/2-y,z
loop_
_atom_site_type_symbol
_atom_site_label
_atom_site_fract_x
_atom_site_fract_y
_atom_site_fract_z
Si Si1 0.851288 0.793291 0.226164
Si Si2 0.553355 0.000000 0.315732
Si Si3 0.584280 0.000000 0.670046
Si Si4 0.275350 0.704170 0.657134
Si Si5 0.619970 0.706081 0.194768
Si Si6 0.157935 0.500000 0.462862
Si Si7 0.819486 0.209994 0.011904
O O1 0.901305 0.671811 0.267956
O O2 0.789385 0.765780 0.295336
O O3 0.838424 0.730138 0.116950
O O4 0.866117 0.000000 0.223865
O O5 0.484184 0.000000 0.355426
O O6 0.569756 0.170867 0.249025
O O7 0.600051 0.000000 0.398978
O O8 0.631295 0.000000 0.574233
O O9 0.273338 0.500000 0.628320
O O10 0.321486 0.719580 0.742698
O O11 0.302477 0.830086 0.570378
O O12 0.603197 0.500000 0.193558
O O13 0.640056 0.770977 0.084714
O O14 0.824818 0.000000 0.011938
O O15 0.750000 0.250000 0.000000
#
# Coordination Sequence:
#
# PCOD9176670 Si02
#       7
#     8   4   4   8   8   4   8
#     4  11  23  38  56  90 132 160 190 238 305 364
#     4  10  23  43  66  83 113 160 216 251 289 349
#     4  12  27  43  60  83 119 169 203 252 299 359
#     4  10  18  35  60  91 123 150 188 248 311 364
#     4   9  19  35  60  93 119 153 196 249 295 342
#     4  10  23  42  66  86 112 151 212 261 305 348
#     4  10  20  31  58  93 127 156 190 237 293 360
#
# _framework density 19.052319000000001
#
# number of rings (size 3 to 8) (size 9 to 14) (size 15 to 20)
#    0.000    1.818    3.636    0.273    2.545    2.182 
#    0.000    1.818    0.000    8.727    0.000    0.000 
#    0.000    0.000    0.000    0.000    0.000    0.000 
#
# Total GULP energy -122915.207845 kJ/mol
# GULP energy per Si atom -5587.054902 kJ/mol
# Density = 1.900895 g / cm^3
# Si number density = 19.052319 Si / 1000 Ang^3
#
#
#
# Elastic Constant Matrix: (Units=GPa)
#
#
# Indices 1 2 3 4 5 6 
#
# 1 52.6016 19.6528 11.4723 0.0000 1.8454 0.0000
# 2 19.6528 97.6653 26.2749 0.0000 5.4622 0.0000
# 3 11.4723 26.2749 86.4082 0.0000 2.6190 0.0000
# 4 0.0000 0.0000 0.0000 20.4125 0.0000 -1.0430
# 5 1.8454 5.4622 2.6190 0.0000 16.9603 0.0000
# 6 0.0000 0.0000 0.0000 -1.0430 0.0000 23.0515
#
#
#
# Elastic Compliance Matrix: (Units=1/GPa)
#
#
# Indices 1 2 3 4 5 6 
#
# 1 0.020773 -0.003702 -0.001608 0.000000 -0.000820 0.000000
# 2 -0.003702 0.011974 -0.003059 0.000000 -0.002981 0.000000
# 3 -0.001608 -0.003059 0.012741 0.000000 -0.000807 0.000000
# 4 0.000000 0.000000 0.000000 0.049103 0.000000 0.002222
# 5 -0.000820 -0.002981 -0.000807 0.000000 0.060135 0.000000
# 6 0.000000 0.000000 0.000000 0.002222 0.000000 0.043482
#
#
# Mechanical properties :
#
#
# Convention : Reuss Voigt Hill
#
# Bulk Modulus (GPa) = 34.78128 39.05279 36.91703
# Shear Modulus (GPa) = 22.26889 24.03654 23.15272
#
# Velocity S-wave (km/s) = 3.42252 3.55576 3.48978
# Velocity P-wave (km/s) = 5.82353 6.11556 5.97133
#
# Compressibility (1/GPa) = 0.02875110
#
# Stress axis : x y z
#
# Youngs Moduli (GPa) = 48.13890 83.51667 78.48624
#
# Poissons Ratio (x) = 0.30916 0.12617
# Poissons Ratio (y) = 0.17820 0.24010
# Poissons Ratio (z) = 0.07739 0.25549
#
# Static dielectric constant tensor:
#      x y z
#    x 1.619040 0.000000 0.019900 
#    y 0.000000 1.663700 0.000000 
#    z 0.019900 0.000000 1.676870 
# 
# From -- ./inp_files/163165.got.cif
#   From: 2010.05.17/outbox.cif.g08.bks.cpg/sg12_82_cif.got.tgz:163165.got - 2010.06.03 13:09:07.
