data_PCOD9176407
_publ_section_title
;
Structure prediction by ZEFSAII (Michael W. Deem and Ramdas Pophale) SiO2 
 PCOD9176407
Probable space group: C 2/M
;
_chemical_formula_sum "Si O2"
_cell_formula_units_Z 48
_cell_length_a 16.149396
_cell_length_b 18.338864
_cell_length_c 10.127198
_cell_angle_alpha 90.000000
_cell_angle_beta 113.602056
_cell_angle_gamma 90.000000
_cell_volume 2748.391668
_symmetry_space_group_name_H-M "C 2/M"
_symmetry_group_IT_number 12
_symmetry_cell_setting 'monoclinic'
loop_
_space_group_symop_operation_xyz
x,y,z
-x,y,-z
-x,-y,-z
x,-y,z
1/2+x,1/2+y,z
1/2-x,1/2+y,-z
1/2-x,1/2-y,-z
1/2+x,1/2-y,z
loop_
_atom_site_type_symbol
_atom_site_label
_atom_site_fract_x
_atom_site_fract_y
_atom_site_fract_z
Si Si1 0.758890 0.847637 0.666312
Si Si2 0.570425 0.141350 0.667791
Si Si3 0.326469 0.798901 0.651681
Si Si4 0.995163 0.792394 0.648089
Si Si5 0.456351 0.919513 0.828774
Si Si6 0.544530 0.414511 0.172491
O O1 0.670441 0.876894 0.683256
O O2 0.734057 0.841197 0.494332
O O3 0.776048 0.761553 0.706257
O O4 0.849321 0.891989 0.755980
O O5 0.500000 0.133747 0.500000
O O6 0.566577 0.226641 0.706908
O O7 0.530893 0.095920 0.763677
O O8 0.400968 0.750666 0.618309
O O9 0.381666 0.857525 0.768057
O O10 0.000000 0.817599 0.500000
O O11 0.001104 0.858843 0.752947
O O12 0.417737 0.000000 0.782052
O O13 0.500000 0.916406 0.000000
O O14 0.535012 0.500000 0.200481
O O15 0.500000 0.403436 0.000000
#
# Coordination Sequence:
#
# PCOD9176407 Si02
#       6
#     8   8   8   8   8   8
#     4  10  18  34  61  83 103 141 182 232 270 313
#     4  10  18  35  59  86 108 135 181 231 272 324
#     4   9  18  33  56  84 112 135 180 225 273 322
#     4   9  16  33  59  81 108 132 172 227 274 317
#     4  10  21  36  53  79 120 152 172 215 279 334
#     4  10  23  39  53  75 111 150 185 220 263 317
#
# _framework density 17.464759000000001
#
# number of rings (size 3 to 8) (size 9 to 14) (size 15 to 20)
#    0.000    2.333    5.000    0.000    0.000    8.000 
#    0.000    3.333    0.000    2.000    0.000    0.000 
#    0.000    0.000    0.000    0.000    0.000    0.000 
#
# Total GULP energy -133665.782969 kJ/mol
# GULP energy per Si atom -5569.407624 kJ/mol
# Density = 1.742501 g / cm^3
# Si number density = 17.464759 Si / 1000 Ang^3
#
#
#
# Elastic Constant Matrix: (Units=GPa)
#
#
# Indices 1 2 3 4 5 6 
#
# 1 37.0836 4.2192 17.8960 0.0000 1.0418 0.0000
# 2 4.2192 80.4320 57.0381 0.0000 -3.1776 0.0000
# 3 17.8960 57.0381 80.0692 0.0000 -4.8030 0.0000
# 4 0.0000 0.0000 0.0000 33.1620 0.0000 2.8201
# 5 1.0418 -3.1776 -4.8030 0.0000 23.2601 0.0000
# 6 0.0000 0.0000 0.0000 2.8201 0.0000 5.1797
#
#
#
# Elastic Compliance Matrix: (Units=1/GPa)
#
#
# Indices 1 2 3 4 5 6 
#
# 1 0.032205 0.006920 -0.012310 0.000000 -0.003039 0.000000
# 2 0.006920 0.026614 -0.020561 0.000000 -0.000920 0.000000
# 3 -0.012310 -0.020561 0.030125 0.000000 0.003963 0.000000
# 4 0.000000 0.000000 0.000000 0.031619 0.000000 -0.017215
# 5 -0.003039 -0.000920 0.003963 0.000000 0.043821 0.000000
# 6 0.000000 0.000000 0.000000 -0.017215 0.000000 0.202433
#
#
# Mechanical properties :
#
#
# Convention : Reuss Voigt Hill
#
# Bulk Modulus (GPa) = 26.99582 39.54349 33.26966
# Shear Modulus (GPa) = 11.59919 20.21581 15.90750
#
# Velocity S-wave (km/s) = 2.57990 3.40593 3.02128
# Velocity P-wave (km/s) = 4.93613 6.17723 5.59122
#
# Compressibility (1/GPa) = 0.03704277
#
# Stress axis : x y z
#
# Youngs Moduli (GPa) = 31.05131 37.57422 33.19520
#
# Poissons Ratio (x) = -0.26002 0.40863
# Poissons Ratio (y) = -0.21488 0.68251
# Poissons Ratio (z) = 0.38224 0.77255
#
# Static dielectric constant tensor:
#      x y z
#    x 1.630650 0.000000 0.004130 
#    y 0.000000 1.604120 0.000000 
#    z 0.004130 0.000000 1.582440 
# 
# From -- ./inp_files/77033.got.cif
#   From: 2010.05.17/outbox.cif.g08.bks.cpg/sg12_39_cif.got.tgz:77033.got - 2010.06.03 13:09:07.
