data_PCOD9176198
_publ_section_title
;
Structure prediction by ZEFSAII (Michael W. Deem and Ramdas Pophale) SiO2 
 PCOD9176198
Probable space group: C 2/M
;
_chemical_formula_sum "Si O2"
_cell_formula_units_Z 64
_cell_length_a 28.632097
_cell_length_b 17.592339
_cell_length_c 13.675927
_cell_angle_alpha 90.000000
_cell_angle_beta 31.346971
_cell_angle_gamma 90.000000
_cell_volume 3583.604535
_symmetry_space_group_name_H-M "C 2/M"
_symmetry_group_IT_number 12
_symmetry_cell_setting 'monoclinic'
loop_
_space_group_symop_operation_xyz
x,y,z
-x,y,-z
-x,-y,-z
x,-y,z
1/2+x,1/2+y,z
1/2-x,1/2+y,-z
1/2-x,1/2-y,-z
1/2+x,1/2-y,z
loop_
_atom_site_type_symbol
_atom_site_label
_atom_site_fract_x
_atom_site_fract_y
_atom_site_fract_z
Si Si1 0.755338 0.587963 0.133585
Si Si2 0.012296 0.585473 0.804736
Si Si3 0.343732 0.796252 0.839120
Si Si4 0.778303 0.583835 0.516683
Si Si5 0.334056 0.115072 0.210976
Si Si6 0.148225 0.230776 0.371544
Si Si7 0.816782 0.216107 0.198339
Si Si8 0.530487 0.246493 0.214293
O O1 0.735060 0.500000 0.151374
O O2 0.797915 0.595135 0.166842
O O3 0.673333 0.647886 0.284426
O O4 0.819840 0.624080 0.934566
O O5 0.005808 0.500000 0.772403
O O6 0.115876 0.597362 0.648865
O O7 0.983605 0.658448 0.792338
O O8 0.936979 0.587906 0.024487
O O9 0.379023 0.789557 0.665594
O O10 0.411732 0.754602 0.790163
O O11 0.250000 0.750000 0.000000
O O12 0.754923 0.500000 0.596120
O O13 0.776282 0.583287 0.402761
O O14 0.716417 0.647189 0.676454
O O15 0.330053 0.205647 0.233118
O O16 0.236959 0.264416 0.264334
O O17 0.067894 0.222024 0.590944
O O18 0.909307 0.209484 0.972693
#
# Coordination Sequence:
#
# PCOD9176198 Si02
#       8
#     8   8   8   8   8   8   8   8
#     4  10  19  34  57  83 110 139 184 235 272 316
#     4  10  19  31  52  81 111 142 180 228 281 331
#     4  10  18  34  57  81 103 139 178 220 274 330
#     4  11  21  33  52  79 118 150 181 229 279 330
#     4  10  19  33  55  80 109 150 189 227 273 330
#     4  10  20  36  57  81 108 143 187 219 276 336
#     4  10  20  36  54  81 110 146 193 224 267 330
#     4  11  19  35  58  77 109 147 182 226 271 331
#
# _framework density 17.859113000000001
#
# number of rings (size 3 to 8) (size 9 to 14) (size 15 to 20)
#    0.000    1.750    6.250    2.250    0.000    1.000 
#    0.000    1.875    0.000    7.500    0.000    4.375 
#    0.000    0.000    0.000    0.000    0.000    0.000 
#
# Total GULP energy -178183.644606 kJ/mol
# GULP energy per Si atom -5568.238894 kJ/mol
# Density = 1.781846 g / cm^3
# Si number density = 17.859113 Si / 1000 Ang^3
#
#
#
# Elastic Constant Matrix: (Units=GPa)
#
#
# Indices 1 2 3 4 5 6 
#
# 1 48.2232 20.6683 12.0495 0.0000 6.1217 0.0000
# 2 20.6683 119.4873 53.5604 0.0000 11.0896 0.0000
# 3 12.0495 53.5604 115.4922 0.0000 12.1739 0.0000
# 4 0.0000 0.0000 0.0000 23.0458 0.0000 -2.8477
# 5 6.1217 11.0896 12.1739 0.0000 16.9072 0.0000
# 6 0.0000 0.0000 0.0000 -2.8477 0.0000 10.6462
#
#
#
# Elastic Compliance Matrix: (Units=1/GPa)
#
#
# Indices 1 2 3 4 5 6 
#
# 1 0.022974 -0.003317 -0.000229 0.000000 -0.005978 0.000000
# 2 -0.003317 0.011260 -0.004571 0.000000 -0.002894 0.000000
# 3 -0.000229 -0.004571 0.011338 0.000000 -0.005083 0.000000
# 4 0.000000 0.000000 0.000000 0.044875 0.000000 0.012003
# 5 -0.005978 -0.002894 -0.005083 0.000000 0.066869 0.000000
# 6 0.000000 0.000000 0.000000 0.012003 0.000000 0.097140
#
#
# Mechanical properties :
#
#
# Convention : Reuss Voigt Hill
#
# Bulk Modulus (GPa) = 34.08292 50.63991 42.36141
# Shear Modulus (GPa) = 17.82721 23.24814 20.53768
#
# Velocity S-wave (km/s) = 3.16288 3.61189 3.39482
# Velocity P-wave (km/s) = 5.69773 6.76839 6.25601
#
# Compressibility (1/GPa) = 0.02934021
#
# Stress axis : x y z
#
# Youngs Moduli (GPa) = 43.52653 88.80747 88.19840
#
# Poissons Ratio (x) = 0.29454 0.02017
# Poissons Ratio (y) = 0.14436 0.40316
# Poissons Ratio (z) = 0.00995 0.40594
#
# Static dielectric constant tensor:
#      x y z
#    x 1.650700 0.000000 0.019150 
#    y 0.000000 1.610810 0.000000 
#    z 0.019150 0.000000 1.644700 
# 
# From -- ./inp_files/251639.got.cif
#   From: 2010.05.17/outbox.cif.g08.bks.cpg/sg12_126_cif.got.tgz:251639.got - 2010.06.03 13:09:07.
