data_PCOD9176996
_publ_section_title
;
Structure prediction by ZEFSAII (Michael W. Deem and Ramdas Pophale) SiO2 
 PCOD9176996
Probable space group: C 2/M
;
_chemical_formula_sum "Si O2"
_cell_formula_units_Z 44
_cell_length_a 10.744055
_cell_length_b 17.554440
_cell_length_c 9.821653
_cell_angle_alpha 90.000000
_cell_angle_beta 76.140912
_cell_angle_gamma 90.000000
_cell_volume 1798.493277
_symmetry_space_group_name_H-M "C 2/M"
_symmetry_group_IT_number 12
_symmetry_cell_setting 'monoclinic'
loop_
_space_group_symop_operation_xyz
x,y,z
-x,y,-z
-x,-y,-z
x,-y,z
1/2+x,1/2+y,z
1/2-x,1/2+y,-z
1/2-x,1/2-y,-z
1/2+x,1/2-y,z
loop_
_atom_site_type_symbol
_atom_site_label
_atom_site_fract_x
_atom_site_fract_y
_atom_site_fract_z
Si Si1 0.040292 0.374187 0.634590
Si Si2 0.365324 0.634401 0.190533
Si Si3 0.829928 0.500000 0.786442
Si Si4 0.878222 0.300306 0.124626
Si Si5 0.860665 0.909544 0.796200
Si Si6 0.173968 0.086180 0.502335
O O1 0.936148 0.433426 0.717473
O O2 0.000000 0.342212 0.500000
O O3 0.067947 0.310145 0.737015
O O4 0.175470 0.415692 0.573811
O O5 0.278442 0.566524 0.158893
O O6 0.334039 0.713518 0.126081
O O7 0.516355 0.615270 0.150321
O O8 0.336582 0.637627 0.361624
O O9 0.764541 0.360573 0.136701
O O10 0.000000 0.317079 0.000000
O O11 0.889235 0.895091 0.626458
O O12 0.836526 0.000000 0.814648
O O13 0.136630 0.000000 0.556158
#
# Coordination Sequence:
#
# PCOD9176996 Si02
#       6
#     8   8   4   8   8   8
#     4  11  21  42  76 106 138 176 236 285 340 415
#     4  12  23  41  69 101 147 178 225 289 358 407
#     4  12  23  42  73 114 135 184 226 298 341 424
#     4  11  30  50  68  98 143 191 237 288 345 410
#     4  10  23  44  69 104 139 183 231 288 352 421
#     4  10  18  36  69 105 143 176 226 285 347 413
#
# _framework density 24.464922000000001
#
# number of rings (size 3 to 8) (size 9 to 14) (size 15 to 20)
#    0.000    1.091    4.545    0.818    3.818    6.909 
#    0.000    0.455    0.000    0.000    0.000    0.000 
#    0.000    0.000    0.000    0.000    0.000    0.000 
#
# Total GULP energy -122741.151862 kJ/mol
# GULP energy per Si atom -5579.143266 kJ/mol
# Density = 2.440924 g / cm^3
# Si number density = 24.464922 Si / 1000 Ang^3
#
#
#
# Elastic Constant Matrix: (Units=GPa)
#
#
# Indices 1 2 3 4 5 6 
#
# 1 94.9352 38.3467 36.4526 0.0000 -23.2293 0.0000
# 2 38.3467 139.7164 50.1604 0.0000 -26.4823 0.0000
# 3 36.4526 50.1604 85.6971 0.0000 -8.2005 0.0000
# 4 0.0000 0.0000 0.0000 22.8919 0.0000 -13.8663
# 5 -23.2293 -26.4823 -8.2005 0.0000 55.9516 0.0000
# 6 0.0000 0.0000 0.0000 -13.8663 0.0000 89.6943
#
#
#
# Elastic Compliance Matrix: (Units=1/GPa)
#
#
# Indices 1 2 3 4 5 6 
#
# 1 0.013981 -0.001270 -0.004773 0.000000 0.004504 0.000000
# 2 -0.001270 0.009935 -0.004945 0.000000 0.003450 0.000000
# 3 -0.004773 -0.004945 0.016410 0.000000 -0.001917 0.000000
# 4 0.000000 0.000000 0.000000 0.048197 0.000000 0.007451
# 5 0.004504 0.003450 -0.001917 0.000000 0.021095 0.000000
# 6 0.000000 0.000000 0.000000 0.007451 0.000000 0.012301
#
#
# Mechanical properties :
#
#
# Convention : Reuss Voigt Hill
#
# Bulk Modulus (GPa) = 54.49270 63.36312 58.92791
# Shear Modulus (GPa) = 33.33082 46.73348 40.03215
#
# Velocity S-wave (km/s) = 3.69506 4.37535 4.04952
# Velocity P-wave (km/s) = 6.36607 7.17501 6.78261
#
# Compressibility (1/GPa) = 0.01835108
#
# Stress axis : x y z
#
# Youngs Moduli (GPa) = 71.52485 100.65189 60.93822
#
# Poissons Ratio (x) = 0.12784 0.29084
# Poissons Ratio (y) = 0.09085 0.30133
# Poissons Ratio (z) = 0.34137 0.49771
#
# Static dielectric constant tensor:
#      x y z
#    x 1.977870 0.000000 0.037680 
#    y 0.000000 1.855280 0.000000 
#    z 0.037680 0.000000 2.012380 
# 
# From -- ./inp_files/131557.got.cif
#   From: 2010.05.17/outbox.cif.g08.bks.cpg/sg12_66_cif.got.tgz:131557.got - 2010.06.03 13:09:07.
