data_PCOD9176007
_publ_section_title
;
Structure prediction by ZEFSAII (Michael W. Deem and Ramdas Pophale) SiO2 
 PCOD9176007
Probable space group: C 2/M
;
_chemical_formula_sum "Si O2"
_cell_formula_units_Z 64
_cell_length_a 15.595529
_cell_length_b 26.201930
_cell_length_c 17.387220
_cell_angle_alpha 90.000000
_cell_angle_beta 145.389240
_cell_angle_gamma 90.000000
_cell_volume 4035.623028
_symmetry_space_group_name_H-M "C 2/M"
_symmetry_group_IT_number 12
_symmetry_cell_setting 'monoclinic'
loop_
_space_group_symop_operation_xyz
x,y,z
-x,y,-z
-x,-y,-z
x,-y,z
1/2+x,1/2+y,z
1/2-x,1/2+y,-z
1/2-x,1/2-y,-z
1/2+x,1/2-y,z
loop_
_atom_site_type_symbol
_atom_site_label
_atom_site_fract_x
_atom_site_fract_y
_atom_site_fract_z
Si Si1 0.501187 0.389197 0.114059
Si Si2 0.336760 0.643229 0.619100
Si Si3 0.425116 0.320447 0.519914
Si Si4 0.499393 0.882594 0.410147
Si Si5 0.620063 0.239489 0.299090
Si Si6 0.775895 0.060052 0.844465
Si Si7 0.415479 0.272122 0.014240
Si Si8 0.919276 0.724330 0.292956
O O1 0.555110 0.386848 0.241706
O O2 0.635533 0.409901 0.158444
O O3 0.359137 0.423459 0.984399
O O4 0.457510 0.331422 0.059058
O O5 0.396746 0.646513 0.576068
O O6 0.333147 0.702009 0.647704
O O7 0.168997 0.621356 0.504289
O O8 0.500000 0.345346 0.500000
O O9 0.264685 0.293458 0.383069
O O10 0.536252 0.274020 0.626134
O O11 0.500000 0.897293 0.500000
O O12 0.394969 0.921078 0.285817
O O13 0.421269 0.826675 0.344960
O O14 0.548977 0.218077 0.324747
O O15 0.488323 0.241914 0.138722
O O16 0.790833 0.000000 0.843314
O O17 0.238362 0.268143 0.867267
O O18 0.500000 0.254900 0.000000
#
# Coordination Sequence:
#
# PCOD9176007 Si02
#       8
#     8   8   8   8   8   8   8   8
#     4  10  18  34  49  68  99 135 167 198 239 304
#     4  10  20  33  49  73  96 135 182 202 244 305
#     4  11  20  33  49  70 104 137 172 223 257 280
#     4  12  20  32  52  71 100 136 167 201 248 309
#     4  10  20  31  45  68  99 134 174 224 243 284
#     4  11  22  35  51  76 104 132 162 205 259 309
#     4  11  19  28  46  68  93 134 184 200 238 289
#     4  11  19  32  46  68  97 138 181 209 244 287
#
# _framework density 15.858765
#
# number of rings (size 3 to 8) (size 9 to 14) (size 15 to 20)
#    0.000    1.250    6.250    3.000    1.750    0.250 
#    0.000    0.000    0.000    0.000    0.000    0.000 
#    0.000    5.500    0.000    0.000    0.000    0.000 
#
# Total GULP energy -178548.747883 kJ/mol
# GULP energy per Si atom -5579.648371 kJ/mol
# Density = 1.582267 g / cm^3
# Si number density = 15.858765 Si / 1000 Ang^3
#
#
#
# Elastic Constant Matrix: (Units=GPa)
#
#
# Indices 1 2 3 4 5 6 
#
# 1 81.5994 8.7257 35.5576 0.0000 -1.6051 0.0000
# 2 8.7257 35.9326 21.8558 0.0000 0.7738 0.0000
# 3 35.5576 21.8558 121.2915 0.0000 8.9910 0.0000
# 4 0.0000 0.0000 0.0000 -0.9049 0.0000 -8.2608
# 5 -1.6051 0.7738 8.9910 0.0000 22.4947 0.0000
# 6 0.0000 0.0000 0.0000 -8.2608 0.0000 -2.4848
#
#
#
# Elastic Compliance Matrix: (Units=1/GPa)
#
#
# Indices 1 2 3 4 5 6 
#
# 1 0.014244 -0.000960 -0.004205 0.000000 0.002730 0.000000
# 2 -0.000960 0.031352 -0.005444 0.000000 0.001029 0.000000
# 3 -0.004205 -0.005444 0.010786 0.000000 -0.004424 0.000000
# 4 0.000000 0.000000 0.000000 0.037654 0.000000 -0.125179
# 5 0.002730 0.001029 -0.004424 0.000000 0.046383 0.000000
# 6 0.000000 0.000000 0.000000 -0.125179 0.000000 0.013713
#
#
# Mechanical properties :
#
#
# Convention : Reuss Voigt Hill
#
# Bulk Modulus (GPa) = 28.43843 41.23351 34.83597
# Shear Modulus (GPa) = 26.72784 15.33329 21.03056
#
# Velocity S-wave (km/s) = 4.10978 3.11282 3.64554
# Velocity P-wave (km/s) = 6.36330 6.24311 6.30349
#
# Compressibility (1/GPa) = 0.03516368
#
# Stress axis : x y z
#
# Youngs Moduli (GPa) = 70.20629 31.89561 92.71017
#
# Poissons Ratio (x) = 0.03062 0.38985
# Poissons Ratio (y) = 0.06740 0.50474
# Poissons Ratio (z) = 0.29522 0.17365
#
# Static dielectric constant tensor:
#      x y z
#    x 1.540680 0.000000 0.004510 
#    y 0.000000 1.504810 0.000000 
#    z 0.004510 0.000000 1.580890 
# 
# From -- ./inp_files/218951.got.cif
#   From: 2010.05.17/outbox.cif.g08.bks.cpg/sg12_110_cif.got.tgz:218951.got - 2010.06.03 13:09:07.
