data_PCOD9176569
_publ_section_title
;
Structure prediction by ZEFSAII (Michael W. Deem and Ramdas Pophale) SiO2 
 PCOD9176569
Probable space group: C 2/M
;
_chemical_formula_sum "Si O2"
_cell_formula_units_Z 64
_cell_length_a 21.329856
_cell_length_b 20.407284
_cell_length_c 11.471443
_cell_angle_alpha 90.000000
_cell_angle_beta 42.871236
_cell_angle_gamma 90.000000
_cell_volume 3397.234337
_symmetry_space_group_name_H-M "C 2/M"
_symmetry_group_IT_number 12
_symmetry_cell_setting 'monoclinic'
loop_
_space_group_symop_operation_xyz
x,y,z
-x,y,-z
-x,-y,-z
x,-y,z
1/2+x,1/2+y,z
1/2-x,1/2+y,-z
1/2-x,1/2-y,-z
1/2+x,1/2-y,z
loop_
_atom_site_type_symbol
_atom_site_label
_atom_site_fract_x
_atom_site_fract_y
_atom_site_fract_z
Si Si1 0.609123 0.426651 0.833443
Si Si2 0.130185 0.299754 0.568852
Si Si3 0.334483 0.215837 0.747914
Si Si4 0.761589 0.137327 0.801618
Si Si5 0.924566 0.075523 0.701195
Si Si6 0.924727 0.306756 0.866495
Si Si7 0.136624 0.164309 0.010718
Si Si8 0.803933 0.846878 0.478506
O O1 0.645928 0.500000 0.799926
O O2 0.634196 0.398955 0.673178
O O3 0.500000 0.428238 0.000000
O O4 0.644911 0.376606 0.881734
O O5 0.138049 0.307006 0.418428
O O6 0.142642 0.222280 0.580109
O O7 0.213872 0.333760 0.522215
O O8 0.030118 0.324531 0.743553
O O9 0.308219 0.292324 0.770776
O O10 0.406738 0.205638 0.752864
O O11 0.240471 0.178806 0.912070
O O12 0.823625 0.083806 0.781431
O O13 0.773529 0.130514 0.647287
O O14 0.654724 0.144328 0.981705
O O15 0.921906 0.123509 0.815566
O O16 0.000000 0.094136 0.500000
O O17 0.941360 0.000000 0.712221
O O18 0.905797 0.236025 0.951641
#
# Coordination Sequence:
#
# PCOD9176569 Si02
#       8
#     8   8   8   8   8   8   8   8
#     4  11  24  39  58  82 111 153 196 228 270 336
#     4  10  21  34  57  86 115 147 185 231 285 337
#     4  10  18  35  57  85 114 146 184 230 290 336
#     4  10  21  36  55  82 116 147 189 231 282 336
#     4  11  24  37  56  84 115 152 190 231 281 338
#     4  11  20  33  60  89 114 147 183 234 289 343
#     4  11  20  38  57  82 119 147 183 235 285 334
#     4  10  22  39  53  80 118 152 185 231 280 333
#
# _framework density 18.838853
#
# number of rings (size 3 to 8) (size 9 to 14) (size 15 to 20)
#    0.000    1.500    3.750    2.250    7.000    1.000 
#    0.000    0.000    0.000    0.750    0.000    3.500 
#    0.000    0.000    0.000    0.000    0.000    0.000 
#
# Total GULP energy -178737.693133 kJ/mol
# GULP energy per Si atom -5585.552910 kJ/mol
# Density = 1.879598 g / cm^3
# Si number density = 18.838853 Si / 1000 Ang^3
#
#
#
# Elastic Constant Matrix: (Units=GPa)
#
#
# Indices 1 2 3 4 5 6 
#
# 1 55.0664 5.8117 25.9667 0.0000 6.1360 0.0000
# 2 5.8117 39.8512 17.0920 0.0000 4.6830 0.0000
# 3 25.9667 17.0920 109.4178 0.0000 -2.4262 0.0000
# 4 0.0000 0.0000 0.0000 10.0898 0.0000 -5.0587
# 5 6.1360 4.6830 -2.4262 0.0000 38.4099 0.0000
# 6 0.0000 0.0000 0.0000 -5.0587 0.0000 8.6175
#
#
#
# Elastic Compliance Matrix: (Units=1/GPa)
#
#
# Indices 1 2 3 4 5 6 
#
# 1 0.020960 -0.000499 -0.004976 0.000000 -0.003602 0.000000
# 2 -0.000499 0.027399 -0.004240 0.000000 -0.003529 0.000000
# 3 -0.004976 -0.004240 0.011027 0.000000 0.002008 0.000000
# 4 0.000000 0.000000 0.000000 0.140444 0.000000 0.082444
# 5 -0.003602 -0.003529 0.002008 0.000000 0.027167 0.000000
# 6 0.000000 0.000000 0.000000 0.082444 0.000000 0.164439
#
#
# Mechanical properties :
#
#
# Convention : Reuss Voigt Hill
#
# Bulk Modulus (GPa) = 25.02730 33.56403 29.29567
# Shear Modulus (GPa) = 11.78729 21.78778 16.78754
#
# Velocity S-wave (km/s) = 2.50409 3.40448 2.98839
# Velocity P-wave (km/s) = 4.65558 5.77140 5.24325
#
# Compressibility (1/GPa) = 0.03995636
#
# Stress axis : x y z
#
# Youngs Moduli (GPa) = 47.70890 36.49738 90.68632
#
# Poissons Ratio (x) = 0.01822 0.45127
# Poissons Ratio (y) = 0.02382 0.38449
# Poissons Ratio (z) = 0.23741 0.15474
#
# Static dielectric constant tensor:
#      x y z
#    x 1.676200 0.000000 0.009150 
#    y 0.000000 1.624920 0.000000 
#    z 0.009150 0.000000 1.668990 
# 
# From -- ./inp_files/169660.got.cif
#   From: 2010.05.17/outbox.cif.g08.bks.cpg/sg12_85_cif.got.tgz:169660.got - 2010.06.03 13:09:07.
