data_PCOD9176557
_publ_section_title
;
Structure prediction by ZEFSAII (Michael W. Deem and Ramdas Pophale) SiO2 
 PCOD9176557
Probable space group: C 2/M
;
_chemical_formula_sum "Si O2"
_cell_formula_units_Z 56
_cell_length_a 22.363125
_cell_length_b 22.267444
_cell_length_c 16.788457
_cell_angle_alpha 90.000000
_cell_angle_beta 22.314944
_cell_angle_gamma 90.000000
_cell_volume 3174.324613
_symmetry_space_group_name_H-M "C 2/M"
_symmetry_group_IT_number 12
_symmetry_cell_setting 'monoclinic'
loop_
_space_group_symop_operation_xyz
x,y,z
-x,y,-z
-x,-y,-z
x,-y,z
1/2+x,1/2+y,z
1/2-x,1/2+y,-z
1/2-x,1/2-y,-z
1/2+x,1/2-y,z
loop_
_atom_site_type_symbol
_atom_site_label
_atom_site_fract_x
_atom_site_fract_y
_atom_site_fract_z
Si Si1 0.369439 0.106621 0.106905
Si Si2 0.479160 0.837500 0.292196
Si Si3 0.547438 0.356149 0.588408
Si Si4 0.920488 0.734959 0.978497
Si Si5 0.909886 0.730796 0.537865
Si Si6 0.163390 0.185581 0.617260
Si Si7 0.267298 0.069686 0.056617
O O1 0.210904 0.118339 0.352043
O O2 0.452683 0.170314 0.979416
O O3 0.314229 0.077360 0.092124
O O4 0.500000 0.074468 0.000000
O O5 0.424321 0.808466 0.441859
O O6 0.312865 0.855102 0.455708
O O7 0.571822 0.787393 0.123585
O O8 0.598550 0.892160 0.153539
O O9 0.515307 0.295024 0.578692
O O10 0.580641 0.338111 0.639377
O O11 0.401325 0.400051 0.753924
O O12 0.761387 0.754951 0.216641
O O13 0.036281 0.792294 0.838846
O O14 0.000000 0.701832 0.500000
O O15 0.250000 0.250000 0.500000
O O16 0.265168 0.000000 0.038540
#
# Coordination Sequence:
#
# PCOD9176557 Si02
#       7
#     8   8   8   8   8   8   8
#     4  10  20  35  57  87 121 156 194 238 290 350
#     4  10  21  38  56  83 121 151 189 242 289 351
#     4  11  20  35  58  85 124 152 190 236 294 350
#     4   9  19  31  53  84 124 152 179 227 291 369
#     4  11  21  30  54  92 119 148 180 229 304 364
#     4  10  18  35  56  85 120 158 181 232 294 362
#     4  11  25  41  57  78 113 164 209 248 285 330
#
# _framework density 17.641548
#
# number of rings (size 3 to 8) (size 9 to 14) (size 15 to 20)
#    0.000    1.714    2.857    5.571    4.000    2.571 
#    0.000    2.143    0.000    0.429    0.000    1.000 
#    0.000    0.000    0.000    0.000    0.000    0.000 
#
# Total GULP energy -155915.647850 kJ/mol
# GULP energy per Si atom -5568.415995 kJ/mol
# Density = 1.760140 g / cm^3
# Si number density = 17.641548 Si / 1000 Ang^3
#
#
#
# Elastic Constant Matrix: (Units=GPa)
#
#
# Indices 1 2 3 4 5 6 
#
# 1 106.3353 27.9535 44.0245 0.0017 -2.4593 -0.0004
# 2 27.9535 62.2371 53.2122 -0.0083 -2.1343 0.0016
# 3 44.0245 53.2122 106.4395 -0.0023 5.7301 0.0005
# 4 0.0017 -0.0083 -0.0023 -2.3050 -0.0009 2.2757
# 5 -2.4593 -2.1343 5.7301 -0.0009 25.0946 0.0008
# 6 -0.0004 0.0016 0.0005 2.2757 0.0008 2.1298
#
#
#
# Elastic Compliance Matrix: (Units=1/GPa)
#
#
# Indices 1 2 3 4 5 6 
#
# 1 0.011564 -0.001660 -0.004057 0.000011 0.001918 -0.000008
# 2 -0.001660 0.029118 -0.014169 -0.000056 0.005549 0.000039
# 3 -0.004057 -0.014169 0.018470 0.000019 -0.005820 -0.000013
# 4 0.000011 -0.000056 0.000019 -0.211113 -0.000022 0.225585
# 5 0.001918 0.005549 -0.005820 -0.000022 0.041838 0.000006
# 6 -0.000008 0.000039 -0.000013 0.225585 0.000006 0.228488
#
#
# Mechanical properties :
#
#
# Convention : Reuss Voigt Hill
#
# Bulk Modulus (GPa) = 51.59741 58.37690 54.98715
# Shear Modulus (GPa) = 30.37733 14.97198 22.67466
#
# Velocity S-wave (km/s) = 4.15410 2.91637 3.58900
# Velocity P-wave (km/s) = 7.23325 6.67103 6.95782
#
# Compressibility (1/GPa) = 0.01938082
#
# Stress axis : x y z
#
# Youngs Moduli (GPa) = 86.47188 34.34327 54.14287
#
# Poissons Ratio (x) = 0.05701 0.21964
# Poissons Ratio (y) = 0.14354 0.76715
# Poissons Ratio (z) = 0.35078 0.48661
#
# Static dielectric constant tensor:
#      x y z
#    x 1.664760 0.000000 -0.032780 
#    y 0.000000 1.595440 0.000010 
#    z -0.032780 0.000010 1.700530 
# 
# From -- ./inp_files/290786.got.cif
#   From: 2010.05.17/outbox.cif.g08.bks.cpg/sg12_146_cif.got.tgz:290786.got - 2010.06.03 13:09:07.
