data_PCOD9176779
_publ_section_title
;
Structure prediction by ZEFSAII (Michael W. Deem and Ramdas Pophale) SiO2 
 PCOD9176779
Probable space group: C 2/M
;
_chemical_formula_sum "Si O2"
_cell_formula_units_Z 60
_cell_length_a 14.419019
_cell_length_b 15.180026
_cell_length_c 13.885673
_cell_angle_alpha 90.000000
_cell_angle_beta 124.485572
_cell_angle_gamma 90.000000
_cell_volume 2505.209331
_symmetry_space_group_name_H-M "C 2/M"
_symmetry_group_IT_number 12
_symmetry_cell_setting 'monoclinic'
loop_
_space_group_symop_operation_xyz
x,y,z
-x,y,-z
-x,-y,-z
x,-y,z
1/2+x,1/2+y,z
1/2-x,1/2+y,-z
1/2-x,1/2-y,-z
1/2+x,1/2-y,z
loop_
_atom_site_type_symbol
_atom_site_label
_atom_site_fract_x
_atom_site_fract_y
_atom_site_fract_z
Si Si1 0.641213 0.353134 0.830227
Si Si2 0.874319 0.149380 0.948997
Si Si3 0.059601 0.659663 0.768629
Si Si4 0.691328 0.226974 0.363129
Si Si5 0.694114 0.000000 0.782188
Si Si6 0.871126 0.098745 0.438285
Si Si7 0.108253 0.908599 0.324734
Si Si8 0.116008 0.355600 0.027674
O O1 0.644882 0.348351 0.947743
O O2 0.616729 0.253980 0.778117
O O3 0.526048 0.404055 0.743201
O O4 0.761688 0.393313 0.874624
O O5 0.874071 0.254619 0.927209
O O6 0.000000 0.118382 0.000000
O O7 0.787334 0.079503 0.856424
O O8 0.096301 0.578648 0.725080
O O9 0.098433 0.641250 0.901863
O O10 0.925310 0.675634 0.689669
O O11 0.750000 0.250000 0.500000
O O12 0.779519 0.170170 0.354365
O O13 0.653582 0.321866 0.299900
O O14 0.851514 0.090940 0.541414
O O15 0.000000 0.128248 0.500000
O O16 0.860429 0.000000 0.391105
O O17 0.145727 0.000000 0.300066
O O18 0.000000 0.393634 0.000000
#
# Coordination Sequence:
#
# PCOD9176779 Si02
#       8
#     8   8   8   8   4   8   8   8
#     4  10  18  36  53  73 111 148 185 222 267 323
#     4  10  20  33  54  76 104 147 189 227 267 314
#     4  10  20  33  53  80 108 148 179 226 276 328
#     4   9  19  36  57  77 101 139 181 222 282 332
#     4  12  19  32  53  80 117 139 182 231 279 326
#     4   9  18  34  55  82 109 133 174 230 273 324
#     4   9  19  33  57  79  99 137 183 222 270 331
#     4  10  19  35  53  75 111 150 188 220 263 323
#
# _framework density 23.950095000000001
#
# number of rings (size 3 to 8) (size 9 to 14) (size 15 to 20)
#    0.000    2.267    2.667    1.000    1.867    1.067 
#    0.000    0.333    0.000    0.400    0.000    0.000 
#    0.000    0.000    0.000    0.000    0.000    0.000 
#
# Total GULP energy -167033.817664 kJ/mol
# GULP energy per Si atom -5567.793922 kJ/mol
# Density = 2.389558 g / cm^3
# Si number density = 23.950095 Si / 1000 Ang^3
#
#
#
# Elastic Constant Matrix: (Units=GPa)
#
#
# Indices 1 2 3 4 5 6 
#
# 1 58.1215 25.9189 36.3958 0.0000 25.0429 0.0000
# 2 25.9189 141.8180 36.8047 0.0000 38.6338 0.0000
# 3 36.3958 36.8047 102.3846 0.0000 32.8357 0.0000
# 4 0.0000 0.0000 0.0000 371.1945 0.0000 175.4971
# 5 25.0429 38.6338 32.8357 0.0000 58.3429 0.0000
# 6 0.0000 0.0000 0.0000 175.4971 0.0000 97.8733
#
#
#
# Elastic Compliance Matrix: (Units=1/GPa)
#
#
# Indices 1 2 3 4 5 6 
#
# 1 0.024275 -0.001140 -0.006248 0.000000 -0.006149 0.000000
# 2 -0.001140 0.008862 -0.001288 0.000000 -0.004654 0.000000
# 3 -0.006248 -0.001288 0.013810 0.000000 -0.004238 0.000000
# 4 0.000000 0.000000 0.000000 0.017696 0.000000 -0.031731
# 5 -0.006149 -0.004654 -0.004238 0.000000 0.025246 0.000000
# 6 0.000000 0.000000 0.000000 -0.031731 0.000000 0.067114
#
#
# Mechanical properties :
#
#
# Convention : Reuss Voigt Hill
#
# Bulk Modulus (GPa) = 33.78824 55.61809 44.70316
# Shear Modulus (GPa) = 27.14144 119.02911 73.08528
#
# Velocity S-wave (km/s) = 3.37003 7.05739 5.53009
# Velocity P-wave (km/s) = 5.41121 9.47005 7.71243
#
# Compressibility (1/GPa) = 0.02959610
#
# Stress axis : x y z
#
# Youngs Moduli (GPa) = 41.19402 112.84552 72.41097
#
# Poissons Ratio (x) = 0.12867 0.45240
# Poissons Ratio (y) = 0.04697 0.09324
# Poissons Ratio (z) = 0.25737 0.14531
#
# Static dielectric constant tensor:
#      x y z
#    x 1.845590 0.000000 0.042480 
#    y 0.000000 1.956680 0.000000 
#    z 0.042480 0.000000 1.890990 
# 
# From -- ./inp_files/311055.got.cif
#   From: 2010.05.17/outbox.cif.g08.bks.cpg/sg12_156_cif.got.tgz:311055.got - 2010.06.03 13:09:07.
