data_PCOD9176700
_publ_section_title
;
Structure prediction by ZEFSAII (Michael W. Deem and Ramdas Pophale) SiO2 
 PCOD9176700
Probable space group: C 2/M
;
_chemical_formula_sum "Si O2"
_cell_formula_units_Z 56
_cell_length_a 25.086755
_cell_length_b 7.771278
_cell_length_c 18.584561
_cell_angle_alpha 90.000000
_cell_angle_beta 136.403227
_cell_angle_gamma 90.000000
_cell_volume 2498.464103
_symmetry_space_group_name_H-M "C 2/M"
_symmetry_group_IT_number 12
_symmetry_cell_setting 'monoclinic'
loop_
_space_group_symop_operation_xyz
x,y,z
-x,y,-z
-x,-y,-z
x,-y,z
1/2+x,1/2+y,z
1/2-x,1/2+y,-z
1/2-x,1/2-y,-z
1/2+x,1/2-y,z
loop_
_atom_site_type_symbol
_atom_site_label
_atom_site_fract_x
_atom_site_fract_y
_atom_site_fract_z
Si Si1 0.216187 0.196381 0.890351
Si Si2 0.914330 0.696757 0.334737
Si Si3 0.135617 0.209754 0.195924
Si Si4 0.481894 0.710885 0.795622
Si Si5 0.310688 0.199994 0.362028
Si Si6 0.566660 0.699209 0.409258
Si Si7 0.872145 0.208253 0.972230
O O1 0.143649 0.300020 0.789743
O O2 0.287888 0.218811 0.906430
O O3 0.190275 0.000000 0.869198
O O4 0.250000 0.250000 0.000000
O O5 0.934448 0.500000 0.372550
O O6 0.864378 0.775961 0.351175
O O7 0.993328 0.786879 0.390494
O O8 0.081985 0.267243 0.208761
O O9 0.224486 0.270833 0.286621
O O10 0.104254 0.253948 0.085961
O O11 0.135755 0.000000 0.200066
O O12 0.483633 0.500000 0.796050
O O13 0.460296 0.768720 0.694541
O O14 0.565188 0.764873 0.907781
O O15 0.360504 0.210669 0.483002
O O16 0.299890 0.000000 0.330297
O O17 0.587713 0.500000 0.420726
O O18 0.866119 0.000000 0.969986
#
# Coordination Sequence:
#
# PCOD9176700 Si02
#       7
#     8   8   8   8   8   8   8
#     4  12  24  37  57  86 122 159 193 235 290 349
#     4  11  22  40  62  86 114 150 198 247 296 351
#     4   9  17  34  60  88 114 148 197 247 293 347
#     4   9  19  34  57  87 118 150 194 245 291 347
#     4  10  21  38  60  85 113 151 200 247 293 351
#     4  11  23  37  55  86 122 158 196 241 296 352
#     4  10  18  35  61  88 115 149 195 243 294 349
#
# _framework density 22.413771000000001
#
# number of rings (size 3 to 8) (size 9 to 14) (size 15 to 20)
#    0.000    1.714    1.429    3.857    0.000    6.286 
#    0.000    0.714    0.000    5.143    0.000    0.000 
#    0.000    0.000    0.000    0.000    0.000    0.000 
#
# Total GULP energy -156555.191187 kJ/mol
# GULP energy per Si atom -5591.256828 kJ/mol
# Density = 2.236276 g / cm^3
# Si number density = 22.413771 Si / 1000 Ang^3
#
#
#
# Elastic Constant Matrix: (Units=GPa)
#
#
# Indices 1 2 3 4 5 6 
#
# 1 41.4341 -3.2367 -1.4568 0.0000 -0.8216 0.0000
# 2 -3.2367 40.6746 -3.3349 0.0000 -2.6463 0.0000
# 3 -1.4568 -3.3349 114.9070 0.0000 3.6271 0.0000
# 4 0.0000 0.0000 0.0000 22.6268 0.0000 -1.7273
# 5 -0.8216 -2.6463 3.6271 0.0000 22.1459 0.0000
# 6 0.0000 0.0000 0.0000 -1.7273 0.0000 8.0460
#
#
#
# Elastic Compliance Matrix: (Units=1/GPa)
#
#
# Indices 1 2 3 4 5 6 
#
# 1 0.024327 0.002034 0.000333 0.000000 0.001091 0.000000
# 2 0.002034 0.024993 0.000658 0.000000 0.002954 0.000000
# 3 0.000333 0.000658 0.008768 0.000000 -0.001345 0.000000
# 4 0.000000 0.000000 0.000000 0.044932 0.000000 0.009646
# 5 0.001091 0.002954 -0.001345 0.000000 0.045769 0.000000
# 6 0.000000 0.000000 0.000000 0.009646 0.000000 0.126355
#
#
# Mechanical properties :
#
#
# Convention : Reuss Voigt Hill
#
# Bulk Modulus (GPa) = 15.59115 20.10653 17.84884
# Shear Modulus (GPa) = 17.21323 24.23336 20.72329
#
# Velocity S-wave (km/s) = 2.77424 3.29170 3.04399
# Velocity P-wave (km/s) = 4.15127 4.84119 4.50945
#
# Compressibility (1/GPa) = 0.06413895
#
# Stress axis : x y z
#
# Youngs Moduli (GPa) = 41.10668 40.01057 114.04501
#
# Poissons Ratio (x) = -0.08139 -0.03798
# Poissons Ratio (y) = -0.08362 -0.07503
# Poissons Ratio (z) = -0.01369 -0.02632
#
# Static dielectric constant tensor:
#      x y z
#    x 1.823210 0.000000 -0.021000 
#    y 0.000000 1.839850 0.000000 
#    z -0.021000 0.000000 1.815490 
# 
# From -- ./inp_files/288401.got.cif
#   From: 2010.05.17/outbox.cif.g08.bks.cpg/sg12_145_cif.got.tgz:288401.got - 2010.06.03 13:09:07.
