data_PCOD9176019
_publ_section_title
;
Structure prediction by ZEFSAII (Michael W. Deem and Ramdas Pophale) SiO2 
 PCOD9176019
Probable space group: C 2/M
;
_chemical_formula_sum "Si O2"
_cell_formula_units_Z 56
_cell_length_a 26.312583
_cell_length_b 19.552998
_cell_length_c 17.520684
_cell_angle_alpha 90.000000
_cell_angle_beta 20.404584
_cell_angle_gamma 90.000000
_cell_volume 3142.779207
_symmetry_space_group_name_H-M "C 2/M"
_symmetry_group_IT_number 12
_symmetry_cell_setting 'monoclinic'
loop_
_space_group_symop_operation_xyz
x,y,z
-x,y,-z
-x,-y,-z
x,-y,z
1/2+x,1/2+y,z
1/2-x,1/2+y,-z
1/2-x,1/2-y,-z
1/2+x,1/2-y,z
loop_
_atom_site_type_symbol
_atom_site_label
_atom_site_fract_x
_atom_site_fract_y
_atom_site_fract_z
Si Si1 0.871744 0.790469 0.730548
Si Si2 0.162580 0.770843 0.801089
Si Si3 0.784986 0.923382 0.752382
Si Si4 0.917886 0.157508 0.438009
Si Si5 0.594682 0.717349 0.071615
Si Si6 0.328246 0.186892 0.431633
Si Si7 0.962662 0.578280 0.139065
O O1 0.827127 0.861613 0.750052
O O2 0.000000 0.757741 0.500000
O O3 0.953346 0.808536 0.693114
O O4 0.737147 0.739547 0.917730
O O5 0.275850 0.707071 0.639458
O O6 0.236949 0.824157 0.637483
O O7 0.142511 0.793049 0.916829
O O8 0.000000 0.754471 0.000000
O O9 0.868770 0.908486 0.554546
O O10 0.818159 0.000000 0.733859
O O11 0.614338 0.919756 0.972086
O O12 0.994310 0.157272 0.248057
O O13 0.487940 0.783293 0.225243
O O14 0.250000 0.250000 0.500000
O O15 0.349637 0.125725 0.342531
O O16 0.911363 0.500000 0.207312
O O17 0.000000 0.599624 0.000000
#
# Coordination Sequence:
#
# PCOD9176019 Si02
#       7
#     8   8   8   8   8   8   8
#     4  10  18  34  51  74 108 143 175 224 273 323
#     4  11  21  33  50  82 107 141 177 222 270 322
#     4  10  20  34  54  80 111 143 178 224 277 328
#     4  10  22  32  53  76 106 148 175 226 269 322
#     4  11  20  34  50  78 111 137 181 224 269 327
#     4  11  22  30  56  81 109 146 179 226 267 327
#     4  10  22  37  56  81 114 146 180 228 277 331
#
# _framework density 17.818622999999999
#
# number of rings (size 3 to 8) (size 9 to 14) (size 15 to 20)
#    0.000    1.571    5.714    0.429    6.000    2.571 
#    0.000    0.000    0.000    1.286    0.000    0.000 
#    0.000    2.857    0.000    0.000    0.000    0.000 
#
# Total GULP energy -156077.318774 kJ/mol
# GULP energy per Si atom -5574.189956 kJ/mol
# Density = 1.777807 g / cm^3
# Si number density = 17.818623 Si / 1000 Ang^3
#
#
#
# Elastic Constant Matrix: (Units=GPa)
#
#
# Indices 1 2 3 4 5 6 
#
# 1 66.5654 10.1873 42.9088 -0.0008 3.8818 0.0006
# 2 10.1873 54.7839 39.9767 -0.0009 10.1796 0.0006
# 3 42.9088 39.9767 120.6226 -0.0014 14.7733 0.0011
# 4 -0.0008 -0.0009 -0.0014 21.7179 0.0013 6.3872
# 5 3.8818 10.1796 14.7733 0.0013 48.3415 -0.0010
# 6 0.0006 0.0006 0.0011 6.3872 -0.0010 18.3580
#
#
#
# Elastic Compliance Matrix: (Units=1/GPa)
#
#
# Indices 1 2 3 4 5 6 
#
# 1 0.019649 0.001861 -0.007652 0.000000 0.000369 0.000000
# 2 0.001861 0.024605 -0.008481 0.000001 -0.002739 -0.000001
# 3 -0.007652 -0.008481 0.014055 0.000001 -0.001895 -0.000001
# 4 0.000000 0.000001 0.000001 0.051294 -0.000002 -0.017846
# 5 0.000369 -0.002739 -0.001895 -0.000002 0.021812 0.000002
# 6 0.000000 -0.000001 -0.000001 -0.017846 0.000002 0.060681
#
#
# Mechanical properties :
#
#
# Convention : Reuss Voigt Hill
#
# Bulk Modulus (GPa) = 33.59552 47.56859 40.58206
# Shear Modulus (GPa) = 21.68613 27.61007 24.64810
#
# Velocity S-wave (km/s) = 3.49241 3.94065 3.72328
# Velocity P-wave (km/s) = 5.92939 6.88904 6.42715
#
# Compressibility (1/GPa) = 0.02976587
#
# Stress axis : x y z
#
# Youngs Moduli (GPa) = 50.89372 40.64161 71.14820
#
# Poissons Ratio (x) = -0.07564 0.54440
# Poissons Ratio (y) = -0.09473 0.60343
# Poissons Ratio (z) = 0.38942 0.34470
#
# Static dielectric constant tensor:
#      x y z
#    x 1.702630 0.000000 0.007210 
#    y 0.000000 1.601840 0.000000 
#    z 0.007210 0.000000 1.642060 
# 
# From -- ./inp_files/294052.got.cif
#   From: 2010.05.17/outbox.cif.g08.bks.cpg/sg12_148_cif.got.tgz:294052.got - 2010.06.03 13:09:07.
