data_PCOD9176476
_publ_section_title
;
Structure prediction by ZEFSAII (Michael W. Deem and Ramdas Pophale) SiO2 
 PCOD9176476
Probable space group: C 2/M
;
_chemical_formula_sum "Si O2"
_cell_formula_units_Z 52
_cell_length_a 13.886628
_cell_length_b 16.967879
_cell_length_c 18.747706
_cell_angle_alpha 90.000000
_cell_angle_beta 33.757984
_cell_angle_gamma 90.000000
_cell_volume 2454.720336
_symmetry_space_group_name_H-M "C 2/M"
_symmetry_group_IT_number 12
_symmetry_cell_setting 'monoclinic'
loop_
_space_group_symop_operation_xyz
x,y,z
-x,y,-z
-x,-y,-z
x,-y,z
1/2+x,1/2+y,z
1/2-x,1/2+y,-z
1/2-x,1/2-y,-z
1/2+x,1/2-y,z
loop_
_atom_site_type_symbol
_atom_site_label
_atom_site_fract_x
_atom_site_fract_y
_atom_site_fract_z
Si Si1 0.042725 0.000000 0.058506
Si Si2 0.818007 0.242438 0.639623
Si Si3 0.648422 0.670485 0.970869
Si Si4 0.528564 0.803243 0.323555
Si Si5 0.172305 0.159815 0.596277
Si Si6 0.031307 0.000000 0.745885
Si Si7 0.004092 0.331102 0.910518
Si Si8 0.885466 0.500000 0.997281
O O1 0.910978 0.000000 0.206143
O O2 0.132433 0.915238 0.015592
O O3 0.000000 0.000000 0.000000
O O4 0.726374 0.285062 0.629893
O O5 0.689261 0.184636 0.760298
O O6 0.000000 0.207586 0.500000
O O7 0.870133 0.310131 0.664410
O O8 0.838074 0.676702 0.820041
O O9 0.500000 0.669263 0.000000
O O10 0.601973 0.750722 0.041467
O O11 0.345344 0.847173 0.441675
O O12 0.474738 0.711383 0.351141
O O13 0.104102 0.077501 0.664308
O O14 0.822184 0.000000 0.865826
O O15 0.935525 0.416629 0.930517
O O16 0.000000 0.332667 0.000000
O O17 0.000000 0.500000 0.000000
#
# Coordination Sequence:
#
# PCOD9176476 Si02
#       8
#     4   8   8   8   8   4   8   4
#     4  10  24  37  56  91 132 162 207 262 323 387
#     4  10  20  38  63  91 128 169 215 265 320 401
#     4  10  18  34  64  84 119 168 203 254 325 381
#     4  10  20  41  62  90 127 169 214 266 326 390
#     4  10  24  38  63  95 128 170 219 265 327 396
#     4  12  24  41  62  97 133 167 218 275 320 396
#     4  10  18  35  63  87 120 162 213 258 326 378
#     4  10  24  38  60  96 122 161 222 275 323 382
#
# _framework density 21.183675999999998
#
# number of rings (size 3 to 8) (size 9 to 14) (size 15 to 20)
#    0.000    1.846    3.077    1.846    4.308    1.846 
#    0.000    6.923    0.000    7.385    0.000    0.000 
#    0.000    0.000    0.000    0.000    0.000    0.000 
#
# Total GULP energy -144965.710541 kJ/mol
# GULP energy per Si atom -5575.604252 kJ/mol
# Density = 2.113546 g / cm^3
# Si number density = 21.183676 Si / 1000 Ang^3
#
#
#
# Elastic Constant Matrix: (Units=GPa)
#
#
# Indices 1 2 3 4 5 6 
#
# 1 71.9312 14.2035 5.0076 -0.0002 -9.2018 -0.0003
# 2 14.2035 173.2239 89.6674 -0.0044 -5.5031 0.0011
# 3 5.0076 89.6674 191.3534 -0.0069 -2.8955 0.0014
# 4 -0.0002 -0.0044 -0.0069 25.1595 0.0027 2.6739
# 5 -9.2018 -5.5031 -2.8955 0.0027 23.2813 -0.0001
# 6 -0.0003 0.0011 0.0014 2.6739 -0.0001 -8.9161
#
#
#
# Elastic Compliance Matrix: (Units=1/GPa)
#
#
# Indices 1 2 3 4 5 6 
#
# 1 0.014834 -0.001163 0.000242 -0.000001 0.005618 -0.000001
# 2 -0.001163 0.007756 -0.003590 0.000000 0.000927 0.000001
# 3 0.000242 -0.003590 0.006903 0.000001 0.000106 0.000001
# 4 -0.000001 0.000000 0.000001 0.038519 -0.000004 0.011551
# 5 0.005618 0.000927 0.000106 -0.000004 0.045406 -0.000002
# 6 -0.000001 0.000001 0.000001 0.011551 -0.000002 -0.108692
#
#
# Mechanical properties :
#
#
# Convention : Reuss Voigt Hill
#
# Bulk Modulus (GPa) = 48.84999 72.69616 60.77308
# Shear Modulus (GPa) = 243.05551 29.74693 136.40122
#
# Velocity S-wave (km/s) = 10.72316 3.75138 8.03303
# Velocity P-wave (km/s) = 13.28252 7.29077 10.71403
#
# Compressibility (1/GPa) = 0.02047083
#
# Stress axis : x y z
#
# Youngs Moduli (GPa) = 67.41412 128.93258 144.85529
#
# Poissons Ratio (x) = 0.14994 -0.03502
# Poissons Ratio (y) = 0.07840 0.52002
# Poissons Ratio (z) = -0.01630 0.46286
#
# Static dielectric constant tensor:
#      x y z
#    x 1.815410 0.000000 0.000750 
#    y 0.000000 1.742180 0.000000 
#    z 0.000750 0.000000 1.757350 
# 
# From -- ./inp_files/311502.got.cif
#   From: 2010.05.17/outbox.cif.g08.bks.cpg/sg12_156_cif.got.tgz:311502.got - 2010.06.03 13:09:07.
