data_PCOD9176096
_publ_section_title
;
Structure prediction by ZEFSAII (Michael W. Deem and Ramdas Pophale) SiO2 
 PCOD9176096
Probable space group: C 2/M
;
_chemical_formula_sum "Si O2"
_cell_formula_units_Z 48
_cell_length_a 10.652634
_cell_length_b 31.340645
_cell_length_c 18.047662
_cell_angle_alpha 90.000000
_cell_angle_beta 155.876130
_cell_angle_gamma 90.000000
_cell_volume 2462.645588
_symmetry_space_group_name_H-M "C 2/M"
_symmetry_group_IT_number 12
_symmetry_cell_setting 'monoclinic'
loop_
_space_group_symop_operation_xyz
x,y,z
-x,y,-z
-x,-y,-z
x,-y,z
1/2+x,1/2+y,z
1/2-x,1/2+y,-z
1/2-x,1/2-y,-z
1/2+x,1/2-y,z
loop_
_atom_site_type_symbol
_atom_site_label
_atom_site_fract_x
_atom_site_fract_y
_atom_site_fract_z
Si Si1 0.896434 0.645674 0.639475
Si Si2 0.275896 0.385329 0.706985
Si Si3 0.761463 0.312707 0.950932
Si Si4 0.195165 0.622027 0.243556
Si Si5 0.658006 0.048903 0.004328
Si Si6 0.669115 0.222693 0.847402
O O1 0.552171 0.632489 0.433614
O O2 0.940015 0.632274 0.748196
O O3 0.125965 0.622359 0.707042
O O4 0.937022 0.697146 0.669214
O O5 0.457693 0.341315 0.790514
O O6 0.530992 0.422754 0.836050
O O7 0.000000 0.391447 0.500000
O O8 0.687886 0.273972 0.855410
O O9 0.856159 0.289956 0.079918
O O10 0.031480 0.348079 0.094268
O O11 0.102269 0.573364 0.182126
O O12 0.716230 0.000000 0.014695
O O13 0.500000 0.049338 0.000000
O O14 0.000000 0.206008 0.000000
#
# Coordination Sequence:
#
# PCOD9176096 Si02
#       6
#     8   8   8   8   8   8
#     4  10  20  38  61  86 116 160 194 246 297 340
#     4  11  22  38  60  88 119 154 199 245 298 347
#     4   9  20  35  52  80 111 154 198 237 287 342
#     4   9  20  39  63  83 117 159 196 236 300 356
#     4  10  22  41  65  90 119 153 189 236 296 362
#     4  10  18  34  55  77 113 153 196 242 287 337
#
# _framework density 19.491233999999999
#
# number of rings (size 3 to 8) (size 9 to 14) (size 15 to 20)
#    0.000    2.167    1.667    1.000    0.000    4.333 
#    9.000    5.833    0.000    0.000    0.000    0.000 
#    0.000    0.000    0.000    0.000    0.000    0.000 
#
# Total GULP energy -133632.670238 kJ/mol
# GULP energy per Si atom -5568.027927 kJ/mol
# Density = 1.944687 g / cm^3
# Si number density = 19.491234 Si / 1000 Ang^3
#
#
#
# Elastic Constant Matrix: (Units=GPa)
#
#
# Indices 1 2 3 4 5 6 
#
# 1 84.4492 46.5834 33.9334 0.0000 11.0226 0.0000
# 2 46.5834 151.3193 66.8646 0.0000 9.3465 0.0000
# 3 33.9334 66.8646 100.9155 -0.0002 1.6197 0.0000
# 4 0.0000 0.0000 -0.0002 17.9019 -0.0001 -2.7192
# 5 11.0226 9.3465 1.6197 -0.0001 18.1032 0.0000
# 6 0.0000 0.0000 0.0000 -2.7192 0.0000 23.4154
#
#
#
# Elastic Compliance Matrix: (Units=1/GPa)
#
#
# Indices 1 2 3 4 5 6 
#
# 1 0.015784 -0.002952 -0.003227 0.000000 -0.007798 0.000000
# 2 -0.002952 0.010239 -0.005744 0.000000 -0.002975 0.000000
# 3 -0.003227 -0.005744 0.014742 0.000000 0.003611 0.000000
# 4 0.000000 0.000000 0.000000 0.056863 0.000000 0.006603
# 5 -0.007798 -0.002975 0.003611 0.000000 0.061200 0.000000
# 6 0.000000 0.000000 0.000000 0.006603 0.000000 0.043474
#
#
# Mechanical properties :
#
#
# Convention : Reuss Voigt Hill
#
# Bulk Modulus (GPa) = 59.09903 70.16076 64.62990
# Shear Modulus (GPa) = 21.57160 24.50427 23.03793
#
# Velocity S-wave (km/s) = 3.33037 3.54954 3.44170
# Velocity P-wave (km/s) = 6.72124 7.27139 7.00173
#
# Compressibility (1/GPa) = 0.01692075
#
# Stress axis : x y z
#
# Youngs Moduli (GPa) = 63.35568 97.66469 67.83287
#
# Poissons Ratio (x) = 0.28827 0.21887
# Poissons Ratio (y) = 0.18700 0.38963
# Poissons Ratio (z) = 0.20442 0.56098
#
# Static dielectric constant tensor:
#      x y z
#    x 1.792330 0.000000 0.016860 
#    y 0.000000 1.717610 0.000000 
#    z 0.016860 0.000000 1.684000 
# 
# From -- ./inp_files/307620.got.cif
#   From: 2010.05.17/outbox.cif.g08.bks.cpg/sg12_154_cif.got.tgz:307620.got - 2010.06.03 13:09:07.
