data_PCOD9176636
_publ_section_title
;
Structure prediction by ZEFSAII (Michael W. Deem and Ramdas Pophale) SiO2 
 PCOD9176636
Probable space group: C 2/M
;
_chemical_formula_sum "Si O2"
_cell_formula_units_Z 56
_cell_length_a 17.427160
_cell_length_b 17.323802
_cell_length_c 7.602637
_cell_angle_alpha 90.000000
_cell_angle_beta 101.718004
_cell_angle_gamma 90.000000
_cell_volume 2247.435947
_symmetry_space_group_name_H-M "C 2/M"
_symmetry_group_IT_number 12
_symmetry_cell_setting 'monoclinic'
loop_
_space_group_symop_operation_xyz
x,y,z
-x,y,-z
-x,-y,-z
x,-y,z
1/2+x,1/2+y,z
1/2-x,1/2+y,-z
1/2-x,1/2-y,-z
1/2+x,1/2-y,z
loop_
_atom_site_type_symbol
_atom_site_label
_atom_site_fract_x
_atom_site_fract_y
_atom_site_fract_z
Si Si1 0.283801 0.585220 0.373781
Si Si2 0.644227 0.809942 0.298176
Si Si3 0.648179 0.809150 0.874851
Si Si4 0.434292 0.342685 0.595647
Si Si5 0.211971 0.086318 0.050355
Si Si6 0.502878 0.912532 0.786902
Si Si7 0.561960 0.336906 0.903293
O O1 0.257745 0.500000 0.421332
O O2 0.224621 0.652731 0.403705
O O3 0.371747 0.600849 0.479603
O O4 0.280785 0.583308 0.159230
O O5 0.617486 0.726697 0.350945
O O6 0.574060 0.868440 0.310383
O O7 0.650575 0.808207 0.088856
O O8 0.580766 0.865876 0.778075
O O9 0.618247 0.722636 0.824351
O O10 0.730470 0.846032 0.856092
O O11 0.500000 0.305137 0.500000
O O12 0.498324 0.381187 0.756669
O O13 0.122212 0.110076 0.036035
O O14 0.230307 0.000000 0.124518
O O15 0.505705 0.000000 0.726667
O O16 0.500000 0.913950 0.000000
O O17 0.500000 0.290843 0.000000
#
# Coordination Sequence:
#
# PCOD9176636 Si02
#       7
#     8   8   8   8   8   8   8
#     4  10  22  39  61  88 119 158 205 250 292 351
#     4  10  19  36  59  88 119 153 200 245 297 351
#     4  10  18  35  59  88 121 152 195 245 297 355
#     4  12  23  39  62  90 121 160 203 246 295 356
#     4  10  22  38  59  90 123 157 198 249 301 350
#     4   9  15  26  52  86 117 148 186 237 291 346
#     4  12  22  40  62  88 124 159 198 246 299 358
#
# _framework density 24.917283999999999
#
# number of rings (size 3 to 8) (size 9 to 14) (size 15 to 20)
#    0.000    1.571    4.286    2.143    0.000    4.571 
#    0.000    0.000    0.000    1.714    0.000    0.000 
#    0.000    0.000    0.000    0.000    0.000    0.000 
#
# Total GULP energy -156447.142307 kJ/mol
# GULP energy per Si atom -5587.397940 kJ/mol
# Density = 2.486057 g / cm^3
# Si number density = 24.917284 Si / 1000 Ang^3
#
#
#
# Elastic Constant Matrix: (Units=GPa)
#
#
# Indices 1 2 3 4 5 6 
#
# 1 137.2532 15.3013 30.0594 0.0000 28.2983 0.0000
# 2 15.3013 62.9770 -3.6298 0.0000 -1.2470 0.0000
# 3 30.0594 -3.6298 46.6282 0.0000 15.8779 0.0000
# 4 0.0000 0.0000 0.0000 11.5977 0.0000 5.3125
# 5 28.2983 -1.2470 15.8779 0.0000 35.4398 0.0000
# 6 0.0000 0.0000 0.0000 5.3125 0.0000 30.1821
#
#
#
# Elastic Compliance Matrix: (Units=1/GPa)
#
#
# Indices 1 2 3 4 5 6 
#
# 1 0.009800 -0.002759 -0.004525 0.000000 -0.005895 0.000000
# 2 -0.002759 0.016727 0.002513 0.000000 0.001665 0.000000
# 3 -0.004525 0.002513 0.027493 0.000000 -0.008616 0.000000
# 4 0.000000 0.000000 0.000000 0.093786 0.000000 -0.016508
# 5 -0.005895 0.001665 -0.008616 0.000000 0.036842 0.000000
# 6 0.000000 0.000000 0.000000 -0.016508 0.000000 0.036038
#
#
# Mechanical properties :
#
#
# Convention : Reuss Voigt Hill
#
# Bulk Modulus (GPa) = 22.48238 36.70225 29.59231
# Shear Modulus (GPa) = 20.40383 29.11908 24.76145
#
# Velocity S-wave (km/s) = 2.86468 3.42223 3.15579
# Velocity P-wave (km/s) = 4.47038 5.51155 5.01804
#
# Compressibility (1/GPa) = 0.04447928
#
# Stress axis : x y z
#
# Youngs Moduli (GPa) = 102.04417 59.78399 36.37311
#
# Poissons Ratio (x) = 0.16492 0.16459
# Poissons Ratio (y) = 0.28149 -0.09142
# Poissons Ratio (z) = 0.46174 -0.15026
#
# Static dielectric constant tensor:
#      x y z
#    x 1.934230 0.000000 -0.062070 
#    y 0.000000 1.923330 0.000000 
#    z -0.062070 0.000000 2.122830 
# 
# From -- ./inp_files/76022.got.cif
#   From: 2010.05.17/outbox.cif.g08.bks.cpg/sg12_39_cif.got.tgz:76022.got - 2010.06.03 13:09:07.
