data_PCOD9176377
_publ_section_title
;
Structure prediction by ZEFSAII (Michael W. Deem and Ramdas Pophale) SiO2 
 PCOD9176377
Probable space group: C 2/M
;
_chemical_formula_sum "Si O2"
_cell_formula_units_Z 64
_cell_length_a 9.645018
_cell_length_b 26.343218
_cell_length_c 14.940272
_cell_angle_alpha 90.000000
_cell_angle_beta 116.742813
_cell_angle_gamma 90.000000
_cell_volume 3389.994901
_symmetry_space_group_name_H-M "C 2/M"
_symmetry_group_IT_number 12
_symmetry_cell_setting 'monoclinic'
loop_
_space_group_symop_operation_xyz
x,y,z
-x,y,-z
-x,-y,-z
x,-y,z
1/2+x,1/2+y,z
1/2-x,1/2+y,-z
1/2-x,1/2-y,-z
1/2+x,1/2-y,z
loop_
_atom_site_type_symbol
_atom_site_label
_atom_site_fract_x
_atom_site_fract_y
_atom_site_fract_z
Si Si1 0.217352 0.940956 0.664793
Si Si2 0.834977 0.061462 0.998599
Si Si3 0.444070 0.939294 0.208754
Si Si4 0.044783 0.194918 0.668042
Si Si5 0.227920 0.875791 0.496024
Si Si6 0.565178 0.600987 0.788679
Si Si7 0.183253 0.281409 0.396193
Si Si8 0.764479 0.439296 0.332391
O O1 0.381183 0.920782 0.751771
O O2 0.179402 0.910725 0.564540
O O3 0.098901 0.932562 0.710344
O O4 0.231116 0.000000 0.646717
O O5 0.690488 0.079514 0.896242
O O6 0.829187 0.000000 0.004586
O O7 0.835304 0.084773 0.097505
O O8 0.000000 0.073599 0.000000
O O9 0.399331 0.932040 0.299311
O O10 0.447072 0.000000 0.194614
O O11 0.915993 0.159208 0.580098
O O12 0.959984 0.246462 0.674747
O O13 0.091125 0.158543 0.763640
O O14 0.185103 0.208914 0.641210
O O15 0.352976 0.836105 0.571775
O O16 0.286285 0.910457 0.432012
O O17 0.386953 0.586529 0.756399
O O18 0.250000 0.250000 0.500000
O O19 0.742514 0.500000 0.337820
#
# Coordination Sequence:
#
# PCOD9176377 Si02
#       8
#     8   8   8   8   8   8   8   8
#     4  11  22  35  52  80 125 164 186 223 282 346
#     4  10  18  34  60  85 114 153 194 241 283 330
#     4   9  20  36  51  77 116 155 201 238 265 325
#     4  10  22  39  57  84 114 142 191 254 284 347
#     4  10  20  34  53  81 120 151 193 229 279 345
#     4  11  21  35  56  87 114 147 196 237 291 351
#     4  10  19  38  57  78 112 145 186 247 293 325
#     4  10  19  33  52  79 119 160 197 229 267 332
#
# _framework density 18.879086000000001
#
# number of rings (size 3 to 8) (size 9 to 14) (size 15 to 20)
#    0.000    1.875    2.500    3.000    1.750    1.000 
#   11.250    5.625    0.000    0.000    0.000    3.500 
#    0.000    0.000    0.000    0.000    0.000    0.000 
#
# Total GULP energy -178493.114469 kJ/mol
# GULP energy per Si atom -5577.909827 kJ/mol
# Density = 1.883612 g / cm^3
# Si number density = 18.879086 Si / 1000 Ang^3
#
#
#
# Elastic Constant Matrix: (Units=GPa)
#
#
# Indices 1 2 3 4 5 6 
#
# 1 26.9282 12.6824 -3.8287 0.0000 4.3935 0.0000
# 2 12.6824 83.9181 34.2499 0.0000 -3.9915 0.0000
# 3 -3.8287 34.2499 70.9498 0.0000 -6.8987 0.0000
# 4 0.0000 0.0000 0.0000 24.7102 0.0000 -0.0155
# 5 4.3935 -3.9915 -6.8987 0.0000 22.0954 0.0000
# 6 0.0000 0.0000 0.0000 -0.0155 0.0000 20.8844
#
#
#
# Elastic Compliance Matrix: (Units=1/GPa)
#
#
# Indices 1 2 3 4 5 6 
#
# 1 0.043900 -0.009550 0.006149 0.000000 -0.008534 0.000000
# 2 -0.009550 0.016922 -0.008459 0.000000 0.002315 0.000000
# 3 0.006149 -0.008459 0.018814 0.000000 0.003123 0.000000
# 4 0.000000 0.000000 0.000000 0.040469 0.000000 0.000030
# 5 -0.008534 0.002315 0.003123 0.000000 0.048349 0.000000
# 6 0.000000 0.000000 0.000000 0.000030 0.000000 0.047883
#
#
# Mechanical properties :
#
#
# Convention : Reuss Voigt Hill
#
# Bulk Modulus (GPa) = 17.88396 29.77815 23.83106
# Shear Modulus (GPa) = 19.32770 22.78414 21.05592
#
# Velocity S-wave (km/s) = 3.20310 3.47774 3.34324
# Velocity P-wave (km/s) = 4.81386 5.65098 5.24913
#
# Compressibility (1/GPa) = 0.05591602
#
# Stress axis : x y z
#
# Youngs Moduli (GPa) = 22.77881 59.09342 53.15306
#
# Poissons Ratio (x) = 0.56436 -0.32686
# Poissons Ratio (y) = 0.21755 0.44964
# Poissons Ratio (z) = -0.14008 0.49989
#
# Static dielectric constant tensor:
#      x y z
#    x 1.673930 0.000000 0.034630 
#    y 0.000000 1.683530 0.000000 
#    z 0.034630 0.000000 1.662270 
# 
# From -- ./inp_files/199907.got.cif
#   From: 2010.05.17/outbox.cif.g08.bks.cpg/sg12_100_cif.got.tgz:199907.got - 2010.06.03 13:09:07.
