data_PCOD9176112
_publ_section_title
;
Structure prediction by ZEFSAII (Michael W. Deem and Ramdas Pophale) SiO2 
 PCOD9176112
Probable space group: C 2/M
;
_chemical_formula_sum "Si O2"
_cell_formula_units_Z 32
_cell_length_a 18.467480
_cell_length_b 16.588574
_cell_length_c 5.132415
_cell_angle_alpha 90.000000
_cell_angle_beta 98.948672
_cell_angle_gamma 90.000000
_cell_volume 1553.172981
_symmetry_space_group_name_H-M "C 2/M"
_symmetry_group_IT_number 12
_symmetry_cell_setting 'monoclinic'
loop_
_space_group_symop_operation_xyz
x,y,z
-x,y,-z
-x,-y,-z
x,-y,z
1/2+x,1/2+y,z
1/2-x,1/2+y,-z
1/2-x,1/2-y,-z
1/2+x,1/2-y,z
loop_
_atom_site_type_symbol
_atom_site_label
_atom_site_fract_x
_atom_site_fract_y
_atom_site_fract_z
Si Si1 0.883097 0.500000 0.919337
Si Si2 0.235245 0.839502 0.603147
Si Si3 0.109627 0.326941 0.107375
Si Si4 0.080007 0.221421 0.597890
Si Si5 0.286630 0.000000 0.366014
O O1 0.816970 0.500000 0.092713
O O2 0.921606 0.414708 0.971988
O O3 0.854518 0.500000 0.606129
O O4 0.250000 0.750000 0.500000
O O5 0.301742 0.841449 0.848838
O O6 0.150319 0.837132 0.635050
O O7 0.246491 0.916245 0.419791
O O8 0.091408 0.289515 0.378956
O O9 0.083627 0.265274 0.876382
O O10 0.000000 0.184780 0.500000
#
# Coordination Sequence:
#
# PCOD9176112 Si02
#       5
#     4   8   8   8   4
#     4  10  18  34  55  82 109 134 177 236 273 318
#     4   9  19  36  59  82 108 144 183 227 272 320
#     4  10  20  36  57  80 106 144 185 225 273 328
#     4  11  22  36  53  79 111 146 183 222 269 325
#     4  10  20  32  55  88 109 134 183 230 271 322
#
# _framework density 20.602988
#
# number of rings (size 3 to 8) (size 9 to 14) (size 15 to 20)
#    0.000    2.000    0.000    6.000    0.000    6.000 
#    0.000    4.375    0.000    0.000    0.000   15.750 
#    0.000    0.000    0.000    0.000    0.000    0.000 
#
# Total GULP energy -89157.505780 kJ/mol
# GULP energy per Si atom -5572.344111 kJ/mol
# Density = 2.055609 g / cm^3
# Si number density = 20.602988 Si / 1000 Ang^3
#
#
#
# Elastic Constant Matrix: (Units=GPa)
#
#
# Indices 1 2 3 4 5 6 
#
# 1 131.4040 12.9205 7.7322 0.0000 44.3927 0.0000
# 2 12.9205 90.1778 5.3201 0.0000 1.2682 0.0000
# 3 7.7322 5.3201 61.3835 0.0000 3.8745 0.0000
# 4 0.0000 0.0000 0.0000 21.7840 0.0000 -8.3177
# 5 44.3927 1.2682 3.8745 0.0000 28.5932 0.0000
# 6 0.0000 0.0000 0.0000 -8.3177 0.0000 -10.6747
#
#
#
# Elastic Compliance Matrix: (Units=1/GPa)
#
#
# Indices 1 2 3 4 5 6 
#
# 1 0.016358 -0.001971 -0.000295 0.000000 -0.025270 0.000000
# 2 -0.001971 0.011387 -0.000908 0.000000 0.002678 0.000000
# 3 -0.000295 -0.000908 0.016517 0.000000 -0.001740 0.000000
# 4 0.000000 0.000000 0.000000 0.035379 0.000000 -0.027568
# 5 -0.025270 0.002678 -0.001740 0.000000 0.074323 0.000000
# 6 0.000000 0.000000 0.000000 -0.027568 0.000000 -0.072199
#
#
# Mechanical properties :
#
#
# Convention : Reuss Voigt Hill
#
# Bulk Modulus (GPa) = 26.37439 37.21230 31.79334
# Shear Modulus (GPa) = 49.62723 25.07335 37.35029
#
# Velocity S-wave (km/s) = 4.91322 3.49230 4.26239
# Velocity P-wave (km/s) = 6.70934 5.86194 6.29991
#
# Compressibility (1/GPa) = 0.03791556
#
# Stress axis : x y z
#
# Youngs Moduli (GPa) = 61.13119 87.81560 60.54488
#
# Poissons Ratio (x) = 0.17309 0.01784
# Poissons Ratio (y) = 0.12049 0.05496
# Poissons Ratio (z) = 0.01802 0.07971
#
# Static dielectric constant tensor:
#      x y z
#    x 1.843260 0.000000 0.014390 
#    y 0.000000 1.762550 0.000000 
#    z 0.014390 0.000000 1.715740 
# 
# From -- ./inp_files/14852.got.cif
#   From: 2010.05.17/outbox.cif.g08.bks.cpg/sg12_8_cif.got.tgz:14852.got - 2010.06.03 13:09:07.
