data_PCOD9176856
_publ_section_title
;
Structure prediction by ZEFSAII (Michael W. Deem and Ramdas Pophale) SiO2 
 PCOD9176856
Probable space group: C 2/M
;
_chemical_formula_sum "Si O2"
_cell_formula_units_Z 52
_cell_length_a 14.146074
_cell_length_b 13.481609
_cell_length_c 14.250718
_cell_angle_alpha 90.000000
_cell_angle_beta 59.322995
_cell_angle_gamma 90.000000
_cell_volume 2337.446535
_symmetry_space_group_name_H-M "C 2/M"
_symmetry_group_IT_number 12
_symmetry_cell_setting 'monoclinic'
loop_
_space_group_symop_operation_xyz
x,y,z
-x,y,-z
-x,-y,-z
x,-y,z
1/2+x,1/2+y,z
1/2-x,1/2+y,-z
1/2-x,1/2-y,-z
1/2+x,1/2-y,z
loop_
_atom_site_type_symbol
_atom_site_label
_atom_site_fract_x
_atom_site_fract_y
_atom_site_fract_z
Si Si1 0.138506 0.500000 0.720002
Si Si2 0.338375 0.715825 0.558375
Si Si3 0.435205 0.271517 0.883230
Si Si4 0.653262 0.796093 0.795040
Si Si5 0.270861 0.117028 0.052957
Si Si6 0.982990 0.284357 0.649809
Si Si7 0.871957 0.000000 0.536389
Si Si8 0.009729 0.500000 0.382207
O O1 0.099561 0.400217 0.788603
O O2 0.271828 0.500000 0.663236
O O3 0.096534 0.500000 0.633943
O O4 0.224845 0.737618 0.669000
O O5 0.418630 0.716908 0.608166
O O6 0.393748 0.790473 0.456831
O O7 0.346083 0.607674 0.505925
O O8 0.553133 0.274498 0.874194
O O9 0.347140 0.359552 0.933509
O O10 0.472915 0.260398 0.756309
O O11 0.365395 0.174333 0.947929
O O12 0.725027 0.826493 0.848456
O O13 0.290178 0.000000 0.053089
O O14 0.934323 0.395348 0.671019
O O15 0.000000 0.000000 0.500000
O O16 0.000000 0.500000 0.500000
#
# Coordination Sequence:
#
# PCOD9176856 Si02
#       8
#     4   8   8   8   8   8   4   4
#     4  10  22  34  60  98 115 168 225 268 315 386
#     4  10  21  36  62  94 124 171 210 259 334 386
#     4  11  25  41  65 100 132 168 222 280 341 404
#     4  11  21  41  69  97 132 162 225 284 330 396
#     4  11  25  44  71  99 131 172 224 288 344 391
#     4  11  21  38  60  87 127 175 214 256 321 397
#     4  10  18  36  58  86 128 159 207 276 320 373
#     4  12  22  38  59  83 132 171 222 261 308 393
#
# _framework density 22.246497999999999
#
# number of rings (size 3 to 8) (size 9 to 14) (size 15 to 20)
#    0.000    1.231    6.923    0.462    2.154    1.231 
#    1.385    0.000    3.385    7.385    0.000    0.000 
#    0.000    0.000    0.000    0.000    0.000    0.000 
#
# Total GULP energy -144860.456263 kJ/mol
# GULP energy per Si atom -5571.556010 kJ/mol
# Density = 2.219586 g / cm^3
# Si number density = 22.246498 Si / 1000 Ang^3
#
#
#
# Elastic Constant Matrix: (Units=GPa)
#
#
# Indices 1 2 3 4 5 6 
#
# 1 87.7260 8.3871 19.2559 0.0000 -16.5233 0.0000
# 2 8.3871 52.0018 1.6993 0.0000 -3.2728 0.0000
# 3 19.2559 1.6993 100.9488 0.0000 -17.3363 0.0000
# 4 0.0000 0.0000 0.0000 22.6225 0.0000 2.4899
# 5 -16.5233 -3.2728 -17.3363 0.0000 35.9750 0.0000
# 6 0.0000 0.0000 0.0000 2.4899 0.0000 18.9615
#
#
#
# Elastic Compliance Matrix: (Units=1/GPa)
#
#
# Indices 1 2 3 4 5 6 
#
# 1 0.012846 -0.001707 -0.001564 0.000000 0.004991 0.000000
# 2 -0.001707 0.019568 0.000182 0.000000 0.001084 0.000000
# 3 -0.001564 0.000182 0.010990 0.000000 0.004594 0.000000
# 4 0.000000 0.000000 0.000000 0.044852 0.000000 -0.005890
# 5 0.004991 0.001084 0.004594 0.000000 0.032402 0.000000
# 6 0.000000 0.000000 0.000000 -0.005890 0.000000 0.053512
#
#
# Mechanical properties :
#
#
# Convention : Reuss Voigt Hill
#
# Bulk Modulus (GPa) = 26.86278 33.26234 30.06256
# Shear Modulus (GPa) = 25.93954 29.60075 27.77015
#
# Velocity S-wave (km/s) = 3.41839 3.65167 3.53695
# Velocity P-wave (km/s) = 5.26135 5.72396 5.49752
#
# Compressibility (1/GPa) = 0.03722622
#
# Stress axis : x y z
#
# Youngs Moduli (GPa) = 77.84683 51.10477 90.98894
#
# Poissons Ratio (x) = 0.08722 0.14235
# Poissons Ratio (y) = 0.13285 -0.01659
# Poissons Ratio (z) = 0.12179 -0.00932
#
# Static dielectric constant tensor:
#      x y z
#    x 1.960600 0.000000 -0.024930 
#    y 0.000000 1.844820 0.000000 
#    z -0.024930 0.000000 1.835480 
# 
# From -- ./inp_files/214759.got.cif
#   From: 2010.05.17/outbox.cif.g08.bks.cpg/sg12_108_cif.got.tgz:214759.got - 2010.06.03 13:09:07.
