data_PCOD9176164
_publ_section_title
;
Structure prediction by ZEFSAII (Michael W. Deem and Ramdas Pophale) SiO2 
 PCOD9176164
Probable space group: C 2/M
;
_chemical_formula_sum "Si O2"
_cell_formula_units_Z 44
_cell_length_a 9.610922
_cell_length_b 20.049944
_cell_length_c 15.805793
_cell_angle_alpha 90.000000
_cell_angle_beta 123.588314
_cell_angle_gamma 90.000000
_cell_volume 2537.215070
_symmetry_space_group_name_H-M "C 2/M"
_symmetry_group_IT_number 12
_symmetry_cell_setting 'monoclinic'
loop_
_space_group_symop_operation_xyz
x,y,z
-x,y,-z
-x,-y,-z
x,-y,z
1/2+x,1/2+y,z
1/2-x,1/2+y,-z
1/2-x,1/2-y,-z
1/2+x,1/2-y,z
loop_
_atom_site_type_symbol
_atom_site_label
_atom_site_fract_x
_atom_site_fract_y
_atom_site_fract_z
Si Si1 0.091784 0.500000 0.785914
Si Si2 0.125719 0.111117 0.117868
Si Si3 0.441599 0.423623 0.570192
Si Si4 0.897441 0.880452 0.205769
Si Si5 0.615439 0.000000 0.456866
Si Si6 0.313504 0.240392 0.926296
Si Si7 0.132061 0.500000 0.120979
O O1 0.213515 0.564078 0.828974
O O2 0.987859 0.500000 0.664042
O O3 0.969280 0.500000 0.825074
O O4 0.171886 0.188073 0.114229
O O5 0.025828 0.106252 0.172208
O O6 0.000000 0.090707 0.000000
O O7 0.500000 0.395564 0.500000
O O8 0.514143 0.500000 0.600121
O O9 0.506536 0.385391 0.673234
O O10 0.243591 0.437426 0.503192
O O11 0.808833 0.809841 0.161680
O O12 0.752811 0.936089 0.155657
O O13 0.500000 0.000000 0.500000
O O14 0.500000 0.211763 0.000000
O O15 0.250000 0.250000 0.000000
O O16 0.000000 0.500000 0.000000
#
# Coordination Sequence:
#
# PCOD9176164 Si02
#       7
#     4   8   8   8   4   8   4
#     4  12  24  36  60  92 122 152 198 260 300 356
#     4  11  23  40  58  87 127 162 195 243 312 367
#     4   9  19  38  58  84 116 153 199 248 304 348
#     4  12  21  39  64  83 121 166 201 240 309 367
#     4  10  18  34  56  84 116 144 194 244 302 352
#     4  11  23  42  60  87 122 167 201 241 297 372
#     4  12  24  32  54  94 120 150 198 250 290 358
#
# _framework density 17.341849
#
# number of rings (size 3 to 8) (size 9 to 14) (size 15 to 20)
#    0.545    0.545    4.545    4.636    2.545    0.000 
#    0.000    0.000    0.000    5.455    0.000    0.000 
#    0.000    0.000    0.000    0.000    0.000    0.000 
#
# Total GULP energy -122819.857190 kJ/mol
# GULP energy per Si atom -5582.720781 kJ/mol
# Density = 1.730238 g / cm^3
# Si number density = 17.341849 Si / 1000 Ang^3
#
#
#
# Elastic Constant Matrix: (Units=GPa)
#
#
# Indices 1 2 3 4 5 6 
#
# 1 170.9621 46.8831 79.3186 0.0000 -25.1512 0.0000
# 2 46.8831 80.5168 57.9890 0.0000 3.0685 0.0000
# 3 79.3186 57.9890 182.1512 0.0000 -15.7323 0.0000
# 4 0.0000 0.0000 0.0000 19.7122 0.0000 -1.5325
# 5 -25.1512 3.0685 -15.7323 0.0000 36.4386 0.0000
# 6 0.0000 0.0000 0.0000 -1.5325 0.0000 23.5837
#
#
#
# Elastic Compliance Matrix: (Units=1/GPa)
#
#
# Indices 1 2 3 4 5 6 
#
# 1 0.008637 -0.003708 -0.002118 0.000000 0.005360 0.000000
# 2 -0.003708 0.018205 -0.004710 0.000000 -0.006126 0.000000
# 3 -0.002118 -0.004710 0.008122 0.000000 0.002442 0.000000
# 4 0.000000 0.000000 0.000000 0.050988 0.000000 0.003313
# 5 0.005360 -0.006126 0.002442 0.000000 0.032713 0.000000
# 6 0.000000 0.000000 0.000000 0.003313 0.000000 0.042617
#
#
# Mechanical properties :
#
#
# Convention : Reuss Voigt Hill
#
# Bulk Modulus (GPa) = 71.98114 89.11239 80.54676
# Shear Modulus (GPa) = 26.74017 32.57619 29.65818
#
# Velocity S-wave (km/s) = 3.93102 4.33884 4.13995
# Velocity P-wave (km/s) = 7.88677 8.75203 8.33064
#
# Compressibility (1/GPa) = 0.01389253
#
# Stress axis : x y z
#
# Youngs Moduli (GPa) = 115.77883 54.93120 123.11686
#
# Poissons Ratio (x) = 0.20370 0.26071
# Poissons Ratio (y) = 0.42935 0.57986
# Poissons Ratio (z) = 0.24517 0.25872
#
# Static dielectric constant tensor:
#      x y z
#    x 1.575910 0.000000 0.001890 
#    y 0.000000 1.586890 0.000000 
#    z 0.001890 0.000000 1.572090 
# 
# From -- ./inp_files/197296.got.cif
#   From: 2010.05.17/outbox.cif.g08.bks.cpg/sg12_99_cif.got.tgz:197296.got - 2010.06.03 13:09:07.
