data_PCOD9176234
_publ_section_title
;
Structure prediction by ZEFSAII (Michael W. Deem and Ramdas Pophale) SiO2 
 PCOD9176234
Probable space group: C 2/M
;
_chemical_formula_sum "Si O2"
_cell_formula_units_Z 48
_cell_length_a 17.907435
_cell_length_b 18.235340
_cell_length_c 11.798966
_cell_angle_alpha 90.000000
_cell_angle_beta 142.187789
_cell_angle_gamma 90.000000
_cell_volume 2362.137184
_symmetry_space_group_name_H-M "C 2/M"
_symmetry_group_IT_number 12
_symmetry_cell_setting 'monoclinic'
loop_
_space_group_symop_operation_xyz
x,y,z
-x,y,-z
-x,-y,-z
x,-y,z
1/2+x,1/2+y,z
1/2-x,1/2+y,-z
1/2-x,1/2-y,-z
1/2+x,1/2-y,z
loop_
_atom_site_type_symbol
_atom_site_label
_atom_site_fract_x
_atom_site_fract_y
_atom_site_fract_z
Si Si1 0.284998 0.821030 0.251903
Si Si2 0.673239 0.916282 0.913746
Si Si3 0.534164 0.875364 0.165854
Si Si4 0.392064 0.671073 0.293405
Si Si5 0.019091 0.794968 0.847962
Si Si6 0.741991 0.335480 0.452502
O O1 0.340299 0.870800 0.218899
O O2 0.333193 0.738666 0.291181
O O3 0.303130 0.843797 0.402814
O O4 0.140052 0.820791 0.056170
O O5 0.552360 0.910916 0.844356
O O6 0.702271 0.000000 0.921920
O O7 0.783566 0.880800 0.119469
O O8 0.507028 0.787763 0.143084
O O9 0.677123 0.882269 0.364531
O O10 0.500000 0.900649 0.000000
O O11 0.500000 0.638362 0.500000
O O12 0.450103 0.704362 0.248346
O O13 0.902365 0.846574 0.725926
O O14 0.750000 0.250000 0.500000
#
# Coordination Sequence:
#
# PCOD9176234 Si02
#       6
#     8   8   8   8   8   8
#     4  11  20  39  63  93 125 157 211 267 315 368
#     4  11  25  42  60  87 128 177 211 252 317 381
#     4  11  21  36  59  85 127 162 205 255 315 374
#     4  11  21  35  66  92 121 161 211 271 315 362
#     4  10  18  34  57  95 120 149 196 266 323 360
#     4  10  21  32  60  95 121 155 199 263 320 369
#
# _framework density 20.320582000000002
#
# number of rings (size 3 to 8) (size 9 to 14) (size 15 to 20)
#    0.000    1.333    3.333    5.500    2.333    0.667 
#    0.000    1.667    0.000    9.000    0.000    0.000 
#    0.000    0.000    0.000    0.000    0.000    0.000 
#
# Total GULP energy -134071.390282 kJ/mol
# GULP energy per Si atom -5586.307928 kJ/mol
# Density = 2.027433 g / cm^3
# Si number density = 20.320582 Si / 1000 Ang^3
#
#
#
# Elastic Constant Matrix: (Units=GPa)
#
#
# Indices 1 2 3 4 5 6 
#
# 1 71.7835 -2.7264 31.6962 0.0000 7.0221 0.0000
# 2 -2.7264 45.7391 2.9178 0.0000 4.5585 0.0000
# 3 31.6962 2.9178 84.8636 0.0000 -10.2795 0.0000
# 4 0.0000 0.0000 0.0000 0.0857 0.0000 0.8156
# 5 7.0221 4.5585 -10.2795 0.0000 31.2861 0.0000
# 6 0.0000 0.0000 0.0000 0.8156 0.0000 0.8516
#
#
#
# Elastic Compliance Matrix: (Units=1/GPa)
#
#
# Indices 1 2 3 4 5 6 
#
# 1 0.018076 0.002255 -0.007665 0.000000 -0.006904 0.000000
# 2 0.002255 0.022585 -0.002165 0.000000 -0.004508 0.000000
# 3 -0.007665 -0.002165 0.015588 0.000000 0.007158 0.000000
# 4 0.000000 0.000000 0.000000 -1.437876 0.000000 1.377124
# 5 -0.006904 -0.004508 0.007158 0.000000 0.036521 0.000000
# 6 0.000000 0.000000 0.000000 1.377124 0.000000 -0.144671
#
#
# Mechanical properties :
#
#
# Convention : Reuss Voigt Hill
#
# Bulk Modulus (GPa) = 24.33175 29.57349 26.95262
# Shear Modulus (GPa) = -3.42249 17.81125 7.19438
#
# Velocity S-wave (km/s) = -1.29919 2.96381 1.88365
# Velocity P-wave (km/s) = 3.12240 5.12809 4.24539
#
# Compressibility (1/GPa) = 0.04109856
#
# Stress axis : x y z
#
# Youngs Moduli (GPa) = 55.32065 44.27745 64.15203
#
# Poissons Ratio (x) = -0.09983 0.49174
# Poissons Ratio (y) = -0.12472 0.13887
# Poissons Ratio (z) = 0.42405 0.09584
#
# Static dielectric constant tensor:
#      x y z
#    x 1.745320 0.000000 0.014790 
#    y 0.000000 1.682310 0.000000 
#    z 0.014790 0.000000 1.780110 
# 
# From -- ./inp_files/159336.got.cif
#   From: 2010.05.17/outbox.cif.g08.bks.cpg/sg12_80_cif.got.tgz:159336.got - 2010.06.03 13:09:07.
