data_PCOD9176070
_publ_section_title
;
Structure prediction by ZEFSAII (Michael W. Deem and Ramdas Pophale) SiO2 
 PCOD9176070
Probable space group: C 2/M
;
_chemical_formula_sum "Si O2"
_cell_formula_units_Z 48
_cell_length_a 9.013348
_cell_length_b 18.902905
_cell_length_c 18.591588
_cell_angle_alpha 90.000000
_cell_angle_beta 56.656601
_cell_angle_gamma 90.000000
_cell_volume 2646.190497
_symmetry_space_group_name_H-M "C 2/M"
_symmetry_group_IT_number 12
_symmetry_cell_setting 'monoclinic'
loop_
_space_group_symop_operation_xyz
x,y,z
-x,y,-z
-x,-y,-z
x,-y,z
1/2+x,1/2+y,z
1/2-x,1/2+y,-z
1/2-x,1/2-y,-z
1/2+x,1/2-y,z
loop_
_atom_site_type_symbol
_atom_site_label
_atom_site_fract_x
_atom_site_fract_y
_atom_site_fract_z
Si Si1 0.264088 0.704909 0.842790
Si Si2 0.364667 0.417396 0.912991
Si Si3 0.130598 0.664284 0.092258
Si Si4 0.307992 0.716561 0.560925
Si Si5 0.226024 0.580344 0.198760
Si Si6 0.090026 0.700228 0.324125
O O1 0.350642 0.632076 0.846541
O O2 0.277626 0.765378 0.900399
O O3 0.355656 0.738759 0.747848
O O4 0.059445 0.688776 0.884172
O O5 0.315024 0.500000 0.916061
O O6 0.569944 0.415855 0.881827
O O7 0.240939 0.378275 0.003662
O O8 0.109844 0.611974 0.165507
O O9 0.500000 0.677795 0.500000
O O10 0.250000 0.750000 0.500000
O O11 0.356759 0.772497 0.610960
O O12 0.118871 0.681932 0.631480
O O13 0.183309 0.500000 0.226877
O O14 0.201004 0.631730 0.272526
#
# Coordination Sequence:
#
# PCOD9176070 Si02
#       6
#     8   8   8   8   8   8
#     4  11  22  35  55  79 105 141 182 226 274 312
#     4  11  23  37  51  73 108 147 189 230 267 309
#     4  11  22  36  53  75 106 143 189 233 267 307
#     4   9  18  32  56  83 105 129 160 207 263 319
#     4  10  21  36  55  77 105 146 184 220 270 315
#     4  10  18  34  54  80 108 131 170 218 260 317
#
# _framework density 18.139284
#
# number of rings (size 3 to 8) (size 9 to 14) (size 15 to 20)
#    0.000    1.667    0.000    7.000    0.000    6.000 
#    0.000    0.000    0.000    5.000    0.000    4.667 
#    0.000    0.000    0.000    0.000    0.000    0.000 
#
# Total GULP energy -133810.486196 kJ/mol
# GULP energy per Si atom -5575.436925 kJ/mol
# Density = 1.809800 g / cm^3
# Si number density = 18.139284 Si / 1000 Ang^3
#
#
#
# Elastic Constant Matrix: (Units=GPa)
#
#
# Indices 1 2 3 4 5 6 
#
# 1 106.1511 35.3075 24.7853 0.0000 -8.4248 0.0000
# 2 35.3075 102.3133 37.8303 0.0000 5.6011 0.0000
# 3 24.7853 37.8303 74.9357 0.0000 -5.0111 0.0000
# 4 0.0000 0.0000 0.0000 6.5047 0.0000 -4.7346
# 5 -8.4248 5.6011 -5.0111 0.0000 35.6743 0.0000
# 6 0.0000 0.0000 0.0000 -4.7346 0.0000 18.3440
#
#
#
# Elastic Compliance Matrix: (Units=1/GPa)
#
#
# Indices 1 2 3 4 5 6 
#
# 1 0.011190 -0.003350 -0.001815 0.000000 0.002914 0.000000
# 2 -0.003350 0.013296 -0.005852 0.000000 -0.003701 0.000000
# 3 -0.001815 -0.005852 0.017093 0.000000 0.002891 0.000000
# 4 0.000000 0.000000 0.000000 0.189296 0.000000 0.048858
# 5 0.002914 -0.003701 0.002891 0.000000 0.029707 0.000000
# 6 0.000000 0.000000 0.000000 0.048858 0.000000 0.067124
#
#
# Mechanical properties :
#
#
# Convention : Reuss Voigt Hill
#
# Bulk Modulus (GPa) = 51.16405 53.24961 52.20683
# Shear Modulus (GPa) = 14.03491 24.46973 19.25232
#
# Velocity S-wave (km/s) = 2.78462 3.67685 3.26139
# Velocity P-wave (km/s) = 6.21339 6.88805 6.55940
#
# Compressibility (1/GPa) = 0.01954497
#
# Stress axis : x y z
#
# Youngs Moduli (GPa) = 89.36708 75.20908 58.50441
#
# Poissons Ratio (x) = 0.25194 0.10619
# Poissons Ratio (y) = 0.29937 0.34236
# Poissons Ratio (z) = 0.16221 0.44012
#
# Static dielectric constant tensor:
#      x y z
#    x 1.650060 0.000000 -0.013220 
#    y 0.000000 1.609960 0.000000 
#    z -0.013220 0.000000 1.690490 
# 
# From -- ./inp_files/196002.got.cif
#   From: 2010.05.17/outbox.cif.g08.bks.cpg/sg12_99_cif.got.tgz:196002.got - 2010.06.03 13:09:07.
