data_PCOD9176764
_publ_section_title
;
Structure prediction by ZEFSAII (Michael W. Deem and Ramdas Pophale) SiO2 
 PCOD9176764
Probable space group: C 2/M
;
_chemical_formula_sum "Si O2"
_cell_formula_units_Z 44
_cell_length_a 14.559745
_cell_length_b 24.011526
_cell_length_c 7.584090
_cell_angle_alpha 90.000000
_cell_angle_beta 44.653104
_cell_angle_gamma 90.000000
_cell_volume 1863.445091
_symmetry_space_group_name_H-M "C 2/M"
_symmetry_group_IT_number 12
_symmetry_cell_setting 'monoclinic'
loop_
_space_group_symop_operation_xyz
x,y,z
-x,y,-z
-x,-y,-z
x,-y,z
1/2+x,1/2+y,z
1/2-x,1/2+y,-z
1/2-x,1/2-y,-z
1/2+x,1/2-y,z
loop_
_atom_site_type_symbol
_atom_site_label
_atom_site_fract_x
_atom_site_fract_y
_atom_site_fract_z
Si Si1 0.667147 0.439288 0.415567
Si Si2 0.000047 0.317272 0.215274
Si Si3 0.415458 0.939746 0.297700
Si Si4 0.903361 0.936494 0.970829
Si Si5 0.000000 0.235964 0.500000
Si Si6 0.718356 0.345872 0.067714
O O1 0.692586 0.500000 0.298540
O O2 0.762121 0.438306 0.456049
O O3 0.514769 0.435025 0.666287
O O4 0.716013 0.389793 0.230749
O O5 0.952800 0.380001 0.323003
O O6 0.931543 0.272221 0.436509
O O7 0.146466 0.314647 0.092603
O O8 0.000000 0.308994 0.000000
O O9 0.442152 0.000000 0.349695
O O10 0.500000 0.941273 0.000000
O O11 0.804305 0.886713 0.067299
O O12 0.852260 0.000000 0.050575
O O13 0.000000 0.926083 0.000000
O O14 0.899931 0.195915 0.739598
#
# Coordination Sequence:
#
# PCOD9176764 Si02
#       6
#     8   8   8   8   4   8
#     4  10  18  35  66  97 124 159 204 258 325 394
#     4  11  25  46  66  94 130 169 222 275 325 386
#     4   9  17  34  64  95 122 156 202 257 328 396
#     4  10  22  38  62  99 136 166 207 269 335 395
#     4  12  28  44  62  92 130 178 232 272 314 374
#     4  12  22  42  65  94 123 172 222 264 325 387
#
# _framework density 23.612179000000001
#
# number of rings (size 3 to 8) (size 9 to 14) (size 15 to 20)
#    0.000    1.455    5.455    1.091    0.000    5.091 
#    0.000    0.455    0.000    0.000    0.000    0.000 
#    0.000    0.000    0.000    0.000    0.000    0.000 
#
# Total GULP energy -122811.624969 kJ/mol
# GULP energy per Si atom -5582.346589 kJ/mol
# Density = 2.355844 g / cm^3
# Si number density = 23.612179 Si / 1000 Ang^3
#
#
#
# Elastic Constant Matrix: (Units=GPa)
#
#
# Indices 1 2 3 4 5 6 
#
# 1 98.0267 34.4192 18.1287 0.0000 14.8038 0.0000
# 2 34.4192 142.5994 7.9667 0.0000 18.6274 0.0000
# 3 18.1287 7.9667 55.6832 0.0000 4.5564 0.0000
# 4 0.0000 0.0000 0.0000 64.5729 0.0000 51.1604
# 5 14.8038 18.6274 4.5564 0.0000 46.1895 0.0000
# 6 0.0000 0.0000 0.0000 51.1604 0.0000 82.4336
#
#
#
# Elastic Compliance Matrix: (Units=1/GPa)
#
#
# Indices 1 2 3 4 5 6 
#
# 1 0.012050 -0.002385 -0.003372 0.000000 -0.002568 0.000000
# 2 -0.002385 0.007912 -0.000158 0.000000 -0.002411 0.000000
# 3 -0.003372 -0.000158 0.019140 0.000000 -0.000744 0.000000
# 4 0.000000 0.000000 0.000000 0.030468 0.000000 -0.018909
# 5 -0.002568 -0.002411 -0.000744 0.000000 0.023519 0.000000
# 6 0.000000 0.000000 0.000000 -0.018909 0.000000 0.023866
#
#
# Mechanical properties :
#
#
# Convention : Reuss Voigt Hill
#
# Bulk Modulus (GPa) = 36.66723 46.37093 41.51908
# Shear Modulus (GPa) = 36.26466 54.35883 45.31175
#
# Velocity S-wave (km/s) = 3.92324 4.80328 4.38539
# Velocity P-wave (km/s) = 6.00708 7.10234 6.57755
#
# Compressibility (1/GPa) = 0.02727231
#
# Stress axis : x y z
#
# Youngs Moduli (GPa) = 82.98775 126.38994 52.24660
#
# Poissons Ratio (x) = 0.30140 0.17617
# Poissons Ratio (y) = 0.19790 0.00827
# Poissons Ratio (z) = 0.27982 0.02001
#
# Static dielectric constant tensor:
#      x y z
#    x 1.950060 0.000000 0.042500 
#    y 0.000000 1.893580 0.000000 
#    z 0.042500 0.000000 1.996170 
# 
# From -- ./inp_files/65183.got.cif
#   From: 2010.05.17/outbox.cif.g08.bks.cpg/sg12_33_cif.got.tgz:65183.got - 2010.06.03 13:09:07.
