data_PCOD9176593
_publ_section_title
;
Structure prediction by ZEFSAII (Michael W. Deem and Ramdas Pophale) SiO2 
 PCOD9176593
Probable space group: C 2/M
;
_chemical_formula_sum "Si O2"
_cell_formula_units_Z 40
_cell_length_a 30.605824
_cell_length_b 16.469117
_cell_length_c 8.957823
_cell_angle_alpha 90.000000
_cell_angle_beta 150.756484
_cell_angle_gamma 90.000000
_cell_volume 2205.776165
_symmetry_space_group_name_H-M "C 2/M"
_symmetry_group_IT_number 12
_symmetry_cell_setting 'monoclinic'
loop_
_space_group_symop_operation_xyz
x,y,z
-x,y,-z
-x,-y,-z
x,-y,z
1/2+x,1/2+y,z
1/2-x,1/2+y,-z
1/2-x,1/2-y,-z
1/2+x,1/2-y,z
loop_
_atom_site_type_symbol
_atom_site_label
_atom_site_fract_x
_atom_site_fract_y
_atom_site_fract_z
Si Si1 0.082696 0.000000 0.356442
Si Si2 0.766266 0.246727 0.794774
Si Si3 0.832843 0.500000 0.183238
Si Si4 0.525989 0.000000 0.903266
Si Si5 0.187687 0.864948 0.805118
Si Si6 0.666665 0.857485 0.256578
Si Si7 0.752671 0.000000 0.376137
O O1 0.102070 0.079145 0.514646
O O2 0.164291 0.000000 0.483527
O O3 0.000000 0.000000 0.000000
O O4 0.709114 0.306501 0.729813
O O5 0.697479 0.196323 0.487381
O O6 0.832319 0.298121 0.884266
O O7 0.817191 0.186844 0.059381
O O8 0.933658 0.500000 0.537699
O O9 0.775267 0.423474 0.070993
O O10 0.827457 0.500000 0.986195
O O11 0.500000 0.000000 0.000000
O O12 0.584025 0.918524 0.039925
O O13 0.746143 0.920753 0.456014
#
# Coordination Sequence:
#
# PCOD9176593 Si02
#       7
#     4   8   4   4   8   8   4
#     4  10  19  36  60  81 107 152 196 239 270 334
#     4  10  18  35  58  84 112 148 190 225 287 347
#     4  10  18  36  57  81 115 148 190 231 282 349
#     4  11  23  36  56  90 117 149 198 241 288 341
#     4   9  19  36  61  81 111 152 189 232 285 347
#     4  10  20  34  60  82 115 156 183 236 282 344
#     4   9  18  37  56  81 104 157 193 216 285 338
#
# _framework density 18.134207
#
# number of rings (size 3 to 8) (size 9 to 14) (size 15 to 20)
#    0.000    2.400    4.000    1.200    0.000    4.000 
#    0.000    5.000    4.400    1.200    0.000    0.000 
#    0.000    0.000    0.000    0.000    0.000    0.000 
#
# Total GULP energy -111392.617479 kJ/mol
# GULP energy per Si atom -5569.630874 kJ/mol
# Density = 1.809293 g / cm^3
# Si number density = 18.134207 Si / 1000 Ang^3
#
#
#
# Elastic Constant Matrix: (Units=GPa)
#
#
# Indices 1 2 3 4 5 6 
#
# 1 93.3336 58.1129 40.3268 0.0000 -21.7872 0.0000
# 2 58.1129 138.9852 59.7411 0.0000 -20.5227 0.0000
# 3 40.3268 59.7411 111.8033 0.0000 -13.7539 0.0000
# 4 0.0000 0.0000 0.0000 18.1682 0.0000 -6.6484
# 5 -21.7872 -20.5227 -13.7539 0.0000 20.8935 0.0000
# 6 0.0000 0.0000 0.0000 -6.6484 0.0000 12.8859
#
#
#
# Elastic Compliance Matrix: (Units=1/GPa)
#
#
# Indices 1 2 3 4 5 6 
#
# 1 0.017344 -0.004427 -0.002394 0.000000 0.012161 0.000000
# 2 -0.004427 0.011331 -0.003979 0.000000 0.003895 0.000000
# 3 -0.002394 -0.003979 0.012128 0.000000 0.001579 0.000000
# 4 0.000000 0.000000 0.000000 0.067852 0.000000 0.035008
# 5 0.012161 0.003895 0.001579 0.000000 0.065408 0.000000
# 6 0.000000 0.000000 0.000000 0.035008 0.000000 0.095666
#
#
# Mechanical properties :
#
#
# Convention : Reuss Voigt Hill
#
# Bulk Modulus (GPa) = 52.07456 73.38706 62.73081
# Shear Modulus (GPa) = 16.79364 22.78560 19.78962
#
# Velocity S-wave (km/s) = 3.04645 3.54856 3.30705
# Velocity P-wave (km/s) = 6.41506 7.57274 7.01781
#
# Compressibility (1/GPa) = 0.01920323
#
# Stress axis : x y z
#
# Youngs Moduli (GPa) = 57.65668 88.25003 82.45232
#
# Poissons Ratio (x) = 0.39069 0.19741
# Poissons Ratio (y) = 0.25525 0.32807
# Poissons Ratio (z) = 0.13805 0.35114
#
# Static dielectric constant tensor:
#      x y z
#    x 1.651420 0.000000 -0.042630 
#    y 0.000000 1.665520 0.000000 
#    z -0.042630 0.000000 1.654180 
# 
# From -- ./inp_files/112147.got.cif
#   From: 2010.05.17/outbox.cif.g08.bks.cpg/sg12_57_cif.got.tgz:112147.got - 2010.06.03 13:09:07.
