data_PCOD9176749
_publ_section_title
;
Structure prediction by ZEFSAII (Michael W. Deem and Ramdas Pophale) SiO2 
 PCOD9176749
Probable space group: C 2/M
;
_chemical_formula_sum "Si O2"
_cell_formula_units_Z 48
_cell_length_a 8.870070
_cell_length_b 28.793614
_cell_length_c 8.472258
_cell_angle_alpha 90.000000
_cell_angle_beta 97.799799
_cell_angle_gamma 90.000000
_cell_volume 2143.807279
_symmetry_space_group_name_H-M "C 2/M"
_symmetry_group_IT_number 12
_symmetry_cell_setting 'monoclinic'
loop_
_space_group_symop_operation_xyz
x,y,z
-x,y,-z
-x,-y,-z
x,-y,z
1/2+x,1/2+y,z
1/2-x,1/2+y,-z
1/2-x,1/2-y,-z
1/2+x,1/2-y,z
loop_
_atom_site_type_symbol
_atom_site_label
_atom_site_fract_x
_atom_site_fract_y
_atom_site_fract_z
Si Si1 0.000000 0.339394 0.000000
Si Si2 0.532939 0.692999 0.690830
Si Si3 0.000000 0.675327 0.500000
Si Si4 0.339251 0.768199 0.743095
Si Si5 0.013561 0.000000 0.191169
Si Si6 0.840005 0.395914 0.237349
Si Si7 0.995076 0.094366 0.309799
Si Si8 0.378929 0.000000 0.332678
O O1 0.911581 0.304038 0.874400
O O2 0.114938 0.372619 0.920858
O O3 0.500000 0.690195 0.500000
O O4 0.391261 0.715108 0.759241
O O5 0.660973 0.730467 0.738922
O O6 0.587353 0.642085 0.745636
O O7 0.886759 0.708655 0.582201
O O8 0.910734 0.639981 0.373783
O O9 0.931717 0.046460 0.237409
O O10 0.186278 0.000000 0.297017
O O11 0.000000 0.000000 0.000000
O O12 0.662083 0.399481 0.256432
O O13 0.905040 0.448766 0.260702
O O14 0.000000 0.090876 0.500000
O O15 0.500000 0.000000 0.500000
#
# Coordination Sequence:
#
# PCOD9176749 Si02
#       8
#     4   8   4   8   4   8   8   4
#     4  10  26  43  60  94 140 179 220 264 354 406
#     4  11  23  39  66  99 129 171 234 283 334 388
#     4  10  18  35  64  86 132 171 220 278 324 396
#     4  11  24  40  62  93 133 177 222 276 336 404
#     4  10  23  43  69 104 141 181 219 285 353 416
#     4  10  21  40  66  96 133 171 222 278 338 405
#     4  10  22  41  70  98 132 174 235 281 335 400
#     4  10  20  40  69 102 128 173 231 284 346 400
#
# _framework density 22.390070999999999
#
# number of rings (size 3 to 8) (size 9 to 14) (size 15 to 20)
#    0.000    1.667    1.667    2.750    4.667    3.667 
#    1.500    0.000   14.667    0.000    0.000    0.000 
#    0.000    0.000    0.000    0.000    0.000    0.000 
#
# Total GULP energy -133893.933779 kJ/mol
# GULP energy per Si atom -5578.913907 kJ/mol
# Density = 2.233911 g / cm^3
# Si number density = 22.390071 Si / 1000 Ang^3
#
#
#
# Elastic Constant Matrix: (Units=GPa)
#
#
# Indices 1 2 3 4 5 6 
#
# 1 40.3238 -4.5823 12.1222 0.0000 0.9468 0.0000
# 2 -4.5823 165.3799 36.3740 0.0000 0.5249 0.0000
# 3 12.1222 36.3740 77.8205 0.0000 -12.8062 0.0000
# 4 0.0000 0.0000 0.0000 21.5716 0.0000 -4.9088
# 5 0.9468 0.5249 -12.8062 0.0000 23.3644 0.0000
# 6 0.0000 0.0000 0.0000 -4.9088 0.0000 23.7979
#
#
#
# Elastic Compliance Matrix: (Units=1/GPa)
#
#
# Indices 1 2 3 4 5 6 
#
# 1 0.026897 0.002049 -0.005863 0.000000 -0.004349 0.000000
# 2 0.002049 0.006987 -0.003984 0.000000 -0.002424 0.000000
# 3 -0.005863 -0.003984 0.017234 0.000000 0.009773 0.000000
# 4 0.000000 0.000000 0.000000 0.048640 0.000000 0.010033
# 5 -0.004349 -0.002424 0.009773 0.000000 0.048387 0.000000
# 6 0.000000 0.000000 0.000000 0.010033 0.000000 0.044090
#
#
# Mechanical properties :
#
#
# Convention : Reuss Voigt Hill
#
# Bulk Modulus (GPa) = 28.15225 41.26134 34.70680
# Shear Modulus (GPa) = 22.76114 29.72080 26.24097
#
# Velocity S-wave (km/s) = 3.19183 3.64732 3.42715
# Velocity P-wave (km/s) = 5.11709 6.01711 5.58526
#
# Compressibility (1/GPa) = 0.03552114
#
# Stress axis : x y z
#
# Youngs Moduli (GPa) = 37.17930 143.11549 58.02571
#
# Poissons Ratio (x) = -0.29318 0.34021
# Poissons Ratio (y) = -0.07616 0.23117
# Poissons Ratio (z) = 0.21798 0.57016
#
# Static dielectric constant tensor:
#      x y z
#    x 1.844450 0.000000 0.025030 
#    y 0.000000 1.845000 0.000000 
#    z 0.025030 0.000000 1.833370 
# 
# From -- ./inp_files/42325.got.cif
#   From: 2010.05.17/outbox.cif.g08.bks.cpg/sg12_22_cif.got.tgz:42325.got - 2010.06.03 13:09:07.
