data_PCOD9176157
_publ_section_title
;
Structure prediction by ZEFSAII (Michael W. Deem and Ramdas Pophale) SiO2 
 PCOD9176157
Probable space group: C 2/M
;
_chemical_formula_sum "Si O2"
_cell_formula_units_Z 56
_cell_length_a 14.459264
_cell_length_b 19.649454
_cell_length_c 16.191488
_cell_angle_alpha 90.000000
_cell_angle_beta 38.087458
_cell_angle_gamma 90.000000
_cell_volume 2837.739866
_symmetry_space_group_name_H-M "C 2/M"
_symmetry_group_IT_number 12
_symmetry_cell_setting 'monoclinic'
loop_
_space_group_symop_operation_xyz
x,y,z
-x,y,-z
-x,-y,-z
x,-y,z
1/2+x,1/2+y,z
1/2-x,1/2+y,-z
1/2-x,1/2-y,-z
1/2+x,1/2-y,z
loop_
_atom_site_type_symbol
_atom_site_label
_atom_site_fract_x
_atom_site_fract_y
_atom_site_fract_z
Si Si1 0.934011 0.129555 0.128014
Si Si2 0.675782 0.580000 0.625053
Si Si3 0.645290 0.236782 0.995567
Si Si4 0.693532 0.764167 0.282085
Si Si5 0.883707 0.299328 0.436430
Si Si6 0.620305 0.580699 0.479631
Si Si7 0.389012 0.831431 0.252291
O O1 0.922140 0.092050 0.223984
O O2 0.768599 0.160711 0.227527
O O3 0.000000 0.093048 0.000000
O O4 0.040956 0.195907 0.061627
O O5 0.718343 0.500000 0.591303
O O6 0.812967 0.633745 0.528338
O O7 0.597550 0.598909 0.592125
O O8 0.739740 0.227867 0.846420
O O9 0.750000 0.250000 0.000000
O O10 0.529316 0.175459 0.093285
O O11 0.483802 0.767905 0.603025
O O12 0.768895 0.725927 0.306554
O O13 0.750000 0.250000 0.500000
O O14 0.953345 0.318369 0.298369
O O15 0.500000 0.609837 0.500000
O O16 0.610252 0.500000 0.483792
O O17 0.785010 0.603227 0.334942
#
# Coordination Sequence:
#
# PCOD9176157 Si02
#       7
#     8   8   8   8   8   8   8
#     4   9  20  37  57  83 114 151 194 240 294 352
#     4  10  22  39  58  83 119 154 196 243 294 360
#     4  10  18  34  56  82 114 154 193 245 300 348
#     4  10  21  35  54  83 121 146 191 249 295 360
#     4  11  22  34  56  87 114 151 192 243 298 356
#     4   9  20  37  56  82 119 159 198 245 299 359
#     4  10  20  32  55  83 110 153 192 239 304 348
#
# _framework density 19.734014999999999
#
# number of rings (size 3 to 8) (size 9 to 14) (size 15 to 20)
#    0.000    2.143    1.429    3.000    4.000    2.000 
#    0.000    1.429    0.000    3.429    0.000    0.000 
#    0.000    0.000    0.000    0.000    0.000    0.000 
#
# Total GULP energy -156053.106687 kJ/mol
# GULP energy per Si atom -5573.325239 kJ/mol
# Density = 1.968910 g / cm^3
# Si number density = 19.734015 Si / 1000 Ang^3
#
#
#
# Elastic Constant Matrix: (Units=GPa)
#
#
# Indices 1 2 3 4 5 6 
#
# 1 122.8943 10.8439 55.8234 -0.0006 8.6701 0.0002
# 2 10.8439 33.6739 26.5841 -0.0011 8.6020 0.0007
# 3 55.8234 26.5841 120.8708 -0.0007 25.2438 0.0004
# 4 -0.0006 -0.0011 -0.0007 22.7336 0.0009 4.8974
# 5 8.6701 8.6020 25.2438 0.0009 37.5572 -0.0003
# 6 0.0002 0.0007 0.0004 4.8974 -0.0003 16.7130
#
#
#
# Elastic Compliance Matrix: (Units=1/GPa)
#
#
# Indices 1 2 3 4 5 6 
#
# 1 0.010332 0.000432 -0.005058 0.000000 0.000916 0.000000
# 2 0.000432 0.036330 -0.007482 0.000002 -0.003392 -0.000002
# 3 -0.005058 -0.007482 0.013556 0.000000 -0.006230 0.000000
# 4 0.000000 0.000002 0.000000 0.046952 -0.000002 -0.013758
# 5 0.000916 -0.003392 -0.006230 -0.000002 0.031379 0.000001
# 6 0.000000 -0.000002 0.000000 -0.013758 0.000001 0.063865
#
#
# Mechanical properties :
#
#
# Convention : Reuss Voigt Hill
#
# Bulk Modulus (GPa) = 27.77523 51.54908 39.66216
# Shear Modulus (GPa) = 20.95291 27.67994 24.31642
#
# Velocity S-wave (km/s) = 3.26201 3.74926 3.51409
# Velocity P-wave (km/s) = 5.31911 6.70233 6.05038
#
# Compressibility (1/GPa) = 0.03600330
#
# Stress axis : x y z
#
# Youngs Moduli (GPa) = 96.78783 27.52517 73.76824
#
# Poissons Ratio (x) = -0.01189 0.37312
# Poissons Ratio (y) = -0.04182 0.55190
# Poissons Ratio (z) = 0.48955 0.20593
#
# Static dielectric constant tensor:
#      x y z
#    x 1.732670 0.000000 0.029580 
#    y 0.000000 1.696090 0.000000 
#    z 0.029580 0.000000 1.740330 
# 
# From -- ./inp_files/217661.got.cif
#   From: 2010.05.17/outbox.cif.g08.bks.cpg/sg12_109_cif.got.tgz:217661.got - 2010.06.03 13:09:07.
