data_PCOD9176931
_publ_section_title
;
Structure prediction by ZEFSAII (Michael W. Deem and Ramdas Pophale) SiO2 
 PCOD9176931
Probable space group: C 2/M
;
_chemical_formula_sum "Si O2"
_cell_formula_units_Z 64
_cell_length_a 30.070150
_cell_length_b 18.612667
_cell_length_c 9.055875
_cell_angle_alpha 90.000000
_cell_angle_beta 144.889149
_cell_angle_gamma 90.000000
_cell_volume 2915.166992
_symmetry_space_group_name_H-M "C 2/M"
_symmetry_group_IT_number 12
_symmetry_cell_setting 'monoclinic'
loop_
_space_group_symop_operation_xyz
x,y,z
-x,y,-z
-x,-y,-z
x,-y,z
1/2+x,1/2+y,z
1/2-x,1/2+y,-z
1/2-x,1/2-y,-z
1/2+x,1/2-y,z
loop_
_atom_site_type_symbol
_atom_site_label
_atom_site_fract_x
_atom_site_fract_y
_atom_site_fract_z
Si Si1 0.245185 0.084423 0.654239
Si Si2 0.163197 0.807571 0.206262
Si Si3 0.590269 0.080209 0.294821
Si Si4 0.614734 0.848533 0.067412
Si Si5 0.058764 0.698762 0.433191
Si Si6 0.313217 0.723530 0.053891
Si Si7 0.003465 0.148117 0.182418
Si Si8 0.852263 0.078948 0.310059
O O1 0.208885 0.138544 0.435094
O O2 0.330911 0.116509 0.908696
O O3 0.195351 0.089969 0.667720
O O4 0.245514 0.000000 0.613729
O O5 0.140719 0.728536 0.203978
O O6 0.204522 0.783630 0.166827
O O7 0.078977 0.844705 0.961658
O O8 0.627825 0.097987 0.240487
O O9 0.603205 0.140857 0.452762
O O10 0.608066 0.000000 0.395815
O O11 0.500000 0.083766 0.000000
O O12 0.526181 0.836490 0.774512
O O13 0.110498 0.727438 0.709087
O O14 0.043061 0.772995 0.302182
O O15 0.330997 0.641995 0.143963
O O16 0.250000 0.750000 0.000000
O O17 0.058318 0.090677 0.407678
O O18 0.000000 0.130773 0.000000
O O19 0.835983 0.000000 0.208176
#
# Coordination Sequence:
#
# PCOD9176931 Si02
#       8
#     8   8   8   8   8   8   8   8
#     4  11  23  38  61  97 131 169 214 272 336 389
#     4  11  23  38  63  94 127 170 216 268 320 397
#     4   9  17  31  55  89 122 157 204 263 321 373
#     4  10  20  35  60  89 123 159 209 273 323 370
#     4   9  20  35  58  88 123 162 215 262 314 380
#     4  11  25  43  63  92 129 177 222 264 325 397
#     4  10  18  36  62  92 123 158 207 268 328 381
#     4  10  23  41  63  89 129 170 213 269 336 392
#
# _framework density 21.954146000000001
#
# number of rings (size 3 to 8) (size 9 to 14) (size 15 to 20)
#    0.000    1.875    1.250    3.375    3.500    6.250 
#    0.000    1.250    0.000    1.500    0.000   10.500 
#    0.000    0.000    0.000    0.000    0.000    0.000 
#
# Total GULP energy -178600.521081 kJ/mol
# GULP energy per Si atom -5581.266284 kJ/mol
# Density = 2.190418 g / cm^3
# Si number density = 21.954146 Si / 1000 Ang^3
#
#
#
# Elastic Constant Matrix: (Units=GPa)
#
#
# Indices 1 2 3 4 5 6 
#
# 1 63.5498 10.1455 5.9826 0.0000 15.0861 0.0000
# 2 10.1455 90.2378 14.9435 0.0000 0.6166 0.0000
# 3 5.9826 14.9435 33.2341 0.0000 6.1987 0.0000
# 4 0.0000 0.0000 0.0000 21.2047 0.0000 -2.3116
# 5 15.0861 0.6166 6.1987 0.0000 28.3623 0.0000
# 6 0.0000 0.0000 0.0000 -2.3116 0.0000 30.3407
#
#
#
# Elastic Compliance Matrix: (Units=1/GPa)
#
#
# Indices 1 2 3 4 5 6 
#
# 1 0.018376 -0.001890 -0.000670 0.000000 -0.009587 0.000000
# 2 -0.001890 0.012193 -0.005505 0.000000 0.001943 0.000000
# 3 -0.000670 -0.005505 0.033982 0.000000 -0.006951 0.000000
# 4 0.000000 0.000000 0.000000 0.047554 0.000000 0.003623
# 5 -0.009587 0.001943 -0.006951 0.000000 0.041834 0.000000
# 6 0.000000 0.000000 0.000000 0.003623 0.000000 0.033235
#
#
# Mechanical properties :
#
#
# Convention : Reuss Voigt Hill
#
# Bulk Modulus (GPa) = 20.65185 27.68499 24.16842
# Shear Modulus (GPa) = 22.78492 26.37823 24.58157
#
# Velocity S-wave (km/s) = 3.22505 3.47005 3.34979
# Velocity P-wave (km/s) = 4.82651 5.35656 5.09842
#
# Compressibility (1/GPa) = 0.04842182
#
# Stress axis : x y z
#
# Youngs Moduli (GPa) = 54.41793 82.01725 29.42762
#
# Poissons Ratio (x) = 0.15498 0.01972
# Poissons Ratio (y) = 0.10283 0.16199
# Poissons Ratio (z) = 0.03647 0.45147
#
# Static dielectric constant tensor:
#      x y z
#    x 1.874260 0.000000 0.035900 
#    y 0.000000 1.771370 0.000000 
#    z 0.035900 0.000000 1.828380 
# 
# From -- ./inp_files/112906.got.cif
#   From: 2010.05.17/outbox.cif.g08.bks.cpg/sg12_57_cif.got.tgz:112906.got - 2010.06.03 13:09:07.
