data_PCOD9176235
_publ_section_title
;
Structure prediction by ZEFSAII (Michael W. Deem and Ramdas Pophale) SiO2 
 PCOD9176235
Probable space group: C 2/M
;
_chemical_formula_sum "Si O2"
_cell_formula_units_Z 64
_cell_length_a 14.971612
_cell_length_b 7.609065
_cell_length_c 26.591517
_cell_angle_alpha 90.000000
_cell_angle_beta 93.005039
_cell_angle_gamma 90.000000
_cell_volume 3025.139277
_symmetry_space_group_name_H-M "C 2/M"
_symmetry_group_IT_number 12
_symmetry_cell_setting 'monoclinic'
loop_
_space_group_symop_operation_xyz
x,y,z
-x,y,-z
-x,-y,-z
x,-y,z
1/2+x,1/2+y,z
1/2-x,1/2+y,-z
1/2-x,1/2-y,-z
1/2+x,1/2-y,z
loop_
_atom_site_type_symbol
_atom_site_label
_atom_site_fract_x
_atom_site_fract_y
_atom_site_fract_z
Si Si1 0.147999 0.284173 0.907044
Si Si2 0.003352 0.297625 0.826526
Si Si3 0.395100 0.209664 0.985754
Si Si4 0.840931 0.789766 0.364510
Si Si5 0.018746 0.712518 0.715126
Si Si6 0.831625 0.799551 0.874421
Si Si7 0.362405 0.790143 0.637074
Si Si8 0.497258 0.712184 0.442687
O O1 0.148180 0.500000 0.910491
O O2 0.060056 0.223937 0.874894
O O3 0.232228 0.227062 0.876772
O O4 0.153005 0.225180 0.964967
O O5 0.032752 0.500000 0.823764
O O6 0.018802 0.219352 0.772108
O O7 0.900738 0.293482 0.840103
O O8 0.367311 0.294628 0.932804
O O9 0.380685 0.000000 0.979177
O O10 0.500000 0.234457 0.000000
O O11 0.892453 0.756064 0.313736
O O12 0.739237 0.721172 0.363841
O O13 0.910218 0.722692 0.409178
O O14 0.835676 0.000000 0.371080
O O15 0.012095 0.500000 0.716508
O O16 0.931952 0.777757 0.681436
O O17 0.826370 0.000000 0.857051
O O18 0.414102 0.758513 0.586262
O O19 0.356600 0.000000 0.644156
O O20 0.500000 0.775589 0.500000
O O21 0.492213 0.500000 0.443503
#
# Coordination Sequence:
#
# PCOD9176235 Si02
#       8
#     8   8   8   8   8   8   8   8
#     4   9  19  35  53  73  99 131 163 196 241 298
#     4  10  20  38  56  71  98 135 168 198 244 303
#     4  10  18  34  58  74  94 135 170 191 235 303
#     4   9  18  33  52  72 102 137 165 206 259 301
#     4   9  19  34  54  75  96 127 170 213 243 291
#     4  11  22  34  51  78 105 125 157 208 251 285
#     4   9  18  33  51  75 103 133 169 208 256 300
#     4   9  18  32  49  73 104 138 175 210 246 295
#
# _framework density 21.15605
#
# number of rings (size 3 to 8) (size 9 to 14) (size 15 to 20)
#    0.000    2.500    1.250    0.750    0.000    3.000 
#    0.000    1.875    0.000    0.000    0.000    0.000 
#    0.000    0.000    0.000    0.000    0.000    0.000 
#
# Total GULP energy -178565.001198 kJ/mol
# GULP energy per Si atom -5580.156287 kJ/mol
# Density = 2.110790 g / cm^3
# Si number density = 21.156050 Si / 1000 Ang^3
#
#
#
# Elastic Constant Matrix: (Units=GPa)
#
#
# Indices 1 2 3 4 5 6 
#
# 1 132.2991 2.0112 44.7823 0.0000 -19.0387 0.0000
# 2 2.0112 37.9641 -8.2525 0.0000 4.3907 0.0000
# 3 44.7823 -8.2525 115.0683 0.0000 -19.3194 0.0000
# 4 0.0000 0.0000 0.0000 12.7586 0.0000 -9.3471
# 5 -19.0387 4.3907 -19.3194 0.0000 13.3750 0.0000
# 6 0.0000 0.0000 0.0000 -9.3471 0.0000 9.8905
#
#
#
# Elastic Compliance Matrix: (Units=1/GPa)
#
#
# Indices 1 2 3 4 5 6 
#
# 1 0.010028 -0.002375 -0.002040 0.000000 0.012106 0.000000
# 2 -0.002375 0.027974 0.001084 0.000000 -0.010998 0.000000
# 3 -0.002040 0.001084 0.011901 0.000000 0.013930 0.000000
# 4 0.000000 0.000000 0.000000 0.254775 0.000000 0.240779
# 5 0.012106 -0.010998 0.013930 0.000000 0.115732 0.000000
# 6 0.000000 0.000000 0.000000 0.240779 0.000000 0.328659
#
#
# Mechanical properties :
#
#
# Convention : Reuss Voigt Hill
#
# Bulk Modulus (GPa) = 23.12647 40.26816 31.69732
# Shear Modulus (GPa) = 6.49229 23.65751 15.07490
#
# Velocity S-wave (km/s) = 1.75369 3.34763 2.67227
# Velocity P-wave (km/s) = 3.88016 5.83244 4.95344
#
# Compressibility (1/GPa) = 0.04324049
#
# Stress axis : x y z
#
# Youngs Moduli (GPa) = 99.72555 35.74732 84.02580
#
# Poissons Ratio (x) = 0.08490 0.17143
# Poissons Ratio (y) = 0.23684 -0.09108
# Poissons Ratio (z) = 0.20346 -0.03875
#
# Static dielectric constant tensor:
#      x y z
#    x 1.764010 0.000000 0.015630 
#    y 0.000000 1.801840 0.000000 
#    z 0.015630 0.000000 1.745020 
# 
# From -- ./inp_files/338825.got.cif
#   From: 2010.05.17/outbox.cif.g08.bks.cpg/sg12_170_cif.got.tgz:338825.got - 2010.06.03 13:09:07.
