data_PCOD9176663
_publ_section_title
;
Structure prediction by ZEFSAII (Michael W. Deem and Ramdas Pophale) SiO2 
 PCOD9176663
Probable space group: C 2/M
;
_chemical_formula_sum "Si O2"
_cell_formula_units_Z 56
_cell_length_a 8.233385
_cell_length_b 13.751565
_cell_length_c 24.495625
_cell_angle_alpha 90.000000
_cell_angle_beta 114.593835
_cell_angle_gamma 90.000000
_cell_volume 2521.837747
_symmetry_space_group_name_H-M "C 2/M"
_symmetry_group_IT_number 12
_symmetry_cell_setting 'monoclinic'
loop_
_space_group_symop_operation_xyz
x,y,z
-x,y,-z
-x,-y,-z
x,-y,z
1/2+x,1/2+y,z
1/2-x,1/2+y,-z
1/2-x,1/2-y,-z
1/2+x,1/2-y,z
loop_
_atom_site_type_symbol
_atom_site_label
_atom_site_fract_x
_atom_site_fract_y
_atom_site_fract_z
Si Si1 0.578338 0.188589 0.955032
Si Si2 0.049111 0.823790 0.150336
Si Si3 0.291994 0.701672 0.320782
Si Si4 0.168616 0.192903 0.404913
Si Si5 0.426429 0.810996 0.233199
Si Si6 0.715841 0.388981 0.522786
Si Si7 0.913110 0.000000 0.080240
Si Si8 0.224379 0.500000 0.937911
O O1 0.447698 0.261356 0.904964
O O2 0.620606 0.100753 0.920194
O O3 0.500000 0.148521 0.000000
O O4 0.750000 0.250000 0.000000
O O5 0.245183 0.865890 0.191486
O O6 0.905997 0.906633 0.117285
O O7 0.983899 0.755842 0.190268
O O8 0.247404 0.791555 0.355635
O O9 0.466536 0.653625 0.371196
O O10 0.360481 0.742714 0.273154
O O11 0.109815 0.643636 0.282537
O O12 0.182050 0.304219 0.430005
O O13 0.258784 0.129819 0.464756
O O14 0.500000 0.373199 0.500000
O O15 0.756089 0.500000 0.544031
O O16 0.107953 0.000000 0.078499
O O17 0.790323 0.000000 0.010318
#
# Coordination Sequence:
#
# PCOD9176663 Si02
#       8
#     8   8   8   8   8   8   4   4
#     4  12  23  38  60  90 120 153 194 237 303 373
#     4  11  21  38  61  86 113 152 191 243 299 347
#     4   9  18  35  63  80 109 152 203 238 288 335
#     4  10  18  35  60  86 119 162 186 237 295 343
#     4   9  20  37  61  81 104 149 203 245 286 336
#     4  10  20  33  56  93 127 154 191 232 291 355
#     4  11  22  36  62  82 128 152 184 241 301 359
#     4  11  23  38  54  94 120 154 188 234 295 378
#
# _framework density 22.206028
#
# number of rings (size 3 to 8) (size 9 to 14) (size 15 to 20)
#    0.000    1.714    2.857    2.786    0.000    0.000 
#    0.000    1.429   31.429    0.000    0.000    0.000 
#    0.000    0.000    0.000    0.000    0.000    0.000 
#
# Total GULP energy -156100.627562 kJ/mol
# GULP energy per Si atom -5575.022413 kJ/mol
# Density = 2.215549 g / cm^3
# Si number density = 22.206028 Si / 1000 Ang^3
#
#
#
# Elastic Constant Matrix: (Units=GPa)
#
#
# Indices 1 2 3 4 5 6 
#
# 1 59.3209 -8.3524 19.4462 0.0000 -0.0710 0.0000
# 2 -8.3524 69.0056 7.3219 0.0000 8.0241 0.0000
# 3 19.4462 7.3219 104.0368 0.0000 1.2467 0.0000
# 4 0.0000 0.0000 0.0000 6.3520 0.0000 2.4165
# 5 -0.0710 8.0241 1.2467 0.0000 49.0447 0.0000
# 6 0.0000 0.0000 0.0000 2.4165 0.0000 15.4674
#
#
#
# Elastic Compliance Matrix: (Units=1/GPa)
#
#
# Indices 1 2 3 4 5 6 
#
# 1 0.018419 0.002651 -0.003626 0.000000 -0.000315 0.000000
# 2 0.002651 0.015261 -0.001540 0.000000 -0.002454 0.000000
# 3 -0.003626 -0.001540 0.010398 0.000000 -0.000018 0.000000
# 4 0.000000 0.000000 0.000000 0.167379 0.000000 -0.026150
# 5 -0.000315 -0.002454 -0.000018 0.000000 0.020791 0.000000
# 6 0.000000 0.000000 0.000000 -0.026150 0.000000 0.068737
#
#
# Mechanical properties :
#
#
# Convention : Reuss Voigt Hill
#
# Bulk Modulus (GPa) = 25.60927 29.91051 27.75989
# Shear Modulus (GPa) = 15.67241 28.43599 22.05420
#
# Velocity S-wave (km/s) = 2.65952 3.58236 3.15487
# Velocity P-wave (km/s) = 4.58130 5.53262 5.07928
#
# Compressibility (1/GPa) = 0.03904836
#
# Stress axis : x y z
#
# Youngs Moduli (GPa) = 54.29225 65.52572 96.16989
#
# Poissons Ratio (x) = -0.17369 0.34867
# Poissons Ratio (y) = -0.14391 0.14811
# Poissons Ratio (z) = 0.19684 0.10092
#
# Static dielectric constant tensor:
#      x y z
#    x 1.882420 0.000000 0.036370 
#    y 0.000000 1.788410 0.000000 
#    z 0.036370 0.000000 1.836480 
# 
# From -- ./inp_files/333040.got.cif
#   From: 2010.05.17/outbox.cif.g08.bks.cpg/sg12_167_cif.got.tgz:333040.got - 2010.06.03 13:09:07.
