data_PCOD9176055
_publ_section_title
;
Structure prediction by ZEFSAII (Michael W. Deem and Ramdas Pophale) SiO2 
 PCOD9176055
Probable space group: C 2/M
;
_chemical_formula_sum "Si O2"
_cell_formula_units_Z 60
_cell_length_a 7.101976
_cell_length_b 14.490790
_cell_length_c 21.598648
_cell_angle_alpha 90.000000
_cell_angle_beta 75.517933
_cell_angle_gamma 90.000000
_cell_volume 2152.159984
_symmetry_space_group_name_H-M "C 2/M"
_symmetry_group_IT_number 12
_symmetry_cell_setting 'monoclinic'
loop_
_space_group_symop_operation_xyz
x,y,z
-x,y,-z
-x,-y,-z
x,-y,z
1/2+x,1/2+y,z
1/2-x,1/2+y,-z
1/2-x,1/2-y,-z
1/2+x,1/2-y,z
loop_
_atom_site_type_symbol
_atom_site_label
_atom_site_fract_x
_atom_site_fract_y
_atom_site_fract_z
Si Si1 0.375836 0.859915 0.424283
Si Si2 0.996919 0.135022 0.304663
Si Si3 0.751024 0.500000 0.199617
Si Si4 0.936496 0.355914 0.711609
Si Si5 0.216674 0.397246 0.006914
Si Si6 0.854821 0.154317 0.874673
Si Si7 0.809289 0.138463 0.441063
Si Si8 0.289447 0.862170 0.848057
O O1 0.401279 0.887929 0.350726
O O2 0.214157 0.893592 0.486113
O O3 0.592129 0.879572 0.432673
O O4 0.343736 0.749246 0.432822
O O5 0.043840 0.244390 0.293455
O O6 0.778767 0.121790 0.295601
O O7 0.967944 0.105781 0.378760
O O8 0.152459 0.079363 0.253177
O O9 0.789458 0.580571 0.142435
O O10 0.934338 0.395970 0.781857
O O11 0.289317 0.500000 0.985930
O O12 0.340534 0.333525 0.950460
O O13 0.210467 0.390324 0.080814
O O14 0.000000 0.385585 0.000000
O O15 0.070762 0.117816 0.843954
O O16 0.817836 0.252610 0.847965
#
# Coordination Sequence:
#
# PCOD9176055 Si02
#       8
#     8   8   4   8   8   8   8   8
#     4   8  14  24  46  71 113 139 188 234 289 330
#     4  10  20  34  58  82 119 152 200 241 301 348
#     4  12  22  38  60  89 121 159 195 253 299 362
#     4  10  18  34  53  87 113 153 192 249 288 356
#     4  11  26  45  66  94 124 157 199 249 299 358
#     4  12  25  43  66  90 123 159 203 248 305 358
#     4   8  14  26  44  76 104 149 183 238 282 344
#     4  12  23  40  65  91 121 161 202 249 300 362
#
# _framework density 27.878965999999998
#
# number of rings (size 3 to 8) (size 9 to 14) (size 15 to 20)
#    0.000    1.733    3.333    1.600    0.933    0.533 
#    0.000    0.000    0.000    8.800    0.000    0.000 
#    0.000  174.933    0.000    0.000    0.000    0.000 
#
# Total GULP energy -167449.183276 kJ/mol
# GULP energy per Si atom -5581.639443 kJ/mol
# Density = 2.781551 g / cm^3
# Si number density = 27.878966 Si / 1000 Ang^3
#
#
#
# Elastic Constant Matrix: (Units=GPa)
#
#
# Indices 1 2 3 4 5 6 
#
# 1 120.6604 -25.8028 31.5969 0.0000 -21.0781 0.0000
# 2 -25.8028 95.0298 5.4356 0.0000 0.0968 0.0000
# 3 31.5969 5.4356 300.2907 0.0000 -22.2074 0.0000
# 4 0.0000 0.0000 0.0000 -46.4624 0.0000 36.9483
# 5 -21.0781 0.0968 -22.2074 0.0000 50.7887 0.0000
# 6 0.0000 0.0000 0.0000 36.9483 0.0000 -81.2114
#
#
#
# Elastic Compliance Matrix: (Units=1/GPa)
#
#
# Indices 1 2 3 4 5 6 
#
# 1 0.009712 0.002679 -0.000799 0.000000 0.003676 0.000000
# 2 0.002679 0.011273 -0.000419 0.000000 0.000907 0.000000
# 3 -0.000799 -0.000419 0.003511 0.000000 0.001204 0.000000
# 4 0.000000 0.000000 0.000000 -0.033724 0.000000 -0.015343
# 5 0.003676 0.000907 0.001204 0.000000 0.021740 0.000000
# 6 0.000000 0.000000 0.000000 -0.015343 0.000000 -0.019294
#
#
# Mechanical properties :
#
#
# Convention : Reuss Voigt Hill
#
# Bulk Modulus (GPa) = 36.47063 59.82669 48.14866
# Shear Modulus (GPa) = -8839.68303 18.27307 -4410.70498
#
# Velocity S-wave (km/s) = -56.37037 2.56294 -39.81865
# Velocity P-wave (km/s) = 64.99012 5.50129 45.79001
#
# Compressibility (1/GPa) = 0.02741932
#
# Stress axis : x y z
#
# Youngs Moduli (GPa) = 102.96609 88.70403 284.83656
#
# Poissons Ratio (x) = -0.23763 0.22745
# Poissons Ratio (y) = -0.27584 0.11931
# Poissons Ratio (z) = 0.08222 0.03715
#
# Static dielectric constant tensor:
#      x y z
#    x 2.216490 0.000000 0.093650 
#    y 0.000000 2.113940 0.000000 
#    z 0.093650 0.000000 2.217520 
# 
# From -- ./inp_files/332900.got.cif
#   From: 2010.05.17/outbox.cif.g08.bks.cpg/sg12_167_cif.got.tgz:332900.got - 2010.06.03 13:09:07.
