data_PCOD9176529
_publ_section_title
;
Structure prediction by ZEFSAII (Michael W. Deem and Ramdas Pophale) SiO2 
 PCOD9176529
Probable space group: C 2/M
;
_chemical_formula_sum "Si O2"
_cell_formula_units_Z 48
_cell_length_a 17.727888
_cell_length_b 13.725560
_cell_length_c 23.426652
_cell_angle_alpha 90.000000
_cell_angle_beta 160.612595
_cell_angle_gamma 90.000000
_cell_volume 1892.234330
_symmetry_space_group_name_H-M "C 2/M"
_symmetry_group_IT_number 12
_symmetry_cell_setting 'monoclinic'
loop_
_space_group_symop_operation_xyz
x,y,z
-x,y,-z
-x,-y,-z
x,-y,z
1/2+x,1/2+y,z
1/2-x,1/2+y,-z
1/2-x,1/2-y,-z
1/2+x,1/2-y,z
loop_
_atom_site_type_symbol
_atom_site_label
_atom_site_fract_x
_atom_site_fract_y
_atom_site_fract_z
Si Si1 0.870112 0.603405 0.836427
Si Si2 0.633800 0.799891 0.680718
Si Si3 0.016779 0.155294 0.872119
Si Si4 0.719616 0.829473 0.345409
Si Si5 0.911901 0.103699 0.204790
Si Si6 0.962367 0.672996 0.264715
O O1 0.804195 0.500000 0.816626
O O2 0.785835 0.703558 0.804455
O O3 0.753135 0.604328 0.690158
O O4 0.141507 0.604638 0.023917
O O5 0.789000 0.860042 0.747386
O O6 0.415149 0.749084 0.496757
O O7 0.558964 0.853741 0.684573
O O8 0.990129 0.264947 0.828556
O O9 0.048673 0.100695 0.835570
O O10 0.225261 0.148775 0.064184
O O11 0.649933 0.872299 0.356395
O O12 0.003091 0.208614 0.291439
O O13 0.004835 0.000000 0.293572
#
# Coordination Sequence:
#
# PCOD9176529 Si02
#       6
#     8   8   8   8   8   8
#     4  10  19  33  52  76 105 136 170 202 248 310
#     4  11  22  30  53  82 107 129 162 216 263 290
#     4  10  18  35  55  73  98 136 179 207 237 298
#     4  10  19  35  52  75 103 139 171 202 249 305
#     4  10  19  33  55  76  99 135 174 209 245 298
#     4  11  19  35  53  78 104 132 168 212 255 298
#
# _framework density 25.366838000000001
#
# number of rings (size 3 to 8) (size 9 to 14) (size 15 to 20)
#    0.000    1.667    5.000    4.000    0.000    2.000 
#    0.000    1.667    0.000   11.000    0.000    0.000 
#    0.000    0.000    0.000    0.000    0.000    0.000 
#
# Total GULP energy -133975.722346 kJ/mol
# GULP energy per Si atom -5582.321764 kJ/mol
# Density = 2.530910 g / cm^3
# Si number density = 25.366838 Si / 1000 Ang^3
#
#
#
# Elastic Constant Matrix: (Units=GPa)
#
#
# Indices 1 2 3 4 5 6 
#
# 1 199.0167 -21.8469 29.3421 -0.0095 -4.7054 -0.0007
# 2 -21.8469 49.7027 -19.1542 0.0023 -7.0117 -0.0053
# 3 29.3421 -19.1542 86.0852 0.0264 -0.6828 -0.0034
# 4 -0.0095 0.0023 0.0264 4.3709 -0.0083 -5.3452
# 5 -4.7054 -7.0117 -0.6828 -0.0083 32.2130 -0.0059
# 6 -0.0007 -0.0053 -0.0034 -5.3452 -0.0059 1.7968
#
#
#
# Elastic Compliance Matrix: (Units=1/GPa)
#
#
# Indices 1 2 3 4 5 6 
#
# 1 0.005485 0.002041 -0.001406 -0.000013 0.001216 -0.000028
# 2 0.002041 0.023565 0.004592 -0.000036 0.005525 -0.000009
# 3 -0.001406 0.004592 0.013126 0.000012 0.001072 0.000078
# 4 -0.000013 -0.000036 0.000012 -0.086728 -0.000079 -0.258004
# 5 0.001216 0.005525 0.001072 -0.000079 0.032446 -0.000109
# 6 -0.000028 -0.000009 0.000078 -0.258004 -0.000109 -0.210978
#
#
# Mechanical properties :
#
#
# Convention : Reuss Voigt Hill
#
# Bulk Modulus (GPa) = 19.00102 34.60964 26.80533
# Shear Modulus (GPa) = -23.14886 30.77370 3.81242
#
# Velocity S-wave (km/s) = -3.02414 3.48680 1.22726
# Velocity P-wave (km/s) = 2.16499 5.46660 3.54940
#
# Compressibility (1/GPa) = 0.05262876
#
# Stress axis : x y z
#
# Youngs Moduli (GPa) = 182.32528 42.43497 76.18618
#
# Poissons Ratio (x) = -0.08659 0.10710
# Poissons Ratio (y) = -0.37204 -0.34982
# Poissons Ratio (z) = 0.25631 -0.19485
#
# Static dielectric constant tensor:
#      x y z
#    x 2.098340 -0.000010 0.048070 
#    y -0.000010 2.036150 -0.000030 
#    z 0.048070 -0.000030 2.037140 
# 
# From -- ./inp_files/75100.got.cif
#   From: 2010.05.17/outbox.cif.g08.bks.cpg/sg12_38_cif.got.tgz:75100.got - 2010.06.03 13:09:07.
