data_PCOD9176718
_publ_section_title
;
Structure prediction by ZEFSAII (Michael W. Deem and Ramdas Pophale) SiO2 
 PCOD9176718
Probable space group: C 2/M
;
_chemical_formula_sum "Si O2"
_cell_formula_units_Z 64
_cell_length_a 29.897236
_cell_length_b 7.555187
_cell_length_c 11.232183
_cell_angle_alpha 90.000000
_cell_angle_beta 76.530427
_cell_angle_gamma 90.000000
_cell_volume 2467.330057
_symmetry_space_group_name_H-M "C 2/M"
_symmetry_group_IT_number 12
_symmetry_cell_setting 'monoclinic'
loop_
_space_group_symop_operation_xyz
x,y,z
-x,y,-z
-x,-y,-z
x,-y,z
1/2+x,1/2+y,z
1/2-x,1/2+y,-z
1/2-x,1/2-y,-z
1/2+x,1/2-y,z
loop_
_atom_site_type_symbol
_atom_site_label
_atom_site_fract_x
_atom_site_fract_y
_atom_site_fract_z
Si Si1 0.424778 0.703614 0.732602
Si Si2 0.179937 0.717049 0.466863
Si Si3 0.905485 0.712809 0.093382
Si Si4 0.926195 0.289091 0.470351
Si Si5 0.016578 0.285385 0.792968
Si Si6 0.230040 0.290950 0.198063
Si Si7 0.315049 0.790477 0.278780
Si Si8 0.157031 0.700144 0.076474
O O1 0.412003 0.500000 0.738031
O O2 0.444685 0.753797 0.591301
O O3 0.463843 0.735291 0.807202
O O4 0.378300 0.808538 0.789956
O O5 0.181280 0.500000 0.465856
O O6 0.126644 0.772977 0.495288
O O7 0.207278 0.779285 0.334300
O O8 0.198631 0.780853 0.583346
O O9 0.910712 0.500000 0.069218
O O10 0.954360 0.777119 0.110827
O O11 0.868866 0.739762 0.222798
O O12 0.876398 0.786181 0.000670
O O13 0.924529 0.500000 0.454967
O O14 0.956431 0.221219 0.342152
O O15 0.017539 0.500000 0.795370
O O16 0.220516 0.500000 0.198094
O O17 0.283968 0.271540 0.188274
O O18 0.203383 0.215528 0.100279
O O19 0.309073 0.000000 0.285464
O O20 0.167320 0.500000 0.026820
#
# Coordination Sequence:
#
# PCOD9176718 Si02
#       8
#     8   8   8   8   8   8   8   8
#     4  12  25  38  55  84 120 149 181 229 288 340
#     4   9  16  31  56  82 111 145 181 226 276 327
#     4   9  19  37  62  87 107 141 195 245 275 315
#     4  10  18  35  62  86 110 148 188 226 275 334
#     4  10  20  37  63  88 111 144 190 232 276 334
#     4  10  20  34  54  81 113 150 188 225 274 333
#     4  10  19  34  57  85 115 143 181 233 283 328
#     4  10  21  40  62  80 107 149 198 239 273 323
#
# _framework density 25.938969
#
# number of rings (size 3 to 8) (size 9 to 14) (size 15 to 20)
#    0.000    2.000    2.500    1.875    0.000    3.500 
#    0.000    5.000    0.000    0.000    0.000    0.000 
#    0.000    0.000    0.000    0.000    0.000    0.000 
#
# Total GULP energy -178945.212403 kJ/mol
# GULP energy per Si atom -5592.037888 kJ/mol
# Density = 2.587993 g / cm^3
# Si number density = 25.938969 Si / 1000 Ang^3
#
#
#
# Elastic Constant Matrix: (Units=GPa)
#
#
# Indices 1 2 3 4 5 6 
#
# 1 155.3219 -2.1983 26.7511 0.0000 35.6231 0.0000
# 2 -2.1983 63.3237 -5.6076 0.0000 -10.4445 0.0000
# 3 26.7511 -5.6076 91.5052 0.0000 30.3074 0.0000
# 4 0.0000 0.0000 0.0000 -5.7331 0.0000 7.3066
# 5 35.6231 -10.4445 30.3074 0.0000 47.3219 0.0000
# 6 0.0000 0.0000 0.0000 7.3066 0.0000 7.0709
#
#
#
# Elastic Compliance Matrix: (Units=1/GPa)
#
#
# Indices 1 2 3 4 5 6 
#
# 1 0.007826 -0.000719 -0.000417 0.000000 -0.005783 0.000000
# 2 -0.000719 0.016459 -0.000208 0.000000 0.004307 0.000000
# 3 -0.000417 -0.000208 0.013896 0.000000 -0.008632 0.000000
# 4 0.000000 0.000000 0.000000 -0.075282 0.000000 0.077792
# 5 -0.005783 0.004307 -0.008632 0.000000 0.031965 0.000000
# 6 0.000000 0.000000 0.000000 0.077792 0.000000 0.061040
#
#
# Mechanical properties :
#
#
# Convention : Reuss Voigt Hill
#
# Bulk Modulus (GPa) = 28.17289 38.67124 33.42207
# Shear Modulus (GPa) = 71.00048 29.14564 50.07306
#
# Velocity S-wave (km/s) = 5.23751 3.35569 4.39842
# Velocity P-wave (km/s) = 6.88914 5.47312 6.22155
#
# Compressibility (1/GPa) = 0.03549511
#
# Stress axis : x y z
#
# Youngs Moduli (GPa) = 127.77549 60.75740 71.96062
#
# Poissons Ratio (x) = 0.04369 0.02997
# Poissons Ratio (y) = 0.09188 0.01494
# Poissons Ratio (z) = 0.05322 0.01262
#
# Static dielectric constant tensor:
#      x y z
#    x 2.021050 0.000000 0.020550 
#    y 0.000000 1.989480 0.000000 
#    z 0.020550 0.000000 2.105100 
# 
# From -- ./inp_files/187436.got.cif
#   From: 2010.05.17/outbox.cif.g08.bks.cpg/sg12_94_cif.got.tgz:187436.got - 2010.06.03 13:09:07.
