data_PCOD9176167
_publ_section_title
;
Structure prediction by ZEFSAII (Michael W. Deem and Ramdas Pophale) SiO2 
 PCOD9176167
Probable space group: C 2/M
;
_chemical_formula_sum "Si O2"
_cell_formula_units_Z 28
_cell_length_a 4.983588
_cell_length_b 21.739511
_cell_length_c 12.489263
_cell_angle_alpha 90.000000
_cell_angle_beta 88.358463
_cell_angle_gamma 90.000000
_cell_volume 1352.541025
_symmetry_space_group_name_H-M "C 2/M"
_symmetry_group_IT_number 12
_symmetry_cell_setting 'monoclinic'
loop_
_space_group_symop_operation_xyz
x,y,z
-x,y,-z
-x,-y,-z
x,-y,z
1/2+x,1/2+y,z
1/2-x,1/2+y,-z
1/2-x,1/2-y,-z
1/2+x,1/2-y,z
loop_
_atom_site_type_symbol
_atom_site_label
_atom_site_fract_x
_atom_site_fract_y
_atom_site_fract_z
Si Si1 0.400267 0.859637 0.280654
Si Si2 0.000000 0.294505 0.500000
Si Si3 0.229097 0.830248 0.069514
Si Si4 0.937306 0.072728 0.207144
O O1 0.492480 0.833000 0.391286
O O2 0.311980 0.809700 0.189650
O O3 0.645230 0.898327 0.227646
O O4 0.140254 0.903344 0.297277
O O5 0.750000 0.250000 0.500000
O O6 0.083256 0.894161 0.105516
O O7 0.500000 0.838671 0.000000
O O8 0.000000 0.796895 0.000000
O O9 0.926737 0.000000 0.199124
#
# Coordination Sequence:
#
# PCOD9176167 Si02
#       4
#     8   4   8   8
#     4  10  22  39  58  90 122 147 208 244 292 346
#     4  12  26  46  73  86 103 148 206 266 310 352
#     4  10  18  34  56  86 126 168 190 233 277 338
#     4  10  20  35  57  90 131 165 195 227 280 348
#
# _framework density 20.701774
#
# number of rings (size 3 to 8) (size 9 to 14) (size 15 to 20)
#    1.714    0.000    2.857    2.571    0.000    1.143 
#    0.000    4.286    0.000    5.143    0.000    0.000 
#    0.000    0.000    0.000    0.000    0.000    0.000 
#
# Total GULP energy -77956.713224 kJ/mol
# GULP energy per Si atom -5568.336659 kJ/mol
# Density = 2.065466 g / cm^3
# Si number density = 20.701774 Si / 1000 Ang^3
#
#
#
# Elastic Constant Matrix: (Units=GPa)
#
#
# Indices 1 2 3 4 5 6 
#
# 1 150.8478 23.5459 27.8884 0.0000 7.3525 0.0000
# 2 23.5459 68.5277 31.1975 0.0000 8.4232 0.0000
# 3 27.8884 31.1975 124.4635 0.0000 37.3228 0.0000
# 4 0.0000 0.0000 0.0000 4.5557 0.0000 1.3986
# 5 7.3525 8.4232 37.3228 0.0000 42.6384 0.0000
# 6 0.0000 0.0000 0.0000 1.3986 0.0000 29.3607
#
#
#
# Elastic Compliance Matrix: (Units=1/GPa)
#
#
# Indices 1 2 3 4 5 6 
#
# 1 0.007139 -0.001944 -0.001164 0.000000 0.000172 0.000000
# 2 -0.001944 0.017009 -0.003960 0.000000 0.000442 0.000000
# 3 -0.001164 -0.003960 0.012194 0.000000 -0.009691 0.000000
# 4 0.000000 0.000000 0.000000 0.222763 0.000000 -0.010611
# 5 0.000172 0.000442 -0.009691 0.000000 0.031819 0.000000
# 6 0.000000 0.000000 0.000000 -0.010611 0.000000 0.034565
#
#
# Mechanical properties :
#
#
# Convention : Reuss Voigt Hill
#
# Bulk Modulus (GPa) = 45.03346 56.56697 50.80022
# Shear Modulus (GPa) = 14.40805 32.72477 23.56641
#
# Velocity S-wave (km/s) = 2.64101 3.98020 3.37764
# Velocity P-wave (km/s) = 5.57679 6.96468 6.30901
#
# Compressibility (1/GPa) = 0.02220571
#
# Stress axis : x y z
#
# Youngs Moduli (GPa) = 140.06589 58.79121 82.00850
#
# Poissons Ratio (x) = 0.11431 0.09545
# Poissons Ratio (y) = 0.27234 0.32477
# Poissons Ratio (z) = 0.16302 0.23283
#
# Static dielectric constant tensor:
#      x y z
#    x 1.801990 0.000000 0.099710 
#    y 0.000000 1.786280 0.000000 
#    z 0.099710 0.000000 1.817120 
# 
# From -- ./inp_files/115125.got.cif
#   From: 2010.05.17/outbox.cif.g08.bks.cpg/sg12_58_cif.got.tgz:115125.got - 2010.06.03 13:09:07.
