data_PCOD9176459
_publ_section_title
;
Structure prediction by ZEFSAII (Michael W. Deem and Ramdas Pophale) SiO2 
 PCOD9176459
Probable space group: C 2/M
;
_chemical_formula_sum "Si O2"
_cell_formula_units_Z 44
_cell_length_a 15.099885
_cell_length_b 16.794932
_cell_length_c 9.844999
_cell_angle_alpha 90.000000
_cell_angle_beta 110.638353
_cell_angle_gamma 90.000000
_cell_volume 2336.477783
_symmetry_space_group_name_H-M "C 2/M"
_symmetry_group_IT_number 12
_symmetry_cell_setting 'monoclinic'
loop_
_space_group_symop_operation_xyz
x,y,z
-x,y,-z
-x,-y,-z
x,-y,z
1/2+x,1/2+y,z
1/2-x,1/2+y,-z
1/2-x,1/2-y,-z
1/2+x,1/2-y,z
loop_
_atom_site_type_symbol
_atom_site_label
_atom_site_fract_x
_atom_site_fract_y
_atom_site_fract_z
Si Si1 0.540198 0.500000 0.342495
Si Si2 0.415794 0.267586 0.864096
Si Si3 0.198589 0.090862 0.080925
Si Si4 0.240074 0.844114 0.818302
Si Si5 0.783968 0.000000 0.377158
Si Si6 0.242464 0.000000 0.334980
Si Si7 0.027607 0.824530 0.671282
O O1 0.394419 0.500000 0.485197
O O2 0.626915 0.500000 0.282284
O O3 0.483636 0.418665 0.300769
O O4 0.384950 0.350602 0.919160
O O5 0.323550 0.213259 0.818490
O O6 0.456423 0.282194 0.736267
O O7 0.500000 0.232170 0.000000
O O8 0.262933 0.075661 0.250537
O O9 0.169994 0.000000 0.025881
O O10 0.250167 0.128650 0.979956
O O11 0.236612 0.921517 0.719759
O O12 0.136873 0.803441 0.752880
O O13 0.729172 0.000000 0.493234
O O14 0.000000 0.812723 0.500000
#
# Coordination Sequence:
#
# PCOD9176459 Si02
#       7
#     4   8   8   8   4   4   8
#     4  10  18  34  62  95 121 142 195 259 313 368
#     4  12  26  41  57  91 132 162 207 253 293 370
#     4  10  20  39  62  91 119 155 204 251 313 363
#     4  12  24  38  64  90 124 168 203 245 314 362
#     4  10  18  41  61  91 127 154 203 256 310 363
#     4   8  17  34  61  96 118 146 192 252 315 368
#     4  12  22  38  61  93 127 159 195 254 317 364
#
# _framework density 18.831764
#
# number of rings (size 3 to 8) (size 9 to 14) (size 15 to 20)
#    1.091    0.000    6.364    1.364    0.000    1.091 
#    0.000    0.455    0.000    0.000    0.000    1.909 
#    0.000    0.000    0.000    0.000    0.000    0.000 
#
# Total GULP energy -122646.544245 kJ/mol
# GULP energy per Si atom -5574.842920 kJ/mol
# Density = 1.878890 g / cm^3
# Si number density = 18.831764 Si / 1000 Ang^3
#
#
#
# Elastic Constant Matrix: (Units=GPa)
#
#
# Indices 1 2 3 4 5 6 
#
# 1 126.5809 72.5304 54.9882 0.0000 -18.4039 0.0000
# 2 72.5304 69.1553 31.2798 0.0000 -4.1995 0.0000
# 3 54.9882 31.2798 114.2719 0.0000 -45.8747 0.0000
# 4 0.0000 0.0000 0.0000 12.1330 0.0000 -0.7294
# 5 -18.4039 -4.1995 -45.8747 0.0000 30.9843 0.0000
# 6 0.0000 0.0000 0.0000 -0.7294 0.0000 3.1146
#
#
#
# Elastic Compliance Matrix: (Units=1/GPa)
#
#
# Indices 1 2 3 4 5 6 
#
# 1 0.022723 -0.022723 -0.001312 0.000000 0.008474 0.000000
# 2 -0.022723 0.040895 -0.008512 0.000000 -0.020558 0.000000
# 3 -0.001312 -0.008512 0.026963 0.000000 0.037987 0.000000
# 4 0.000000 0.000000 0.000000 0.083596 0.000000 0.019576
# 5 0.008474 -0.020558 0.037987 0.000000 0.090764 0.000000
# 6 0.000000 0.000000 0.000000 0.019576 0.000000 0.325655
#
#
# Mechanical properties :
#
#
# Convention : Reuss Voigt Hill
#
# Bulk Modulus (GPa) = 39.24096 69.73386 54.48741
# Shear Modulus (GPa) = 7.52801 19.32703 13.42752
#
# Velocity S-wave (km/s) = 2.00155 3.20707 2.67315
# Velocity P-wave (km/s) = 5.12098 7.12910 6.20679
#
# Compressibility (1/GPa) = 0.02548357
#
# Stress axis : x y z
#
# Youngs Moduli (GPa) = 44.00891 24.45313 37.08832
#
# Poissons Ratio (x) = 0.55566 0.04867
# Poissons Ratio (y) = 1.00004 0.31571
# Poissons Ratio (z) = 0.05775 0.20815
#
# Static dielectric constant tensor:
#      x y z
#    x 1.643740 0.000000 -0.022090 
#    y 0.000000 1.662870 0.000000 
#    z -0.022090 0.000000 1.713970 
# 
# From -- ./inp_files/61249.got.cif
#   From: 2010.05.17/outbox.cif.g08.bks.cpg/sg12_31_cif.got.tgz:61249.got - 2010.06.03 13:09:07.
