data_PCOD9176111
_publ_section_title
;
Structure prediction by ZEFSAII (Michael W. Deem and Ramdas Pophale) SiO2 
 PCOD9176111
Probable space group: C 2/M
;
_chemical_formula_sum "Si O2"
_cell_formula_units_Z 56
_cell_length_a 8.498367
_cell_length_b 19.248891
_cell_length_c 25.491884
_cell_angle_alpha 90.000000
_cell_angle_beta 137.336624
_cell_angle_gamma 90.000000
_cell_volume 2826.012359
_symmetry_space_group_name_H-M "C 2/M"
_symmetry_group_IT_number 12
_symmetry_cell_setting 'monoclinic'
loop_
_space_group_symop_operation_xyz
x,y,z
-x,y,-z
-x,-y,-z
x,-y,z
1/2+x,1/2+y,z
1/2-x,1/2+y,-z
1/2-x,1/2-y,-z
1/2+x,1/2-y,z
loop_
_atom_site_type_symbol
_atom_site_label
_atom_site_fract_x
_atom_site_fract_y
_atom_site_fract_z
Si Si1 0.435480 0.828493 0.892377
Si Si2 0.251747 0.791121 0.555436
Si Si3 0.240002 0.423803 0.798368
Si Si4 0.522901 0.577145 0.763380
Si Si5 0.739021 0.306998 0.340357
Si Si6 0.851780 0.920736 0.017182
Si Si7 0.571415 0.211831 0.809110
O O1 0.244144 0.888738 0.845041
O O2 0.497528 0.815701 0.847094
O O3 0.304977 0.757510 0.876092
O O4 0.660401 0.860365 0.975551
O O5 0.250000 0.750000 0.500000
O O6 0.261361 0.738059 0.606841
O O7 0.500776 0.828294 0.612813
O O8 0.000000 0.828059 0.500000
O O9 0.130880 0.500000 0.782736
O O10 0.326270 0.423346 0.760049
O O11 0.467841 0.419452 0.891103
O O12 0.103056 0.354637 0.779569
O O13 0.573805 0.500000 0.758055
O O14 0.427543 0.626908 0.694848
O O15 0.617835 0.261819 0.264422
O O16 0.752429 0.000000 0.990049
O O17 0.000000 0.910403 0.000000
#
# Coordination Sequence:
#
# PCOD9176111 Si02
#       7
#     8   8   8   8   8   8   8
#     4  11  22  36  54  77 107 143 188 238 282 333
#     4   9  18  32  56  84 108 138 173 208 252 314
#     4  10  21  37  55  77 107 145 188 233 284 337
#     4  10  21  36  56  82 110 144 184 227 277 330
#     4  10  18  34  55  81 113 139 172 222 267 313
#     4  10  20  37  56  74 102 144 190 237 286 334
#     4  11  21  35  55  81 109 141 179 231 283 325
#
# _framework density 19.815908
#
# number of rings (size 3 to 8) (size 9 to 14) (size 15 to 20)
#    0.000    1.857    1.429    4.714    0.000    1.714 
#    0.000    2.143    0.000    4.286    0.000    4.000 
#    0.000    0.000    0.000    0.000    0.000    0.000 
#
# Total GULP energy -156185.486895 kJ/mol
# GULP energy per Si atom -5578.053103 kJ/mol
# Density = 1.977081 g / cm^3
# Si number density = 19.815908 Si / 1000 Ang^3
#
#
#
# Elastic Constant Matrix: (Units=GPa)
#
#
# Indices 1 2 3 4 5 6 
#
# 1 33.4427 -6.4180 -7.1922 0.0000 6.6440 0.0000
# 2 -6.4180 87.0416 0.7811 0.0001 14.8023 0.0000
# 3 -7.1922 0.7811 46.4217 0.0001 1.1381 -0.0001
# 4 0.0000 0.0001 0.0001 7.0551 0.0000 2.0236
# 5 6.6440 14.8023 1.1381 0.0000 30.2755 0.0000
# 6 0.0000 0.0000 -0.0001 2.0236 0.0000 16.6377
#
#
#
# Elastic Compliance Matrix: (Units=1/GPa)
#
#
# Indices 1 2 3 4 5 6 
#
# 1 0.033751 0.004073 0.005396 0.000000 -0.009601 0.000000
# 2 0.004073 0.013022 0.000590 0.000000 -0.007283 0.000000
# 3 0.005396 0.000590 0.022424 0.000000 -0.002316 0.000000
# 4 0.000000 0.000000 0.000000 0.146866 0.000000 -0.017863
# 5 -0.009601 -0.007283 -0.002316 0.000000 0.038785 0.000000
# 6 0.000000 0.000000 0.000000 -0.017863 0.000000 0.062277
#
#
# Mechanical properties :
#
#
# Convention : Reuss Voigt Hill
#
# Bulk Modulus (GPa) = 11.19607 15.69421 13.44514
# Shear Modulus (GPa) = 15.30086 22.77600 19.03843
#
# Velocity S-wave (km/s) = 2.78177 3.39393 3.10298
# Velocity P-wave (km/s) = 3.99750 4.82654 4.43145
#
# Compressibility (1/GPa) = 0.08931708
#
# Stress axis : x y z
#
# Youngs Moduli (GPa) = 29.62840 76.79135 44.59410
#
# Poissons Ratio (x) = -0.31277 -0.24063
# Poissons Ratio (y) = -0.12068 -0.02633
# Poissons Ratio (z) = -0.15988 -0.04534
#
# Static dielectric constant tensor:
#      x y z
#    x 1.726660 0.000000 0.036120 
#    y 0.000000 1.559420 0.000000 
#    z 0.036120 0.000000 1.714320 
# 
# From -- ./inp_files/257036.got.cif
#   From: 2010.05.17/outbox.cif.g08.bks.cpg/sg12_129_cif.got.tgz:257036.got - 2010.06.03 13:09:07.
