data_PCOD9176513
_publ_section_title
;
Structure prediction by ZEFSAII (Michael W. Deem and Ramdas Pophale) SiO2 
 PCOD9176513
Probable space group: C 2/M
;
_chemical_formula_sum "Si O2"
_cell_formula_units_Z 48
_cell_length_a 21.121728
_cell_length_b 17.117536
_cell_length_c 21.808425
_cell_angle_alpha 90.000000
_cell_angle_beta 21.048367
_cell_angle_gamma 90.000000
_cell_volume 2831.900709
_symmetry_space_group_name_H-M "C 2/M"
_symmetry_group_IT_number 12
_symmetry_cell_setting 'monoclinic'
loop_
_space_group_symop_operation_xyz
x,y,z
-x,y,-z
-x,-y,-z
x,-y,z
1/2+x,1/2+y,z
1/2-x,1/2+y,-z
1/2-x,1/2-y,-z
1/2+x,1/2-y,z
loop_
_atom_site_type_symbol
_atom_site_label
_atom_site_fract_x
_atom_site_fract_y
_atom_site_fract_z
Si Si1 0.802221 0.408768 0.975735
Si Si2 0.190101 0.587757 0.296966
Si Si3 0.565070 0.272792 0.876824
Si Si4 0.854624 0.305927 0.314880
Si Si5 0.486049 0.699422 0.304249
Si Si6 0.707424 0.155994 0.149822
O O1 0.798387 0.500000 0.993660
O O2 0.643486 0.361026 0.150823
O O3 0.781055 0.394373 0.922023
O O4 0.987786 0.368410 0.825119
O O5 0.259535 0.500000 0.243410
O O6 0.320026 0.652476 0.207122
O O7 0.166349 0.605406 0.246608
O O8 0.000000 0.593727 0.500000
O O9 0.668792 0.220566 0.734121
O O10 0.500000 0.235327 0.000000
O O11 0.391651 0.301607 0.997863
O O12 0.675642 0.333010 0.509765
O O13 0.916139 0.232471 0.302060
O O14 0.564850 0.775982 0.266704
#
# Coordination Sequence:
#
# PCOD9176513 Si02
#       6
#     8   8   8   8   8   8
#     4  11  21  34  55  80 109 139 173 225 278 313
#     4  10  21  33  47  77 114 144 176 212 255 314
#     4  10  19  32  55  76 104 144 181 211 254 315
#     4  10  19  36  54  80 105 139 182 220 261 317
#     4  10  19  34  59  76 105 140 180 223 264 313
#     4  10  18  35  54  75 106 141 180 214 259 316
#
# _framework density 16.949746999999999
#
# number of rings (size 3 to 8) (size 9 to 14) (size 15 to 20)
#    0.000    1.833    3.333    2.500    0.000    4.333 
#    0.000    0.000    0.000    0.500    0.000    1.167 
#    0.000    0.000    0.000    0.000    0.000    0.000 
#
# Total GULP energy -133869.557566 kJ/mol
# GULP energy per Si atom -5577.898232 kJ/mol
# Density = 1.691117 g / cm^3
# Si number density = 16.949747 Si / 1000 Ang^3
#
#
#
# Elastic Constant Matrix: (Units=GPa)
#
#
# Indices 1 2 3 4 5 6 
#
# 1 77.7991 17.6577 26.9126 0.0054 10.6635 0.0020
# 2 17.6577 64.8652 42.9757 -0.0072 4.9315 0.0027
# 3 26.9126 42.9757 127.6468 -0.0042 10.2475 0.0020
# 4 0.0054 -0.0072 -0.0042 7.8020 0.0006 2.6190
# 5 10.6635 4.9315 10.2475 0.0006 23.8660 -0.0017
# 6 0.0020 0.0027 0.0020 2.6190 -0.0017 12.9175
#
#
#
# Elastic Compliance Matrix: (Units=1/GPa)
#
#
# Indices 1 2 3 4 5 6 
#
# 1 0.014771 -0.002364 -0.001893 -0.000013 -0.005299 0.000000
# 2 -0.002364 0.020259 -0.006288 0.000019 -0.000430 -0.000007
# 3 -0.001893 -0.006288 0.010541 0.000002 -0.002381 -0.000001
# 4 -0.000013 0.000019 0.000002 0.137533 -0.000004 -0.027884
# 5 -0.005299 -0.000430 -0.002381 -0.000004 0.045379 0.000008
# 6 0.000000 -0.000007 -0.000001 -0.027884 0.000008 0.083068
#
#
# Mechanical properties :
#
#
# Convention : Reuss Voigt Hill
#
# Bulk Modulus (GPa) = 40.84665 49.48921 45.16793
# Shear Modulus (GPa) = 14.67128 21.10143 17.88636
#
# Velocity S-wave (km/s) = 2.94526 3.53220 3.25200
# Velocity P-wave (km/s) = 5.97637 6.77468 6.38801
#
# Compressibility (1/GPa) = 0.02448181
#
# Stress axis : x y z
#
# Youngs Moduli (GPa) = 67.69897 49.36164 94.86488
#
# Poissons Ratio (x) = 0.11669 0.17958
# Poissons Ratio (y) = 0.16004 0.59648
# Poissons Ratio (z) = 0.12816 0.31037
#
# Static dielectric constant tensor:
#      x y z
#    x 1.574370 0.000000 0.010190 
#    y 0.000000 1.548340 0.000000 
#    z 0.010190 0.000000 1.595370 
# 
# From -- ./inp_files/85185.got.cif
#   From: 2010.05.17/outbox.cif.g08.bks.cpg/sg12_43_cif.got.tgz:85185.got - 2010.06.03 13:09:07.
