data_PCOD9176972
_publ_section_title
;
Structure prediction by ZEFSAII (Michael W. Deem and Ramdas Pophale) SiO2 
 PCOD9176972
Probable space group: C 2/M
;
_chemical_formula_sum "Si O2"
_cell_formula_units_Z 44
_cell_length_a 24.144452
_cell_length_b 7.550473
_cell_length_c 13.465131
_cell_angle_alpha 90.000000
_cell_angle_beta 68.786638
_cell_angle_gamma 90.000000
_cell_volume 2288.387505
_symmetry_space_group_name_H-M "C 2/M"
_symmetry_group_IT_number 12
_symmetry_cell_setting 'monoclinic'
loop_
_space_group_symop_operation_xyz
x,y,z
-x,y,-z
-x,-y,-z
x,-y,z
1/2+x,1/2+y,z
1/2-x,1/2+y,-z
1/2-x,1/2-y,-z
1/2+x,1/2-y,z
loop_
_atom_site_type_symbol
_atom_site_label
_atom_site_fract_x
_atom_site_fract_y
_atom_site_fract_z
Si Si1 0.686504 0.288488 0.589811
Si Si2 0.874761 0.500000 0.845631
Si Si3 0.554671 0.000000 0.390682
Si Si4 0.341670 0.711112 0.168891
Si Si5 0.713239 0.707794 0.186082
Si Si6 0.571434 0.000000 0.968878
Si Si7 0.636301 0.291576 0.422886
O O1 0.681272 0.500000 0.597861
O O2 0.750000 0.250000 0.500000
O O3 0.674705 0.225857 0.708308
O O4 0.643051 0.225031 0.530812
O O5 0.932530 0.500000 0.735313
O O6 0.830789 0.333450 0.848514
O O7 0.902899 0.500000 0.935709
O O8 0.500000 0.000000 0.500000
O O9 0.587429 0.179043 0.401013
O O10 0.352864 0.500000 0.161529
O O11 0.283025 0.745725 0.139195
O O12 0.397579 0.826432 0.098957
O O13 0.705158 0.500000 0.167465
O O14 0.693604 0.735561 0.314616
O O15 0.500000 0.000000 0.000000
O O16 0.624358 0.500000 0.431868
#
# Coordination Sequence:
#
# PCOD9176972 Si02
#       7
#     8   4   4   8   8   4   8
#     4  10  20  30  56  95 134 166 191 240 323 387
#     4  10  24  44  66  92 127 164 213 277 325 378
#     4  10  22  38  62  88 120 167 211 256 312 371
#     4  11  23  40  64  98 133 170 212 274 326 379
#     4  10  18  36  64  98 131 154 202 261 333 388
#     4  12  30  50  66  86 124 181 233 266 309 392
#     4   9  19  33  53  89 131 163 194 249 307 378
#
# _framework density 19.227512999999998
#
# number of rings (size 3 to 8) (size 9 to 14) (size 15 to 20)
#    0.000    1.818    3.636    0.000    2.545    3.636 
#    0.000    0.000    0.000    0.000    0.000    0.000 
#    0.000    0.000    0.000    0.000    0.000    0.000 
#
# Total GULP energy -122563.561740 kJ/mol
# GULP energy per Si atom -5571.070988 kJ/mol
# Density = 1.918375 g / cm^3
# Si number density = 19.227513 Si / 1000 Ang^3
#
#
#
# Elastic Constant Matrix: (Units=GPa)
#
#
# Indices 1 2 3 4 5 6 
#
# 1 91.3518 50.9473 63.9352 0.0000 -13.7776 0.0000
# 2 50.9473 88.3703 44.9206 0.0000 -6.8145 0.0000
# 3 63.9352 44.9206 122.7562 0.0000 7.1821 0.0000
# 4 0.0000 0.0000 0.0000 25.4077 0.0000 -8.8550
# 5 -13.7776 -6.8145 7.1821 0.0000 36.7560 0.0000
# 6 0.0000 0.0000 0.0000 -8.8550 0.0000 19.5209
#
#
#
# Elastic Compliance Matrix: (Units=1/GPa)
#
#
# Indices 1 2 3 4 5 6 
#
# 1 0.023813 -0.007883 -0.010070 0.000000 0.009432 0.000000
# 2 -0.007883 0.017002 -0.002152 0.000000 0.000618 0.000000
# 3 -0.010070 -0.002152 0.014590 0.000000 -0.007024 0.000000
# 4 0.000000 0.000000 0.000000 0.046749 0.000000 0.021206
# 5 0.009432 0.000618 -0.007024 0.000000 0.032229 0.000000
# 6 0.000000 0.000000 0.000000 0.021206 0.000000 0.060847
#
#
# Mechanical properties :
#
#
# Convention : Reuss Voigt Hill
#
# Bulk Modulus (GPa) = 65.81060 69.12051 67.46556
# Shear Modulus (GPa) = 20.78960 25.84861 23.31910
#
# Velocity S-wave (km/s) = 3.29179 3.67052 3.48630
# Velocity P-wave (km/s) = 6.98208 7.34782 7.16728
#
# Compressibility (1/GPa) = 0.01519512
#
# Stress axis : x y z
#
# Youngs Moduli (GPa) = 41.99340 58.81571 68.54213
#
# Poissons Ratio (x) = 0.46363 0.69022
# Poissons Ratio (y) = 0.33102 0.14752
# Poissons Ratio (z) = 0.42287 0.12659
#
# Static dielectric constant tensor:
#      x y z
#    x 1.712210 0.000000 -0.029270 
#    y 0.000000 1.660770 0.000000 
#    z -0.029270 0.000000 1.765360 
# 
# From -- ./inp_files/163171.got.cif
#   From: 2010.05.17/outbox.cif.g08.bks.cpg/sg12_82_cif.got.tgz:163171.got - 2010.06.03 13:09:07.
