data_PCOD9176379
_publ_section_title
;
Structure prediction by ZEFSAII (Michael W. Deem and Ramdas Pophale) SiO2 
 PCOD9176379
Probable space group: C 2/M
;
_chemical_formula_sum "Si O2"
_cell_formula_units_Z 64
_cell_length_a 15.250757
_cell_length_b 7.617125
_cell_length_c 23.228033
_cell_angle_alpha 90.000000
_cell_angle_beta 99.876047
_cell_angle_gamma 90.000000
_cell_volume 2658.342883
_symmetry_space_group_name_H-M "C 2/M"
_symmetry_group_IT_number 12
_symmetry_cell_setting 'monoclinic'
loop_
_space_group_symop_operation_xyz
x,y,z
-x,y,-z
-x,-y,-z
x,-y,z
1/2+x,1/2+y,z
1/2-x,1/2+y,-z
1/2-x,1/2-y,-z
1/2+x,1/2-y,z
loop_
_atom_site_type_symbol
_atom_site_label
_atom_site_fract_x
_atom_site_fract_y
_atom_site_fract_z
Si Si1 0.818015 0.304709 0.457817
Si Si2 0.071108 0.788065 0.123037
Si Si3 0.776861 0.788931 0.938188
Si Si4 0.124628 0.286361 0.724985
Si Si5 0.831993 0.211613 0.749271
Si Si6 0.156417 0.295083 0.375368
Si Si7 0.526028 0.216147 0.598029
Si Si8 0.110659 0.707386 0.849132
O O1 0.844792 0.500000 0.476630
O O2 0.750000 0.250000 0.500000
O O3 0.749791 0.301313 0.395997
O O4 0.909742 0.219956 0.446177
O O5 0.128062 0.727024 0.074812
O O6 0.119666 0.727596 0.187390
O O7 0.969734 0.732156 0.116172
O O8 0.071641 0.000000 0.123650
O O9 0.700908 0.719924 0.886398
O O10 0.777627 0.000000 0.933431
O O11 0.750000 0.750000 0.000000
O O12 0.120593 0.500000 0.722078
O O13 0.228430 0.234961 0.736899
O O14 0.072655 0.225800 0.662804
O O15 0.087789 0.224635 0.782757
O O16 0.873457 0.275264 0.693969
O O17 0.834286 0.000000 0.749552
O O18 0.173392 0.500000 0.388224
O O19 0.077215 0.231793 0.408379
O O20 0.525765 0.000000 0.596895
O O21 0.125340 0.500000 0.843019
#
# Coordination Sequence:
#
# PCOD9176379 Si02
#       8
#     8   8   8   8   8   8   8   8
#     4  11  23  42  63  83 112 154 196 238 286 337
#     4  10  21  37  58  85 116 149 186 233 290 342
#     4  10  22  40  59  80 110 152 196 238 285 340
#     4   9  15  31  59  84 108 147 188 221 269 342
#     4  10  18  34  60  85 115 153 186 223 282 346
#     4  11  22  37  59  90 118 146 190 237 278 335
#     4   9  19  35  59  84 112 151 187 219 275 346
#     4  10  20  36  60  85 111 147 191 233 277 341
#
# _framework density 24.075146
#
# number of rings (size 3 to 8) (size 9 to 14) (size 15 to 20)
#    0.000    2.000    2.500    1.500    0.000    3.500 
#    0.000    8.125    0.000    0.000    0.000    0.000 
#    0.000    0.000    0.000    0.000    0.000    0.000 
#
# Total GULP energy -178827.991379 kJ/mol
# GULP energy per Si atom -5588.374731 kJ/mol
# Density = 2.402035 g / cm^3
# Si number density = 24.075146 Si / 1000 Ang^3
#
#
#
# Elastic Constant Matrix: (Units=GPa)
#
#
# Indices 1 2 3 4 5 6 
#
# 1 117.2900 -4.9166 12.1778 0.0000 -36.0079 0.0000
# 2 -4.9166 46.2373 -0.2496 0.0000 1.3742 0.0000
# 3 12.1778 -0.2496 85.3033 0.0000 -37.4536 0.0000
# 4 0.0000 0.0000 0.0000 22.3458 0.0000 -3.6063
# 5 -36.0079 1.3742 -37.4536 0.0000 41.8045 0.0000
# 6 0.0000 0.0000 0.0000 -3.6063 0.0000 14.3026
#
#
#
# Elastic Compliance Matrix: (Units=1/GPa)
#
#
# Indices 1 2 3 4 5 6 
#
# 1 0.012782 0.000928 0.004943 0.000000 0.015407 0.000000
# 2 0.000928 0.021725 -0.000052 0.000000 0.000039 0.000000
# 3 0.004943 -0.000052 0.021244 0.000000 0.023292 0.000000
# 4 0.000000 0.000000 0.000000 0.046649 0.000000 0.011762
# 5 0.015407 0.000039 0.023292 0.000000 0.058058 0.000000
# 6 0.000000 0.000000 0.000000 0.011762 0.000000 0.072883
#
#
# Mechanical properties :
#
#
# Convention : Reuss Voigt Hill
#
# Bulk Modulus (GPa) = 14.83964 29.20600 22.02282
# Shear Modulus (GPa) = 20.47792 31.81185 26.14488
#
# Velocity S-wave (km/s) = 2.91964 3.63899 3.29898
# Velocity P-wave (km/s) = 4.18844 5.46021 4.86605
#
# Compressibility (1/GPa) = 0.06738707
#
# Stress axis : x y z
#
# Youngs Moduli (GPa) = 78.23805 46.03038 47.07295
#
# Poissons Ratio (x) = -0.04271 -0.23267
# Poissons Ratio (y) = -0.07260 0.00245
# Poissons Ratio (z) = -0.38670 0.00239
#
# Static dielectric constant tensor:
#      x y z
#    x 1.910260 0.000000 -0.016800 
#    y 0.000000 1.932340 0.000000 
#    z -0.016800 0.000000 1.958990 
# 
# From -- ./inp_files/338679.got.cif
#   From: 2010.05.17/outbox.cif.g08.bks.cpg/sg12_170_cif.got.tgz:338679.got - 2010.06.03 13:09:07.
