data_PCOD9176601
_publ_section_title
;
Structure prediction by ZEFSAII (Michael W. Deem and Ramdas Pophale) SiO2 
 PCOD9176601
Probable space group: C 2/M
;
_chemical_formula_sum "Si O2"
_cell_formula_units_Z 64
_cell_length_a 21.920221
_cell_length_b 21.172636
_cell_length_c 9.707642
_cell_angle_alpha 90.000000
_cell_angle_beta 46.370005
_cell_angle_gamma 90.000000
_cell_volume 3261.058830
_symmetry_space_group_name_H-M "C 2/M"
_symmetry_group_IT_number 12
_symmetry_cell_setting 'monoclinic'
loop_
_space_group_symop_operation_xyz
x,y,z
-x,y,-z
-x,-y,-z
x,-y,z
1/2+x,1/2+y,z
1/2-x,1/2+y,-z
1/2-x,1/2-y,-z
1/2+x,1/2-y,z
loop_
_atom_site_type_symbol
_atom_site_label
_atom_site_fract_x
_atom_site_fract_y
_atom_site_fract_z
Si Si1 0.690185 0.798942 0.251683
Si Si2 0.919886 0.110611 0.942182
Si Si3 0.916851 0.658934 0.072246
Si Si4 0.239488 0.429282 0.732357
Si Si5 0.378288 0.251824 0.910878
Si Si6 0.261870 0.427639 0.018571
Si Si7 0.346105 0.247956 0.403359
Si Si8 0.391121 0.391116 0.311747
O O1 0.631469 0.762563 0.234661
O O2 0.709339 0.870169 0.169771
O O3 0.653072 0.793689 0.460828
O O4 0.780722 0.762380 0.112082
O O5 0.853655 0.076827 0.945918
O O6 0.886561 0.107272 0.152066
O O7 0.921722 0.183372 0.888251
O O8 0.015390 0.086437 0.794156
O O9 0.833668 0.616971 0.202352
O O10 0.901962 0.716789 0.199155
O O11 0.920570 0.692033 0.918027
O O12 0.000000 0.625456 0.000000
O O13 0.205226 0.500000 0.789070
O O14 0.317623 0.426418 0.506604
O O15 0.266082 0.413771 0.848336
O O16 0.230328 0.500000 0.085986
O O17 0.250000 0.250000 0.500000
O O18 0.377489 0.318566 0.377942
#
# Coordination Sequence:
#
# PCOD9176601 Si02
#       8
#     8   8   8   8   8   8   8   8
#     4  10  20  34  60  88 120 159 200 242 293 354
#     4  10  22  37  61  92 129 162 188 239 302 366
#     4  12  23  40  63  88 121 156 198 253 310 362
#     4  11  25  43  63  85 114 161 212 255 294 351
#     4  10  18  35  58  89 123 154 190 235 300 365
#     4  10  22  41  61  83 117 164 207 245 294 351
#     4  12  20  35  62  93 122 154 191 244 305 365
#     4  11  22  39  59  94 130 155 193 243 302 363
#
# _framework density 19.625527999999999
#
# number of rings (size 3 to 8) (size 9 to 14) (size 15 to 20)
#    0.000    1.250    5.000    1.500    3.500    1.750 
#    0.000    4.375    0.000    0.000    0.000    1.750 
#    0.000    0.000    0.000    0.000    0.000    0.000 
#
# Total GULP energy -178701.274627 kJ/mol
# GULP energy per Si atom -5584.414832 kJ/mol
# Density = 1.958086 g / cm^3
# Si number density = 19.625528 Si / 1000 Ang^3
#
#
#
# Elastic Constant Matrix: (Units=GPa)
#
#
# Indices 1 2 3 4 5 6 
#
# 1 104.7526 15.9609 34.3784 0.0000 7.5208 0.0000
# 2 15.9609 71.4565 15.9543 0.0000 7.2000 0.0000
# 3 34.3784 15.9543 52.7915 0.0000 6.6428 0.0000
# 4 0.0000 0.0000 0.0000 5.6550 0.0000 8.1653
# 5 7.5208 7.2000 6.6428 0.0000 19.5703 0.0000
# 6 0.0000 0.0000 0.0000 8.1653 0.0000 5.3639
#
#
#
# Elastic Compliance Matrix: (Units=1/GPa)
#
#
# Indices 1 2 3 4 5 6 
#
# 1 0.012272 -0.000882 -0.007493 0.000000 -0.001848 0.000000
# 2 -0.000882 0.015402 -0.003562 0.000000 -0.004118 0.000000
# 3 -0.007493 -0.003562 0.025458 0.000000 -0.004451 0.000000
# 4 0.000000 0.000000 0.000000 -0.147604 0.000000 0.224694
# 5 -0.001848 -0.004118 -0.004451 0.000000 0.054834 0.000000
# 6 0.000000 0.000000 0.000000 0.224694 0.000000 -0.155615
#
#
# Mechanical properties :
#
#
# Convention : Reuss Voigt Hill
#
# Bulk Modulus (GPa) = 34.17752 40.17643 37.17697
# Shear Modulus (GPa) = -30.93582 16.96497 -6.98542
#
# Velocity S-wave (km/s) = -3.97458 2.94332 -1.88867
# Velocity P-wave (km/s) = 1.90010 5.66275 3.77203
#
# Compressibility (1/GPa) = 0.02925900
#
# Stress axis : x y z
#
# Youngs Moduli (GPa) = 81.48346 64.92738 39.27974
#
# Poissons Ratio (x) = 0.05727 0.29431
# Poissons Ratio (y) = 0.07187 0.13991
# Poissons Ratio (z) = 0.61054 0.23127
#
# Static dielectric constant tensor:
#      x y z
#    x 1.710390 0.000000 -0.019330 
#    y 0.000000 1.679130 0.000000 
#    z -0.019330 0.000000 1.676500 
# 
# From -- ./inp_files/90661.got.cif
#   From: 2010.05.17/outbox.cif.g08.bks.cpg/sg12_46_cif.got.tgz:90661.got - 2010.06.03 13:09:07.
