data_PCOD9176785
_publ_section_title
;
Structure prediction by ZEFSAII (Michael W. Deem and Ramdas Pophale) SiO2 
 PCOD9176785
Probable space group: C 2/M
;
_chemical_formula_sum "Si O2"
_cell_formula_units_Z 48
_cell_length_a 10.584003
_cell_length_b 20.853001
_cell_length_c 9.526327
_cell_angle_alpha 90.000000
_cell_angle_beta 68.983583
_cell_angle_gamma 90.000000
_cell_volume 1962.673023
_symmetry_space_group_name_H-M "C 2/M"
_symmetry_group_IT_number 12
_symmetry_cell_setting 'monoclinic'
loop_
_space_group_symop_operation_xyz
x,y,z
-x,y,-z
-x,-y,-z
x,-y,z
1/2+x,1/2+y,z
1/2-x,1/2+y,-z
1/2-x,1/2-y,-z
1/2+x,1/2-y,z
loop_
_atom_site_type_symbol
_atom_site_label
_atom_site_fract_x
_atom_site_fract_y
_atom_site_fract_z
Si Si1 0.990875 0.240688 0.270080
Si Si2 0.197987 0.140449 0.159657
Si Si3 0.500000 0.815074 0.000000
Si Si4 0.491058 0.122632 0.658909
Si Si5 0.852567 0.000000 0.154220
Si Si6 0.675412 0.360466 0.831503
Si Si7 0.708913 0.500000 0.134814
Si Si8 0.052569 0.500000 0.171017
O O1 0.108939 0.193219 0.277717
O O2 0.942100 0.305658 0.367305
O O3 0.877655 0.194823 0.248761
O O4 0.051175 0.272180 0.105978
O O5 0.359331 0.152104 0.099348
O O6 0.154009 0.143724 0.010028
O O7 0.179109 0.067385 0.217538
O O8 0.500000 0.095583 0.500000
O O9 0.335515 0.138084 0.752253
O O10 0.523226 0.065253 0.755649
O O11 0.883494 0.929118 0.196217
O O12 0.878036 0.000000 0.975492
O O13 0.686250 0.000000 0.218859
O O14 0.864828 0.500000 0.010803
#
# Coordination Sequence:
#
# PCOD9176785 Si02
#       8
#     8   8   4   8   4   8   4   4
#     4  12  22  33  56  84 112 151 180 220 283 338
#     4  11  20  35  54  85 114 147 179 225 285 334
#     4  12  20  31  54  77 112 146 178 226 280 339
#     4  11  22  37  57  80 110 150 192 229 272 322
#     4   6  14  28  53  75 104 140 171 231 269 308
#     4  10  18  36  54  80 115 140 186 231 273 326
#     4   8  16  33  56  79 116 140 177 231 274 338
#     4   8  15  36  57  77 104 142 186 240 272 311
#
# _framework density 24.456441999999999
#
# number of rings (size 3 to 8) (size 9 to 14) (size 15 to 20)
#    0.500    1.333    5.000    1.750    0.000    1.667 
#    0.000    3.333    0.000    0.000    0.000    2.333 
#    0.000    0.000    0.000    0.000    0.000    0.000 
#
# Total GULP energy -133676.655186 kJ/mol
# GULP energy per Si atom -5569.860633 kJ/mol
# Density = 2.440078 g / cm^3
# Si number density = 24.456442 Si / 1000 Ang^3
#
#
#
# Elastic Constant Matrix: (Units=GPa)
#
#
# Indices 1 2 3 4 5 6 
#
# 1 71.2989 52.5950 -13.6523 0.0000 -3.5024 0.0000
# 2 52.5950 202.2869 -1.3451 0.0000 -0.9020 0.0000
# 3 -13.6523 -1.3451 20.2783 0.0000 11.2157 0.0000
# 4 0.0000 0.0000 0.0000 13.7771 0.0000 4.4365
# 5 -3.5024 -0.9020 11.2157 0.0000 10.3019 0.0000
# 6 0.0000 0.0000 0.0000 4.4365 0.0000 32.4837
#
#
#
# Elastic Compliance Matrix: (Units=1/GPa)
#
#
# Indices 1 2 3 4 5 6 
#
# 1 0.022314 -0.005722 0.026956 0.000000 -0.022262 0.000000
# 2 -0.005722 0.006413 -0.006690 0.000000 0.005899 0.000000
# 3 0.026956 -0.006690 0.156525 0.000000 -0.161830 0.000000
# 4 0.000000 0.000000 0.000000 0.075923 0.000000 -0.010369
# 5 -0.022262 0.005899 -0.161830 0.000000 0.266202 0.000000
# 6 0.000000 0.000000 0.000000 -0.010369 0.000000 0.032201
#
#
# Mechanical properties :
#
#
# Convention : Reuss Voigt Hill
#
# Bulk Modulus (GPa) = 4.66544 41.00658 22.83601
# Shear Modulus (GPa) = 8.30654 28.39696 18.35175
#
# Velocity S-wave (km/s) = 1.84495 3.41122 2.74229
# Velocity P-wave (km/s) = 2.53973 5.68497 4.40279
#
# Compressibility (1/GPa) = 0.21434218
#
# Stress axis : x y z
#
# Youngs Moduli (GPa) = 44.81433 155.93399 6.38877
#
# Poissons Ratio (x) = 0.89222 -0.17222
# Poissons Ratio (y) = 0.25642 0.04274
# Poissons Ratio (z) = -1.20803 1.04312
#
# Static dielectric constant tensor:
#      x y z
#    x 2.119490 0.000000 0.044560 
#    y 0.000000 2.088490 0.000000 
#    z 0.044560 0.000000 1.969310 
# 
# From -- ./inp_files/133045.got.cif
#   From: 2010.05.17/outbox.cif.g08.bks.cpg/sg12_67_cif.got.tgz:133045.got - 2010.06.03 13:09:07.
