data_PCOD9176553
_publ_section_title
;
Structure prediction by ZEFSAII (Michael W. Deem and Ramdas Pophale) SiO2 
 PCOD9176553
Probable space group: C 2/M
;
_chemical_formula_sum "Si O2"
_cell_formula_units_Z 48
_cell_length_a 22.252615
_cell_length_b 11.939343
_cell_length_c 21.846234
_cell_angle_alpha 90.000000
_cell_angle_beta 27.213095
_cell_angle_gamma 90.000000
_cell_volume 2654.241271
_symmetry_space_group_name_H-M "C 2/M"
_symmetry_group_IT_number 12
_symmetry_cell_setting 'monoclinic'
loop_
_space_group_symop_operation_xyz
x,y,z
-x,y,-z
-x,-y,-z
x,-y,z
1/2+x,1/2+y,z
1/2-x,1/2+y,-z
1/2-x,1/2-y,-z
1/2+x,1/2-y,z
loop_
_atom_site_type_symbol
_atom_site_label
_atom_site_fract_x
_atom_site_fract_y
_atom_site_fract_z
Si Si1 0.465912 0.500000 0.674641
Si Si2 0.071858 0.246462 0.339575
Si Si3 0.728611 0.500000 0.378965
Si Si4 0.008000 0.250402 0.921502
Si Si5 0.981952 0.500000 0.901682
Si Si6 0.734864 0.372957 0.918731
Si Si7 0.303236 0.743419 0.642262
Si Si8 0.767706 0.000000 0.960129
O O1 0.423417 0.613696 0.678852
O O2 0.624157 0.500000 0.528434
O O3 0.398875 0.500000 0.801275
O O4 0.139805 0.310028 0.222286
O O5 0.153637 0.268677 0.327507
O O6 0.921513 0.280876 0.490627
O O7 0.701679 0.609268 0.362795
O O8 0.880547 0.500000 0.260194
O O9 0.154208 0.219185 0.765888
O O10 0.986120 0.384654 0.935741
O O11 0.000000 0.219369 0.000000
O O12 0.894181 0.191876 0.986053
O O13 0.854579 0.500000 0.974730
O O14 0.731426 0.500000 0.896065
O O15 0.738701 0.394446 0.987982
#
# Coordination Sequence:
#
# PCOD9176553 Si02
#       8
#     4   8   4   8   4   8   8   4
#     4  10  19  32  61  85 109 149 179 235 283 337
#     4  10  18  35  56  84 116 143 185 224 287 339
#     4   8  17  33  52  88 124 133 168 226 302 356
#     4  11  20  36  59  88 116 142 178 236 297 338
#     4  10  21  35  60  89 115 140 179 238 293 338
#     4  10  24  41  53  76 113 158 200 232 260 321
#     4   9  18  31  55  88 115 143 171 226 295 349
#     4  10  24  40  54  80 108 163 201 226 264 316
#
# _framework density 18.084264000000001
#
# number of rings (size 3 to 8) (size 9 to 14) (size 15 to 20)
#    0.500    1.667    1.667    1.750    0.000    5.000 
#    0.000    4.167    0.000    6.000    0.000    0.000 
#    0.000    0.000    0.000    0.000    0.000    0.000 
#
# Total GULP energy -133728.856541 kJ/mol
# GULP energy per Si atom -5572.035689 kJ/mol
# Density = 1.804310 g / cm^3
# Si number density = 18.084264 Si / 1000 Ang^3
#
#
#
# Elastic Constant Matrix: (Units=GPa)
#
#
# Indices 1 2 3 4 5 6 
#
# 1 46.0277 -7.6368 33.0062 0.0000 5.0232 0.0000
# 2 -7.6368 39.1336 15.0540 0.0001 -4.7373 0.0000
# 3 33.0062 15.0540 108.7987 0.0000 3.7710 0.0000
# 4 0.0000 0.0001 0.0000 13.2472 0.0000 11.3768
# 5 5.0232 -4.7373 3.7710 0.0000 27.1180 0.0000
# 6 0.0000 0.0000 0.0000 11.3768 0.0000 21.2803
#
#
#
# Elastic Compliance Matrix: (Units=1/GPa)
#
#
# Indices 1 2 3 4 5 6 
#
# 1 0.031427 0.009987 -0.010827 0.000000 -0.002571 0.000000
# 2 0.009987 0.030931 -0.007469 0.000000 0.004592 0.000000
# 3 -0.010827 -0.007469 0.013550 0.000000 -0.001184 0.000000
# 4 0.000000 0.000000 0.000000 0.139567 0.000000 -0.074615
# 5 -0.002571 0.004592 -0.001184 0.000000 0.038319 0.000000
# 6 0.000000 0.000000 0.000000 -0.074615 0.000000 0.086882
#
#
# Mechanical properties :
#
#
# Convention : Reuss Voigt Hill
#
# Bulk Modulus (GPa) = 16.86587 30.53407 23.69997
# Shear Modulus (GPa) = 13.26054 22.56489 17.91271
#
# Velocity S-wave (km/s) = 2.71082 3.53620 3.15066
# Velocity P-wave (km/s) = 4.37545 5.79603 5.13510
#
# Compressibility (1/GPa) = 0.05929133
#
# Stress axis : x y z
#
# Youngs Moduli (GPa) = 31.81932 32.32973 73.79955
#
# Poissons Ratio (x) = -0.32286 0.79901
# Poissons Ratio (y) = -0.31777 0.55118
# Poissons Ratio (z) = 0.34450 0.24146
#
# Static dielectric constant tensor:
#      x y z
#    x 1.582130 0.000000 -0.005120 
#    y 0.000000 1.629430 0.000000 
#    z -0.005120 0.000000 1.653770 
# 
# From -- ./inp_files/321216.got.cif
#   From: 2010.05.17/outbox.cif.g08.bks.cpg/sg12_161_cif.got.tgz:321216.got - 2010.06.03 13:09:07.
