data_PCOD9176275
_publ_section_title
;
Structure prediction by ZEFSAII (Michael W. Deem and Ramdas Pophale) SiO2 
 PCOD9176275
Probable space group: C 2/M
;
_chemical_formula_sum "Si O2"
_cell_formula_units_Z 64
_cell_length_a 24.459375
_cell_length_b 8.077406
_cell_length_c 14.795052
_cell_angle_alpha 90.000000
_cell_angle_beta 66.975993
_cell_angle_gamma 90.000000
_cell_volume 2690.187560
_symmetry_space_group_name_H-M "C 2/M"
_symmetry_group_IT_number 12
_symmetry_cell_setting 'monoclinic'
loop_
_space_group_symop_operation_xyz
x,y,z
-x,y,-z
-x,-y,-z
x,-y,z
1/2+x,1/2+y,z
1/2-x,1/2+y,-z
1/2-x,1/2-y,-z
1/2+x,1/2-y,z
loop_
_atom_site_type_symbol
_atom_site_label
_atom_site_fract_x
_atom_site_fract_y
_atom_site_fract_z
Si Si1 0.063942 0.700095 0.342890
Si Si2 0.196777 0.203534 0.813033
Si Si3 0.183029 0.301150 0.163862
Si Si4 0.246469 0.811056 0.603559
Si Si5 0.372994 0.301143 0.975769
Si Si6 0.627193 0.308464 0.471116
Si Si7 0.997447 0.199824 0.107027
Si Si8 0.943643 0.303200 0.320045
O O1 0.062944 0.500000 0.343776
O O2 0.123498 0.758961 0.252916
O O3 0.073631 0.758731 0.439264
O O4 0.004823 0.756176 0.329375
O O5 0.256994 0.253539 0.826399
O O6 0.203854 0.267831 0.706567
O O7 0.195374 0.000000 0.810934
O O8 0.143528 0.256162 0.912702
O O9 0.182746 0.500000 0.167301
O O10 0.176092 0.247894 0.064873
O O11 0.250000 0.750000 0.500000
O O12 0.314562 0.795070 0.593471
O O13 0.228888 0.000000 0.609032
O O14 0.375977 0.500000 0.977047
O O15 0.437368 0.241584 0.902082
O O16 0.641780 0.500000 0.450233
O O17 0.608534 0.274978 0.586532
O O18 0.949755 0.261668 0.210308
O O19 0.992958 0.000000 0.110950
O O20 0.000000 0.248858 0.000000
O O21 0.939165 0.500000 0.333378
#
# Coordination Sequence:
#
# PCOD9176275 Si02
#       8
#     8   8   8   8   8   8   8   8
#     4  10  20  37  61  88 121 160 196 241 306 370
#     4   9  19  36  59  84 117 156 192 236 294 355
#     4  10  18  34  58  85 117 155 190 233 297 358
#     4  11  23  43  65  88 121 161 207 253 299 354
#     4  10  20  35  57  86 115 150 193 240 294 351
#     4  12  25  40  62  92 123 157 200 250 307 365
#     4  10  22  39  58  83 119 159 200 249 301 356
#     4  11  23  40  63  89 120 159 202 249 306 367
#
# _framework density 23.790164000000001
#
# number of rings (size 3 to 8) (size 9 to 14) (size 15 to 20)
#    0.000    1.625    2.500    2.625    0.000    4.250 
#    0.000    3.750    0.000    0.000    0.000    0.000 
#    0.000    0.000    0.000    0.000    0.000    0.000 
#
# Total GULP energy -178904.062609 kJ/mol
# GULP energy per Si atom -5590.751957 kJ/mol
# Density = 2.373602 g / cm^3
# Si number density = 23.790164 Si / 1000 Ang^3
#
#
#
# Elastic Constant Matrix: (Units=GPa)
#
#
# Indices 1 2 3 4 5 6 
#
# 1 35.5492 -6.6067 9.6161 0.0000 5.0182 0.0000
# 2 -6.6067 18.9201 0.4194 0.0000 0.7599 0.0000
# 3 9.6161 0.4194 171.7732 0.0000 4.3933 0.0000
# 4 0.0000 0.0000 0.0000 27.6746 0.0000 7.1556
# 5 5.0182 0.7599 4.3933 0.0000 41.8303 0.0000
# 6 0.0000 0.0000 0.0000 7.1556 0.0000 13.9551
#
#
#
# Elastic Compliance Matrix: (Units=1/GPa)
#
#
# Indices 1 2 3 4 5 6 
#
# 1 0.031173 0.011074 -0.001676 0.000000 -0.003765 0.000000
# 2 0.011074 0.056828 -0.000700 0.000000 -0.002287 0.000000
# 3 -0.001676 -0.000700 0.005928 0.000000 -0.000409 0.000000
# 4 0.000000 0.000000 0.000000 0.041657 0.000000 -0.021360
# 5 -0.003765 -0.002287 -0.000409 0.000000 0.024442 0.000000
# 6 0.000000 0.000000 0.000000 -0.021360 0.000000 0.082611
#
#
# Mechanical properties :
#
#
# Convention : Reuss Voigt Hill
#
# Bulk Modulus (GPa) = 8.98281 25.89999 17.44140
# Shear Modulus (GPa) = 19.05842 31.54625 25.30233
#
# Velocity S-wave (km/s) = 2.83345 3.64541 3.26477
# Velocity P-wave (km/s) = 3.80639 5.35062 4.64316
#
# Compressibility (1/GPa) = 0.11132369
#
# Stress axis : x y z
#
# Youngs Moduli (GPa) = 32.07928 17.59692 168.70207
#
# Poissons Ratio (x) = -0.19486 0.28272
# Poissons Ratio (y) = -0.35523 0.11812
# Poissons Ratio (z) = 0.05376 0.01232
#
# Static dielectric constant tensor:
#      x y z
#    x 1.946030 0.000000 0.015050 
#    y 0.000000 1.843820 0.000000 
#    z 0.015050 0.000000 1.952710 
# 
# From -- ./inp_files/248979.got.cif
#   From: 2010.05.17/outbox.cif.g08.bks.cpg/sg12_125_cif.got.tgz:248979.got - 2010.06.03 13:09:07.
