data_PCOD9176703
_publ_section_title
;
Structure prediction by ZEFSAII (Michael W. Deem and Ramdas Pophale) SiO2 
 PCOD9176703
Probable space group: C 2/M
;
_chemical_formula_sum "Si O2"
_cell_formula_units_Z 40
_cell_length_a 16.451550
_cell_length_b 8.772988
_cell_length_c 20.160916
_cell_angle_alpha 90.000000
_cell_angle_beta 140.896272
_cell_angle_gamma 90.000000
_cell_volume 1835.293633
_symmetry_space_group_name_H-M "C 2/M"
_symmetry_group_IT_number 12
_symmetry_cell_setting 'monoclinic'
loop_
_space_group_symop_operation_xyz
x,y,z
-x,y,-z
-x,-y,-z
x,-y,z
1/2+x,1/2+y,z
1/2-x,1/2+y,-z
1/2-x,1/2-y,-z
1/2+x,1/2-y,z
loop_
_atom_site_type_symbol
_atom_site_label
_atom_site_fract_x
_atom_site_fract_y
_atom_site_fract_z
Si Si1 0.920066 0.183799 0.770452
Si Si2 0.976185 0.336814 0.407225
Si Si3 0.313525 0.184694 0.106531
Si Si4 0.216019 0.173423 0.546963
Si Si5 0.806917 0.176771 0.832370
O O1 0.789668 0.232213 0.650193
O O2 0.906526 0.236929 0.839402
O O3 0.039364 0.255719 0.805603
O O4 0.931537 0.000000 0.778072
O O5 0.022495 0.500000 0.406291
O O6 0.062253 0.191614 0.447252
O O7 0.000000 0.351861 0.500000
O O8 0.830644 0.321057 0.292316
O O9 0.230948 0.238341 0.118779
O O10 0.314201 0.000000 0.107895
O O11 0.250000 0.250000 0.000000
O O12 0.250000 0.250000 0.500000
O O13 0.255167 0.000000 0.578462
O O14 0.844774 0.000000 0.867002
#
# Coordination Sequence:
#
# PCOD9176703 Si02
#       5
#     8   8   8   8   8
#     4  11  22  42  67  93 121 162 211 263 319 385
#     4  10  18  35  61  88 121 162 204 249 304 371
#     4  11  24  44  66  93 125 164 209 264 321 381
#     4  12  24  37  56  88 127 169 211 258 307 369
#     4   9  20  39  65  91 124 167 209 251 314 384
#
# _framework density 21.794877
#
# number of rings (size 3 to 8) (size 9 to 14) (size 15 to 20)
#    0.000    1.400    2.000    4.200    0.000    2.800 
#    0.000    9.000    0.000    0.000    0.000    0.000 
#    0.000    0.000    0.000    0.000    0.000    0.000 
#
# Total GULP energy -111469.051767 kJ/mol
# GULP energy per Si atom -5573.452588 kJ/mol
# Density = 2.174527 g / cm^3
# Si number density = 21.794877 Si / 1000 Ang^3
#
#
#
# Elastic Constant Matrix: (Units=GPa)
#
#
# Indices 1 2 3 4 5 6 
#
# 1 106.3449 25.6260 4.5269 0.0000 -32.7833 0.0000
# 2 25.6260 70.2612 5.5062 0.0000 -3.2074 0.0000
# 3 4.5269 5.5062 56.6078 0.0000 -13.6453 0.0000
# 4 0.0000 0.0000 0.0000 23.3650 0.0000 5.0559
# 5 -32.7833 -3.2074 -13.6453 0.0000 40.5288 0.0000
# 6 0.0000 0.0000 0.0000 5.0559 0.0000 23.9978
#
#
#
# Elastic Compliance Matrix: (Units=1/GPa)
#
#
# Indices 1 2 3 4 5 6 
#
# 1 0.014080 -0.004769 0.002168 0.000000 0.011742 0.000000
# 2 -0.004769 0.015977 -0.001957 0.000000 -0.003252 0.000000
# 3 0.002168 -0.001957 0.019664 0.000000 0.008219 0.000000
# 4 0.000000 0.000000 0.000000 0.044843 0.000000 -0.009448
# 5 0.011742 -0.003252 0.008219 0.000000 0.036681 0.000000
# 6 0.000000 0.000000 0.000000 -0.009448 0.000000 0.043661
#
#
# Mechanical properties :
#
#
# Convention : Reuss Voigt Hill
#
# Bulk Modulus (GPa) = 24.62729 33.83689 29.23209
# Shear Modulus (GPa) = 25.30922 30.74866 28.02894
#
# Velocity S-wave (km/s) = 3.41140 3.76016 3.59002
# Velocity P-wave (km/s) = 5.18083 5.86606 5.53406
#
# Compressibility (1/GPa) = 0.04060536
#
# Stress axis : x y z
#
# Youngs Moduli (GPa) = 71.02297 62.59023 50.85537
#
# Poissons Ratio (x) = 0.29851 -0.11027
# Poissons Ratio (y) = 0.33872 0.09950
# Poissons Ratio (z) = -0.15400 0.12246
#
# Static dielectric constant tensor:
#      x y z
#    x 1.542430 0.000000 -0.104870 
#    y 0.000000 1.554470 0.000000 
#    z -0.104870 0.000000 1.748970 
# 
# From -- ./inp_files/314539.got.cif
#   From: 2010.05.17/outbox.cif.g08.bks.cpg/sg12_158_cif.got.tgz:314539.got - 2010.06.03 13:09:07.
