data_PCOD9176206
_publ_section_title
;
Structure prediction by ZEFSAII (Michael W. Deem and Ramdas Pophale) SiO2 
 PCOD9176206
Probable space group: C 2/M
;
_chemical_formula_sum "Si O2"
_cell_formula_units_Z 50
_cell_length_a 14.366497
_cell_length_b 7.550242
_cell_length_c 23.768266
_cell_angle_alpha 90.000000
_cell_angle_beta 120.912509
_cell_angle_gamma 90.000000
_cell_volume 2211.936407
_symmetry_space_group_name_H-M "C 2/M"
_symmetry_group_IT_number 12
_symmetry_cell_setting 'monoclinic'
loop_
_space_group_symop_operation_xyz
x,y,z
-x,y,-z
-x,-y,-z
x,-y,z
1/2+x,1/2+y,z
1/2-x,1/2+y,-z
1/2-x,1/2-y,-z
1/2+x,1/2-y,z
loop_
_atom_site_type_symbol
_atom_site_label
_atom_site_fract_x
_atom_site_fract_y
_atom_site_fract_z
Si Si1 0.000000 0.000000 0.500000
Si Si2 0.600913 0.712573 0.995942
Si Si3 0.876150 0.794007 0.356760
Si Si4 0.836762 0.287978 0.106567
Si Si5 0.609106 0.801118 0.466607
Si Si6 0.431331 0.784371 0.254327
Si Si7 0.828660 0.285617 0.635484
O O1 0.911398 0.844183 0.492679
O O2 0.603395 0.500000 0.002780
O O3 0.593617 0.750581 0.927475
O O4 0.500000 0.781425 0.000000
O O5 0.716164 0.781299 0.054957
O O6 0.986076 0.690366 0.402602
O O7 0.861483 0.785476 0.285225
O O8 0.770962 0.728718 0.356741
O O9 0.904088 0.000000 0.383178
O O10 0.829026 0.500000 0.109379
O O11 0.886900 0.223474 0.180436
O O12 0.676596 0.739549 0.432363
O O13 0.635682 0.000000 0.493003
O O14 0.555545 0.726192 0.303936
O O15 0.429025 0.000000 0.255227
O O16 0.829461 0.500000 0.637414
#
# Coordination Sequence:
#
# PCOD9176206 Si02
#       7
#     2   8   8   8   8   8   8
#     4  12  22  40  64  90 112 150 198 228 264 338
#     4   9  18  32  48  67  97 140 177 224 283 326
#     4  10  18  34  57  82 108 141 182 223 271 335
#     4   9  18  32  49  69 101 135 181 226 268 334
#     4  10  21  40  61  83 117 152 182 231 280 321
#     4   9  18  33  50  77 105 140 177 222 282 333
#     4   8  17  34  57  77 108 145 176 220 281 332
#
# _framework density 22.60463
#
# number of rings (size 3 to 8) (size 9 to 14) (size 15 to 20)
#    0.000    2.720    0.800    1.680    0.000    2.240 
#    2.880    0.800    0.000    0.000    0.000    0.000 
#    0.000    0.000    0.000    0.000    0.000    0.000 
#
# Total GULP energy -139571.012597 kJ/mol
# GULP energy per Si atom -5582.840504 kJ/mol
# Density = 2.255318 g / cm^3
# Si number density = 22.604630 Si / 1000 Ang^3
#
#
#
# Elastic Constant Matrix: (Units=GPa)
#
#
# Indices 1 2 3 4 5 6 
#
# 1 188.2802 26.2708 64.0861 0.0000 -29.7073 0.0000
# 2 26.2708 106.8034 21.4365 0.0000 -4.5488 0.0000
# 3 64.0861 21.4365 145.5156 0.0000 -28.1451 0.0000
# 4 0.0000 0.0000 0.0000 21.6055 0.0000 -8.8024
# 5 -29.7073 -4.5488 -28.1451 0.0000 22.2023 0.0000
# 6 0.0000 0.0000 0.0000 -8.8024 0.0000 19.1243
#
#
#
# Elastic Compliance Matrix: (Units=1/GPa)
#
#
# Indices 1 2 3 4 5 6 
#
# 1 0.007165 -0.001135 -0.001562 0.000000 0.007374 0.000000
# 2 -0.001135 0.009829 -0.001129 0.000000 -0.000936 0.000000
# 3 -0.001562 -0.001129 0.009641 0.000000 0.009901 0.000000
# 4 0.000000 0.000000 0.000000 0.056967 0.000000 0.026221
# 5 0.007374 -0.000936 0.009901 0.000000 0.067266 0.000000
# 6 0.000000 0.000000 0.000000 0.026221 0.000000 0.064358
#
#
# Mechanical properties :
#
#
# Convention : Reuss Voigt Hill
#
# Bulk Modulus (GPa) = 52.67867 73.79844 63.23855
# Shear Modulus (GPa) = 21.81444 34.50680 28.16062
#
# Velocity S-wave (km/s) = 3.10988 3.91133 3.53340
# Velocity P-wave (km/s) = 6.02081 7.28810 6.68455
#
# Compressibility (1/GPa) = 0.01898302
#
# Stress axis : x y z
#
# Youngs Moduli (GPa) = 139.57287 101.74085 103.72039
#
# Poissons Ratio (x) = 0.11545 0.16201
# Poissons Ratio (y) = 0.15838 0.11712
# Poissons Ratio (z) = 0.21801 0.11489
#
# Static dielectric constant tensor:
#      x y z
#    x 1.850500 0.000000 0.035140 
#    y 0.000000 1.840420 0.000000 
#    z 0.035140 0.000000 1.771750 
# 
# From -- ./inp_files/359456.got.cif
#   From: 2010.05.17/outbox.cif.g08.bks.cpg/sg12_180_cif.got.tgz:359456.got - 2010.06.03 13:09:07.
