data_PCOD9176754
_publ_section_title
;
Structure prediction by ZEFSAII (Michael W. Deem and Ramdas Pophale) SiO2 
 PCOD9176754
Probable space group: C 2/M
;
_chemical_formula_sum "Si O2"
_cell_formula_units_Z 48
_cell_length_a 18.960597
_cell_length_b 13.733388
_cell_length_c 16.023816
_cell_angle_alpha 90.000000
_cell_angle_beta 30.253184
_cell_angle_gamma 90.000000
_cell_volume 2102.193834
_symmetry_space_group_name_H-M "C 2/M"
_symmetry_group_IT_number 12
_symmetry_cell_setting 'monoclinic'
loop_
_space_group_symop_operation_xyz
x,y,z
-x,y,-z
-x,-y,-z
x,-y,z
1/2+x,1/2+y,z
1/2-x,1/2+y,-z
1/2-x,1/2-y,-z
1/2+x,1/2-y,z
loop_
_atom_site_type_symbol
_atom_site_label
_atom_site_fract_x
_atom_site_fract_y
_atom_site_fract_z
Si Si1 0.400247 0.611412 0.342980
Si Si2 0.648668 0.390224 0.876837
Si Si3 0.403090 0.312558 0.520812
Si Si4 0.643705 0.891801 0.491594
Si Si5 0.344606 0.889774 0.123537
Si Si6 0.152749 0.240135 0.019694
O O1 0.435024 0.500000 0.282793
O O2 0.411508 0.620902 0.430814
O O3 0.241857 0.627556 0.471715
O O4 0.505597 0.689832 0.195147
O O5 0.618926 0.500000 0.935244
O O6 0.748331 0.396422 0.695927
O O7 0.500000 0.345812 0.000000
O O8 0.712694 0.332261 0.887927
O O9 0.500000 0.337166 0.500000
O O10 0.440137 0.204768 0.447359
O O11 0.249063 0.325191 0.717954
O O12 0.577160 0.000000 0.566863
O O13 0.287314 0.000000 0.179185
O O14 0.500000 0.893452 0.000000
O O15 0.353604 0.841690 0.023092
O O16 0.250000 0.250000 0.000000
#
# Coordination Sequence:
#
# PCOD9176754 Si02
#       6
#     8   8   8   8   8   8
#     4  11  24  42  67  97 128 171 227 276 324 389
#     4  10  18  35  64  91 119 161 217 273 322 380
#     4  12  25  43  68  99 140 177 213 268 339 403
#     4  10  21  39  65  93 123 167 219 269 320 386
#     4  11  25  46  70  94 129 180 229 270 320 392
#     4  12  23  37  62  95 132 167 214 277 329 386
#
# _framework density 22.833289000000001
#
# number of rings (size 3 to 8) (size 9 to 14) (size 15 to 20)
#    0.000    1.000    3.333    4.000    0.000    4.333 
#    0.000    2.500    0.000    0.000    0.000    0.000 
#    0.000    0.000    0.000    0.000    0.000    0.000 
#
# Total GULP energy -134169.280310 kJ/mol
# GULP energy per Si atom -5590.386680 kJ/mol
# Density = 2.278132 g / cm^3
# Si number density = 22.833289 Si / 1000 Ang^3
#
#
#
# Elastic Constant Matrix: (Units=GPa)
#
#
# Indices 1 2 3 4 5 6 
#
# 1 140.6562 38.1930 5.6859 0.0000 29.6827 0.0000
# 2 38.1930 105.7924 14.6519 0.0000 15.5590 0.0000
# 3 5.6859 14.6519 42.5769 0.0000 3.7797 0.0000
# 4 0.0000 0.0000 0.0000 18.0118 0.0000 18.1349
# 5 29.6827 15.5590 3.7797 0.0000 28.2150 0.0000
# 6 0.0000 0.0000 0.0000 18.1349 0.0000 -10.6823
#
#
#
# Elastic Compliance Matrix: (Units=1/GPa)
#
#
# Indices 1 2 3 4 5 6 
#
# 1 0.009569 -0.002182 0.000263 0.000000 -0.008899 0.000000
# 2 -0.002182 0.011198 -0.003256 0.000000 -0.003443 0.000000
# 3 0.000263 -0.003256 0.024732 0.000000 -0.001794 0.000000
# 4 0.000000 0.000000 0.000000 0.020492 0.000000 0.034789
# 5 -0.008899 -0.003443 -0.001794 0.000000 0.046943 0.000000
# 6 0.000000 0.000000 0.000000 0.034789 0.000000 -0.034553
#
#
# Mechanical properties :
#
#
# Convention : Reuss Voigt Hill
#
# Bulk Modulus (GPa) = 28.45161 45.12080 36.78621
# Shear Modulus (GPa) = 49.77682 22.47520 36.12601
#
# Velocity S-wave (km/s) = 4.67412 3.14079 3.98196
# Velocity P-wave (km/s) = 6.45117 5.74078 6.10631
#
# Compressibility (1/GPa) = 0.03514739
#
# Stress axis : x y z
#
# Youngs Moduli (GPa) = 104.49926 89.30420 40.43398
#
# Poissons Ratio (x) = 0.19490 -0.01064
# Poissons Ratio (y) = 0.22806 0.13167
# Poissons Ratio (z) = -0.02749 0.29081
#
# Static dielectric constant tensor:
#      x y z
#    x 1.824680 0.000000 -0.011740 
#    y 0.000000 1.913490 0.000000 
#    z -0.011740 0.000000 1.848610 
# 
# From -- ./inp_files/225080.got.cif
#   From: 2010.05.17/outbox.cif.g08.bks.cpg/sg12_113_cif.got.tgz:225080.got - 2010.06.03 13:09:07.
