data_PCOD9176647
_publ_section_title
;
Structure prediction by ZEFSAII (Michael W. Deem and Ramdas Pophale) SiO2 
 PCOD9176647
Probable space group: C 2/M
;
_chemical_formula_sum "Si O2"
_cell_formula_units_Z 52
_cell_length_a 23.219832
_cell_length_b 14.738061
_cell_length_c 11.505133
_cell_angle_alpha 90.000000
_cell_angle_beta 145.817105
_cell_angle_gamma 90.000000
_cell_volume 2212.080707
_symmetry_space_group_name_H-M "C 2/M"
_symmetry_group_IT_number 12
_symmetry_cell_setting 'monoclinic'
loop_
_space_group_symop_operation_xyz
x,y,z
-x,y,-z
-x,-y,-z
x,-y,z
1/2+x,1/2+y,z
1/2-x,1/2+y,-z
1/2-x,1/2-y,-z
1/2+x,1/2-y,z
loop_
_atom_site_type_symbol
_atom_site_label
_atom_site_fract_x
_atom_site_fract_y
_atom_site_fract_z
Si Si1 0.772410 0.100022 0.333986
Si Si2 0.115692 0.398082 0.745721
Si Si3 0.536538 0.216661 0.811394
Si Si4 0.500000 0.259041 0.000000
Si Si5 0.182411 0.896680 0.330624
Si Si6 0.802241 0.299353 0.329571
Si Si7 0.989847 0.898613 0.345488
O O1 0.755609 0.107361 0.444954
O O2 0.751224 0.200183 0.248668
O O3 0.895335 0.094214 0.514122
O O4 0.731851 0.000000 0.228765
O O5 0.155084 0.500000 0.814194
O O6 0.185377 0.337666 0.778655
O O7 0.000000 0.399292 0.500000
O O8 0.099737 0.355672 0.844380
O O9 0.534364 0.204128 0.945159
O O10 0.418424 0.208786 0.571425
O O11 0.565502 0.319213 0.818901
O O12 0.408966 0.325434 0.809030
O O13 0.245631 0.866113 0.323969
O O14 0.145271 0.000000 0.255567
O O15 0.000000 0.874006 0.500000
O O16 0.943472 0.000000 0.261050
#
# Coordination Sequence:
#
# PCOD9176647 Si02
#       7
#     8   8   8   4   8   8   8
#     4   9  17  29  48  79 113 142 176 226 278 322
#     4   9  18  34  58  85 107 137 188 247 289 326
#     4  10  20  34  56  81 114 148 187 233 287 335
#     4  12  23  36  53  80 122 158 187 226 285 344
#     4  11  22  35  55  84 116 154 192 231 278 333
#     4  10  18  35  60  82 110 143 194 241 279 330
#     4   9  15  26  47  76 107 141 182 229 280 327
#
# _framework density 23.507280999999999
#
# number of rings (size 3 to 8) (size 9 to 14) (size 15 to 20)
#    0.000    2.154    3.077    3.462    0.000    1.231 
#    0.000    1.154    0.000    0.923    0.000    0.000 
#    0.000    0.000    0.000    0.000    0.000    0.000 
#
# Total GULP energy -145366.624576 kJ/mol
# GULP energy per Si atom -5591.024022 kJ/mol
# Density = 2.345378 g / cm^3
# Si number density = 23.507281 Si / 1000 Ang^3
#
#
#
# Elastic Constant Matrix: (Units=GPa)
#
#
# Indices 1 2 3 4 5 6 
#
# 1 166.9658 70.5454 28.0836 0.0000 -37.1042 0.0000
# 2 70.5454 116.2673 10.8395 0.0000 -39.8509 0.0000
# 3 28.0836 10.8395 50.9443 0.0000 -16.8097 0.0000
# 4 0.0000 0.0000 0.0000 9.0387 0.0000 -11.1901
# 5 -37.1042 -39.8509 -16.8097 0.0000 39.1170 0.0000
# 6 0.0000 0.0000 0.0000 -11.1901 0.0000 37.4909
#
#
#
# Elastic Compliance Matrix: (Units=1/GPa)
#
#
# Indices 1 2 3 4 5 6 
#
# 1 0.008890 -0.004101 -0.003058 0.000000 0.002940 0.000000
# 2 -0.004101 0.015267 0.003334 0.000000 0.013096 0.000000
# 3 -0.003058 0.003334 0.024201 0.000000 0.010895 0.000000
# 4 0.000000 0.000000 0.000000 0.175478 0.000000 0.052376
# 5 0.002940 0.013096 0.010895 0.000000 0.046377 0.000000
# 6 0.000000 0.000000 0.000000 0.052376 0.000000 0.042306
#
#
# Mechanical properties :
#
#
# Convention : Reuss Voigt Hill
#
# Bulk Modulus (GPa) = 24.56575 61.45715 43.01145
# Shear Modulus (GPa) = 14.98179 32.10991 23.54585
#
# Velocity S-wave (km/s) = 2.52727 3.69989 3.16830
# Velocity P-wave (km/s) = 4.35765 6.66730 5.63214
#
# Compressibility (1/GPa) = 0.04070708
#
# Stress axis : x y z
#
# Youngs Moduli (GPa) = 112.48970 65.50046 41.32109
#
# Poissons Ratio (x) = 0.26861 0.12635
# Poissons Ratio (y) = 0.46132 -0.13775
# Poissons Ratio (z) = 0.34397 -0.21835
#
# Static dielectric constant tensor:
#      x y z
#    x 1.834580 0.000000 0.006500 
#    y 0.000000 1.883320 0.000000 
#    z 0.006500 0.000000 1.944710 
# 
# From -- ./inp_files/167364.got.cif
#   From: 2010.05.17/outbox.cif.g08.bks.cpg/sg12_84_cif.got.tgz:167364.got - 2010.06.03 13:09:07.
