data_PCOD9176714
_publ_section_title
;
Structure prediction by ZEFSAII (Michael W. Deem and Ramdas Pophale) SiO2 
 PCOD9176714
Probable space group: C 2/M
;
_chemical_formula_sum "Si O2"
_cell_formula_units_Z 44
_cell_length_a 21.634559
_cell_length_b 13.377241
_cell_length_c 7.897587
_cell_angle_alpha 90.000000
_cell_angle_beta 122.254269
_cell_angle_gamma 90.000000
_cell_volume 1932.943752
_symmetry_space_group_name_H-M "C 2/M"
_symmetry_group_IT_number 12
_symmetry_cell_setting 'monoclinic'
loop_
_space_group_symop_operation_xyz
x,y,z
-x,y,-z
-x,-y,-z
x,-y,z
1/2+x,1/2+y,z
1/2-x,1/2+y,-z
1/2-x,1/2-y,-z
1/2+x,1/2-y,z
loop_
_atom_site_type_symbol
_atom_site_label
_atom_site_fract_x
_atom_site_fract_y
_atom_site_fract_z
Si Si1 0.962955 0.383627 0.634343
Si Si2 0.664656 0.200249 0.752319
Si Si3 0.716589 0.199445 0.288173
Si Si4 0.074292 0.776502 0.923563
Si Si5 0.732861 0.000000 0.863944
Si Si6 0.761683 0.000000 0.515481
Si Si7 0.610102 0.500000 0.043357
O O1 0.961502 0.500000 0.694059
O O2 0.884531 0.336127 0.477636
O O3 0.000000 0.388756 0.500000
O O4 0.007419 0.301152 0.807409
O O5 0.736152 0.255712 0.794580
O O6 0.614815 0.266387 0.800893
O O7 0.692429 0.096763 0.876117
O O8 0.750000 0.250000 0.500000
O O9 0.737172 0.088620 0.360695
O O10 0.633413 0.229323 0.137548
O O11 0.067310 0.894794 0.956616
O O12 0.722114 0.000000 0.641907
O O13 0.821330 0.000000 0.992351
O O14 0.845670 0.000000 0.710711
#
# Coordination Sequence:
#
# PCOD9176714 Si02
#       7
#     8   8   8   8   4   4   4
#     4   9  20  38  59  88 122 152 189 244 302 349
#     4  11  21  38  63  90 118 152 196 245 300 347
#     4  12  21  37  60  85 120 153 202 237 292 353
#     4  11  23  37  61  93 118 157 197 242 296 354
#     4  10  18  35  62  82 121 154 182 247 312 325
#     4  10  22  36  56  86 120 162 186 250 296 342
#     4  10  20  39  58  82 127 156 190 245 306 333
#
# _framework density 22.763207000000001
#
# number of rings (size 3 to 8) (size 9 to 14) (size 15 to 20)
#    0.545    0.909    6.364    0.545    2.545    0.727 
#    0.000    5.909    0.000    3.273    0.000    0.000 
#    0.000    0.000    0.000    0.000    0.000    0.000 
#
# Total GULP energy -122737.536342 kJ/mol
# GULP energy per Si atom -5578.978925 kJ/mol
# Density = 2.271140 g / cm^3
# Si number density = 22.763207 Si / 1000 Ang^3
#
#
#
# Elastic Constant Matrix: (Units=GPa)
#
#
# Indices 1 2 3 4 5 6 
#
# 1 56.9479 16.1785 14.8431 0.0000 7.9678 0.0000
# 2 16.1785 245.7402 79.3729 0.0000 19.8790 0.0000
# 3 14.8431 79.3729 125.9047 0.0000 26.3906 0.0000
# 4 0.0000 0.0000 0.0000 48.2425 0.0000 1.7936
# 5 7.9678 19.8790 26.3906 0.0000 36.0698 0.0000
# 6 0.0000 0.0000 0.0000 1.7936 0.0000 15.7746
#
#
#
# Elastic Compliance Matrix: (Units=1/GPa)
#
#
# Indices 1 2 3 4 5 6 
#
# 1 0.018443 -0.000595 -0.001197 0.000000 -0.002870 0.000000
# 2 -0.000595 0.005138 -0.003074 0.000000 -0.000451 0.000000
# 3 -0.001197 -0.003074 0.011352 0.000000 -0.006347 0.000000
# 4 0.000000 0.000000 0.000000 0.020817 0.000000 -0.002367
# 5 -0.002870 -0.000451 -0.006347 0.000000 0.033250 0.000000
# 6 0.000000 0.000000 0.000000 -0.002367 0.000000 0.063662
#
#
# Mechanical properties :
#
#
# Convention : Reuss Voigt Hill
#
# Bulk Modulus (GPa) = 39.68471 72.15353 55.91912
# Shear Modulus (GPa) = 29.27474 41.23061 35.25268
#
# Velocity S-wave (km/s) = 3.59005 4.26053 3.93958
# Velocity P-wave (km/s) = 5.88695 7.48125 6.73147
#
# Compressibility (1/GPa) = 0.02519862
#
# Stress axis : x y z
#
# Youngs Moduli (GPa) = 54.22216 194.62727 88.08809
#
# Poissons Ratio (x) = 0.11586 0.10548
# Poissons Ratio (y) = 0.03228 0.27082
# Poissons Ratio (z) = 0.06493 0.59837
#
# Static dielectric constant tensor:
#      x y z
#    x 1.893800 0.000000 -0.057170 
#    y 0.000000 1.765810 0.000000 
#    z -0.057170 0.000000 1.883030 
# 
# From -- ./inp_files/103406.got.cif
#   From: 2010.05.17/outbox.cif.g08.bks.cpg/sg12_52_cif.got.tgz:103406.got - 2010.06.03 13:09:07.
