data_PCOD9176526
_publ_section_title
;
Structure prediction by ZEFSAII (Michael W. Deem and Ramdas Pophale) SiO2 
 PCOD9176526
Probable space group: C 2/M
;
_chemical_formula_sum "Si O2"
_cell_formula_units_Z 54
_cell_length_a 22.361356
_cell_length_b 14.419034
_cell_length_c 7.870424
_cell_angle_alpha 90.000000
_cell_angle_beta 106.820228
_cell_angle_gamma 90.000000
_cell_volume 2429.086689
_symmetry_space_group_name_H-M "C 2/M"
_symmetry_group_IT_number 12
_symmetry_cell_setting 'monoclinic'
loop_
_space_group_symop_operation_xyz
x,y,z
-x,y,-z
-x,-y,-z
x,-y,z
1/2+x,1/2+y,z
1/2-x,1/2+y,-z
1/2-x,1/2-y,-z
1/2+x,1/2-y,z
loop_
_atom_site_type_symbol
_atom_site_label
_atom_site_fract_x
_atom_site_fract_y
_atom_site_fract_z
Si Si1 0.500000 0.803356 0.000000
Si Si2 0.134886 0.251849 0.605377
Si Si3 0.627310 0.192701 0.227333
Si Si4 0.641251 0.396364 0.083938
Si Si5 0.742807 0.607706 0.599823
Si Si6 0.500000 0.500000 0.500000
Si Si7 0.723090 0.104003 0.776513
Si Si8 0.534498 0.340357 0.746772
O O1 0.567532 0.850554 0.081455
O O2 0.495835 0.735070 0.157581
O O3 0.118955 0.309248 0.423379
O O4 0.183815 0.170991 0.596800
O O5 0.171752 0.318717 0.765496
O O6 0.072917 0.212595 0.634689
O O7 0.630859 0.301832 0.180013
O O8 0.694783 0.145454 0.255956
O O9 0.639088 0.500000 0.164620
O O10 0.711795 0.387423 0.070579
O O11 0.588517 0.392644 0.898122
O O12 0.732046 0.500000 0.629662
O O13 0.755910 0.615549 0.406211
O O14 0.490587 0.418687 0.636128
O O15 0.698758 0.000000 0.777136
#
# Coordination Sequence:
#
# PCOD9176526 Si02
#       8
#     4   8   8   8   8   2   8   8
#     4  10  24  45  59  80 114 172 202 252 304 364
#     4  11  20  36  61  93 122 157 197 265 299 357
#     4  10  19  38  60  85 118 159 208 239 300 365
#     4  10  18  35  54  83 115 159 187 232 298 366
#     4  10  19  33  59  94 125 159 195 250 309 366
#     4  12  24  46  52  92 114 162 212 242 282 362
#     4   9  17  33  59  90 125 155 194 238 313 372
#     4  11  25  39  58  81 124 159 204 249 297 353
#
# _framework density 22.230577
#
# number of rings (size 3 to 8) (size 9 to 14) (size 15 to 20)
#    0.000    1.778    3.704    1.778    1.037    0.889 
#    6.667    0.370    0.000    0.889    0.000    4.667 
#    0.000    0.000    0.000    0.000    0.000    0.000 
#
# Total GULP energy -150506.147926 kJ/mol
# GULP energy per Si atom -5574.301775 kJ/mol
# Density = 2.217998 g / cm^3
# Si number density = 22.230577 Si / 1000 Ang^3
#
#
#
# Elastic Constant Matrix: (Units=GPa)
#
#
# Indices 1 2 3 4 5 6 
#
# 1 62.2111 11.3544 -3.0998 0.0000 3.2333 0.0000
# 2 11.3544 53.5659 -6.5521 0.0000 5.5996 0.0000
# 3 -3.0998 -6.5521 34.6878 0.0000 15.3411 0.0000
# 4 0.0000 0.0000 0.0000 18.7890 0.0000 -0.3862
# 5 3.2333 5.5996 15.3411 0.0000 27.1201 0.0000
# 6 0.0000 0.0000 0.0000 -0.3862 0.0000 2.8340
#
#
#
# Elastic Compliance Matrix: (Units=1/GPa)
#
#
# Indices 1 2 3 4 5 6 
#
# 1 0.016867 -0.003058 0.002053 0.000000 -0.002541 0.000000
# 2 -0.003058 0.021056 0.007289 0.000000 -0.008106 0.000000
# 3 0.002053 0.007289 0.041560 0.000000 -0.025259 0.000000
# 4 0.000000 0.000000 0.000000 0.053372 0.000000 0.007273
# 5 -0.002541 -0.008106 -0.025259 0.000000 0.053138 0.000000
# 6 0.000000 0.000000 0.000000 0.007273 0.000000 0.353850
#
#
# Mechanical properties :
#
#
# Convention : Reuss Voigt Hill
#
# Bulk Modulus (GPa) = 10.86367 17.09662 13.98015
# Shear Modulus (GPa) = 8.96124 19.66612 14.31368
#
# Velocity S-wave (km/s) = 2.00992 2.97752 2.54022
# Velocity P-wave (km/s) = 3.20684 4.41906 3.86083
#
# Compressibility (1/GPa) = 0.09204989
#
# Stress axis : x y z
#
# Youngs Moduli (GPa) = 59.28776 47.49286 24.06161
#
# Poissons Ratio (x) = 0.14526 -0.04941
# Poissons Ratio (y) = 0.18133 -0.17538
# Poissons Ratio (z) = -0.12174 -0.34617
#
# Static dielectric constant tensor:
#      x y z
#    x 1.841830 0.000000 0.021800 
#    y 0.000000 1.908950 0.000000 
#    z 0.021800 0.000000 1.930960 
# 
# From -- ./inp_files/96521.got.cif
#   From: 2010.05.17/outbox.cif.g08.bks.cpg/sg12_49_cif.got.tgz:96521.got - 2010.06.03 13:09:07.
