data_PCOD9176882
_publ_section_title
;
Structure prediction by ZEFSAII (Michael W. Deem and Ramdas Pophale) SiO2 
 PCOD9176882
Probable space group: C 2/M
;
_chemical_formula_sum "Si O2"
_cell_formula_units_Z 48
_cell_length_a 15.384813
_cell_length_b 15.134894
_cell_length_c 16.637965
_cell_angle_alpha 90.000000
_cell_angle_beta 35.166501
_cell_angle_gamma 90.000000
_cell_volume 2231.310232
_symmetry_space_group_name_H-M "C 2/M"
_symmetry_group_IT_number 12
_symmetry_cell_setting 'monoclinic'
loop_
_space_group_symop_operation_xyz
x,y,z
-x,y,-z
-x,-y,-z
x,-y,z
1/2+x,1/2+y,z
1/2-x,1/2+y,-z
1/2-x,1/2-y,-z
1/2+x,1/2-y,z
loop_
_atom_site_type_symbol
_atom_site_label
_atom_site_fract_x
_atom_site_fract_y
_atom_site_fract_z
Si Si1 0.896773 0.595973 0.676334
Si Si2 0.077101 0.098804 0.219796
Si Si3 0.135153 0.794860 0.336403
Si Si4 0.240976 0.630453 0.451110
Si Si5 0.855595 0.399376 0.895955
Si Si6 0.333799 0.176465 0.320912
O O1 0.848479 0.500000 0.679913
O O2 0.841473 0.689038 0.683734
O O3 0.843547 0.599306 0.809076
O O4 0.080843 0.599334 0.536403
O O5 0.092794 0.167920 0.281101
O O6 0.909350 0.096157 0.309395
O O7 0.108735 0.000000 0.227820
O O8 0.201306 0.119406 0.058558
O O9 0.274090 0.840503 0.276882
O O10 0.000000 0.812957 0.500000
O O11 0.262292 0.731301 0.405422
O O12 0.216153 0.616191 0.566006
O O13 0.903827 0.500000 0.882728
O O14 0.986391 0.329748 0.816668
#
# Coordination Sequence:
#
# PCOD9176882 Si02
#       6
#     8   8   8   8   8   8
#     4  10  21  39  63  86 115 153 192 240 292 341
#     4  11  23  38  59  87 118 154 196 240 286 340
#     4  12  22  38  56  88 123 149 190 237 292 346
#     4  10  18  36  60  83 112 150 196 237 280 337
#     4   9  21  40  60  84 114 153 200 240 283 343
#     4  10  20  36  57  82 116 153 190 238 285 344
#
# _framework density 21.512024
#
# number of rings (size 3 to 8) (size 9 to 14) (size 15 to 20)
#    0.000    1.667    3.333    2.500    0.000    5.333 
#    0.000    1.667    0.000    0.000    0.000    5.833 
#    0.000    0.000    0.000    0.000    0.000    0.000 
#
# Total GULP energy -133816.492024 kJ/mol
# GULP energy per Si atom -5575.687168 kJ/mol
# Density = 2.146306 g / cm^3
# Si number density = 21.512024 Si / 1000 Ang^3
#
#
#
# Elastic Constant Matrix: (Units=GPa)
#
#
# Indices 1 2 3 4 5 6 
#
# 1 42.4492 -7.0468 7.8366 0.0000 6.4957 0.0000
# 2 -7.0468 44.6501 7.9540 -0.0001 8.6341 0.0001
# 3 7.8366 7.9540 131.4492 -0.0003 1.0398 0.0002
# 4 0.0000 -0.0001 -0.0003 27.0603 0.0002 -0.3238
# 5 6.4957 8.6341 1.0398 0.0002 24.0903 -0.0001
# 6 0.0000 0.0001 0.0002 -0.3238 -0.0001 17.2646
#
#
#
# Elastic Compliance Matrix: (Units=1/GPa)
#
#
# Indices 1 2 3 4 5 6 
#
# 1 0.026370 0.006292 -0.001879 0.000000 -0.009284 0.000000
# 2 0.006292 0.025821 -0.001852 0.000000 -0.010871 0.000000
# 3 -0.001879 -0.001852 0.007825 0.000000 0.000833 0.000000
# 4 0.000000 0.000000 0.000000 0.036963 0.000000 0.000693
# 5 -0.009284 -0.010871 0.000833 0.000000 0.047874 0.000000
# 6 0.000000 0.000000 0.000000 0.000693 0.000000 0.057935
#
#
# Mechanical properties :
#
#
# Convention : Reuss Voigt Hill
#
# Bulk Modulus (GPa) = 15.35204 26.22623 20.78913
# Shear Modulus (GPa) = 22.79162 27.67003 25.23082
#
# Velocity S-wave (km/s) = 3.25850 3.59034 3.42844
# Velocity P-wave (km/s) = 4.61618 5.42266 5.03559
#
# Compressibility (1/GPa) = 0.06513791
#
# Stress axis : x y z
#
# Youngs Moduli (GPa) = 37.92232 38.72762 127.79562
#
# Poissons Ratio (x) = -0.24367 0.24017
# Poissons Ratio (y) = -0.23860 0.23662
# Poissons Ratio (z) = 0.07127 0.07171
#
# Static dielectric constant tensor:
#      x y z
#    x 1.844460 0.000000 -0.006510 
#    y 0.000000 1.864200 0.000000 
#    z -0.006510 0.000000 1.749380 
# 
# From -- ./inp_files/278034.got.cif
#   From: 2010.05.17/outbox.cif.g08.bks.cpg/sg12_140_cif.got.tgz:278034.got - 2010.06.03 13:09:07.
