data_PCOD9176622
_publ_section_title
;
Structure prediction by ZEFSAII (Michael W. Deem and Ramdas Pophale) SiO2 
 PCOD9176622
Probable space group: C 2/M
;
_chemical_formula_sum "Si O2"
_cell_formula_units_Z 64
_cell_length_a 19.237175
_cell_length_b 17.433872
_cell_length_c 12.631722
_cell_angle_alpha 90.000000
_cell_angle_beta 128.725128
_cell_angle_gamma 90.000000
_cell_volume 3305.059092
_symmetry_space_group_name_H-M "C 2/M"
_symmetry_group_IT_number 12
_symmetry_cell_setting 'monoclinic'
loop_
_space_group_symop_operation_xyz
x,y,z
-x,y,-z
-x,-y,-z
x,-y,z
1/2+x,1/2+y,z
1/2-x,1/2+y,-z
1/2-x,1/2-y,-z
1/2+x,1/2-y,z
loop_
_atom_site_type_symbol
_atom_site_label
_atom_site_fract_x
_atom_site_fract_y
_atom_site_fract_z
Si Si1 0.629852 0.411588 0.912516
Si Si2 0.987027 0.800887 0.863753
Si Si3 0.057450 0.415353 0.160128
Si Si4 0.583736 0.845621 0.852273
Si Si5 0.238544 0.659923 0.368244
Si Si6 0.778043 0.164235 0.632915
Si Si7 0.216001 0.351186 0.797283
Si Si8 0.761877 0.168774 0.158851
O O1 0.617971 0.500000 0.872560
O O2 0.544964 0.375197 0.888563
O O3 0.659132 0.360113 0.840353
O O4 0.713158 0.401401 0.070994
O O5 0.883446 0.821547 0.748888
O O6 0.031457 0.732613 0.835623
O O7 0.000000 0.781690 0.000000
O O8 0.098123 0.500000 0.190137
O O9 0.133689 0.353506 0.250500
O O10 0.987379 0.410230 0.187950
O O11 0.000000 0.401123 0.000000
O O12 0.622767 0.852671 0.771510
O O13 0.669229 0.853215 0.012503
O O14 0.262423 0.749370 0.404765
O O15 0.263278 0.624923 0.505192
O O16 0.275447 0.635313 0.289334
O O17 0.729363 0.127279 0.687595
O O18 0.243244 0.261098 0.836419
#
# Coordination Sequence:
#
# PCOD9176622 Si02
#       8
#     8   8   8   8   8   8   8   8
#     4  11  22  34  55  87 116 145 189 243 289 338
#     4  12  19  35  59  86 112 148 197 245 285 328
#     4  11  22  35  56  90 119 147 188 237 294 343
#     4  11  18  32  61  86 110 147 189 240 286 337
#     4  10  20  37  59  86 117 145 192 242 281 341
#     4  10  21  36  62  86 109 154 199 233 280 342
#     4  10  19  37  56  84 116 149 190 228 287 342
#     4  10  18  35  59  83 115 148 185 232 296 340
#
# _framework density 19.364253000000001
#
# number of rings (size 3 to 8) (size 9 to 14) (size 15 to 20)
#    0.000    1.375    6.250    1.875    0.000    2.750 
#    0.000    2.500    0.000    1.500    0.000    0.000 
#    0.000    0.000    0.000    0.000    0.000    0.000 
#
# Total GULP energy -178296.917504 kJ/mol
# GULP energy per Si atom -5571.778672 kJ/mol
# Density = 1.932018 g / cm^3
# Si number density = 19.364253 Si / 1000 Ang^3
#
#
#
# Elastic Constant Matrix: (Units=GPa)
#
#
# Indices 1 2 3 4 5 6 
#
# 1 110.5699 -3.0246 32.3648 0.0000 -31.5584 0.0000
# 2 -3.0246 40.3923 -6.8054 0.0000 0.0821 0.0000
# 3 32.3648 -6.8054 74.8606 0.0000 -26.3231 0.0000
# 4 0.0000 0.0000 0.0000 2.5176 0.0000 2.9055
# 5 -31.5584 0.0821 -26.3231 0.0000 24.5136 0.0000
# 6 0.0000 0.0000 0.0000 2.9055 0.0000 9.1793
#
#
#
# Elastic Compliance Matrix: (Units=1/GPa)
#
#
# Indices 1 2 3 4 5 6 
#
# 1 0.014359 0.001143 0.000634 0.000000 0.019163 0.000000
# 2 0.001143 0.025456 0.003707 0.000000 0.005367 0.000000
# 3 0.000634 0.003707 0.022017 0.000000 0.024446 0.000000
# 4 0.000000 0.000000 0.000000 0.625820 0.000000 -0.198090
# 5 0.019163 0.005367 0.024446 0.000000 0.091696 0.000000
# 6 0.000000 0.000000 0.000000 -0.198090 0.000000 0.171641
#
#
# Mechanical properties :
#
#
# Convention : Reuss Voigt Hill
#
# Bulk Modulus (GPa) = 13.73597 30.09917 21.91757
# Shear Modulus (GPa) = 5.18517 20.79463 12.98990
#
# Velocity S-wave (km/s) = 1.63814 3.28055 2.59283
# Velocity P-wave (km/s) = 3.26908 5.47053 4.50631
#
# Compressibility (1/GPa) = 0.07280157
#
# Stress axis : x y z
#
# Youngs Moduli (GPa) = 69.64261 39.28272 45.41937
#
# Poissons Ratio (x) = -0.04490 -0.02880
# Poissons Ratio (y) = -0.07961 -0.16838
# Poissons Ratio (z) = -0.04417 -0.14563
#
# Static dielectric constant tensor:
#      x y z
#    x 1.703830 0.000000 -0.045100 
#    y 0.000000 1.698360 0.000000 
#    z -0.045100 0.000000 1.704800 
# 
# From -- ./inp_files/168481.got.cif
#   From: 2010.05.17/outbox.cif.g08.bks.cpg/sg12_85_cif.got.tgz:168481.got - 2010.06.03 13:09:07.
