data_PCOD9176031
_publ_section_title
;
Structure prediction by ZEFSAII (Michael W. Deem and Ramdas Pophale) SiO2 
 PCOD9176031
Probable space group: C 2/M
;
_chemical_formula_sum "Si O2"
_cell_formula_units_Z 52
_cell_length_a 15.680311
_cell_length_b 21.827966
_cell_length_c 10.041973
_cell_angle_alpha 90.000000
_cell_angle_beta 57.663443
_cell_angle_gamma 90.000000
_cell_volume 2904.042395
_symmetry_space_group_name_H-M "C 2/M"
_symmetry_group_IT_number 12
_symmetry_cell_setting 'monoclinic'
loop_
_space_group_symop_operation_xyz
x,y,z
-x,y,-z
-x,-y,-z
x,-y,z
1/2+x,1/2+y,z
1/2-x,1/2+y,-z
1/2-x,1/2-y,-z
1/2+x,1/2-y,z
loop_
_atom_site_type_symbol
_atom_site_label
_atom_site_fract_x
_atom_site_fract_y
_atom_site_fract_z
Si Si1 0.468574 0.246272 0.751530
Si Si2 0.833274 0.670120 0.412175
Si Si3 0.500000 0.317575 0.000000
Si Si4 0.214905 0.841524 0.782734
Si Si5 0.022378 0.569877 0.835581
Si Si6 0.168021 0.372156 0.076703
Si Si7 0.781985 0.796073 0.758119
O O1 0.583743 0.224010 0.627023
O O2 0.405959 0.183918 0.822024
O O3 0.399443 0.285306 0.704782
O O4 0.472901 0.278253 0.891772
O O5 0.774178 0.655216 0.595693
O O6 0.754025 0.687180 0.361388
O O7 0.898931 0.612493 0.306338
O O8 0.402609 0.354195 0.127685
O O9 0.260455 0.883041 0.859070
O O10 0.230387 0.770840 0.819858
O O11 0.058116 0.500000 0.817312
O O12 0.909421 0.572563 0.873432
O O13 0.000000 0.597857 0.000000
O O14 0.231797 0.346529 0.898188
#
# Coordination Sequence:
#
# PCOD9176031 Si02
#       7
#     8   8   4   8   8   8   8
#     4  10  19  29  50  72 108 153 183 211 266 338
#     4  11  22  36  52  81 119 147 186 244 278 320
#     4  12  18  32  50  72 112 150 186 216 264 338
#     4  11  22  33  50  80 112 152 189 222 277 340
#     4  10  21  37  61  85 107 146 195 236 290 342
#     4  10  18  34  52  75 108 148 187 220 277 332
#     4  11  18  32  50  77 108 159 186 213 269 342
#
# _framework density 17.906074
#
# number of rings (size 3 to 8) (size 9 to 14) (size 15 to 20)
#    0.000    1.385    6.154    1.385    2.154    5.538 
#    0.000    1.538    0.000    0.000    0.000    2.154 
#    0.000    3.692    0.000    0.000    0.000    0.000 
#
# Total GULP energy -144812.709081 kJ/mol
# GULP energy per Si atom -5569.719580 kJ/mol
# Density = 1.786532 g / cm^3
# Si number density = 17.906074 Si / 1000 Ang^3
#
#
#
# Elastic Constant Matrix: (Units=GPa)
#
#
# Indices 1 2 3 4 5 6 
#
# 1 128.7805 19.7214 60.1003 0.0000 -0.3848 0.0000
# 2 19.7214 31.3481 16.5965 0.0000 -6.8944 0.0000
# 3 60.1003 16.5965 113.0678 0.0000 -23.3399 0.0000
# 4 0.0000 0.0000 0.0000 -5.5432 0.0000 -5.4466
# 5 -0.3848 -6.8944 -23.3399 0.0000 22.4550 0.0000
# 6 0.0000 0.0000 0.0000 -5.4466 0.0000 13.1404
#
#
#
# Elastic Compliance Matrix: (Units=1/GPa)
#
#
# Indices 1 2 3 4 5 6 
#
# 1 0.012135 -0.005701 -0.007552 0.000000 -0.009392 0.000000
# 2 -0.005701 0.038102 -0.000213 0.000000 0.011379 0.000000
# 3 -0.007552 -0.000213 0.016360 0.000000 0.016809 0.000000
# 4 0.000000 0.000000 0.000000 -0.128193 0.000000 -0.053135
# 5 -0.009392 0.011379 0.016809 0.000000 0.065338 0.000000
# 6 0.000000 0.000000 0.000000 -0.053135 0.000000 0.054077
#
#
# Mechanical properties :
#
#
# Convention : Reuss Voigt Hill
#
# Bulk Modulus (GPa) = 25.21234 51.78142 38.49688
# Shear Modulus (GPa) = 51.03443 17.79565 34.41504
#
# Velocity S-wave (km/s) = 5.34444 3.15593 4.38879
# Velocity P-wave (km/s) = 7.22461 6.50085 6.87226
#
# Compressibility (1/GPa) = 0.03966312
#
# Stress axis : x y z
#
# Youngs Moduli (GPa) = 82.40901 26.24516 61.12628
#
# Poissons Ratio (x) = 0.14963 0.46162
# Poissons Ratio (y) = 0.46985 0.01304
# Poissons Ratio (z) = 0.62235 0.00560
#
# Static dielectric constant tensor:
#      x y z
#    x 1.740270 0.000000 0.020030 
#    y 0.000000 1.611930 0.000000 
#    z 0.020030 0.000000 1.624400 
# 
# From -- ./inp_files/65235.got.cif
#   From: 2010.05.17/outbox.cif.g08.bks.cpg/sg12_33_cif.got.tgz:65235.got - 2010.06.03 13:09:07.
