data_PCOD9176328
_publ_section_title
;
Structure prediction by ZEFSAII (Michael W. Deem and Ramdas Pophale) SiO2 
 PCOD9176328
Probable space group: C 2/M
;
_chemical_formula_sum "Si O2"
_cell_formula_units_Z 52
_cell_length_a 19.193769
_cell_length_b 17.121427
_cell_length_c 17.713613
_cell_angle_alpha 90.000000
_cell_angle_beta 158.245820
_cell_angle_gamma 90.000000
_cell_volume 2157.457835
_symmetry_space_group_name_H-M "C 2/M"
_symmetry_group_IT_number 12
_symmetry_cell_setting 'monoclinic'
loop_
_space_group_symop_operation_xyz
x,y,z
-x,y,-z
-x,-y,-z
x,-y,z
1/2+x,1/2+y,z
1/2-x,1/2+y,-z
1/2-x,1/2-y,-z
1/2+x,1/2-y,z
loop_
_atom_site_type_symbol
_atom_site_label
_atom_site_fract_x
_atom_site_fract_y
_atom_site_fract_z
Si Si1 0.624941 0.259090 0.200010
Si Si2 0.976846 0.264548 0.340158
Si Si3 0.066686 0.000000 0.771245
Si Si4 0.004478 0.410585 0.281411
Si Si5 0.859078 0.115768 0.290067
Si Si6 0.465104 0.915292 0.861667
Si Si7 0.937633 0.850810 0.714024
O O1 0.845152 0.282189 0.426385
O O2 0.536910 0.304018 0.182767
O O3 0.500000 0.272652 0.000000
O O4 0.636064 0.165826 0.227117
O O5 0.908242 0.345371 0.235789
O O6 0.040412 0.213058 0.330846
O O7 0.840620 0.206243 0.247301
O O8 0.059694 0.933028 0.697247
O O9 0.059171 0.928854 0.825818
O O10 0.988607 0.500000 0.291339
O O11 0.223880 0.384820 0.497797
O O12 0.947169 0.410740 0.135566
O O13 0.652580 0.084538 0.100674
O O14 0.000000 0.108628 0.500000
O O15 0.367668 0.000000 0.764519
#
# Coordination Sequence:
#
# PCOD9176328 Si02
#       7
#     8   8   4   8   8   8   8
#     4  11  21  37  57  86 116 146 187 236 283 327
#     4  10  20  38  61  79 112 157 188 223 280 342
#     4  10  21  36  61  79 111 153 186 226 281 335
#     4  10  18  34  59  85 111 140 190 239 269 322
#     4  11  23  39  55  83 118 150 185 225 286 346
#     4  11  22  35  53  84 120 141 188 235 271 331
#     4  10  18  37  60  85 108 150 192 229 271 349
#
# _framework density 24.102440999999999
#
# number of rings (size 3 to 8) (size 9 to 14) (size 15 to 20)
#    0.000    1.538    4.615    2.077    0.000    0.923 
#    0.000    0.385    0.000    0.462    0.000    0.000 
#    0.000    0.000    0.000    0.000    0.000    0.000 
#
# Total GULP energy -145050.730570 kJ/mol
# GULP energy per Si atom -5578.874253 kJ/mol
# Density = 2.404758 g / cm^3
# Si number density = 24.102441 Si / 1000 Ang^3
#
#
#
# Elastic Constant Matrix: (Units=GPa)
#
#
# Indices 1 2 3 4 5 6 
#
# 1 63.5000 43.7096 40.0768 -0.0042 -16.3201 0.0007
# 2 43.7096 190.9749 55.3753 -0.0088 -18.7200 -0.0032
# 3 40.0768 55.3753 113.0874 -0.0088 -22.2003 -0.0054
# 4 -0.0042 -0.0088 -0.0088 16.3501 -0.0068 -13.5457
# 5 -16.3201 -18.7200 -22.2003 -0.0068 35.9612 -0.0034
# 6 0.0007 -0.0032 -0.0054 -13.5457 -0.0034 40.1996
#
#
#
# Elastic Compliance Matrix: (Units=1/GPa)
#
#
# Indices 1 2 3 4 5 6 
#
# 1 0.022701 -0.003083 -0.005494 0.000004 0.005306 0.000000
# 2 -0.003083 0.006595 -0.001977 0.000003 0.000813 0.000001
# 3 -0.005494 -0.001977 0.012592 0.000011 0.004251 0.000006
# 4 0.000004 0.000003 0.000011 0.084849 0.000029 0.028591
# 5 0.005306 0.000813 0.004251 0.000029 0.033264 0.000013
# 6 0.000000 0.000001 0.000006 0.028591 0.000013 0.034510
#
#
# Mechanical properties :
#
#
# Convention : Reuss Voigt Hill
#
# Bulk Modulus (GPa) = 48.12093 71.76508 59.94300
# Shear Modulus (GPa) = 22.46740 33.72887 28.09814
#
# Velocity S-wave (km/s) = 3.05645 3.74491 3.41806
# Velocity P-wave (km/s) = 5.69775 6.96698 6.36408
#
# Compressibility (1/GPa) = 0.02078098
#
# Stress axis : x y z
#
# Youngs Moduli (GPa) = 44.05104 151.63318 79.41287
#
# Poissons Ratio (x) = 0.46742 0.43628
# Poissons Ratio (y) = 0.13579 0.15701
# Poissons Ratio (z) = 0.24201 0.29980
#
# Static dielectric constant tensor:
#      x y z
#    x 2.023230 0.000000 0.069310 
#    y 0.000000 1.901710 -0.000010 
#    z 0.069310 -0.000010 2.006910 
# 
# From -- ./inp_files/328345.got.cif
#   From: 2010.05.17/outbox.cif.g08.bks.cpg/sg12_165_cif.got.tgz:328345.got - 2010.06.03 13:09:07.
