data_PCOD9176083
_publ_section_title
;
Structure prediction by ZEFSAII (Michael W. Deem and Ramdas Pophale) SiO2 
 PCOD9176083
Probable space group: C 2/M
;
_chemical_formula_sum "Si O2"
_cell_formula_units_Z 44
_cell_length_a 12.576161
_cell_length_b 26.053218
_cell_length_c 5.482741
_cell_angle_alpha 90.000000
_cell_angle_beta 85.690276
_cell_angle_gamma 90.000000
_cell_volume 1791.337591
_symmetry_space_group_name_H-M "C 2/M"
_symmetry_group_IT_number 12
_symmetry_cell_setting 'monoclinic'
loop_
_space_group_symop_operation_xyz
x,y,z
-x,y,-z
-x,-y,-z
x,-y,z
1/2+x,1/2+y,z
1/2-x,1/2+y,-z
1/2-x,1/2-y,-z
1/2+x,1/2-y,z
loop_
_atom_site_type_symbol
_atom_site_label
_atom_site_fract_x
_atom_site_fract_y
_atom_site_fract_z
Si Si1 0.885231 0.699995 0.163870
Si Si2 0.245062 0.105632 0.149071
Si Si3 0.500000 0.132865 0.500000
Si Si4 0.064986 0.805061 0.737309
Si Si5 0.995287 0.086445 0.749131
Si Si6 0.166759 0.560258 0.346734
O O1 0.797394 0.661054 0.076550
O O2 0.913437 0.671045 0.408350
O O3 0.852877 0.758326 0.232541
O O4 0.000000 0.698227 0.000000
O O5 0.120679 0.112518 0.218614
O O6 0.291313 0.080059 0.393193
O O7 0.262783 0.070604 0.906467
O O8 0.560263 0.093685 0.311656
O O9 0.000000 0.791726 0.500000
O O10 0.080201 0.866460 0.717548
O O11 0.000000 0.801667 0.000000
O O12 0.000000 0.056242 0.500000
O O13 0.000000 0.057477 0.000000
O O14 0.146284 0.500000 0.371742
#
# Coordination Sequence:
#
# PCOD9176083 Si02
#       6
#     8   8   4   8   8   8
#     4  10  18  34  54  86 125 161 194 232 287 353
#     4  11  23  38  64  88 120 164 196 242 306 359
#     4  10  19  34  58  86 126 166 188 224 299 366
#     4   9  18  32  54  79 117 157 194 239 279 326
#     4  10  21  41  61  86 117 161 202 255 296 338
#     4  11  23  39  61  91 122 152 198 248 300 364
#
# _framework density 24.562650000000001
#
# number of rings (size 3 to 8) (size 9 to 14) (size 15 to 20)
#    0.000    1.818    2.727    1.909    0.000    0.000 
#    0.000   14.545    0.000   10.909    0.000    0.000 
#    0.000    0.000    0.000    0.000    0.000    0.000 
#
# Total GULP energy -122475.865210 kJ/mol
# GULP energy per Si atom -5567.084782 kJ/mol
# Density = 2.450674 g / cm^3
# Si number density = 24.562650 Si / 1000 Ang^3
#
#
#
# Elastic Constant Matrix: (Units=GPa)
#
#
# Indices 1 2 3 4 5 6 
#
# 1 37.3075 13.5338 0.7012 0.0000 -6.8737 0.0000
# 2 13.5338 171.0114 34.5374 0.0000 9.5955 0.0000
# 3 0.7012 34.5374 191.2468 0.0000 6.1231 0.0000
# 4 0.0000 0.0000 0.0000 -8.0753 0.0000 -92.6740
# 5 -6.8737 9.5955 6.1231 0.0000 30.8779 0.0000
# 6 0.0000 0.0000 0.0000 -92.6740 0.0000 -352.1836
#
#
#
# Elastic Compliance Matrix: (Units=1/GPa)
#
#
# Indices 1 2 3 4 5 6 
#
# 1 0.029145 -0.002748 0.000155 0.000000 0.007311 0.000000
# 2 -0.002748 0.006416 -0.001072 0.000000 -0.002393 0.000000
# 3 0.000155 -0.001072 0.005445 0.000000 -0.000712 0.000000
# 4 0.000000 0.000000 0.000000 0.061308 0.000000 -0.016133
# 5 0.007311 -0.002393 -0.000712 0.000000 0.034898 0.000000
# 6 0.000000 0.000000 0.000000 -0.016133 0.000000 0.001406
#
#
# Mechanical properties :
#
#
# Convention : Reuss Voigt Hill
#
# Bulk Modulus (GPa) = 29.69452 55.23453 42.46452
# Shear Modulus (GPa) = 31.81219 -42.48996 -5.33889
#
# Velocity S-wave (km/s) = 3.60272 -4.16367 -1.47591
# Velocity P-wave (km/s) = 5.42417 0.76083 3.79755
#
# Compressibility (1/GPa) = 0.03367625
#
# Stress axis : x y z
#
# Youngs Moduli (GPa) = 34.31084 155.86490 183.66641
#
# Poissons Ratio (x) = 0.42834 -0.02853
# Poissons Ratio (y) = 0.09429 0.19688
# Poissons Ratio (z) = -0.00533 0.16708
#
# Static dielectric constant tensor:
#      x y z
#    x 2.485600 0.000000 -0.087630 
#    y 0.000000 1.910150 0.000000 
#    z -0.087630 0.000000 2.088570 
# 
# From -- ./inp_files/8417.got.cif
#   From: 2010.05.17/outbox.cif.g08.bks.cpg/sg12_5_cif.got.tgz:8417.got - 2010.06.03 13:09:07.
