data_PCOD9176621
_publ_section_title
;
Structure prediction by ZEFSAII (Michael W. Deem and Ramdas Pophale) SiO2 
 PCOD9176621
Probable space group: C 2/M
;
_chemical_formula_sum "Si O2"
_cell_formula_units_Z 64
_cell_length_a 27.688786
_cell_length_b 21.970788
_cell_length_c 9.018367
_cell_angle_alpha 90.000000
_cell_angle_beta 34.027264
_cell_angle_gamma 90.000000
_cell_volume 3070.049159
_symmetry_space_group_name_H-M "C 2/M"
_symmetry_group_IT_number 12
_symmetry_cell_setting 'monoclinic'
loop_
_space_group_symop_operation_xyz
x,y,z
-x,y,-z
-x,-y,-z
x,-y,z
1/2+x,1/2+y,z
1/2-x,1/2+y,-z
1/2-x,1/2-y,-z
1/2+x,1/2-y,z
loop_
_atom_site_type_symbol
_atom_site_label
_atom_site_fract_x
_atom_site_fract_y
_atom_site_fract_z
Si Si1 0.017651 0.621188 0.129297
Si Si2 0.670029 0.339467 0.553386
Si Si3 0.821564 0.431219 0.129058
Si Si4 0.443305 0.740966 0.992611
Si Si5 0.570453 0.432155 0.989144
Si Si6 0.932470 0.851571 0.467295
Si Si7 0.837752 0.929252 0.939851
Si Si8 0.646982 0.070294 0.302425
O O1 0.089502 0.575916 0.009296
O O2 0.053683 0.689296 0.061073
O O3 0.928481 0.612235 0.443543
O O4 0.000000 0.612107 0.000000
O O5 0.596837 0.385727 0.797001
O O6 0.644139 0.329489 0.447688
O O7 0.649943 0.283287 0.714389
O O8 0.757239 0.377591 0.341668
O O9 0.785917 0.500000 0.241560
O O10 0.838939 0.423318 0.909406
O O11 0.492296 0.699111 0.745995
O O12 0.500000 0.736334 0.000000
O O13 0.570287 0.500000 0.934473
O O14 0.480273 0.412516 0.288837
O O15 0.640658 0.426680 0.942064
O O16 0.892108 0.875791 0.722137
O O17 0.859248 0.000000 0.838728
O O18 0.738134 0.919621 0.151856
O O19 0.621366 0.000000 0.395424
#
# Coordination Sequence:
#
# PCOD9176621 Si02
#       8
#     8   8   8   8   8   8   8   8
#     4  11  24  42  64  85 116 157 201 247 304 343
#     4  10  20  36  60  87 116 157 195 240 291 345
#     4  11  23  39  63  92 122 152 195 246 297 360
#     4   8  19  39  61  85 119 157 196 246 282 344
#     4  10  20  30  49  84 123 156 193 237 289 355
#     4  10  18  35  59  81 115 160 199 233 289 351
#     4  10  20  34  54  83 124 158 189 244 302 350
#     4  10  22  41  61  86 120 155 196 248 300 352
#
# _framework density 20.846571000000001
#
# number of rings (size 3 to 8) (size 9 to 14) (size 15 to 20)
#    0.000    2.000    1.250    3.000    1.750    5.500 
#    0.000    5.625    0.000    0.000    0.000    0.000 
#    0.000    0.000    0.000    0.000    0.000    0.000 
#
# Total GULP energy -178516.631091 kJ/mol
# GULP energy per Si atom -5578.644722 kJ/mol
# Density = 2.079912 g / cm^3
# Si number density = 20.846571 Si / 1000 Ang^3
#
#
#
# Elastic Constant Matrix: (Units=GPa)
#
#
# Indices 1 2 3 4 5 6 
#
# 1 92.3998 19.8500 26.8943 0.0000 -10.4040 0.0000
# 2 19.8500 87.5315 37.5958 0.0000 4.2278 0.0000
# 3 26.8943 37.5958 73.7236 0.0000 -5.0913 0.0000
# 4 0.0000 0.0000 0.0000 30.7188 0.0000 -4.2689
# 5 -10.4040 4.2278 -5.0913 0.0000 17.2099 0.0000
# 6 0.0000 0.0000 0.0000 -4.2689 0.0000 19.0650
#
#
#
# Elastic Compliance Matrix: (Units=1/GPa)
#
#
# Indices 1 2 3 4 5 6 
#
# 1 0.013012 -0.001903 -0.003267 0.000000 0.007367 0.000000
# 2 -0.001903 0.015523 -0.007722 0.000000 -0.007249 0.000000
# 3 -0.003267 -0.007722 0.019079 0.000000 0.005566 0.000000
# 4 0.000000 0.000000 0.000000 0.033599 0.000000 0.007523
# 5 0.007367 -0.007249 0.005566 0.000000 0.065987 0.000000
# 6 0.000000 0.000000 0.000000 0.007523 0.000000 0.054137
#
#
# Mechanical properties :
#
#
# Convention : Reuss Voigt Hill
#
# Bulk Modulus (GPa) = 45.81367 46.92613 46.36990
# Shear Modulus (GPa) = 21.33123 24.68638 23.00881
#
# Velocity S-wave (km/s) = 3.20230 3.44495 3.32583
# Velocity P-wave (km/s) = 5.97472 6.19537 6.08604
#
# Compressibility (1/GPa) = 0.02182755
#
# Stress axis : x y z
#
# Youngs Moduli (GPa) = 76.85240 64.42047 52.41485
#
# Poissons Ratio (x) = 0.12261 0.17126
# Poissons Ratio (y) = 0.14627 0.40477
# Poissons Ratio (z) = 0.25111 0.49748
#
# Static dielectric constant tensor:
#      x y z
#    x 1.756320 0.000000 0.010580 
#    y 0.000000 1.761100 0.000000 
#    z 0.010580 0.000000 1.736140 
# 
# From -- ./inp_files/113627.got.cif
#   From: 2010.05.17/outbox.cif.g08.bks.cpg/sg12_57_cif.got.tgz:113627.got - 2010.06.03 13:09:07.
