data_PCOD9176906
_publ_section_title
;
Structure prediction by ZEFSAII (Michael W. Deem and Ramdas Pophale) SiO2 
 PCOD9176906
Probable space group: C 2/M
;
_chemical_formula_sum "Si O2"
_cell_formula_units_Z 64
_cell_length_a 25.264082
_cell_length_b 7.893667
_cell_length_c 14.883038
_cell_angle_alpha 90.000000
_cell_angle_beta 91.537176
_cell_angle_gamma 90.000000
_cell_volume 2967.000343
_symmetry_space_group_name_H-M "C 2/M"
_symmetry_group_IT_number 12
_symmetry_cell_setting 'monoclinic'
loop_
_space_group_symop_operation_xyz
x,y,z
-x,y,-z
-x,-y,-z
x,-y,z
1/2+x,1/2+y,z
1/2-x,1/2+y,-z
1/2-x,1/2-y,-z
1/2+x,1/2-y,z
loop_
_atom_site_type_symbol
_atom_site_label
_atom_site_fract_x
_atom_site_fract_y
_atom_site_fract_z
Si Si1 0.559574 0.292526 0.529497
Si Si2 0.530512 0.803970 0.228067
Si Si3 0.691945 0.803109 0.813705
Si Si4 0.329692 0.303965 0.994417
Si Si5 0.580045 0.302387 0.734137
Si Si6 0.886713 0.194245 0.640540
Si Si7 0.807665 0.208104 0.790795
Si Si8 0.058039 0.704623 0.033549
O O1 0.500000 0.238260 0.500000
O O2 0.559942 0.500000 0.526458
O O3 0.575185 0.241209 0.630779
O O4 0.601722 0.230738 0.456810
O O5 0.467596 0.787224 0.215050
O O6 0.555482 0.698864 0.309752
O O7 0.559201 0.749144 0.138475
O O8 0.542789 0.000000 0.245472
O O9 0.697198 0.784044 0.921959
O O10 0.638301 0.719309 0.776572
O O11 0.746708 0.741588 0.772903
O O12 0.686467 0.000000 0.792617
O O13 0.313962 0.500000 0.995085
O O14 0.321177 0.234292 0.893275
O O15 0.392742 0.287305 0.013162
O O16 0.566659 0.500000 0.734741
O O17 0.846395 0.268286 0.712894
O O18 0.869760 0.000000 0.626872
O O19 0.810946 0.000000 0.793425
O O20 0.061984 0.500000 0.025035
O O21 0.000000 0.756651 0.000000
#
# Coordination Sequence:
#
# PCOD9176906 Si02
#       8
#     8   8   8   8   8   8   8   8
#     4   9  17  32  59  89 113 145 186 233 288 337
#     4  11  21  33  53  84 118 151 183 227 288 339
#     4  11  23  40  57  80 116 155 191 234 294 341
#     4  11  21  36  59  87 110 143 198 241 276 329
#     4  11  22  38  59  85 114 149 195 238 281 340
#     4  10  18  36  61  84 112 147 190 234 276 336
#     4   9  20  37  60  85 112 151 196 238 280 333
#     4  10  21  35  50  74 114 156 186 222 282 342
#
# _framework density 21.570606999999999
#
# number of rings (size 3 to 8) (size 9 to 14) (size 15 to 20)
#    0.000    1.750    2.500    2.625    0.000    1.750 
#    0.000    5.625    0.000    0.000    0.000    0.000 
#    0.000    0.000    0.000    0.000    0.000    0.000 
#
# Total GULP energy -178714.115860 kJ/mol
# GULP energy per Si atom -5584.816121 kJ/mol
# Density = 2.152151 g / cm^3
# Si number density = 21.570607 Si / 1000 Ang^3
#
#
#
# Elastic Constant Matrix: (Units=GPa)
#
#
# Indices 1 2 3 4 5 6 
#
# 1 114.3424 -3.4652 34.8913 0.0000 -22.1434 0.0000
# 2 -3.4652 22.7476 2.5327 0.0000 -0.5557 0.0000
# 3 34.8913 2.5327 89.4526 0.0000 -18.6669 0.0000
# 4 0.0000 0.0000 0.0000 5.3420 0.0000 -1.6804
# 5 -22.1434 -0.5557 -18.6669 0.0000 30.5875 0.0000
# 6 0.0000 0.0000 0.0000 -1.6804 0.0000 16.3757
#
#
#
# Elastic Compliance Matrix: (Units=1/GPa)
#
#
# Indices 1 2 3 4 5 6 
#
# 1 0.010920 0.002152 -0.003051 0.000000 0.006082 0.000000
# 2 0.002152 0.044524 -0.001840 0.000000 0.001243 0.000000
# 3 -0.003051 -0.001840 0.013698 0.000000 0.006117 0.000000
# 4 0.000000 0.000000 0.000000 0.193439 0.000000 0.019849
# 5 0.006082 0.001243 0.006117 0.000000 0.040852 0.000000
# 6 0.000000 0.000000 0.000000 0.019849 0.000000 0.063103
#
#
# Mechanical properties :
#
#
# Convention : Reuss Voigt Hill
#
# Bulk Modulus (GPa) = 15.70796 32.71781 24.21288
# Shear Modulus (GPa) = 12.71503 23.29995 18.00749
#
# Velocity S-wave (km/s) = 2.43052 3.29016 2.89245
# Velocity P-wave (km/s) = 3.89544 5.44374 4.73332
#
# Compressibility (1/GPa) = 0.06366199
#
# Stress axis : x y z
#
# Youngs Moduli (GPa) = 91.57698 22.45992 73.00437
#
# Poissons Ratio (x) = -0.04833 0.22273
# Poissons Ratio (y) = -0.19705 0.13436
# Poissons Ratio (z) = 0.27940 0.04134
#
# Static dielectric constant tensor:
#      x y z
#    x 1.788060 0.000000 -0.000550 
#    y 0.000000 1.762190 0.000000 
#    z -0.000550 0.000000 1.803280 
# 
# From -- ./inp_files/238679.got.cif
#   From: 2010.05.17/outbox.cif.g08.bks.cpg/sg12_120_cif.got.tgz:238679.got - 2010.06.03 13:09:07.
