data_PCOD9176171
_publ_section_title
;
Structure prediction by ZEFSAII (Michael W. Deem and Ramdas Pophale) SiO2 
 PCOD9176171
Probable space group: C 2/M
;
_chemical_formula_sum "Si O2"
_cell_formula_units_Z 50
_cell_length_a 13.944853
_cell_length_b 28.939257
_cell_length_c 8.444196
_cell_angle_alpha 90.000000
_cell_angle_beta 48.492809
_cell_angle_gamma 90.000000
_cell_volume 2551.922818
_symmetry_space_group_name_H-M "C 2/M"
_symmetry_group_IT_number 12
_symmetry_cell_setting 'monoclinic'
loop_
_space_group_symop_operation_xyz
x,y,z
-x,y,-z
-x,-y,-z
x,-y,z
1/2+x,1/2+y,z
1/2-x,1/2+y,-z
1/2-x,1/2-y,-z
1/2+x,1/2-y,z
loop_
_atom_site_type_symbol
_atom_site_label
_atom_site_fract_x
_atom_site_fract_y
_atom_site_fract_z
Si Si1 0.816028 0.500000 0.316143
Si Si2 0.316386 0.577136 0.344324
Si Si3 0.535162 0.369415 0.278586
Si Si4 0.701417 0.096102 0.153895
Si Si5 0.113626 0.695142 0.251988
Si Si6 0.399554 0.277965 0.967302
Si Si7 0.101472 0.500000 0.132851
Si Si8 0.500000 0.500000 0.000000
O O1 0.745898 0.546542 0.449412
O O2 0.951883 0.500000 0.256172
O O3 0.830343 0.500000 0.112768
O O4 0.415137 0.613457 0.307385
O O5 0.220886 0.599062 0.322091
O O6 0.395243 0.539941 0.156968
O O7 0.500000 0.375931 0.500000
O O8 0.563919 0.316526 0.203391
O O9 0.660927 0.397886 0.084545
O O10 0.620948 0.141296 0.195526
O O11 0.641126 0.046763 0.178704
O O12 0.097251 0.728175 0.118608
O O13 0.000000 0.702514 0.500000
O O14 0.252821 0.709284 0.172079
O O15 0.500000 0.281283 0.000000
#
# Coordination Sequence:
#
# PCOD9176171 Si02
#       8
#     4   8   8   8   8   8   4   2
#     4  10  25  40  58  85 124 164 212 259 309 368
#     4  11  21  38  61  93 119 161 213 255 311 371
#     4  11  21  37  65  96 125 159 202 261 324 372
#     4  11  23  39  64  88 126 168 208 260 308 376
#     4  10  23  42  64  97 129 161 214 261 314 384
#     4  10  22  44  67  95 129 166 207 263 321 381
#     4  11  24  44  56  83 129 169 209 258 308 368
#     4  10  18  34  56  88 122 146 208 256 296 358
#
# _framework density 19.593069
#
# number of rings (size 3 to 8) (size 9 to 14) (size 15 to 20)
#    0.000    1.440    1.600    4.320    2.240    1.280 
#    2.880    6.800    0.000    0.000    0.000    0.000 
#    0.000    0.000    0.000    0.000    0.000    0.000 
#
# Total GULP energy -139386.247767 kJ/mol
# GULP energy per Si atom -5575.449911 kJ/mol
# Density = 1.954847 g / cm^3
# Si number density = 19.593069 Si / 1000 Ang^3
#
#
#
# Elastic Constant Matrix: (Units=GPa)
#
#
# Indices 1 2 3 4 5 6 
#
# 1 31.7128 22.3424 37.1480 0.0000 34.3701 0.0000
# 2 22.3424 133.3670 20.5670 0.0000 3.8727 0.0000
# 3 37.1480 20.5670 51.6194 0.0000 -37.0936 0.0000
# 4 0.0000 0.0000 0.0000 19.6086 0.0000 7.6417
# 5 34.3701 3.8727 -37.0936 0.0000 -6.9547 0.0000
# 6 0.0000 0.0000 0.0000 7.6417 0.0000 29.5959
#
#
#
# Elastic Compliance Matrix: (Units=1/GPa)
#
#
# Indices 1 2 3 4 5 6 
#
# 1 0.009684 -0.002960 0.005673 0.000000 0.015952 0.000000
# 2 -0.002960 0.008284 -0.001732 0.000000 -0.000782 0.000000
# 3 0.005673 -0.001732 0.007332 0.000000 -0.012034 0.000000
# 4 0.000000 0.000000 0.000000 0.056704 0.000000 -0.014641
# 5 0.015952 -0.000782 -0.012034 0.000000 -0.001204 0.000000
# 6 0.000000 0.000000 0.000000 -0.014641 0.000000 0.037569
#
#
# Mechanical properties :
#
#
# Convention : Reuss Voigt Hill
#
# Bulk Modulus (GPa) = 36.68024 41.86820 39.27422
# Shear Modulus (GPa) = 39.84253 17.55941 28.70097
#
# Velocity S-wave (km/s) = 4.51433 2.99692 3.83149
# Velocity P-wave (km/s) = 6.77745 5.77846 6.29780
#
# Compressibility (1/GPa) = 0.02726264
#
# Stress axis : x y z
#
# Youngs Moduli (GPa) = 103.25955 120.71733 136.38408
#
# Poissons Ratio (x) = 0.35738 -0.77375
# Poissons Ratio (y) = 0.30570 0.23618
# Poissons Ratio (z) = -0.58583 0.20905
#
# Static dielectric constant tensor:
#      x y z
#    x 1.698870 0.000000 -0.010730 
#    y 0.000000 1.682120 0.000000 
#    z -0.010730 0.000000 1.681860 
# 
# From -- ./inp_files/66829.got.cif
#   From: 2010.05.17/outbox.cif.g08.bks.cpg/sg12_34_cif.got.tgz:66829.got - 2010.06.03 13:09:07.
