data_PCOD9176942
_publ_section_title
;
Structure prediction by ZEFSAII (Michael W. Deem and Ramdas Pophale) SiO2 
 PCOD9176942
Probable space group: C 2/M
;
_chemical_formula_sum "Si O2"
_cell_formula_units_Z 56
_cell_length_a 7.559157
_cell_length_b 34.515784
_cell_length_c 13.498828
_cell_angle_alpha 90.000000
_cell_angle_beta 129.403980
_cell_angle_gamma 90.000000
_cell_volume 2721.398691
_symmetry_space_group_name_H-M "C 2/M"
_symmetry_group_IT_number 12
_symmetry_cell_setting 'monoclinic'
loop_
_space_group_symop_operation_xyz
x,y,z
-x,y,-z
-x,-y,-z
x,-y,z
1/2+x,1/2+y,z
1/2-x,1/2+y,-z
1/2-x,1/2-y,-z
1/2+x,1/2-y,z
loop_
_atom_site_type_symbol
_atom_site_label
_atom_site_fract_x
_atom_site_fract_y
_atom_site_fract_z
Si Si1 0.626403 0.000000 0.653554
Si Si2 0.997472 0.869536 0.233078
Si Si3 0.605005 0.500000 0.924997
Si Si4 0.654176 0.794298 0.347872
Si Si5 0.368205 0.874940 0.731301
Si Si6 0.541727 0.083350 0.630052
Si Si7 0.275690 0.584967 0.990267
Si Si8 0.098295 0.792873 0.366747
O O1 0.500000 0.000000 0.500000
O O2 0.551875 0.959937 0.676208
O O3 0.902784 0.000000 0.769333
O O4 0.863281 0.876877 0.288357
O O5 0.813666 0.881558 0.085350
O O6 0.213123 0.895737 0.280223
O O7 0.083875 0.825724 0.278540
O O8 0.734424 0.541539 0.966852
O O9 0.500000 0.500000 0.000000
O O10 0.533982 0.831545 0.255625
O O11 0.692251 0.798426 0.480623
O O12 0.580480 0.749734 0.313509
O O13 0.887620 0.795977 0.367745
O O14 0.346886 0.892361 0.614305
O O15 0.556035 0.901922 0.850383
O O16 0.500000 0.080333 0.500000
O O17 0.500000 0.585179 0.000000
#
# Coordination Sequence:
#
# PCOD9176942 Si02
#       8
#     4   8   4   8   8   8   8   8
#     4  10  20  38  60  91 125 160 206 257 314 373
#     4  11  22  39  60  88 124 156 206 251 307 363
#     4  10  18  36  63  88 120 158 208 262 306 371
#     4   9  19  35  55  85 120 151 200 246 305 359
#     4  11  23  39  59  89 123 159 204 257 304 364
#     4  11  22  38  63  87 120 164 199 248 313 371
#     4  11  21  39  63  86 116 160 208 253 308 363
#     4   9  19  34  57  85 117 157 193 251 300 370
#
# _framework density 20.577653000000002
#
# number of rings (size 3 to 8) (size 9 to 14) (size 15 to 20)
#    0.000    1.714    2.857    2.143    2.000    1.714 
#    0.000    4.286    0.000    2.571    0.000    0.000 
#    0.000    0.000    0.000    0.000    0.000    0.000 
#
# Total GULP energy -155880.966195 kJ/mol
# GULP energy per Si atom -5567.177364 kJ/mol
# Density = 2.053082 g / cm^3
# Si number density = 20.577653 Si / 1000 Ang^3
#
#
#
# Elastic Constant Matrix: (Units=GPa)
#
#
# Indices 1 2 3 4 5 6 
#
# 1 68.4152 12.1356 -0.7776 0.0000 -14.3135 0.0000
# 2 12.1356 152.9836 51.9310 0.0000 -9.6190 0.0000
# 3 -0.7776 51.9310 66.6234 0.0000 -1.5635 0.0000
# 4 0.0000 0.0000 0.0000 29.1477 0.0000 4.2861
# 5 -14.3135 -9.6190 -1.5635 0.0000 23.2835 0.0000
# 6 0.0000 0.0000 0.0000 4.2861 0.0000 21.7431
#
#
#
# Elastic Compliance Matrix: (Units=1/GPa)
#
#
# Indices 1 2 3 4 5 6 
#
# 1 0.016935 -0.001170 0.001345 0.000000 0.010018 0.000000
# 2 -0.001170 0.009216 -0.007136 0.000000 0.002609 0.000000
# 3 0.001345 -0.007136 0.020570 0.000000 -0.000740 0.000000
# 4 0.000000 0.000000 0.000000 0.035332 0.000000 -0.006965
# 5 0.010018 0.002609 -0.000740 0.000000 0.050135 0.000000
# 6 0.000000 0.000000 0.000000 -0.006965 0.000000 0.047364
#
#
# Mechanical properties :
#
#
# Convention : Reuss Voigt Hill
#
# Bulk Modulus (GPa) = 30.48859 46.06670 38.27764
# Shear Modulus (GPa) = 24.46077 29.81709 27.13893
#
# Velocity S-wave (km/s) = 3.45150 3.81071 3.63554
# Velocity P-wave (km/s) = 5.54368 6.46509 6.02203
#
# Compressibility (1/GPa) = 0.03279916
#
# Stress axis : x y z
#
# Youngs Moduli (GPa) = 59.04798 108.50924 48.61380
#
# Poissons Ratio (x) = 0.12696 -0.06537
# Poissons Ratio (y) = 0.06909 0.34690
# Poissons Ratio (z) = -0.07940 0.77431
#
# Static dielectric constant tensor:
#      x y z
#    x 1.684380 0.000000 -0.197050 
#    y 0.000000 1.787020 0.000000 
#    z -0.197050 0.000000 1.144340 
# 
# From -- ./inp_files/201015.got.cif
#   From: 2010.05.17/outbox.cif.g08.bks.cpg/sg12_101_cif.got.tgz:201015.got - 2010.06.03 13:09:07.
