data_PCOD9176702
_publ_section_title
;
Structure prediction by ZEFSAII (Michael W. Deem and Ramdas Pophale) SiO2 
 PCOD9176702
Probable space group: C 2/M
;
_chemical_formula_sum "Si O2"
_cell_formula_units_Z 58
_cell_length_a 31.407823
_cell_length_b 8.870059
_cell_length_c 11.899762
_cell_angle_alpha 90.000000
_cell_angle_beta 85.722692
_cell_angle_gamma 90.000000
_cell_volume 3305.912181
_symmetry_space_group_name_H-M "C 2/M"
_symmetry_group_IT_number 12
_symmetry_cell_setting 'monoclinic'
loop_
_space_group_symop_operation_xyz
x,y,z
-x,y,-z
-x,-y,-z
x,-y,z
1/2+x,1/2+y,z
1/2-x,1/2+y,-z
1/2-x,1/2-y,-z
1/2+x,1/2-y,z
loop_
_atom_site_type_symbol
_atom_site_label
_atom_site_fract_x
_atom_site_fract_y
_atom_site_fract_z
Si Si1 0.273968 0.681332 0.160237
Si Si2 0.465654 0.680536 0.408017
Si Si3 0.212775 0.182578 0.583926
Si Si4 0.000000 0.500000 0.000000
Si Si5 0.977632 0.334417 0.779942
Si Si6 0.387222 0.680315 0.772314
Si Si7 0.125905 0.183359 0.479990
Si Si8 0.815541 0.680091 0.938967
O O1 0.278179 0.500000 0.152323
O O2 0.281757 0.727722 0.287005
O O3 0.226096 0.720564 0.128261
O O4 0.305892 0.755392 0.064377
O O5 0.500000 0.708606 0.500000
O O6 0.464371 0.500000 0.390484
O O7 0.483322 0.761370 0.294547
O O8 0.418927 0.731806 0.456935
O O9 0.250000 0.250000 0.500000
O O10 0.167166 0.230627 0.542215
O O11 0.215033 0.000000 0.579149
O O12 0.010692 0.371223 0.094273
O O13 0.967825 0.500000 0.730332
O O14 0.935891 0.232315 0.777012
O O15 0.384454 0.500000 0.778845
O O16 0.372067 0.729827 0.650724
O O17 0.357088 0.752478 0.872184
O O18 0.125196 0.000000 0.479981
O O19 0.818695 0.500000 0.943145
#
# Coordination Sequence:
#
# PCOD9176702 Si02
#       8
#     8   8   8   2   8   8   8   8
#     4   9  19  36  54  76 111 152 194 234 279 343
#     4  10  18  35  61  88 117 147 190 241 288 346
#     4  10  20  36  56  80 115 150 184 229 286 339
#     4   8  24  44  56  76 120 152 186 234 284 352
#     4  10  21  40  59  79 116 152 186 234 290 338
#     4  11  20  35  59  85 109 144 188 235 285 345
#     4   9  19  34  55  85 115 143 182 232 284 342
#     4  10  20  34  54  81 110 147 192 242 285 329
#
# _framework density 17.544326000000002
#
# number of rings (size 3 to 8) (size 9 to 14) (size 15 to 20)
#    0.414    1.793    1.379    2.069    0.000    1.379 
#    2.483    2.759    0.000    0.000    0.000    0.000 
#    0.000    0.000    0.000    0.000    0.000    0.000 
#
# Total GULP energy -161468.595916 kJ/mol
# GULP energy per Si atom -5567.882618 kJ/mol
# Density = 1.750439 g / cm^3
# Si number density = 17.544326 Si / 1000 Ang^3
#
#
#
# Elastic Constant Matrix: (Units=GPa)
#
#
# Indices 1 2 3 4 5 6 
#
# 1 110.5678 22.0800 68.3252 0.0000 -19.4754 0.0000
# 2 22.0800 24.5979 33.1013 0.0000 -4.2116 0.0000
# 3 68.3252 33.1013 152.4847 0.0000 -1.3915 0.0000
# 4 0.0000 0.0000 0.0000 25.1661 0.0000 1.6090
# 5 -19.4754 -4.2116 -1.3915 0.0000 31.0336 0.0000
# 6 0.0000 0.0000 0.0000 1.6090 0.0000 18.1782
#
#
#
# Elastic Compliance Matrix: (Units=1/GPa)
#
#
# Indices 1 2 3 4 5 6 
#
# 1 0.014905 -0.004292 -0.005669 0.000000 0.008517 0.000000
# 2 -0.004292 0.060339 -0.011130 0.000000 0.004996 0.000000
# 3 -0.005669 -0.011130 0.011473 0.000000 -0.004554 0.000000
# 4 0.000000 0.000000 0.000000 0.039962 0.000000 -0.003537
# 5 0.008517 0.004996 -0.004554 0.000000 0.038042 0.000000
# 6 0.000000 0.000000 0.000000 -0.003537 0.000000 0.055324
#
#
# Mechanical properties :
#
#
# Convention : Reuss Voigt Hill
#
# Bulk Modulus (GPa) = 22.45421 59.40707 40.93064
# Shear Modulus (GPa) = 18.04594 25.81851 21.93223
#
# Velocity S-wave (km/s) = 3.21065 3.84033 3.53952
# Velocity P-wave (km/s) = 5.15467 7.32112 6.33125
#
# Compressibility (1/GPa) = 0.04453508
#
# Stress axis : x y z
#
# Youngs Moduli (GPa) = 67.09318 16.57304 87.16355
#
# Poissons Ratio (x) = 0.07113 0.49414
# Poissons Ratio (y) = 0.28796 0.97010
# Poissons Ratio (z) = 0.38036 0.18445
#
# Static dielectric constant tensor:
#      x y z
#    x 1.581520 0.000000 0.006440 
#    y 0.000000 1.590650 0.000000 
#    z 0.006440 0.000000 1.578580 
# 
# From -- ./inp_files/186612.got.cif
#   From: 2010.05.17/outbox.cif.g08.bks.cpg/sg12_94_cif.got.tgz:186612.got - 2010.06.03 13:09:07.
