data_PCOD9176994
_publ_section_title
;
Structure prediction by ZEFSAII (Michael W. Deem and Ramdas Pophale) SiO2 
 PCOD9176994
Probable space group: C 2/M
;
_chemical_formula_sum "Si O2"
_cell_formula_units_Z 52
_cell_length_a 23.910266
_cell_length_b 11.663815
_cell_length_c 15.805429
_cell_angle_alpha 90.000000
_cell_angle_beta 145.457360
_cell_angle_gamma 90.000000
_cell_volume 2499.362433
_symmetry_space_group_name_H-M "C 2/M"
_symmetry_group_IT_number 12
_symmetry_cell_setting 'monoclinic'
loop_
_space_group_symop_operation_xyz
x,y,z
-x,y,-z
-x,-y,-z
x,-y,z
1/2+x,1/2+y,z
1/2-x,1/2+y,-z
1/2-x,1/2-y,-z
1/2+x,1/2-y,z
loop_
_atom_site_type_symbol
_atom_site_label
_atom_site_fract_x
_atom_site_fract_y
_atom_site_fract_z
Si Si1 0.581575 0.000000 0.675620
Si Si2 0.885896 0.730941 0.365504
Si Si3 0.495144 0.365530 0.179963
Si Si4 0.582110 0.000000 0.031865
Si Si5 0.473036 0.000000 0.719638
Si Si6 0.826281 0.268183 0.897741
Si Si7 0.860685 0.276742 0.535075
Si Si8 0.839325 0.134241 0.746739
O O1 0.500000 0.000000 0.500000
O O2 0.632051 0.881054 0.715340
O O3 0.536614 0.000000 0.712542
O O4 0.786358 0.798736 0.218636
O O5 0.877909 0.707172 0.455930
O O6 0.000000 0.771697 0.500000
O O7 0.468316 0.500000 0.154371
O O8 0.576503 0.329566 0.351644
O O9 0.555765 0.348831 0.167549
O O10 0.402271 0.278319 0.063487
O O11 0.638617 0.880784 0.107543
O O12 0.500000 0.000000 0.000000
O O13 0.539690 0.000000 0.884513
O O14 0.406462 0.112553 0.636669
O O15 0.833670 0.165544 0.838212
O O16 0.743057 0.284202 0.398191
O O17 0.813302 0.000000 0.702953
#
# Coordination Sequence:
#
# PCOD9176994 Si02
#       8
#     4   8   8   4   4   8   8   8
#     4  10  18  36  68  99 116 155 218 285 320 353
#     4  10  21  40  66  93 125 157 214 276 330 372
#     4  11  23  39  55  89 132 167 212 265 329 385
#     4  12  26  46  63  95 139 180 215 254 318 405
#     4  12  20  38  70  94 125 164 227 266 309 382
#     4  11  24  39  66  89 126 171 217 262 332 385
#     4  11  20  37  62  93 124 161 215 269 318 384
#     4  10  21  37  61  89 123 168 221 269 317 381
#
# _framework density 20.805306999999999
#
# number of rings (size 3 to 8) (size 9 to 14) (size 15 to 20)
#    0.000    1.231    5.385    2.308    4.308    1.231 
#    5.538    3.462    0.000    0.000    0.000    0.000 
#    0.000    0.000    0.000    0.000    0.000    0.000 
#
# Total GULP energy -144892.995373 kJ/mol
# GULP energy per Si atom -5572.807514 kJ/mol
# Density = 2.075795 g / cm^3
# Si number density = 20.805307 Si / 1000 Ang^3
#
#
#
# Elastic Constant Matrix: (Units=GPa)
#
#
# Indices 1 2 3 4 5 6 
#
# 1 59.1056 11.3648 25.5624 0.0000 11.4973 0.0000
# 2 11.3648 72.1265 17.2239 0.0000 22.8012 0.0000
# 3 25.5624 17.2239 92.2584 0.0000 24.0564 0.0000
# 4 0.0000 0.0000 0.0000 22.6061 0.0000 3.6543
# 5 11.4973 22.8012 24.0564 0.0000 41.4002 0.0000
# 6 0.0000 0.0000 0.0000 3.6543 0.0000 21.6238
#
#
#
# Elastic Compliance Matrix: (Units=1/GPa)
#
#
# Indices 1 2 3 4 5 6 
#
# 1 0.019578 -0.001343 -0.004654 0.000000 -0.001993 0.000000
# 2 -0.001343 0.016937 -0.000536 0.000000 -0.008643 0.000000
# 3 -0.004654 -0.000536 0.013924 0.000000 -0.006503 0.000000
# 4 0.000000 0.000000 0.000000 0.045478 0.000000 -0.007686
# 5 -0.001993 -0.008643 -0.006503 0.000000 0.033247 0.000000
# 6 0.000000 0.000000 0.000000 -0.007686 0.000000 0.047544
#
#
# Mechanical properties :
#
#
# Convention : Reuss Voigt Hill
#
# Bulk Modulus (GPa) = 26.75815 36.86586 31.81201
# Shear Modulus (GPa) = 24.72404 28.41532 26.56968
#
# Velocity S-wave (km/s) = 3.45099 3.69965 3.57748
# Velocity P-wave (km/s) = 5.36360 6.00065 5.69105
#
# Compressibility (1/GPa) = 0.03737179
#
# Stress axis : x y z
#
# Youngs Moduli (GPa) = 51.07873 59.04372 71.81603
#
# Poissons Ratio (x) = 0.07932 0.33423
# Poissons Ratio (y) = 0.06862 0.03849
# Poissons Ratio (z) = 0.23772 0.03164
#
# Static dielectric constant tensor:
#      x y z
#    x 1.746800 0.000000 0.023430 
#    y 0.000000 1.776500 0.000000 
#    z 0.023430 0.000000 1.804710 
# 
# From -- ./inp_files/293186.got.cif
#   From: 2010.05.17/outbox.cif.g08.bks.cpg/sg12_147_cif.got.tgz:293186.got - 2010.06.03 13:09:07.
