data_PCOD9176519
_publ_section_title
;
Structure prediction by ZEFSAII (Michael W. Deem and Ramdas Pophale) SiO2 
 PCOD9176519
Probable space group: C 2/M
;
_chemical_formula_sum "Si O2"
_cell_formula_units_Z 56
_cell_length_a 20.433005
_cell_length_b 27.261602
_cell_length_c 17.206463
_cell_angle_alpha 90.000000
_cell_angle_beta 19.484862
_cell_angle_gamma 90.000000
_cell_volume 3197.027063
_symmetry_space_group_name_H-M "C 2/M"
_symmetry_group_IT_number 12
_symmetry_cell_setting 'monoclinic'
loop_
_space_group_symop_operation_xyz
x,y,z
-x,y,-z
-x,-y,-z
x,-y,z
1/2+x,1/2+y,z
1/2-x,1/2+y,-z
1/2-x,1/2-y,-z
1/2+x,1/2-y,z
loop_
_atom_site_type_symbol
_atom_site_label
_atom_site_fract_x
_atom_site_fract_y
_atom_site_fract_z
Si Si1 0.577511 0.058274 0.331525
Si Si2 0.123325 0.441612 0.606495
Si Si3 0.313562 0.863873 0.986360
Si Si4 0.472692 0.225750 0.332656
Si Si5 0.469701 0.283039 0.171577
Si Si6 0.961747 0.889397 0.839586
Si Si7 0.317219 0.280302 0.762037
O O1 0.500000 0.078535 0.500000
O O2 0.428180 0.066094 0.427260
O O3 0.602068 0.000000 0.312212
O O4 0.785920 0.080176 0.074722
O O5 0.117907 0.500000 0.627734
O O6 0.334107 0.418413 0.389219
O O7 0.951866 0.411107 0.841918
O O8 0.435690 0.826416 0.793953
O O9 0.117309 0.877109 0.158442
O O10 0.263153 0.832912 0.119438
O O11 0.467247 0.256968 0.259380
O O12 0.251622 0.220763 0.610832
O O13 0.602549 0.253166 0.250425
O O14 0.516605 0.339352 0.136243
O O15 0.635499 0.253717 0.938802
O O16 0.500000 0.284180 0.500000
#
# Coordination Sequence:
#
# PCOD9176519 Si02
#       7
#     8   8   8   8   8   8   8
#     4   9  20  36  50  70 105 140 172 218 269 313
#     4  10  21  35  55  82 104 135 188 232 262 308
#     4  10  19  36  58  76 105 144 179 218 269 315
#     4  10  18  35  54  78 102 143 177 209 257 318
#     4  10  19  32  55  74 106 141 175 207 258 312
#     4  11  18  32  55  78  98 142 181 220 256 310
#     4  11  22  35  53  82 114 139 173 220 265 321
#
# _framework density 17.516273000000002
#
# number of rings (size 3 to 8) (size 9 to 14) (size 15 to 20)
#    0.000    1.857    4.286    1.286    0.000    2.286 
#    0.000    3.571    0.000    0.429    0.000    1.000 
#    0.000    0.000    0.000    0.000    0.000    0.000 
#
# Total GULP energy -156206.777922 kJ/mol
# GULP energy per Si atom -5578.813497 kJ/mol
# Density = 1.747641 g / cm^3
# Si number density = 17.516273 Si / 1000 Ang^3
#
#
#
# Elastic Constant Matrix: (Units=GPa)
#
#
# Indices 1 2 3 4 5 6 
#
# 1 20.9583 24.5907 30.1491 -0.0001 -10.8750 -0.0058
# 2 24.5907 103.6268 50.7943 -0.0136 -9.2879 -0.0061
# 3 30.1491 50.7943 124.2389 -0.0195 -17.4024 -0.0206
# 4 -0.0001 -0.0136 -0.0195 26.6264 -0.0059 -10.0133
# 5 -10.8750 -9.2879 -17.4024 -0.0059 34.6760 -0.0087
# 6 -0.0058 -0.0061 -0.0206 -10.0133 -0.0087 17.0831
#
#
#
# Elastic Compliance Matrix: (Units=1/GPa)
#
#
# Indices 1 2 3 4 5 6 
#
# 1 0.094505 -0.013501 -0.014810 -0.000008 0.018590 0.000014
# 2 -0.013501 0.014019 -0.002713 0.000004 -0.001841 -0.000001
# 3 -0.014810 -0.002713 0.012907 0.000015 0.001106 0.000019
# 4 -0.000008 0.000004 0.000015 0.048177 0.000022 0.028239
# 5 0.018590 -0.001841 0.001106 0.000022 0.034731 0.000037
# 6 0.000014 -0.000001 0.000019 0.028239 0.000037 0.075090
#
#
# Mechanical properties :
#
#
# Convention : Reuss Voigt Hill
#
# Bulk Modulus (GPa) = 16.83971 51.09913 33.96942
# Shear Modulus (GPa) = 13.84008 25.22974 19.53491
#
# Velocity S-wave (km/s) = 2.81397 3.79933 3.34315
# Velocity P-wave (km/s) = 4.49361 6.96292 5.85981
#
# Compressibility (1/GPa) = 0.05938345
#
# Stress axis : x y z
#
# Youngs Moduli (GPa) = 10.58146 71.33404 77.47658
#
# Poissons Ratio (x) = 0.96305 1.14743
# Poissons Ratio (y) = 0.14286 0.21020
# Poissons Ratio (z) = 0.15671 0.19353
#
# Static dielectric constant tensor:
#      x y z
#    x 1.601530 -0.000010 -0.008120 
#    y -0.000010 1.604960 0.000030 
#    z -0.008120 0.000030 1.612630 
# 
# From -- ./inp_files/286308.got.cif
#   From: 2010.05.17/outbox.cif.g08.bks.cpg/sg12_144_cif.got.tgz:286308.got - 2010.06.03 13:09:07.
