data_PCOD9176646
_publ_section_title
;
Structure prediction by ZEFSAII (Michael W. Deem and Ramdas Pophale) SiO2 
 PCOD9176646
Probable space group: C 2/M
;
_chemical_formula_sum "Si O2"
_cell_formula_units_Z 64
_cell_length_a 21.035873
_cell_length_b 8.141216
_cell_length_c 19.532887
_cell_angle_alpha 90.000000
_cell_angle_beta 90.587783
_cell_angle_gamma 90.000000
_cell_volume 3344.979048
_symmetry_space_group_name_H-M "C 2/M"
_symmetry_group_IT_number 12
_symmetry_cell_setting 'monoclinic'
loop_
_space_group_symop_operation_xyz
x,y,z
-x,y,-z
-x,-y,-z
x,-y,z
1/2+x,1/2+y,z
1/2-x,1/2+y,-z
1/2-x,1/2-y,-z
1/2+x,1/2-y,z
loop_
_atom_site_type_symbol
_atom_site_label
_atom_site_fract_x
_atom_site_fract_y
_atom_site_fract_z
Si Si1 0.512229 0.693067 0.346830
Si Si2 0.698089 0.196533 0.944239
Si Si3 0.447586 0.200587 0.053797
Si Si4 0.133198 0.692610 0.422958
Si Si5 0.611345 0.695180 0.574920
Si Si6 0.953050 0.305979 0.209152
Si Si7 0.308630 0.696198 0.208193
Si Si8 0.760026 0.200816 0.350775
O O1 0.520713 0.500000 0.361726
O O2 0.576259 0.782292 0.369186
O O3 0.453052 0.759625 0.391313
O O4 0.492615 0.716865 0.268063
O O5 0.625554 0.253455 0.959902
O O6 0.713932 0.258059 0.867931
O O7 0.696400 0.000000 0.942116
O O8 0.750000 0.250000 0.000000
O O9 0.465459 0.249593 0.131416
O O10 0.447204 0.000000 0.052568
O O11 0.500000 0.256854 0.000000
O O12 0.141709 0.500000 0.437145
O O13 0.115107 0.774657 0.494452
O O14 0.198313 0.759010 0.390873
O O15 0.610443 0.500000 0.587745
O O16 0.675289 0.758227 0.611880
O O17 0.965636 0.500000 0.213959
O O18 0.878045 0.274918 0.219719
O O19 0.316825 0.500000 0.211828
O O20 0.264056 0.746981 0.270920
O O21 0.758668 0.000000 0.353070
#
# Coordination Sequence:
#
# PCOD9176646 Si02
#       8
#     8   8   8   8   8   8   8   8
#     4  11  22  38  58  78 109 150 186 221 273 334
#     4  10  20  35  56  84 114 145 184 229 273 323
#     4   8  16  33  56  81 108 140 179 218 264 322
#     4  11  23  37  54  82 114 140 178 233 281 323
#     4  10  20  38  60  79 103 144 189 222 268 338
#     4  10  19  33  57  86 111 139 184 234 270 316
#     4  10  18  35  60  82 108 148 189 224 268 330
#     4   9  19  37  58  80 108 145 185 222 273 334
#
# _framework density 19.133154999999999
#
# number of rings (size 3 to 8) (size 9 to 14) (size 15 to 20)
#    0.000    2.125    1.250    3.375    0.000    2.500 
#    2.250    3.125    0.000   12.750    0.000    0.000 
#    0.000    0.000    0.000    0.000    0.000    0.000 
#
# Total GULP energy -178619.817856 kJ/mol
# GULP energy per Si atom -5581.869308 kJ/mol
# Density = 1.908961 g / cm^3
# Si number density = 19.133155 Si / 1000 Ang^3
#
#
#
# Elastic Constant Matrix: (Units=GPa)
#
#
# Indices 1 2 3 4 5 6 
#
# 1 38.5859 -1.7182 10.2693 0.0000 -0.9895 0.0000
# 2 -1.7182 11.5805 -9.5716 0.0000 -7.1671 0.0000
# 3 10.2693 -9.5716 80.1438 0.0000 0.3205 0.0000
# 4 0.0000 0.0000 0.0000 28.3859 0.0000 6.2296
# 5 -0.9895 -7.1671 0.3205 0.0000 31.6214 0.0000
# 6 0.0000 0.0000 0.0000 6.2296 0.0000 20.7098
#
#
#
# Elastic Compliance Matrix: (Units=1/GPa)
#
#
# Indices 1 2 3 4 5 6 
#
# 1 0.026898 0.002206 -0.003189 0.000000 0.001374 0.000000
# 2 0.002206 0.113429 0.013162 0.000000 0.025645 0.000000
# 3 -0.003189 0.013162 0.014447 0.000000 0.002737 0.000000
# 4 0.000000 0.000000 0.000000 0.037719 0.000000 -0.011346
# 5 0.001374 0.025645 0.002737 0.000000 0.037452 0.000000
# 6 0.000000 0.000000 0.000000 -0.011346 0.000000 0.051699
#
#
# Mechanical properties :
#
#
# Convention : Reuss Voigt Hill
#
# Bulk Modulus (GPa) = 5.58248 14.25213 9.91731
# Shear Modulus (GPa) = 15.77301 24.89881 20.33591
#
# Velocity S-wave (km/s) = 2.87432 3.61133 3.26369
# Velocity P-wave (km/s) = 3.73358 4.98538 4.40418
#
# Compressibility (1/GPa) = 0.17913174
#
# Stress axis : x y z
#
# Youngs Moduli (GPa) = 37.17709 8.81610 69.21799
#
# Poissons Ratio (x) = -0.01945 0.22072
# Poissons Ratio (y) = -0.08200 -0.91102
# Poissons Ratio (z) = 0.11855 -0.11603
#
# Static dielectric constant tensor:
#      x y z
#    x 1.677130 0.000000 -0.002720 
#    y 0.000000 1.689360 0.000000 
#    z -0.002720 0.000000 1.659650 
# 
# From -- ./inp_files/314035.got.cif
#   From: 2010.05.17/outbox.cif.g08.bks.cpg/sg12_158_cif.got.tgz:314035.got - 2010.06.03 13:09:07.
