data_PCOD9176469
_publ_section_title
;
Structure prediction by ZEFSAII (Michael W. Deem and Ramdas Pophale) SiO2 
 PCOD9176469
Probable space group: C 2/M
;
_chemical_formula_sum "Si O2"
_cell_formula_units_Z 64
_cell_length_a 9.448784
_cell_length_b 17.136236
_cell_length_c 30.148281
_cell_angle_alpha 90.000000
_cell_angle_beta 42.125286
_cell_angle_gamma 90.000000
_cell_volume 3274.290326
_symmetry_space_group_name_H-M "C 2/M"
_symmetry_group_IT_number 12
_symmetry_cell_setting 'monoclinic'
loop_
_space_group_symop_operation_xyz
x,y,z
-x,y,-z
-x,-y,-z
x,-y,z
1/2+x,1/2+y,z
1/2-x,1/2+y,-z
1/2-x,1/2-y,-z
1/2+x,1/2-y,z
loop_
_atom_site_type_symbol
_atom_site_label
_atom_site_fract_x
_atom_site_fract_y
_atom_site_fract_z
Si Si1 0.712379 0.676108 0.476816
Si Si2 0.842197 0.338795 0.936289
Si Si3 0.634145 0.593787 0.808220
Si Si4 0.053828 0.177463 0.917648
Si Si5 0.472326 0.589936 0.313273
Si Si6 0.276610 0.408611 0.824349
Si Si7 0.433334 0.910198 0.657481
Si Si8 0.760784 0.591925 0.550368
O O1 0.500000 0.688415 0.500000
O O2 0.750000 0.750000 0.500000
O O3 0.690841 0.605709 0.516864
O O4 0.897674 0.650758 0.400289
O O5 0.725209 0.320587 0.917121
O O6 0.965832 0.262676 0.925407
O O7 0.029670 0.399800 0.887804
O O8 0.656511 0.363091 0.013160
O O9 0.624935 0.500000 0.816969
O O10 0.640741 0.635886 0.853748
O O11 0.422793 0.620744 0.830682
O O12 0.828699 0.608753 0.729382
O O13 0.538554 0.500000 0.307339
O O14 0.647058 0.626860 0.240439
O O15 0.260955 0.588628 0.332334
O O16 0.400531 0.627197 0.376240
O O17 0.332596 0.500000 0.808893
O O18 0.515373 0.000000 0.639904
O O19 0.772576 0.500000 0.557577
O O20 0.000000 0.622307 0.500000
#
# Coordination Sequence:
#
# PCOD9176469 Si02
#       8
#     8   8   8   8   8   8   8   8
#     4  12  26  41  55  81 117 150 190 239 285 335
#     4  10  21  37  58  81 115 150 193 239 277 336
#     4   9  19  37  61  87 116 149 187 230 284 342
#     4  10  21  38  57  82 111 153 195 233 283 336
#     4   8  15  31  59  87 108 138 182 225 272 334
#     4   9  18  34  56  86 117 147 183 230 279 331
#     4   9  18  38  64  85 111 148 188 235 284 339
#     4  10  18  34  63  87 107 146 189 228 278 338
#
# _framework density 19.546220000000002
#
# number of rings (size 3 to 8) (size 9 to 14) (size 15 to 20)
#    0.000    2.375    1.250    3.000    0.000    3.500 
#    4.500    2.500    0.000    0.000    0.000    0.000 
#    0.000    0.000    0.000    0.000    0.000    0.000 
#
# Total GULP energy -178327.577387 kJ/mol
# GULP energy per Si atom -5572.736793 kJ/mol
# Density = 1.950173 g / cm^3
# Si number density = 19.546220 Si / 1000 Ang^3
#
#
#
# Elastic Constant Matrix: (Units=GPa)
#
#
# Indices 1 2 3 4 5 6 
#
# 1 73.9011 4.9909 36.1296 -0.0040 8.8166 0.0025
# 2 4.9909 22.5429 25.4988 -0.0007 -0.9710 0.0005
# 3 36.1296 25.4988 97.7102 -0.0063 16.9525 0.0038
# 4 -0.0040 -0.0007 -0.0063 5.7909 0.0016 14.5790
# 5 8.8166 -0.9710 16.9525 0.0016 33.0633 -0.0010
# 6 0.0025 0.0005 0.0038 14.5790 -0.0010 15.1663
#
#
#
# Elastic Compliance Matrix: (Units=1/GPa)
#
#
# Indices 1 2 3 4 5 6 
#
# 1 0.016874 0.004502 -0.007306 -0.000005 -0.000621 0.000004
# 2 0.004502 0.068214 -0.021520 0.000017 0.011837 -0.000013
# 3 -0.007306 -0.021520 0.020113 -0.000019 -0.008996 0.000014
# 4 -0.000005 0.000017 -0.000019 -0.121602 0.000021 0.116893
# 5 -0.000621 0.011837 -0.008996 0.000021 0.035371 -0.000016
# 6 0.000004 -0.000013 0.000014 0.116893 -0.000016 -0.046431
#
#
# Mechanical properties :
#
#
# Convention : Reuss Voigt Hill
#
# Bulk Modulus (GPa) = 17.68279 36.37698 27.02988
# Shear Modulus (GPa) = 124.88177 19.30644 72.09410
#
# Velocity S-wave (km/s) = 8.00182 3.14623 6.07980
# Velocity P-wave (km/s) = 9.71795 5.64354 7.94632
#
# Compressibility (1/GPa) = 0.05655215
#
# Stress axis : x y z
#
# Youngs Moduli (GPa) = 59.26399 14.65971 49.72027
#
# Poissons Ratio (x) = -0.06599 0.36327
# Poissons Ratio (y) = -0.26679 1.06996
# Poissons Ratio (z) = 0.43300 0.31547
#
# Static dielectric constant tensor:
#      x y z
#    x 1.650790 0.000000 0.022130 
#    y 0.000000 1.725110 0.000000 
#    z 0.022130 0.000000 1.738880 
# 
# From -- ./inp_files/372899.got.cif
#   From: 2010.05.17/outbox.cif.g08.bks.cpg/sg12_187_cif.got.tgz:372899.got - 2010.06.03 13:09:07.
