data_PCOD9176637
_publ_section_title
;
Structure prediction by ZEFSAII (Michael W. Deem and Ramdas Pophale) SiO2 
 PCOD9176637
Probable space group: C 2/M
;
_chemical_formula_sum "Si O2"
_cell_formula_units_Z 48
_cell_length_a 19.519100
_cell_length_b 15.879895
_cell_length_c 11.477124
_cell_angle_alpha 90.000000
_cell_angle_beta 133.092170
_cell_angle_gamma 90.000000
_cell_volume 2597.858023
_symmetry_space_group_name_H-M "C 2/M"
_symmetry_group_IT_number 12
_symmetry_cell_setting 'monoclinic'
loop_
_space_group_symop_operation_xyz
x,y,z
-x,y,-z
-x,-y,-z
x,-y,z
1/2+x,1/2+y,z
1/2-x,1/2+y,-z
1/2-x,1/2-y,-z
1/2+x,1/2-y,z
loop_
_atom_site_type_symbol
_atom_site_label
_atom_site_fract_x
_atom_site_fract_y
_atom_site_fract_z
Si Si1 0.645935 0.268081 0.922525
Si Si2 0.121915 0.643451 0.221983
Si Si3 0.396566 0.330332 0.869942
Si Si4 0.988302 0.097771 0.347662
Si Si5 0.816792 0.098856 0.554074
Si Si6 0.432153 0.092584 0.098942
O O1 0.590714 0.336547 0.782260
O O2 0.596328 0.176487 0.865763
O O3 0.750000 0.250000 0.000000
O O4 0.643539 0.307055 0.050408
O O5 0.088758 0.739859 0.174594
O O6 0.225637 0.642040 0.393861
O O7 0.043879 0.596547 0.207280
O O8 0.115052 0.604774 0.084152
O O9 0.331080 0.381610 0.706860
O O10 0.500000 0.370767 0.000000
O O11 0.000000 0.100211 0.500000
O O12 0.086099 0.121742 0.398088
O O13 0.966729 0.000000 0.289821
O O14 0.802835 0.000000 0.519452
O O15 0.405999 0.000000 0.114524
#
# Coordination Sequence:
#
# PCOD9176637 Si02
#       6
#     8   8   8   8   8   8
#     4  11  24  41  59  87 119 160 204 244 300 359
#     4  10  18  35  59  89 117 147 195 246 297 353
#     4  11  20  39  60  85 117 158 199 246 302 353
#     4  10  23  41  61  88 121 157 200 252 301 354
#     4  11  22  35  60  92 120 153 197 248 304 360
#     4  10  19  35  60  86 119 154 193 247 299 353
#
# _framework density 18.476759999999999
#
# number of rings (size 3 to 8) (size 9 to 14) (size 15 to 20)
#    0.000    1.500    5.000    2.500    4.667    1.667 
#    0.000    0.000    0.000    0.500    0.000    0.000 
#    0.000    0.000    0.000    0.000    0.000    0.000 
#
# Total GULP energy -133915.369660 kJ/mol
# GULP energy per Si atom -5579.807069 kJ/mol
# Density = 1.843471 g / cm^3
# Si number density = 18.476760 Si / 1000 Ang^3
#
#
#
# Elastic Constant Matrix: (Units=GPa)
#
#
# Indices 1 2 3 4 5 6 
#
# 1 87.2627 29.2333 40.2542 0.0000 9.5605 0.0000
# 2 29.2333 82.8890 40.1773 0.0000 10.4008 0.0000
# 3 40.2542 40.1773 105.0338 0.0000 24.4328 0.0000
# 4 0.0000 0.0000 0.0000 14.7826 0.0000 -4.9231
# 5 9.5605 10.4008 24.4328 0.0000 27.3856 0.0000
# 6 0.0000 0.0000 0.0000 -4.9231 0.0000 9.0508
#
#
#
# Elastic Compliance Matrix: (Units=1/GPa)
#
#
# Indices 1 2 3 4 5 6 
#
# 1 0.014493 -0.002970 -0.004421 0.000000 0.000013 0.000000
# 2 -0.002970 0.015430 -0.004596 0.000000 -0.000723 0.000000
# 3 -0.004421 -0.004596 0.015405 0.000000 -0.010455 0.000000
# 4 0.000000 0.000000 0.000000 0.082612 0.000000 0.044936
# 5 0.000013 -0.000723 -0.010455 0.000000 0.046113 0.000000
# 6 0.000000 0.000000 0.000000 0.044936 0.000000 0.134930
#
#
# Mechanical properties :
#
#
# Convention : Reuss Voigt Hill
#
# Bulk Modulus (GPa) = 46.82968 54.94612 50.88790
# Shear Modulus (GPa) = 14.70260 21.27852 17.99056
#
# Velocity S-wave (km/s) = 2.82394 3.39726 3.12378
# Velocity P-wave (km/s) = 6.00275 6.72243 6.37276
#
# Compressibility (1/GPa) = 0.02135398
#
# Stress axis : x y z
#
# Youngs Moduli (GPa) = 69.00028 64.80813 64.91262
#
# Poissons Ratio (x) = 0.19247 0.28700
# Poissons Ratio (y) = 0.20492 0.29833
# Poissons Ratio (z) = 0.30507 0.29785
#
# Static dielectric constant tensor:
#      x y z
#    x 1.632360 0.000000 0.002960 
#    y 0.000000 1.653760 0.000000 
#    z 0.002960 0.000000 1.643640 
# 
# From -- ./inp_files/167640.got.cif
#   From: 2010.05.17/outbox.cif.g08.bks.cpg/sg12_84_cif.got.tgz:167640.got - 2010.06.03 13:09:07.
