data_PCOD9176301
_publ_section_title
;
Structure prediction by ZEFSAII (Michael W. Deem and Ramdas Pophale) SiO2 
 PCOD9176301
Probable space group: C 2/M
;
_chemical_formula_sum "Si O2"
_cell_formula_units_Z 56
_cell_length_a 14.985843
_cell_length_b 7.396299
_cell_length_c 21.709038
_cell_angle_alpha 90.000000
_cell_angle_beta 119.870919
_cell_angle_gamma 90.000000
_cell_volume 2086.557078
_symmetry_space_group_name_H-M "C 2/M"
_symmetry_group_IT_number 12
_symmetry_cell_setting 'monoclinic'
loop_
_space_group_symop_operation_xyz
x,y,z
-x,y,-z
-x,-y,-z
x,-y,z
1/2+x,1/2+y,z
1/2-x,1/2+y,-z
1/2-x,1/2-y,-z
1/2+x,1/2-y,z
loop_
_atom_site_type_symbol
_atom_site_label
_atom_site_fract_x
_atom_site_fract_y
_atom_site_fract_z
Si Si1 0.322357 0.705506 0.261408
Si Si2 0.153576 0.290304 0.046493
Si Si3 0.085953 0.216713 0.481611
Si Si4 0.403741 0.221342 0.842908
Si Si5 0.622225 0.781439 0.896673
Si Si6 0.741208 0.787981 0.634541
Si Si7 0.957233 0.221796 0.672605
O O1 0.317149 0.500000 0.237221
O O2 0.209169 0.787470 0.214614
O O3 0.330889 0.700063 0.338820
O O4 0.427811 0.786931 0.272024
O O5 0.126228 0.500000 0.031216
O O6 0.090201 0.222784 0.082996
O O7 0.275714 0.277689 0.103915
O O8 0.139992 0.214647 0.973480
O O9 0.194021 0.262695 0.550758
O O10 0.067246 0.279490 0.405948
O O11 0.000000 0.285284 0.500000
O O12 0.079320 0.000000 0.477382
O O13 0.506181 0.280104 0.842369
O O14 0.402981 0.000000 0.840443
O O15 0.624367 0.000000 0.896027
O O16 0.858334 0.718105 0.677352
O O17 0.741686 0.000000 0.647217
O O18 0.959148 0.000000 0.674723
#
# Coordination Sequence:
#
# PCOD9176301 Si02
#       7
#     8   8   8   8   8   8   8
#     4  10  20  38  56  71  98 140 182 209 245 307
#     4   9  17  31  52  78 105 135 171 210 256 307
#     4  10  18  34  59  79 100 134 172 206 251 307
#     4   9  18  32  54  76  97 136 181 214 246 298
#     4   9  17  31  51  78 108 133 166 215 261 300
#     4  11  22  35  53  80 108 131 164 214 266 300
#     4   9  19  35  54  75 101 134 168 207 253 306
#
# _framework density 26.838467999999999
#
# number of rings (size 3 to 8) (size 9 to 14) (size 15 to 20)
#    0.000    2.429    1.429    1.286    0.000    3.143 
#    0.000    5.714    0.000    3.429    0.000    0.000 
#    0.000    0.000    0.000    0.000    0.000    0.000 
#
# Total GULP energy -156625.575662 kJ/mol
# GULP energy per Si atom -5593.770559 kJ/mol
# Density = 2.677738 g / cm^3
# Si number density = 26.838468 Si / 1000 Ang^3
#
#
#
# Elastic Constant Matrix: (Units=GPa)
#
#
# Indices 1 2 3 4 5 6 
#
# 1 193.2594 -0.8539 24.7193 0.0000 26.8326 0.0000
# 2 -0.8539 106.0642 -3.5018 0.0000 -2.1455 0.0000
# 3 24.7193 -3.5018 76.1240 0.0000 19.2306 0.0000
# 4 0.0000 0.0000 0.0000 8.2018 0.0000 3.5105
# 5 26.8326 -2.1455 19.2306 0.0000 56.1084 0.0000
# 6 0.0000 0.0000 0.0000 3.5105 0.0000 9.0147
#
#
#
# Elastic Compliance Matrix: (Units=1/GPa)
#
#
# Indices 1 2 3 4 5 6 
#
# 1 0.005651 -0.000042 -0.001263 0.000000 -0.002271 0.000000
# 2 -0.000042 0.009446 0.000385 0.000000 0.000249 0.000000
# 3 -0.001263 0.000385 0.014679 0.000000 -0.004412 0.000000
# 4 0.000000 0.000000 0.000000 0.146312 0.000000 -0.056976
# 5 -0.002271 0.000249 -0.004412 0.000000 0.020431 0.000000
# 6 0.000000 0.000000 0.000000 -0.056976 0.000000 0.133117
#
#
# Mechanical properties :
#
#
# Convention : Reuss Voigt Hill
#
# Bulk Modulus (GPa) = 35.79680 46.24164 41.01922
# Shear Modulus (GPa) = 14.67191 38.33725 26.50458
#
# Velocity S-wave (km/s) = 2.34064 3.78358 3.14595
# Velocity P-wave (km/s) = 4.54661 6.02945 5.33975
#
# Compressibility (1/GPa) = 0.02793545
#
# Stress axis : x y z
#
# Youngs Moduli (GPa) = 176.95605 105.86857 68.12443
#
# Poissons Ratio (x) = 0.00446 0.08606
# Poissons Ratio (y) = 0.00746 -0.02624
# Poissons Ratio (z) = 0.22354 -0.04078
#
# Static dielectric constant tensor:
#      x y z
#    x 2.058040 0.000000 0.033710 
#    y 0.000000 2.007700 0.000000 
#    z 0.033710 0.000000 2.189700 
# 
# From -- ./inp_files/309020.got.cif
#   From: 2010.05.17/outbox.cif.g08.bks.cpg/sg12_155_cif.got.tgz:309020.got - 2010.06.03 13:09:07.
