data_PCOD9176238
_publ_section_title
;
Structure prediction by ZEFSAII (Michael W. Deem and Ramdas Pophale) SiO2 
 PCOD9176238
Probable space group: C 2/M
;
_chemical_formula_sum "Si O2"
_cell_formula_units_Z 64
_cell_length_a 14.584113
_cell_length_b 7.491673
_cell_length_c 26.566267
_cell_angle_alpha 90.000000
_cell_angle_beta 68.982632
_cell_angle_gamma 90.000000
_cell_volume 2709.508681
_symmetry_space_group_name_H-M "C 2/M"
_symmetry_group_IT_number 12
_symmetry_cell_setting 'monoclinic'
loop_
_space_group_symop_operation_xyz
x,y,z
-x,y,-z
-x,-y,-z
x,-y,z
1/2+x,1/2+y,z
1/2-x,1/2+y,-z
1/2-x,1/2-y,-z
1/2+x,1/2-y,z
loop_
_atom_site_type_symbol
_atom_site_label
_atom_site_fract_x
_atom_site_fract_y
_atom_site_fract_z
Si Si1 0.322057 0.297560 0.232148
Si Si2 0.579613 0.780833 0.631190
Si Si3 0.627206 0.202167 0.315248
Si Si4 0.940367 0.784547 0.060308
Si Si5 0.521598 0.281393 0.153252
Si Si6 0.291100 0.291126 0.603100
Si Si7 0.260712 0.709499 0.858501
Si Si8 0.593811 0.785423 0.513422
O O1 0.332240 0.500000 0.249398
O O2 0.229024 0.210340 0.278270
O O3 0.431789 0.219762 0.206978
O O4 0.283497 0.301819 0.182143
O O5 0.478500 0.717145 0.675778
O O6 0.681243 0.727177 0.636279
O O7 0.588152 0.720884 0.571497
O O8 0.576879 0.000000 0.631827
O O9 0.633423 0.195831 0.374747
O O10 0.628002 0.000000 0.294853
O O11 0.825945 0.730096 0.083618
O O12 0.991912 0.725788 0.102411
O O13 0.942446 0.000000 0.059911
O O14 0.000000 0.721510 0.000000
O O15 0.519819 0.500000 0.154250
O O16 0.631134 0.225726 0.147191
O O17 0.298984 0.500000 0.611911
O O18 0.314936 0.265982 0.539741
O O19 0.269992 0.500000 0.844678
O O20 0.500000 0.721960 0.500000
O O21 0.592050 0.000000 0.515677
#
# Coordination Sequence:
#
# PCOD9176238 Si02
#       8
#     8   8   8   8   8   8   8   8
#     4   9  19  36  57  75  97 134 178 216 249 305
#     4   9  19  35  53  75 103 134 166 206 254 302
#     4  10  20  38  58  74  98 136 175 206 250 312
#     4   9  18  34  54  76 107 145 182 215 247 296
#     4   8  16  32  51  75 105 137 171 212 262 300
#     4  11  22  34  51  78 108 130 160 212 262 301
#     4  10  19  32  52  76 107 139 169 214 266 308
#     4  10  18  34  58  74  96 137 174 201 241 307
#
# _framework density 23.620519999999999
#
# number of rings (size 3 to 8) (size 9 to 14) (size 15 to 20)
#    0.000    2.500    1.250    1.875    0.000    2.500 
#    0.000    6.875    0.000    0.000    0.000    0.000 
#    0.000    0.000    0.000    0.000    0.000    0.000 
#
# Total GULP energy -178669.115995 kJ/mol
# GULP energy per Si atom -5583.409875 kJ/mol
# Density = 2.356676 g / cm^3
# Si number density = 23.620520 Si / 1000 Ang^3
#
#
#
# Elastic Constant Matrix: (Units=GPa)
#
#
# Indices 1 2 3 4 5 6 
#
# 1 141.1014 0.3844 31.6706 0.0000 -45.6330 0.0000
# 2 0.3844 78.4913 -3.0373 0.0000 0.0530 -0.0001
# 3 31.6706 -3.0373 94.2984 0.0000 -38.0129 0.0000
# 4 0.0000 0.0000 0.0000 11.2760 0.0000 -2.9092
# 5 -45.6330 0.0530 -38.0129 0.0000 39.6109 0.0000
# 6 0.0000 -0.0001 0.0000 -2.9092 0.0000 7.0726
#
#
#
# Elastic Compliance Matrix: (Units=1/GPa)
#
#
# Indices 1 2 3 4 5 6 
#
# 1 0.011629 0.000027 0.002439 0.000000 0.015738 0.000000
# 2 0.000027 0.012765 0.000665 0.000000 0.000652 0.000000
# 3 0.002439 0.000665 0.017841 0.000000 0.019931 0.000000
# 4 0.000000 0.000000 0.000000 0.099212 0.000000 0.040809
# 5 0.015738 0.000652 0.019931 0.000000 0.062502 0.000000
# 6 0.000000 0.000000 0.000000 0.040809 0.000000 0.158178
#
#
# Mechanical properties :
#
#
# Convention : Reuss Voigt Hill
#
# Bulk Modulus (GPa) = 20.61928 41.32517 30.97222
# Shear Modulus (GPa) = 13.43970 30.58346 22.01158
#
# Velocity S-wave (km/s) = 2.38793 3.60221 3.05599
# Velocity P-wave (km/s) = 4.04367 5.90209 5.05895
#
# Compressibility (1/GPa) = 0.04849830
#
# Stress axis : x y z
#
# Youngs Moduli (GPa) = 85.98907 78.33663 56.05041
#
# Poissons Ratio (x) = -0.00210 -0.13673
# Poissons Ratio (y) = -0.00231 -0.03727
# Poissons Ratio (z) = -0.20976 -0.05209
#
# Static dielectric constant tensor:
#      x y z
#    x 1.886520 0.000000 -0.047550 
#    y 0.000000 1.887200 0.000000 
#    z -0.047550 0.000000 1.939200 
# 
# From -- ./inp_files/374992.got.cif
#   From: 2010.05.17/outbox.cif.g08.bks.cpg/sg12_188_cif.got.tgz:374992.got - 2010.06.03 13:09:07.
