data_PCOD9176098
_publ_section_title
;
Structure prediction by ZEFSAII (Michael W. Deem and Ramdas Pophale) SiO2 
 PCOD9176098
Probable space group: C 2/M
;
_chemical_formula_sum "Si O2"
_cell_formula_units_Z 64
_cell_length_a 24.740010
_cell_length_b 16.766780
_cell_length_c 23.265855
_cell_angle_alpha 90.000000
_cell_angle_beta 21.117107
_cell_angle_gamma 90.000000
_cell_volume 3476.987259
_symmetry_space_group_name_H-M "C 2/M"
_symmetry_group_IT_number 12
_symmetry_cell_setting 'monoclinic'
loop_
_space_group_symop_operation_xyz
x,y,z
-x,y,-z
-x,-y,-z
x,-y,z
1/2+x,1/2+y,z
1/2-x,1/2+y,-z
1/2-x,1/2-y,-z
1/2+x,1/2-y,z
loop_
_atom_site_type_symbol
_atom_site_label
_atom_site_fract_x
_atom_site_fract_y
_atom_site_fract_z
Si Si1 0.903035 0.404504 0.314462
Si Si2 0.096280 0.407410 0.232591
Si Si3 0.521763 0.235508 0.119605
Si Si4 0.345115 0.766200 0.184474
Si Si5 0.826242 0.274324 0.752232
Si Si6 0.433769 0.634130 0.509262
Si Si7 0.849999 0.827874 0.912021
Si Si8 0.935764 0.088723 0.379272
O O1 0.925079 0.500000 0.282530
O O2 0.727183 0.386392 0.482085
O O3 0.964738 0.386925 0.317331
O O4 0.985930 0.348977 0.185281
O O5 0.083237 0.500000 0.262194
O O6 0.112915 0.348284 0.270464
O O7 0.244633 0.392900 0.046488
O O8 0.402037 0.261281 0.190245
O O9 0.525863 0.300531 0.165634
O O10 0.687581 0.236922 0.926355
O O11 0.253485 0.709694 0.230891
O O12 0.232082 0.837646 0.309522
O O13 0.500000 0.790802 0.000000
O O14 0.959499 0.211689 0.608231
O O15 0.500000 0.593164 0.500000
O O16 0.430225 0.588795 0.453298
O O17 0.931991 0.855798 0.773941
O O18 0.750000 0.750000 0.000000
O O19 0.965657 0.000000 0.327524
#
# Coordination Sequence:
#
# PCOD9176098 Si02
#       8
#     8   8   8   8   8   8   8   8
#     4  10  21  34  51  79 116 150 181 221 281 342
#     4  10  20  36  56  81 118 152 182 228 287 342
#     4  10  18  34  55  79 111 145 186 231 275 330
#     4   9  18  35  57  79 106 143 183 235 279 322
#     4   9  20  34  57  82 109 138 194 237 271 327
#     4  10  20  35  55  81 107 141 189 238 274 324
#     4  11  21  35  55  86 113 144 194 233 278 338
#     4  11  23  37  54  79 117 151 183 230 284 339
#
# _framework density 18.406739999999999
#
# number of rings (size 3 to 8) (size 9 to 14) (size 15 to 20)
#    0.000    2.000    2.500    1.875    0.000    1.750 
#    0.000    0.000    0.000   21.750    0.000    0.000 
#    0.000    0.000    0.000    0.000    0.000    0.000 
#
# Total GULP energy -178291.328327 kJ/mol
# GULP energy per Si atom -5571.604010 kJ/mol
# Density = 1.836485 g / cm^3
# Si number density = 18.406740 Si / 1000 Ang^3
#
#
#
# Elastic Constant Matrix: (Units=GPa)
#
#
# Indices 1 2 3 4 5 6 
#
# 1 140.5523 36.7601 33.5045 -0.0009 -18.4001 0.0007
# 2 36.7601 59.2944 31.9113 -0.0017 -7.0355 0.0000
# 3 33.5045 31.9113 57.2075 -0.0037 -10.6914 0.0000
# 4 -0.0009 -0.0017 -0.0037 11.2626 0.0000 -1.8629
# 5 -18.4001 -7.0355 -10.6914 0.0000 29.2812 -0.0002
# 6 0.0007 0.0000 0.0000 -1.8629 -0.0002 20.9577
#
#
#
# Elastic Compliance Matrix: (Units=1/GPa)
#
#
# Indices 1 2 3 4 5 6 
#
# 1 0.009254 -0.003928 -0.002488 -0.000001 0.003963 0.000000
# 2 -0.003928 0.025792 -0.012224 0.000000 -0.000734 0.000000
# 3 -0.002488 -0.012224 0.026740 0.000007 0.005263 0.000001
# 4 -0.000001 0.000000 0.000007 0.090114 0.000002 0.008010
# 5 0.003963 -0.000734 0.005263 0.000002 0.038387 0.000000
# 6 0.000000 0.000000 0.000001 0.008010 0.000000 0.048427
#
#
# Mechanical properties :
#
#
# Convention : Reuss Voigt Hill
#
# Bulk Modulus (GPa) = 40.80691 51.26734 46.03713
# Shear Modulus (GPa) = 17.59562 22.62553 20.11058
#
# Velocity S-wave (km/s) = 3.09517 3.50980 3.30898
# Velocity P-wave (km/s) = 5.91533 6.65867 6.29797
#
# Compressibility (1/GPa) = 0.02450565
#
# Stress axis : x y z
#
# Youngs Moduli (GPa) = 108.06163 38.77223 37.39758
#
# Poissons Ratio (x) = 0.15229 0.09305
# Poissons Ratio (y) = 0.42444 0.45714
# Poissons Ratio (z) = 0.26887 0.47395
#
# Static dielectric constant tensor:
#      x y z
#    x 1.695600 0.000000 -0.018680 
#    y 0.000000 1.616780 0.000000 
#    z -0.018680 0.000000 1.640830 
# 
# From -- ./inp_files/350000.got.cif
#   From: 2010.05.17/outbox.cif.g08.bks.cpg/sg12_175_cif.got.tgz:350000.got - 2010.06.03 13:09:07.
