data_PCOD9176915
_publ_section_title
;
Structure prediction by ZEFSAII (Michael W. Deem and Ramdas Pophale) SiO2 
 PCOD9176915
Probable space group: C 2/M
;
_chemical_formula_sum "Si O2"
_cell_formula_units_Z 64
_cell_length_a 25.155831
_cell_length_b 17.853058
_cell_length_c 21.450689
_cell_angle_alpha 90.000000
_cell_angle_beta 160.087710
_cell_angle_gamma 90.000000
_cell_volume 3281.053008
_symmetry_space_group_name_H-M "C 2/M"
_symmetry_group_IT_number 12
_symmetry_cell_setting 'monoclinic'
loop_
_space_group_symop_operation_xyz
x,y,z
-x,y,-z
-x,-y,-z
x,-y,z
1/2+x,1/2+y,z
1/2-x,1/2+y,-z
1/2-x,1/2-y,-z
1/2+x,1/2-y,z
loop_
_atom_site_type_symbol
_atom_site_label
_atom_site_fract_x
_atom_site_fract_y
_atom_site_fract_z
Si Si1 0.703686 0.144643 0.841894
Si Si2 0.953192 0.082998 0.198437
Si Si3 0.083578 0.913794 0.695658
Si Si4 0.663355 0.796332 0.049621
Si Si5 0.135754 0.209327 0.326064
Si Si6 0.149365 0.913269 0.126585
Si Si7 0.137691 0.207539 0.611492
Si Si8 0.839476 0.652345 0.442423
O O1 0.738979 0.233516 0.881087
O O2 0.787664 0.121217 0.868732
O O3 0.520680 0.135291 0.647940
O O4 0.780758 0.096799 0.981668
O O5 0.961228 0.088260 0.281327
O O6 0.040501 0.150666 0.262177
O O7 0.007460 0.000000 0.239332
O O8 0.254243 0.874455 0.878835
O O9 0.952554 0.866101 0.513211
O O10 0.088488 0.000000 0.680074
O O11 0.715303 0.795872 0.179891
O O12 0.486075 0.768921 0.840481
O O13 0.250000 0.250000 0.500000
O O14 0.231635 0.156855 0.383929
O O15 0.280097 0.902046 0.322789
O O16 0.114685 0.000000 0.075242
O O17 0.000000 0.880101 0.000000
O O18 0.176230 0.262185 0.598610
O O19 0.000000 0.247033 0.500000
#
# Coordination Sequence:
#
# PCOD9176915 Si02
#       8
#     8   8   8   8   8   8   8   8
#     4  11  21  37  63  91 123 163 214 254 309 371
#     4  10  23  43  62  86 125 169 210 259 321 383
#     4  10  21  38  67  96 121 161 212 271 335 389
#     4  10  21  38  63  91 124 159 203 263 316 379
#     4  11  26  40  62  93 127 171 218 261 316 381
#     4  11  23  38  58  89 129 168 207 253 311 379
#     4  10  18  36  61  93 125 154 199 264 318 369
#     4  12  22  36  60  90 124 165 212 256 310 370
#
# _framework density 19.505932999999999
#
# number of rings (size 3 to 8) (size 9 to 14) (size 15 to 20)
#    0.000    1.375    3.750    3.000    1.750    6.250 
#    0.000    0.625    0.000    0.750    0.000    6.125 
#    0.000    0.000    0.000    0.000    0.000    0.000 
#
# Total GULP energy -178237.638630 kJ/mol
# GULP energy per Si atom -5569.926207 kJ/mol
# Density = 1.946154 g / cm^3
# Si number density = 19.505933 Si / 1000 Ang^3
#
#
#
# Elastic Constant Matrix: (Units=GPa)
#
#
# Indices 1 2 3 4 5 6 
#
# 1 47.4908 16.0361 29.0324 -0.0006 -8.0540 -0.0015
# 2 16.0361 82.0113 24.4620 0.0005 -4.0989 -0.0007
# 3 29.0324 24.4620 131.1163 0.0012 -9.8294 -0.0012
# 4 -0.0006 0.0005 0.0012 21.5449 0.0009 -1.2171
# 5 -8.0540 -4.0989 -9.8294 0.0009 30.2810 -0.0007
# 6 -0.0015 -0.0007 -0.0012 -1.2171 -0.0007 22.3628
#
#
#
# Elastic Compliance Matrix: (Units=1/GPa)
#
#
# Indices 1 2 3 4 5 6 
#
# 1 0.025937 -0.003413 -0.004739 0.000001 0.004898 0.000002
# 2 -0.003413 0.013390 -0.001716 0.000000 0.000348 0.000000
# 3 -0.004739 -0.001716 0.009106 -0.000001 0.001463 0.000000
# 4 0.000001 0.000000 -0.000001 0.046558 -0.000001 0.002534
# 5 0.004898 0.000348 0.001463 -0.000001 0.034849 0.000001
# 6 0.000002 0.000000 0.000000 0.002534 0.000001 0.044855
#
#
# Mechanical properties :
#
#
# Convention : Reuss Voigt Hill
#
# Bulk Modulus (GPa) = 34.84812 44.40882 39.62847
# Shear Modulus (GPa) = 24.51010 27.57695 26.04352
#
# Velocity S-wave (km/s) = 3.54862 3.76410 3.65795
# Velocity P-wave (km/s) = 5.89020 6.45813 6.18069
#
# Compressibility (1/GPa) = 0.02869596
#
# Stress axis : x y z
#
# Youngs Moduli (GPa) = 38.55483 74.68173 109.81702
#
# Poissons Ratio (x) = 0.25491 0.52043
# Poissons Ratio (y) = 0.13160 0.18848
# Poissons Ratio (z) = 0.18272 0.12818
#
# Static dielectric constant tensor:
#      x y z
#    x 1.698860 0.000000 -0.000950 
#    y 0.000000 1.684700 -0.000010 
#    z -0.000950 -0.000010 1.968640 
# 
# From -- ./inp_files/326153.got.cif
#   From: 2010.05.17/outbox.cif.g08.bks.cpg/sg12_164_cif.got.tgz:326153.got - 2010.06.03 13:09:07.
