data_PCOD9176745
_publ_section_title
;
Structure prediction by ZEFSAII (Michael W. Deem and Ramdas Pophale) SiO2 
 PCOD9176745
Probable space group: C 2/M
;
_chemical_formula_sum "Si O2"
_cell_formula_units_Z 64
_cell_length_a 31.140134
_cell_length_b 13.509663
_cell_length_c 8.178888
_cell_angle_alpha 90.000000
_cell_angle_beta 62.722569
_cell_angle_gamma 90.000000
_cell_volume 3058.174327
_symmetry_space_group_name_H-M "C 2/M"
_symmetry_group_IT_number 12
_symmetry_cell_setting 'monoclinic'
loop_
_space_group_symop_operation_xyz
x,y,z
-x,y,-z
-x,-y,-z
x,-y,z
1/2+x,1/2+y,z
1/2-x,1/2+y,-z
1/2-x,1/2-y,-z
1/2+x,1/2-y,z
loop_
_atom_site_type_symbol
_atom_site_label
_atom_site_fract_x
_atom_site_fract_y
_atom_site_fract_z
Si Si1 0.962500 0.792327 0.758264
Si Si2 0.127185 0.389083 0.724943
Si Si3 0.272514 0.181865 0.600601
Si Si4 0.587284 0.323146 0.824283
Si Si5 0.324785 0.610197 0.106891
Si Si6 0.068219 0.833943 0.517734
Si Si7 0.389040 0.890667 0.866897
Si Si8 0.167944 0.750437 0.221303
O O1 0.944946 0.868011 0.645264
O O2 0.930253 0.693648 0.789289
O O3 0.019011 0.772136 0.637195
O O4 0.950182 0.829676 0.960821
O O5 0.109542 0.500000 0.708675
O O6 0.178500 0.368369 0.550379
O O7 0.092963 0.293021 0.760107
O O8 0.132224 0.389867 0.913035
O O9 0.250000 0.250000 0.500000
O O10 0.229231 0.111479 0.729824
O O11 0.287956 0.245595 0.732238
O O12 0.638143 0.352676 0.818559
O O13 0.574307 0.384254 0.684549
O O14 0.339138 0.500000 0.032055
O O15 0.326350 0.682654 0.948913
O O16 0.121020 0.788851 0.399089
O O17 0.347217 0.857877 0.816218
O O18 0.407711 0.000000 0.798631
#
# Coordination Sequence:
#
# PCOD9176745 Si02
#       8
#     8   8   8   8   8   8   8   8
#     4   9  19  34  59  91 124 161 204 253 309 379
#     4  10  19  34  58  85 118 157 200 246 299 371
#     4  12  22  40  62  87 122 159 205 258 316 374
#     4  11  19  40  61  88 125 166 200 261 316 367
#     4  12  25  42  63  90 122 164 216 268 317 370
#     4  10  18  35  63  91 116 169 204 249 317 376
#     4   9  18  35  59  87 123 166 202 245 312 375
#     4  11  21  41  61  85 124 164 204 258 318 369
#
# _framework density 20.927520999999999
#
# number of rings (size 3 to 8) (size 9 to 14) (size 15 to 20)
#    0.000    1.500    6.250    1.125    0.000    1.000 
#    0.000   10.000    0.000    6.000    0.000    0.000 
#    0.000    0.000    0.000    0.000    0.000    0.000 
#
# Total GULP energy -178209.612784 kJ/mol
# GULP energy per Si atom -5569.050399 kJ/mol
# Density = 2.087989 g / cm^3
# Si number density = 20.927521 Si / 1000 Ang^3
#
#
#
# Elastic Constant Matrix: (Units=GPa)
#
#
# Indices 1 2 3 4 5 6 
#
# 1 107.4833 26.0709 33.7505 0.0000 23.7411 0.0000
# 2 26.0709 68.8574 16.0367 0.0000 7.0532 0.0000
# 3 33.7505 16.0367 119.5929 0.0000 3.9432 0.0000
# 4 0.0000 0.0000 0.0000 1.9762 0.0000 -3.7630
# 5 23.7411 7.0532 3.9432 0.0000 42.6702 0.0000
# 6 0.0000 0.0000 0.0000 -3.7630 0.0000 -0.8025
#
#
#
# Elastic Compliance Matrix: (Units=1/GPa)
#
#
# Indices 1 2 3 4 5 6 
#
# 1 0.012353 -0.003398 -0.002831 0.000000 -0.006050 0.000000
# 2 -0.003398 0.016154 -0.001185 0.000000 -0.000670 0.000000
# 3 -0.002831 -0.001185 0.009289 0.000000 0.000913 0.000000
# 4 0.000000 0.000000 0.000000 0.050964 0.000000 -0.238980
# 5 -0.006050 -0.000670 0.000913 0.000000 0.026828 0.000000
# 6 0.000000 0.000000 0.000000 -0.238980 0.000000 -0.125503
#
#
# Mechanical properties :
#
#
# Convention : Reuss Voigt Hill
#
# Bulk Modulus (GPa) = 43.53857 49.73888 46.63873
# Shear Modulus (GPa) = 397.76239 23.44048 210.60143
#
# Velocity S-wave (km/s) = 13.80142 3.35039 10.04252
# Velocity P-wave (km/s) = 16.57776 6.22781 12.52213
#
# Compressibility (1/GPa) = 0.02296814
#
# Stress axis : x y z
#
# Youngs Moduli (GPa) = 80.95001 61.90415 107.64856
#
# Poissons Ratio (x) = 0.21036 0.30476
# Poissons Ratio (y) = 0.27508 0.12757
# Poissons Ratio (z) = 0.22918 0.07336
#
# Static dielectric constant tensor:
#      x y z
#    x 1.756050 0.000000 0.036370 
#    y 0.000000 1.776040 0.000000 
#    z 0.036370 0.000000 1.787370 
# 
# From -- ./inp_files/111623.got.cif
#   From: 2010.05.17/outbox.cif.g08.bks.cpg/sg12_56_cif.got.tgz:111623.got - 2010.06.03 13:09:07.
