data_PCOD9176004
_publ_section_title
;
Structure prediction by ZEFSAII (Michael W. Deem and Ramdas Pophale) SiO2 
 PCOD9176004
Probable space group: C 2/M
;
_chemical_formula_sum "Si O2"
_cell_formula_units_Z 52
_cell_length_a 22.613630
_cell_length_b 32.496817
_cell_length_c 8.150554
_cell_angle_alpha 90.000000
_cell_angle_beta 149.572990
_cell_angle_gamma 90.000000
_cell_volume 3033.377775
_symmetry_space_group_name_H-M "C 2/M"
_symmetry_group_IT_number 12
_symmetry_cell_setting 'monoclinic'
loop_
_space_group_symop_operation_xyz
x,y,z
-x,y,-z
-x,-y,-z
x,-y,z
1/2+x,1/2+y,z
1/2-x,1/2+y,-z
1/2-x,1/2-y,-z
1/2+x,1/2-y,z
loop_
_atom_site_type_symbol
_atom_site_label
_atom_site_fract_x
_atom_site_fract_y
_atom_site_fract_z
Si Si1 0.181402 0.910792 0.034113
Si Si2 0.074650 0.000000 0.420184
Si Si3 0.340969 0.252413 0.365109
Si Si4 0.683493 0.500000 0.033112
Si Si5 0.430557 0.409971 0.597743
Si Si6 0.632294 0.671560 0.353036
Si Si7 0.500000 0.710805 0.500000
Si Si8 0.228576 0.173887 0.220880
O O1 0.130669 0.910778 0.727429
O O2 0.068252 0.904890 0.883235
O O3 0.235525 0.955577 0.199041
O O4 0.263783 0.871668 0.249650
O O5 0.088233 0.044545 0.369052
O O6 0.159866 0.000000 0.781403
O O7 0.944632 0.000000 0.187975
O O8 0.314193 0.292889 0.406415
O O9 0.462226 0.261399 0.563525
O O10 0.320895 0.210185 0.412938
O O11 0.250000 0.250000 0.000000
O O12 0.382641 0.372159 0.589791
O O13 0.697060 0.670656 0.335860
O O14 0.500000 0.685314 0.000000
O O15 0.610117 0.684358 0.830242
#
# Coordination Sequence:
#
# PCOD9176004 Si02
#       8
#     8   4   8   4   8   8   4   8
#     4   9  14  25  41  60  83 116 155 183 216 253
#     4   7  12  22  36  57  80 112 157 182 206 245
#     4  10  21  34  49  65  84 115 153 188 226 270
#     4   7  12  20  37  58  81 111 148 189 211 243
#     4   9  15  25  41  58  84 120 152 186 213 252
#     4  12  20  30  44  65  92 121 152 186 225 259
#     4  10  18  34  48  65  84 113 150 188 228 266
#     4  11  20  30  47  65  90 118 152 184 223 269
#
# _framework density 17.142606000000001
#
# number of rings (size 3 to 8) (size 9 to 14) (size 15 to 20)
#    0.000    2.308    3.077    5.077    0.000    0.000 
#    0.000    1.154    0.000    0.000    0.000    0.000 
#    0.000    0.615    0.000    2.769    0.000    9.231 
#
# Total GULP energy -144740.060882 kJ/mol
# GULP energy per Si atom -5566.925419 kJ/mol
# Density = 1.710359 g / cm^3
# Si number density = 17.142606 Si / 1000 Ang^3
#
#
#
# Elastic Constant Matrix: (Units=GPa)
#
#
# Indices 1 2 3 4 5 6 
#
# 1 60.4728 49.2708 2.4433 0.0000 -17.0268 0.0000
# 2 49.2708 193.5741 23.6640 0.0000 -13.7805 0.0000
# 3 2.4433 23.6640 17.8806 0.0000 -11.1369 0.0000
# 4 0.0000 0.0000 0.0000 2.6898 0.0000 8.9250
# 5 -17.0268 -13.7805 -11.1369 0.0000 15.0840 0.0000
# 6 0.0000 0.0000 0.0000 8.9250 0.0000 24.3041
#
#
#
# Elastic Compliance Matrix: (Units=1/GPa)
#
#
# Indices 1 2 3 4 5 6 
#
# 1 0.060590 -0.017885 0.088519 0.000000 0.117410 0.000000
# 2 -0.017885 0.011447 -0.034743 0.000000 -0.035383 0.000000
# 3 0.088519 -0.034743 0.244895 0.000000 0.248991 0.000000
# 4 0.000000 0.000000 0.000000 -1.701689 0.000000 0.624899
# 5 0.117410 -0.035383 0.248991 0.000000 0.350338 0.000000
# 6 0.000000 0.000000 0.000000 0.624899 0.000000 -0.188332
#
#
# Mechanical properties :
#
#
# Convention : Reuss Voigt Hill
#
# Bulk Modulus (GPa) = 2.57259 46.96485 24.76872
# Shear Modulus (GPa) = -4.29199 21.51887 8.61344
#
# Velocity S-wave (km/s) = -1.58402 3.54685 2.24399
# Velocity P-wave (km/s) = 1.35704 6.65053 4.60369
#
# Compressibility (1/GPa) = 0.38871327
#
# Stress axis : x y z
#
# Youngs Moduli (GPa) = 16.50440 87.36169 4.08338
#
# Poissons Ratio (x) = 1.56246 -0.36146
# Poissons Ratio (y) = 0.29518 0.14187
# Poissons Ratio (z) = -1.46095 3.03522
#
# Static dielectric constant tensor:
#      x y z
#    x 1.615250 0.000000 -0.024670 
#    y 0.000000 1.679560 0.000000 
#    z -0.024670 0.000000 1.572560 
# 
# From -- ./inp_files/107022.got.cif
#   From: 2010.05.17/outbox.cif.g08.bks.cpg/sg12_54_cif.got.tgz:107022.got - 2010.06.03 13:09:07.
