data_PCOD9176380
_publ_section_title
;
Structure prediction by ZEFSAII (Michael W. Deem and Ramdas Pophale) SiO2 
 PCOD9176380
Probable space group: C 2/M
;
_chemical_formula_sum "Si O2"
_cell_formula_units_Z 44
_cell_length_a 23.738746
_cell_length_b 15.241213
_cell_length_c 10.470450
_cell_angle_alpha 90.000000
_cell_angle_beta 150.444843
_cell_angle_gamma 90.000000
_cell_volume 1868.614037
_symmetry_space_group_name_H-M "C 2/M"
_symmetry_group_IT_number 12
_symmetry_cell_setting 'monoclinic'
loop_
_space_group_symop_operation_xyz
x,y,z
-x,y,-z
-x,-y,-z
x,-y,z
1/2+x,1/2+y,z
1/2-x,1/2+y,-z
1/2-x,1/2-y,-z
1/2+x,1/2-y,z
loop_
_atom_site_type_symbol
_atom_site_label
_atom_site_fract_x
_atom_site_fract_y
_atom_site_fract_z
Si Si1 0.667361 0.156671 0.763078
Si Si2 0.165163 0.399777 0.280941
Si Si3 0.450043 0.097225 0.223019
Si Si4 0.919898 0.903137 0.685214
Si Si5 0.376761 0.352527 0.319459
Si Si6 0.000000 0.750876 0.000000
O O1 0.585670 0.109155 0.501580
O O2 0.603918 0.158229 0.776110
O O3 0.671499 0.257631 0.732992
O O4 0.788556 0.115671 0.037234
O O5 0.141033 0.500000 0.281928
O O6 0.300878 0.392635 0.528670
O O7 0.104633 0.393431 0.022258
O O8 0.106220 0.316031 0.230722
O O9 0.421090 0.000000 0.212462
O O10 0.886231 0.902754 0.470354
O O11 0.969199 0.000000 0.808150
O O12 0.998712 0.820368 0.879496
O O13 0.500000 0.346134 0.500000
#
# Coordination Sequence:
#
# PCOD9176380 Si02
#       6
#     8   8   8   8   8   4
#     4  10  19  32  55  90 122 157 207 247 303 369
#     4  10  22  42  66  96 126 159 207 268 331 380
#     4  10  18  34  60  85 120 156 197 249 311 376
#     4  11  25  44  63  89 130 174 213 259 323 382
#     4  11  22  36  60  87 128 167 207 253 304 376
#     4  12  24  40  72  92 120 162 224 272 312 374
#
# _framework density 23.546862999999998
#
# number of rings (size 3 to 8) (size 9 to 14) (size 15 to 20)
#    0.000    1.455    3.636    3.273    0.000    1.091 
#    0.000    1.818    0.000    4.364    0.000    0.000 
#    0.000    0.000    0.000    0.000    0.000    0.000 
#
# Total GULP energy -122798.218319 kJ/mol
# GULP energy per Si atom -5581.737196 kJ/mol
# Density = 2.349327 g / cm^3
# Si number density = 23.546863 Si / 1000 Ang^3
#
#
#
# Elastic Constant Matrix: (Units=GPa)
#
#
# Indices 1 2 3 4 5 6 
#
# 1 24.9273 23.8979 8.3257 0.0000 3.8675 0.0000
# 2 23.8979 149.4619 11.8580 0.0000 -8.5120 0.0000
# 3 8.3257 11.8580 108.9077 0.0000 2.5706 0.0000
# 4 0.0000 0.0000 0.0000 -293.2943 0.0000 -42.5982
# 5 3.8675 -8.5120 2.5706 0.0000 36.8913 0.0000
# 6 0.0000 0.0000 0.0000 -42.5982 0.0000 16.7532
#
#
#
# Elastic Compliance Matrix: (Units=1/GPa)
#
#
# Indices 1 2 3 4 5 6 
#
# 1 0.049937 -0.008160 -0.002766 0.000000 -0.006925 0.000000
# 2 -0.008160 0.008179 -0.000332 0.000000 0.002766 0.000000
# 3 -0.002766 -0.000332 0.009440 0.000000 -0.000444 0.000000
# 4 0.000000 0.000000 0.000000 -0.002490 0.000000 -0.006331
# 5 -0.006925 0.002766 -0.000444 0.000000 0.028502 0.000000
# 6 0.000000 0.000000 0.000000 -0.006331 0.000000 0.043592
#
#
# Mechanical properties :
#
#
# Convention : Reuss Voigt Hill
#
# Bulk Modulus (GPa) = 22.20148 41.27336 31.73742
# Shear Modulus (GPa) = 28.62228 -31.98227 -1.68000
#
# Velocity S-wave (km/s) = 3.49025 -3.68943 -0.84559
# Velocity P-wave (km/s) = 5.06868 0.76351 3.54321
#
# Compressibility (1/GPa) = 0.04504204
#
# Stress axis : x y z
#
# Youngs Moduli (GPa) = 20.02506 122.26150 105.93035
#
# Poissons Ratio (x) = 0.99761 0.29297
# Poissons Ratio (y) = 0.16340 0.03518
# Poissons Ratio (z) = 0.05538 0.04060
#
# Static dielectric constant tensor:
#      x y z
#    x 1.900230 0.000000 0.021790 
#    y 0.000000 1.893020 0.000000 
#    z 0.021790 0.000000 1.992150 
# 
# From -- ./inp_files/183591.got.cif
#   From: 2010.05.17/outbox.cif.g08.bks.cpg/sg12_92_cif.got.tgz:183591.got - 2010.06.03 13:09:07.
