data_PCOD9176575
_publ_section_title
;
Structure prediction by ZEFSAII (Michael W. Deem and Ramdas Pophale) SiO2 
 PCOD9176575
Probable space group: C 2/M
;
_chemical_formula_sum "Si O2"
_cell_formula_units_Z 40
_cell_length_a 8.805583
_cell_length_b 14.079352
_cell_length_c 13.410627
_cell_angle_alpha 90.000000
_cell_angle_beta 91.828517
_cell_angle_gamma 90.000000
_cell_volume 1661.761403
_symmetry_space_group_name_H-M "C 2/M"
_symmetry_group_IT_number 12
_symmetry_cell_setting 'monoclinic'
loop_
_space_group_symop_operation_xyz
x,y,z
-x,y,-z
-x,-y,-z
x,-y,z
1/2+x,1/2+y,z
1/2-x,1/2+y,-z
1/2-x,1/2-y,-z
1/2+x,1/2-y,z
loop_
_atom_site_type_symbol
_atom_site_label
_atom_site_fract_x
_atom_site_fract_y
_atom_site_fract_z
Si Si1 0.820502 0.900903 0.273338
Si Si2 0.417247 0.817304 0.602575
Si Si3 0.114542 0.297788 0.803052
Si Si4 0.110046 0.101190 0.406385
Si Si5 0.871805 0.801187 0.931009
O O1 0.716708 0.887622 0.369301
O O2 0.809208 0.805374 0.212457
O O3 0.993890 0.903130 0.311657
O O4 0.778750 0.000000 0.222474
O O5 0.500000 0.835233 0.500000
O O6 0.537740 0.825516 0.696497
O O7 0.340257 0.711515 0.596499
O O8 0.257342 0.354832 0.851848
O O9 0.977979 0.275955 0.876260
O O10 0.000000 0.098866 0.500000
O O11 0.198890 0.000000 0.407965
O O12 0.750000 0.750000 0.000000
O O13 0.000000 0.855001 0.000000
#
# Coordination Sequence:
#
# PCOD9176575 Si02
#       5
#     8   8   8   8   8
#     4  10  20  34  52  76 117 160 199 242 284 333
#     4  10  20  32  53  82 118 159 202 232 284 341
#     4  10  18  35  57  88 113 148 189 242 290 353
#     4   8  16  30  48  72 104 145 193 238 280 328
#     4   9  18  33  60  91 110 137 187 246 300 356
#
# _framework density 24.070844999999998
#
# number of rings (size 3 to 8) (size 9 to 14) (size 15 to 20)
#    0.000    2.600    2.000    0.000    0.000    7.600 
#    0.000    0.000    0.000   12.000    0.000    0.000 
#    0.000    0.000    0.000    0.000    0.000    0.000 
#
# Total GULP energy -111364.451147 kJ/mol
# GULP energy per Si atom -5568.222557 kJ/mol
# Density = 2.401606 g / cm^3
# Si number density = 24.070845 Si / 1000 Ang^3
#
#
#
# Elastic Constant Matrix: (Units=GPa)
#
#
# Indices 1 2 3 4 5 6 
#
# 1 133.1786 3.6436 62.8350 0.0000 7.8068 0.0000
# 2 3.6436 65.4951 -3.7524 0.0000 1.7179 0.0000
# 3 62.8350 -3.7524 117.0194 0.0000 2.2825 0.0000
# 4 0.0000 0.0000 0.0000 -3.9793 0.0000 0.5725
# 5 7.8068 1.7179 2.2825 0.0000 64.2872 0.0000
# 6 0.0000 0.0000 0.0000 0.5725 0.0000 8.4413
#
#
#
# Elastic Compliance Matrix: (Units=1/GPa)
#
#
# Indices 1 2 3 4 5 6 
#
# 1 0.010172 -0.000853 -0.005470 0.000000 -0.001018 0.000000
# 2 -0.000853 0.015380 0.000958 0.000000 -0.000341 0.000000
# 3 -0.005470 0.000958 0.011509 0.000000 0.000230 0.000000
# 4 0.000000 0.000000 0.000000 -0.248871 0.000000 0.016878
# 5 -0.001018 -0.000341 0.000230 0.000000 0.015680 0.000000
# 6 0.000000 0.000000 0.000000 0.016878 0.000000 0.117321
#
#
# Mechanical properties :
#
#
# Convention : Reuss Voigt Hill
#
# Bulk Modulus (GPa) = 37.97727 49.01617 43.49672
# Shear Modulus (GPa) = -84.31171 30.61431 -26.84870
#
# Velocity S-wave (km/s) = -5.92474 3.57016 -3.34339
# Velocity P-wave (km/s) = 5.56703 6.11573 1.79030
#
# Compressibility (1/GPa) = 0.02633154
#
# Stress axis : x y z
#
# Youngs Moduli (GPa) = 98.30557 65.02137 86.89002
#
# Poissons Ratio (x) = 0.05543 0.47526
# Poissons Ratio (y) = 0.08381 -0.08321
# Poissons Ratio (z) = 0.53770 -0.06227
#
# Static dielectric constant tensor:
#      x y z
#    x 1.979970 0.000000 0.069290 
#    y 0.000000 1.985230 0.000000 
#    z 0.069290 0.000000 2.066030 
# 
# From -- ./inp_files/194543.got.cif
#   From: 2010.05.17/outbox.cif.g08.bks.cpg/sg12_98_cif.got.tgz:194543.got - 2010.06.03 13:09:07.
