data_PCOD9176998
_publ_section_title
;
Structure prediction by ZEFSAII (Michael W. Deem and Ramdas Pophale) SiO2 
 PCOD9176998
Probable space group: C 2/M
;
_chemical_formula_sum "Si O2"
_cell_formula_units_Z 42
_cell_length_a 9.442089
_cell_length_b 17.371702
_cell_length_c 11.270485
_cell_angle_alpha 90.000000
_cell_angle_beta 82.733613
_cell_angle_gamma 90.000000
_cell_volume 1833.796271
_symmetry_space_group_name_H-M "C 2/M"
_symmetry_group_IT_number 12
_symmetry_cell_setting 'monoclinic'
loop_
_space_group_symop_operation_xyz
x,y,z
-x,y,-z
-x,-y,-z
x,-y,z
1/2+x,1/2+y,z
1/2-x,1/2+y,-z
1/2-x,1/2-y,-z
1/2+x,1/2-y,z
loop_
_atom_site_type_symbol
_atom_site_label
_atom_site_fract_x
_atom_site_fract_y
_atom_site_fract_z
Si Si1 0.500000 0.632170 0.000000
Si Si2 0.754653 0.664083 0.317504
Si Si3 0.477119 0.727756 0.240932
Si Si4 0.791010 0.500000 0.232477
Si Si5 0.762622 0.000000 0.029824
Si Si6 0.725724 0.376736 0.580708
Si Si7 0.000000 0.000000 0.500000
Si Si8 0.100802 0.500000 0.296339
O O1 0.496308 0.686356 0.886189
O O2 0.364483 0.575154 0.020503
O O3 0.901312 0.689445 0.237418
O O4 0.216750 0.661446 0.545613
O O5 0.623480 0.719514 0.297597
O O6 0.710402 0.578096 0.278119
O O7 0.356837 0.680972 0.324998
O O8 0.815353 0.500000 0.089235
O O9 0.932435 0.500000 0.296405
O O10 0.669306 0.000000 0.157795
O O11 0.603463 0.434176 0.548014
O O12 0.843274 0.425932 0.637979
#
# Coordination Sequence:
#
# PCOD9176998 Si02
#       8
#     4   8   8   4   4   8   2   4
#     4  11  24  44  80 107 142 192 260 301 366 444
#     4  12  28  47  76 107 153 198 248 307 376 446
#     4  12  26  48  71 109 152 194 247 309 376 440
#     4  12  27  50  72 108 149 196 252 305 369 446
#     4  11  22  46  79 108 142 198 252 305 358 456
#     4  11  23  42  75 106 149 193 247 300 374 441
#     4  10  18  36  74 108 134 192 244 300 358 436
#     4  11  25  43  73 113 151 191 246 313 367 439
#
# _framework density 22.903307000000002
#
# number of rings (size 3 to 8) (size 9 to 14) (size 15 to 20)
#    0.000    0.571    5.714    2.000    2.667    2.286 
#    3.429    0.000    0.000    0.000    0.000    0.000 
#    0.000    0.000    0.000    0.000    0.000    0.000 
#
# Total GULP energy -117363.439533 kJ/mol
# GULP energy per Si atom -5588.735216 kJ/mol
# Density = 2.285118 g / cm^3
# Si number density = 22.903307 Si / 1000 Ang^3
#
#
#
# Elastic Constant Matrix: (Units=GPa)
#
#
# Indices 1 2 3 4 5 6 
#
# 1 82.6754 18.5488 27.1353 0.0000 16.4441 0.0000
# 2 18.5488 68.9153 5.5382 0.0000 -1.9959 0.0000
# 3 27.1353 5.5382 132.0535 0.0000 -5.9908 0.0000
# 4 0.0000 0.0000 0.0000 -21.2614 0.0000 -265.7370
# 5 16.4441 -1.9959 -5.9908 0.0000 52.3291 0.0000
# 6 0.0000 0.0000 0.0000 -265.7370 0.0000-1508.6723
#
#
#
# Elastic Compliance Matrix: (Units=1/GPa)
#
#
# Indices 1 2 3 4 5 6 
#
# 1 0.015066 -0.003952 -0.003168 0.000000 -0.005248 0.000000
# 2 -0.003952 0.015609 0.000242 0.000000 0.001865 0.000000
# 3 -0.003168 0.000242 0.008302 0.000000 0.001955 0.000000
# 4 0.000000 0.000000 0.000000 0.039146 0.000000 -0.006895
# 5 -0.005248 0.001865 0.001955 0.000000 0.021054 0.000000
# 6 0.000000 0.000000 0.000000 -0.006895 0.000000 0.000552
#
#
# Mechanical properties :
#
#
# Convention : Reuss Voigt Hill
#
# Bulk Modulus (GPa) = 39.65073 42.89876 41.27475
# Shear Modulus (GPa) = 41.01984 -280.02614 -119.50315
#
# Velocity S-wave (km/s) = 4.23661 -11.06932 -7.23122
# Velocity P-wave (km/s) = 6.42508 12.02507 7.18751
#
# Compressibility (1/GPa) = 0.02522022
#
# Stress axis : x y z
#
# Youngs Moduli (GPa) = 66.37512 64.06592 120.44916
#
# Poissons Ratio (x) = 0.25322 0.38160
# Poissons Ratio (y) = 0.26234 -0.02917
# Poissons Ratio (z) = 0.21029 -0.01551
#
# Static dielectric constant tensor:
#      x y z
#    x 1.843560 0.000000 -0.008760 
#    y 0.000000 1.956410 0.000000 
#    z -0.008760 0.000000 1.808940 
# 
# From -- ./inp_files/196118.got.cif
#   From: 2010.05.17/outbox.cif.g08.bks.cpg/sg12_99_cif.got.tgz:196118.got - 2010.06.03 13:09:07.
