data_PCOD9176455
_publ_section_title
;
Structure prediction by ZEFSAII (Michael W. Deem and Ramdas Pophale) SiO2 
 PCOD9176455
Probable space group: C 2/M
;
_chemical_formula_sum "Si O2"
_cell_formula_units_Z 48
_cell_length_a 21.956722
_cell_length_b 13.485941
_cell_length_c 19.012543
_cell_angle_alpha 90.000000
_cell_angle_beta 18.990019
_cell_angle_gamma 90.000000
_cell_volume 1831.939412
_symmetry_space_group_name_H-M "C 2/M"
_symmetry_group_IT_number 12
_symmetry_cell_setting 'monoclinic'
loop_
_space_group_symop_operation_xyz
x,y,z
-x,y,-z
-x,-y,-z
x,-y,z
1/2+x,1/2+y,z
1/2-x,1/2+y,-z
1/2-x,1/2-y,-z
1/2+x,1/2-y,z
loop_
_atom_site_type_symbol
_atom_site_label
_atom_site_fract_x
_atom_site_fract_y
_atom_site_fract_z
Si Si1 0.486425 0.198556 0.903397
Si Si2 0.302136 0.350185 0.192486
Si Si3 0.926369 0.611189 0.829180
Si Si4 0.548529 0.816841 0.345347
Si Si5 0.893596 0.886415 0.481285
Si Si6 0.880676 0.889083 0.330596
O O1 0.376066 0.142474 0.962513
O O2 0.670117 0.137822 0.724496
O O3 0.552383 0.299956 0.791530
O O4 0.359082 0.238107 0.105444
O O5 0.157017 0.362065 0.414515
O O6 0.182838 0.373477 0.253152
O O7 0.500000 0.393611 0.000000
O O8 0.864152 0.500000 0.884852
O O9 0.873868 0.670633 0.817266
O O10 0.154329 0.615440 0.580939
O O11 0.497825 0.700637 0.409497
O O12 0.944832 0.876685 0.341779
O O13 0.925855 0.000000 0.467649
O O14 0.934033 0.000000 0.248585
#
# Coordination Sequence:
#
# PCOD9176455 Si02
#       6
#     8   8   8   8   8   8
#     4  11  18  37  63  93 131 164 208 267 315 371
#     4  11  24  41  67  92 126 175 211 256 327 375
#     4  10  19  36  65  97 126 167 213 262 322 375
#     4  11  22  43  65  89 129 168 210 262 314 382
#     4  10  18  34  62  92 122 162 205 253 315 373
#     4   9  16  29  59  96 128 160 198 255 320 372
#
# _framework density 26.201740000000001
#
# number of rings (size 3 to 8) (size 9 to 14) (size 15 to 20)
#    0.000    1.667    5.000    2.500    0.000    0.667 
#    0.000    9.167    0.000    5.500    0.000    0.000 
#    0.000    0.000    0.000    0.000    0.000    0.000 
#
# Total GULP energy -134143.424495 kJ/mol
# GULP energy per Si atom -5589.309354 kJ/mol
# Density = 2.614210 g / cm^3
# Si number density = 26.201740 Si / 1000 Ang^3
#
#
#
# Elastic Constant Matrix: (Units=GPa)
#
#
# Indices 1 2 3 4 5 6 
#
# 1 106.4533 10.7297 18.6253 0.0002 -5.5320 -0.0003
# 2 10.7297 117.4521 -0.7983 -0.0026 -8.5853 -0.0025
# 3 18.6253 -0.7983 127.2297 0.0184 -13.6811 0.0031
# 4 0.0002 -0.0026 0.0184 5.9954 -0.0013 -2.5779
# 5 -5.5320 -8.5853 -13.6811 -0.0013 39.4040 -0.0026
# 6 -0.0003 -0.0025 0.0031 -2.5779 -0.0026 -10.9627
#
#
#
# Elastic Compliance Matrix: (Units=1/GPa)
#
#
# Indices 1 2 3 4 5 6 
#
# 1 0.009754 -0.000848 -0.001356 0.000003 0.000714 -0.000001
# 2 -0.000848 0.008734 0.000385 0.000002 0.001918 -0.000003
# 3 -0.001356 0.000385 0.008362 -0.000022 0.002797 0.000007
# 4 0.000003 0.000002 -0.000022 0.151477 -0.000004 -0.035621
# 5 0.000714 0.001918 0.002797 -0.000004 0.026867 -0.000005
# 6 -0.000001 -0.000003 0.000007 -0.035621 -0.000005 -0.082842
#
#
# Mechanical properties :
#
#
# Convention : Reuss Voigt Hill
#
# Bulk Modulus (GPa) = 43.08331 45.36095 44.22213
# Shear Modulus (GPa) = 37.38955 28.39259 32.89107
#
# Velocity S-wave (km/s) = 3.78165 3.29540 3.54687
# Velocity P-wave (km/s) = 5.96208 5.64175 5.80413
#
# Compressibility (1/GPa) = 0.02321084
#
# Stress axis : x y z
#
# Youngs Moduli (GPa) = 102.52539 114.49011 119.59559
#
# Poissons Ratio (x) = 0.09710 0.16222
# Poissons Ratio (y) = 0.08695 -0.04606
# Poissons Ratio (z) = 0.13907 -0.04410
#
# Static dielectric constant tensor:
#      x y z
#    x 2.113380 0.000000 -0.032860 
#    y 0.000000 2.026110 0.000000 
#    z -0.032860 0.000000 2.117270 
# 
# From -- ./inp_files/325616.got.cif
#   From: 2010.05.17/outbox.cif.g08.bks.cpg/sg12_163_cif.got.tgz:325616.got - 2010.06.03 13:09:07.
