data_PCOD9176266
_publ_section_title
;
Structure prediction by ZEFSAII (Michael W. Deem and Ramdas Pophale) SiO2 
 PCOD9176266
Probable space group: C 2/M
;
_chemical_formula_sum "Si O2"
_cell_formula_units_Z 40
_cell_length_a 16.519663
_cell_length_b 8.948824
_cell_length_c 14.640163
_cell_angle_alpha 90.000000
_cell_angle_beta 59.502610
_cell_angle_gamma 90.000000
_cell_volume 1864.855147
_symmetry_space_group_name_H-M "C 2/M"
_symmetry_group_IT_number 12
_symmetry_cell_setting 'monoclinic'
loop_
_space_group_symop_operation_xyz
x,y,z
-x,y,-z
-x,-y,-z
x,-y,z
1/2+x,1/2+y,z
1/2-x,1/2+y,-z
1/2-x,1/2-y,-z
1/2+x,1/2-y,z
loop_
_atom_site_type_symbol
_atom_site_label
_atom_site_fract_x
_atom_site_fract_y
_atom_site_fract_z
Si Si1 0.778641 0.680607 0.731123
Si Si2 0.638659 0.671687 0.665254
Si Si3 0.023438 0.159123 0.092447
Si Si4 0.308910 0.171578 0.043993
Si Si5 0.017788 0.176445 0.382179
O O1 0.777409 0.500000 0.732226
O O2 0.733497 0.732890 0.659126
O O3 0.712686 0.741905 0.849934
O O4 0.883437 0.740607 0.690827
O O5 0.660529 0.500000 0.625713
O O6 0.564992 0.669481 0.791488
O O7 0.573730 0.735972 0.620950
O O8 0.072412 0.000000 0.089451
O O9 0.087414 0.303912 0.055890
O O10 0.000000 0.146760 0.000000
O O11 0.287303 0.000000 0.070432
O O12 0.250000 0.250000 0.000000
O O13 0.000000 0.186050 0.500000
O O14 0.028545 0.000000 0.351059
#
# Coordination Sequence:
#
# PCOD9176266 Si02
#       5
#     8   8   8   8   8
#     4  11  22  40  63  88 117 158 207 254 310 367
#     4   9  19  37  61  86 120 162 201 244 304 365
#     4  10  18  34  58  83 116 160 201 238 293 356
#     4  12  24  37  56  86 123 161 203 249 300 359
#     4  10  22  41  63  89 121 159 202 253 312 372
#
# _framework density 21.449387999999999
#
# number of rings (size 3 to 8) (size 9 to 14) (size 15 to 20)
#    0.000    1.600    2.000    3.600    0.000    3.200 
#    0.000    2.000    0.000    0.000    0.000    0.000 
#    0.000    0.000    0.000    0.000    0.000    0.000 
#
# Total GULP energy -111447.061701 kJ/mol
# GULP energy per Si atom -5572.353085 kJ/mol
# Density = 2.140057 g / cm^3
# Si number density = 21.449388 Si / 1000 Ang^3
#
#
#
# Elastic Constant Matrix: (Units=GPa)
#
#
# Indices 1 2 3 4 5 6 
#
# 1 109.6670 25.8981 10.5600 0.0000 33.0984 0.0000
# 2 25.8981 72.0155 9.4125 0.0000 1.8284 0.0000
# 3 10.5600 9.4125 43.9564 0.0000 15.1770 0.0000
# 4 0.0000 0.0000 0.0000 13.2243 0.0000 4.2048
# 5 33.0984 1.8284 15.1770 0.0000 39.7424 0.0000
# 6 0.0000 0.0000 0.0000 4.2048 0.0000 11.7785
#
#
#
# Elastic Compliance Matrix: (Units=1/GPa)
#
#
# Indices 1 2 3 4 5 6 
#
# 1 0.013669 -0.004857 0.001854 0.000000 -0.011868 0.000000
# 2 -0.004857 0.016023 -0.003924 0.000000 0.004806 0.000000
# 3 0.001854 -0.003924 0.027202 0.000000 -0.011752 0.000000
# 4 0.000000 0.000000 0.000000 0.085300 0.000000 -0.030451
# 5 -0.011868 0.004806 -0.011752 0.000000 0.039313 0.000000
# 6 0.000000 0.000000 0.000000 -0.030451 0.000000 0.095771
#
#
# Mechanical properties :
#
#
# Convention : Reuss Voigt Hill
#
# Bulk Modulus (GPa) = 23.23335 35.26448 29.24892
# Shear Modulus (GPa) = 16.36775 24.93358 20.65067
#
# Velocity S-wave (km/s) = 2.76540 3.41315 3.10621
# Velocity P-wave (km/s) = 4.58822 5.65768 5.15078
#
# Compressibility (1/GPa) = 0.04304157
#
# Stress axis : x y z
#
# Youngs Moduli (GPa) = 73.15913 62.40935 36.76180
#
# Poissons Ratio (x) = 0.30310 -0.06816
# Poissons Ratio (y) = 0.35530 0.14424
# Poissons Ratio (z) = -0.13564 0.24488
#
# Static dielectric constant tensor:
#      x y z
#    x 2.116450 0.000000 -0.050230 
#    y 0.000000 2.043200 0.000000 
#    z -0.050230 0.000000 1.761250 
# 
# From -- ./inp_files/211188.got.cif
#   From: 2010.05.17/outbox.cif.g08.bks.cpg/sg12_106_cif.got.tgz:211188.got - 2010.06.03 13:09:07.
