data_PCOD9176568
_publ_section_title
;
Structure prediction by ZEFSAII (Michael W. Deem and Ramdas Pophale) SiO2 
 PCOD9176568
Probable space group: C 2/M
;
_chemical_formula_sum "Si O2"
_cell_formula_units_Z 64
_cell_length_a 14.460090
_cell_length_b 23.242179
_cell_length_c 14.778763
_cell_angle_alpha 90.000000
_cell_angle_beta 139.175649
_cell_angle_gamma 90.000000
_cell_volume 3247.076272
_symmetry_space_group_name_H-M "C 2/M"
_symmetry_group_IT_number 12
_symmetry_cell_setting 'monoclinic'
loop_
_space_group_symop_operation_xyz
x,y,z
-x,y,-z
-x,-y,-z
x,-y,z
1/2+x,1/2+y,z
1/2-x,1/2+y,-z
1/2-x,1/2-y,-z
1/2+x,1/2-y,z
loop_
_atom_site_type_symbol
_atom_site_label
_atom_site_fract_x
_atom_site_fract_y
_atom_site_fract_z
Si Si1 0.358489 0.622036 0.950463
Si Si2 0.812475 0.173927 0.199941
Si Si3 0.937234 0.434386 0.723929
Si Si4 0.740604 0.935381 0.035069
Si Si5 0.558941 0.746721 0.440251
Si Si6 0.075473 0.247853 0.957155
Si Si7 0.949627 0.371719 0.359543
Si Si8 0.820893 0.316773 0.697968
O O1 0.220468 0.633138 0.783896
O O2 0.500000 0.607000 0.000000
O O3 0.314181 0.576025 0.992726
O O4 0.393936 0.680658 0.031636
O O5 0.794784 0.111259 0.145686
O O6 0.745050 0.176713 0.250292
O O7 0.968724 0.199319 0.320652
O O8 0.720074 0.217701 0.072184
O O9 0.884576 0.500000 0.692264
O O10 0.835477 0.381387 0.671827
O O11 0.995142 0.421274 0.666160
O O12 0.073062 0.428050 0.891057
O O13 0.766073 0.000000 0.084828
O O14 0.500000 0.746700 0.500000
O O15 0.522251 0.811386 0.382881
O O16 0.717607 0.724790 0.566122
O O17 0.969435 0.283292 0.815898
O O18 0.000000 0.249459 0.000000
O O19 0.000000 0.381335 0.500000
#
# Coordination Sequence:
#
# PCOD9176568 Si02
#       8
#     8   8   8   8   8   8   8   8
#     4  10  21  37  59  85 113 145 184 237 289 331
#     4  10  18  35  57  84 115 147 180 224 285 336
#     4  10  22  39  57  81 112 150 198 236 269 325
#     4  10  22  38  57  82 112 150 196 236 272 328
#     4   9  19  34  56  84 117 147 177 226 286 343
#     4   9  17  30  55  87 109 140 180 222 277 340
#     4  10  21  38  59  83 113 148 184 232 291 339
#     4  10  20  35  58  86 118 149 180 226 279 337
#
# _framework density 19.710038999999998
#
# number of rings (size 3 to 8) (size 9 to 14) (size 15 to 20)
#    0.000    2.250    2.500    0.000    5.250    3.000 
#    2.250    1.875    0.000    2.250    0.000    0.000 
#    0.000    0.000    0.000    0.000    0.000    0.000 
#
# Total GULP energy -178633.087650 kJ/mol
# GULP energy per Si atom -5582.283989 kJ/mol
# Density = 1.966518 g / cm^3
# Si number density = 19.710039 Si / 1000 Ang^3
#
#
#
# Elastic Constant Matrix: (Units=GPa)
#
#
# Indices 1 2 3 4 5 6 
#
# 1 39.7144 -4.9540 11.9274 0.0000 -9.6641 0.0000
# 2 -4.9540 78.7159 18.4170 0.0000 -9.4149 0.0000
# 3 11.9274 18.4170 93.1700 0.0000 -3.0073 0.0000
# 4 0.0000 0.0000 0.0000 13.1763 0.0000 2.8808
# 5 -9.6641 -9.4149 -3.0073 0.0000 21.8340 0.0000
# 6 0.0000 0.0000 0.0000 2.8808 0.0000 13.0801
#
#
#
# Elastic Compliance Matrix: (Units=1/GPa)
#
#
# Indices 1 2 3 4 5 6 
#
# 1 0.030760 0.004766 -0.004394 0.000000 0.015064 0.000000
# 2 0.004766 0.014725 -0.003262 0.000000 0.008009 0.000000
# 3 -0.004394 -0.003262 0.011885 0.000000 -0.001714 0.000000
# 4 0.000000 0.000000 0.000000 0.079733 0.000000 -0.017561
# 5 0.015064 0.008009 -0.001714 0.000000 0.055685 0.000000
# 6 0.000000 0.000000 0.000000 -0.017561 0.000000 0.080320
#
#
# Mechanical properties :
#
#
# Convention : Reuss Voigt Hill
#
# Bulk Modulus (GPa) = 19.38389 29.15346 24.26867
# Shear Modulus (GPa) = 16.88703 22.03207 19.45955
#
# Velocity S-wave (km/s) = 2.93024 3.34699 3.14553
# Velocity P-wave (km/s) = 4.61566 5.45525 5.05292
#
# Compressibility (1/GPa) = 0.05158922
#
# Stress axis : x y z
#
# Youngs Moduli (GPa) = 32.51025 67.91134 84.13935
#
# Poissons Ratio (x) = -0.32364 0.36967
# Poissons Ratio (y) = -0.15493 0.27449
# Poissons Ratio (z) = 0.14284 0.22155
#
# Static dielectric constant tensor:
#      x y z
#    x 1.741050 0.000000 -0.026690 
#    y 0.000000 1.659710 0.000000 
#    z -0.026690 0.000000 1.695520 
# 
# From -- ./inp_files/218516.got.cif
#   From: 2010.05.17/outbox.cif.g08.bks.cpg/sg12_110_cif.got.tgz:218516.got - 2010.06.03 13:09:07.
