data_PCOD9176675
_publ_section_title
;
Structure prediction by ZEFSAII (Michael W. Deem and Ramdas Pophale) SiO2 
 PCOD9176675
Probable space group: C 2/M
;
_chemical_formula_sum "Si O2"
_cell_formula_units_Z 64
_cell_length_a 19.939698
_cell_length_b 7.449341
_cell_length_c 31.821171
_cell_angle_alpha 90.000000
_cell_angle_beta 37.873677
_cell_angle_gamma 90.000000
_cell_volume 2901.791593
_symmetry_space_group_name_H-M "C 2/M"
_symmetry_group_IT_number 12
_symmetry_cell_setting 'monoclinic'
loop_
_space_group_symop_operation_xyz
x,y,z
-x,y,-z
-x,-y,-z
x,-y,z
1/2+x,1/2+y,z
1/2-x,1/2+y,-z
1/2-x,1/2-y,-z
1/2+x,1/2-y,z
loop_
_atom_site_type_symbol
_atom_site_label
_atom_site_fract_x
_atom_site_fract_y
_atom_site_fract_z
Si Si1 0.262687 0.705211 0.705094
Si Si2 0.874910 0.219510 0.060032
Si Si3 0.032539 0.719397 0.789964
Si Si4 0.520270 0.782624 0.702478
Si Si5 0.788024 0.285138 0.933587
Si Si6 0.621922 0.215054 0.565496
Si Si7 0.514244 0.206447 0.446455
Si Si8 0.715620 0.784016 0.210165
O O1 0.259943 0.500000 0.691491
O O2 0.139401 0.778158 0.762619
O O3 0.359926 0.792858 0.630594
O O4 0.292223 0.710682 0.739363
O O5 0.800838 0.279245 0.056990
O O6 0.816731 0.274230 0.132065
O O7 0.874940 0.000000 0.058803
O O8 0.000000 0.278510 0.000000
O O9 0.027694 0.500000 0.794156
O O10 0.057443 0.775957 0.729814
O O11 0.912128 0.781346 0.863865
O O12 0.578485 0.715363 0.631722
O O13 0.393167 0.738139 0.761313
O O14 0.529841 0.000000 0.697689
O O15 0.792323 0.500000 0.925933
O O16 0.750000 0.250000 0.000000
O O17 0.750000 0.250000 0.500000
O O18 0.556716 0.285834 0.556975
O O19 0.602699 0.000000 0.575611
O O20 0.500000 0.287285 0.500000
O O21 0.476338 0.000000 0.468967
O O22 0.718721 0.000000 0.212716
#
# Coordination Sequence:
#
# PCOD9176675 Si02
#       8
#     8   8   8   8   8   8   8   8
#     4  11  23  36  55  83 113 144 182 226 275 331
#     4   9  18  32  55  85 108 138 188 234 268 317
#     4   9  19  35  54  78 109 146 183 221 271 330
#     4   9  16  33  58  77  98 139 188 223 260 316
#     4  10  20  36  56  79 112 147 182 226 276 329
#     4  10  21  36  57  83 109 140 179 221 269 323
#     4  10  22  41  60  80 112 149 184 224 274 328
#     4  10  18  35  61  80 105 143 185 232 276 319
#
# _framework density 22.055340999999999
#
# number of rings (size 3 to 8) (size 9 to 14) (size 15 to 20)
#    0.000    2.250    2.500    0.375    3.500    0.750 
#    0.000    1.250    0.000    3.000    0.000    0.000 
#    0.000    0.000    0.000    0.000    0.000    0.000 
#
# Total GULP energy -178643.742641 kJ/mol
# GULP energy per Si atom -5582.616958 kJ/mol
# Density = 2.200514 g / cm^3
# Si number density = 22.055341 Si / 1000 Ang^3
#
#
#
# Elastic Constant Matrix: (Units=GPa)
#
#
# Indices 1 2 3 4 5 6 
#
# 1 72.7917 -3.1179 14.7110 0.0083 1.0856 0.0361
# 2 -3.1179 61.3489 -6.3985 0.0724 -1.8015 -0.0563
# 3 14.7110 -6.3985 121.2759 0.0081 4.4694 0.0033
# 4 0.0083 0.0724 0.0081 10.4573 0.0077 -2.2607
# 5 1.0856 -1.8015 4.4694 0.0077 40.7943 -0.0126
# 6 0.0361 -0.0563 0.0033 -2.2607 -0.0126 -3.5412
#
#
#
# Elastic Compliance Matrix: (Units=1/GPa)
#
#
# Indices 1 2 3 4 5 6 
#
# 1 0.014102 0.000537 -0.001676 0.000014 -0.000168 0.000126
# 2 0.000537 0.016427 0.000778 -0.000150 0.000626 -0.000161
# 3 -0.001676 0.000778 0.008522 -0.000012 -0.000855 -0.000011
# 4 0.000014 -0.000150 -0.000012 0.084031 -0.000038 -0.053642
# 5 -0.000168 0.000626 -0.000855 -0.000038 0.024639 -0.000076
# 6 0.000126 -0.000161 -0.000011 -0.053642 -0.000076 -0.248138
#
#
# Mechanical properties :
#
#
# Convention : Reuss Voigt Hill
#
# Bulk Modulus (GPa) = 26.08950 29.53396 27.81173
# Shear Modulus (GPa) = -57.52460 26.22355 -15.65053
#
# Velocity S-wave (km/s) = -5.11259 3.45191 -2.66673
# Velocity P-wave (km/s) = 4.79548 5.41364 1.77636
#
# Compressibility (1/GPa) = 0.03832960
#
# Stress axis : x y z
#
# Youngs Moduli (GPa) = 70.91192 60.87498 117.34964
#
# Poissons Ratio (x) = -0.03269 0.19669
# Poissons Ratio (y) = -0.03808 -0.09136
# Poissons Ratio (z) = 0.11885 -0.04739
#
# Static dielectric constant tensor:
#      x y z
#    x 1.781030 -0.000020 -0.010600 
#    y -0.000020 1.865480 0.000020 
#    z -0.010600 0.000020 1.780130 
# 
# From -- ./inp_files/378145.got.cif
#   From: 2010.05.17/outbox.cif.g08.bks.cpg/sg12_190_cif.got.tgz:378145.got - 2010.06.03 13:09:07.
