data_PCOD9176382
_publ_section_title
;
Structure prediction by ZEFSAII (Michael W. Deem and Ramdas Pophale) SiO2 
 PCOD9176382
Probable space group: C 2/M
;
_chemical_formula_sum "Si O2"
_cell_formula_units_Z 44
_cell_length_a 22.055387
_cell_length_b 9.243538
_cell_length_c 28.030023
_cell_angle_alpha 90.000000
_cell_angle_beta 23.615773
_cell_angle_gamma 90.000000
_cell_volume 2289.226181
_symmetry_space_group_name_H-M "C 2/M"
_symmetry_group_IT_number 12
_symmetry_cell_setting 'monoclinic'
loop_
_space_group_symop_operation_xyz
x,y,z
-x,y,-z
-x,-y,-z
x,-y,z
1/2+x,1/2+y,z
1/2-x,1/2+y,-z
1/2-x,1/2-y,-z
1/2+x,1/2-y,z
loop_
_atom_site_type_symbol
_atom_site_label
_atom_site_fract_x
_atom_site_fract_y
_atom_site_fract_z
Si Si1 0.632443 0.325401 0.707415
Si Si2 0.844089 0.161395 0.754337
Si Si3 0.048528 0.168593 0.071515
Si Si4 0.946345 0.171818 0.485758
Si Si5 0.386577 0.825791 0.818310
Si Si6 0.000000 0.262585 0.000000
O O1 0.634258 0.500000 0.702905
O O2 0.573024 0.275852 0.802898
O O3 0.798156 0.261761 0.579545
O O4 0.514274 0.255970 0.755778
O O5 0.891909 0.277899 0.759253
O O6 0.921448 0.194318 0.648129
O O7 0.894172 0.000000 0.733277
O O8 0.662102 0.159491 0.881946
O O9 0.061749 0.000000 0.072580
O O10 0.218757 0.227161 0.955737
O O11 0.005118 0.182551 0.047351
O O12 0.000000 0.212263 0.500000
O O13 0.910403 0.000000 0.511871
O O14 0.398332 0.000000 0.814463
#
# Coordination Sequence:
#
# PCOD9176382 Si02
#       6
#     8   8   8   8   8   4
#     4  11  22  37  58  84 114 148 188 232 277 326
#     4  10  21  37  58  85 115 145 184 232 278 329
#     4   9  19  34  55  85 117 148 184 229 278 330
#     4  10  22  40  59  82 114 150 186 225 274 333
#     4  10  21  38  59  83 112 148 188 230 281 334
#     4  10  18  34  60  86 113 146 183 226 281 334
#
# _framework density 19.220468
#
# number of rings (size 3 to 8) (size 9 to 14) (size 15 to 20)
#    0.000    2.000    0.000    3.273    0.000    2.545 
#    0.000    9.091    0.000    0.000    0.000    0.000 
#    0.000    0.000    0.000    0.000    0.000    0.000 
#
# Total GULP energy -122661.382630 kJ/mol
# GULP energy per Si atom -5575.517392 kJ/mol
# Density = 1.917672 g / cm^3
# Si number density = 19.220468 Si / 1000 Ang^3
#
#
#
# Elastic Constant Matrix: (Units=GPa)
#
#
# Indices 1 2 3 4 5 6 
#
# 1 88.9476 23.7672 52.0395 -0.0013 -4.8807 0.0003
# 2 23.7672 43.5564 38.3385 -0.0050 -2.4685 0.0013
# 3 52.0395 38.3385 117.2004 -0.0039 8.0845 0.0007
# 4 -0.0013 -0.0050 -0.0039 23.8774 0.0005 0.7082
# 5 -4.8807 -2.4685 8.0845 0.0005 32.1990 -0.0001
# 6 0.0003 0.0013 0.0007 0.7082 -0.0001 25.6686
#
#
#
# Elastic Compliance Matrix: (Units=1/GPa)
#
#
# Indices 1 2 3 4 5 6 
#
# 1 0.015970 -0.002844 -0.006424 -0.000001 0.003816 0.000000
# 2 -0.002844 0.033631 -0.010061 0.000005 0.004673 -0.000001
# 3 -0.006424 -0.010061 0.015057 0.000000 -0.005526 0.000000
# 4 -0.000001 0.000005 0.000000 0.041915 0.000000 -0.001156
# 5 0.003816 0.004673 -0.005526 0.000000 0.033381 0.000000
# 6 0.000000 -0.000001 0.000000 -0.001156 0.000000 0.038990
#
#
# Mechanical properties :
#
#
# Convention : Reuss Voigt Hill
#
# Bulk Modulus (GPa) = 38.46034 53.11055 45.78544
# Shear Modulus (GPa) = 22.09758 25.38629 23.74193
#
# Velocity S-wave (km/s) = 3.39439 3.63822 3.51841
# Velocity P-wave (km/s) = 5.95114 6.73358 6.35441
#
# Compressibility (1/GPa) = 0.02600081
#
# Stress axis : x y z
#
# Youngs Moduli (GPa) = 62.61625 29.73434 66.41337
#
# Poissons Ratio (x) = 0.08455 0.42665
# Poissons Ratio (y) = 0.17806 0.66819
# Poissons Ratio (z) = 0.40226 0.29916
#
# Static dielectric constant tensor:
#      x y z
#    x 1.652530 0.000000 0.018130 
#    y 0.000000 1.658740 0.000000 
#    z 0.018130 0.000000 1.680840 
# 
# From -- ./inp_files/180474.got.cif
#   From: 2010.05.17/outbox.cif.g08.bks.cpg/sg12_91_cif.got.tgz:180474.got - 2010.06.03 13:09:07.
