data_PCOD9176054
_publ_section_title
;
Structure prediction by ZEFSAII (Michael W. Deem and Ramdas Pophale) SiO2 
 PCOD9176054
Probable space group: C 2/M
;
_chemical_formula_sum "Si O2"
_cell_formula_units_Z 60
_cell_length_a 23.976056
_cell_length_b 9.302476
_cell_length_c 12.241204
_cell_angle_alpha 90.000000
_cell_angle_beta 69.485676
_cell_angle_gamma 90.000000
_cell_volume 2557.098481
_symmetry_space_group_name_H-M "C 2/M"
_symmetry_group_IT_number 12
_symmetry_cell_setting 'monoclinic'
loop_
_space_group_symop_operation_xyz
x,y,z
-x,y,-z
-x,-y,-z
x,-y,z
1/2+x,1/2+y,z
1/2-x,1/2+y,-z
1/2-x,1/2-y,-z
1/2+x,1/2-y,z
loop_
_atom_site_type_symbol
_atom_site_label
_atom_site_fract_x
_atom_site_fract_y
_atom_site_fract_z
Si Si1 0.509798 0.173767 0.229003
Si Si2 0.668511 0.166176 0.622736
Si Si3 0.322718 0.234053 0.030379
Si Si4 0.113068 0.328505 0.307516
Si Si5 0.762076 0.500000 0.956611
Si Si6 0.079658 0.828145 0.543555
Si Si7 0.075990 0.665508 0.891542
Si Si8 0.731307 0.336794 0.283145
O O1 0.576347 0.206516 0.222800
O O2 0.468444 0.260681 0.341431
O O3 0.486087 0.209231 0.123546
O O4 0.500790 0.000000 0.246999
O O5 0.642729 0.276235 0.552569
O O6 0.620700 0.165689 0.755366
O O7 0.730921 0.206367 0.636202
O O8 0.671463 0.000000 0.580350
O O9 0.289527 0.377757 0.022747
O O10 0.386955 0.249254 0.042163
O O11 0.280220 0.161320 0.152946
O O12 0.313519 0.123251 0.939575
O O13 0.113193 0.500000 0.323588
O O14 0.076214 0.249764 0.429761
O O15 0.178797 0.266600 0.283104
O O16 0.075170 0.000000 0.539588
O O17 0.071862 0.500000 0.933038
O O18 0.708700 0.500000 0.311594
#
# Coordination Sequence:
#
# PCOD9176054 Si02
#       8
#     8   8   8   8   4   8   8   8
#     4   9  19  36  54  72  97 138 184 223 256 294
#     4   8  16  32  52  71  96 139 175 207 258 307
#     4  10  18  34  53  86 112 133 158 201 249 310
#     4  11  23  35  51  73  98 139 185 219 258 302
#     4  10  20  30  56  86 114 130 160 192 254 312
#     4  11  21  33  51  75 103 131 173 230 271 300
#     4   8  13  29  53  73 101 133 166 207 252 295
#     4  10  20  36  54  73 108 142 169 208 257 310
#
# _framework density 23.464095
#
# number of rings (size 3 to 8) (size 9 to 14) (size 15 to 20)
#    0.000    2.400    1.333    3.600    0.933    3.733 
#    9.600    0.000    0.000    0.000    0.000    5.600 
#    0.000    0.000    0.000    0.000    0.000    0.000 
#
# Total GULP energy -167158.508747 kJ/mol
# GULP energy per Si atom -5571.950292 kJ/mol
# Density = 2.341069 g / cm^3
# Si number density = 23.464095 Si / 1000 Ang^3
#
#
#
# Elastic Constant Matrix: (Units=GPa)
#
#
# Indices 1 2 3 4 5 6 
#
# 1 211.8184 68.3238 48.4959 0.0000 40.6398 0.0000
# 2 68.3238 119.4671 37.4009 0.0000 30.4177 0.0000
# 3 48.4959 37.4009 83.0945 0.0000 23.7971 0.0000
# 4 0.0000 0.0000 0.0000 23.7062 0.0000 14.6022
# 5 40.6398 30.4177 23.7971 0.0000 49.1260 0.0000
# 6 0.0000 0.0000 0.0000 14.6022 0.0000 22.5503
#
#
#
# Elastic Compliance Matrix: (Units=1/GPa)
#
#
# Indices 1 2 3 4 5 6 
#
# 1 0.006485 -0.002362 -0.001862 0.000000 -0.003000 0.000000
# 2 -0.002362 0.011561 -0.002711 0.000000 -0.003891 0.000000
# 3 -0.001862 -0.002711 0.015581 0.000000 -0.004329 0.000000
# 4 0.000000 0.000000 0.000000 0.070172 0.000000 -0.045439
# 5 -0.003000 -0.003891 -0.004329 0.000000 0.027344 0.000000
# 6 0.000000 0.000000 0.000000 -0.045439 0.000000 0.073769
#
#
# Mechanical properties :
#
#
# Convention : Reuss Voigt Hill
#
# Bulk Modulus (GPa) = 50.61560 80.31345 65.46453
# Shear Modulus (GPa) = 22.18612 36.42047 29.30330
#
# Velocity S-wave (km/s) = 3.07829 3.94404 3.53775
# Velocity P-wave (km/s) = 5.85259 7.41911 6.68192
#
# Compressibility (1/GPa) = 0.01975675
#
# Stress axis : x y z
#
# Youngs Moduli (GPa) = 154.20546 86.50093 64.17995
#
# Poissons Ratio (x) = 0.20430 0.11953
# Poissons Ratio (y) = 0.36420 0.17397
# Poissons Ratio (z) = 0.28721 0.23447
#
# Static dielectric constant tensor:
#      x y z
#    x 1.934390 0.000000 -0.041490 
#    y 0.000000 1.781640 0.000000 
#    z -0.041490 0.000000 2.046880 
# 
# From -- ./inp_files/237660.got.cif
#   From: 2010.05.17/outbox.cif.g08.bks.cpg/sg12_119_cif.got.tgz:237660.got - 2010.06.03 13:09:07.
