data_PCOD9176871
_publ_section_title
;
Structure prediction by ZEFSAII (Michael W. Deem and Ramdas Pophale) SiO2 
 PCOD9176871
Probable space group: C 2/M
;
_chemical_formula_sum "Si O2"
_cell_formula_units_Z 56
_cell_length_a 22.223114
_cell_length_b 14.723818
_cell_length_c 25.251964
_cell_angle_alpha 90.000000
_cell_angle_beta 158.584452
_cell_angle_gamma 90.000000
_cell_volume 3016.944704
_symmetry_space_group_name_H-M "C 2/M"
_symmetry_group_IT_number 12
_symmetry_cell_setting 'monoclinic'
loop_
_space_group_symop_operation_xyz
x,y,z
-x,y,-z
-x,-y,-z
x,-y,z
1/2+x,1/2+y,z
1/2-x,1/2+y,-z
1/2-x,1/2-y,-z
1/2+x,1/2-y,z
loop_
_atom_site_type_symbol
_atom_site_label
_atom_site_fract_x
_atom_site_fract_y
_atom_site_fract_z
Si Si1 0.120302 0.833058 0.897792
Si Si2 0.681946 0.902478 0.028025
Si Si3 0.686887 0.107876 0.845034
Si Si4 0.332800 0.899056 0.702657
Si Si5 0.873441 0.709895 0.643155
Si Si6 0.831381 0.892243 0.328311
Si Si7 0.180513 0.259634 0.120103
O O1 0.159582 0.894234 0.878988
O O2 0.947711 0.786144 0.743778
O O3 0.250000 0.750000 0.000000
O O4 0.166982 0.879729 0.991184
O O5 0.666830 0.820976 0.056067
O O6 0.672674 0.000000 0.048371
O O7 0.530515 0.900891 0.862558
O O8 0.522701 0.155815 0.735854
O O9 0.742020 0.165305 0.838211
O O10 0.660379 0.000000 0.814834
O O11 0.272171 0.852844 0.600490
O O12 0.298223 0.863191 0.732544
O O13 0.264014 0.000000 0.647458
O O14 0.750000 0.750000 0.500000
O O15 0.799428 0.821164 0.255148
O O16 0.000000 0.885124 0.500000
O O17 0.808938 0.000000 0.294944
O O18 0.000000 0.249517 0.000000
#
# Coordination Sequence:
#
# PCOD9176871 Si02
#       7
#     8   8   8   8   8   8   8
#     4  10  18  36  59  84 113 152 194 235 295 351
#     4  11  19  33  59  89 115 143 187 245 300 349
#     4  11  23  42  63  84 118 161 202 248 297 348
#     4  10  19  34  57  84 115 151 188 234 297 358
#     4  11  22  36  61  91 122 152 193 242 301 359
#     4  10  23  38  55  84 121 158 191 231 297 365
#     4  12  23  37  60  87 114 150 202 251 291 346
#
# _framework density 18.561824999999999
#
# number of rings (size 3 to 8) (size 9 to 14) (size 15 to 20)
#    0.000    1.286    7.143    1.286    2.000    0.857 
#    0.000    2.857    0.000    0.429    0.000    0.000 
#    0.000    0.000    0.000    0.000    0.000    0.000 
#
# Total GULP energy -155870.198478 kJ/mol
# GULP energy per Si atom -5566.792803 kJ/mol
# Density = 1.851958 g / cm^3
# Si number density = 18.561825 Si / 1000 Ang^3
#
#
#
# Elastic Constant Matrix: (Units=GPa)
#
#
# Indices 1 2 3 4 5 6 
#
# 1 87.4976 49.2547 21.1373 0.0018 -14.8077 -0.0008
# 2 49.2547 111.4388 32.7892 0.0102 -10.8609 0.0012
# 3 21.1373 32.7892 65.6135 0.0079 -18.7084 0.0014
# 4 0.0018 0.0102 0.0079 16.3646 0.0030 -3.6718
# 5 -14.8077 -10.8609 -18.7084 0.0030 27.8462 -0.0002
# 6 -0.0008 0.0012 0.0014 -3.6718 -0.0002 31.3281
#
#
#
# Elastic Compliance Matrix: (Units=1/GPa)
#
#
# Indices 1 2 3 4 5 6 
#
# 1 0.016136 -0.006475 -0.000292 0.000002 0.005859 0.000001
# 2 -0.006475 0.013130 -0.004944 -0.000005 -0.001644 -0.000001
# 3 -0.000292 -0.004944 0.021290 -0.000010 0.012220 -0.000002
# 4 0.000002 -0.000005 -0.000010 0.062758 -0.000014 0.007355
# 5 0.005859 -0.001644 0.012220 -0.000014 0.046596 -0.000002
# 6 0.000001 -0.000001 -0.000002 0.007355 -0.000002 0.032782
#
#
# Mechanical properties :
#
#
# Convention : Reuss Voigt Hill
#
# Bulk Modulus (GPa) = 36.85471 52.32359 44.58915
# Shear Modulus (GPa) = 22.20656 25.86569 24.03613
#
# Velocity S-wave (km/s) = 3.46259 3.73700 3.60241
# Velocity P-wave (km/s) = 5.99035 6.84618 6.43251
#
# Compressibility (1/GPa) = 0.02713357
#
# Stress axis : x y z
#
# Youngs Moduli (GPa) = 61.97364 76.16154 46.97064
#
# Poissons Ratio (x) = 0.49315 0.01371
# Poissons Ratio (y) = 0.40128 0.23224
# Poissons Ratio (z) = 0.01808 0.37657
#
# Static dielectric constant tensor:
#      x y z
#    x 1.730810 0.000000 0.053460 
#    y 0.000000 1.750400 0.000000 
#    z 0.053460 0.000000 1.736630 
# 
# From -- ./inp_files/368096.got.cif
#   From: 2010.05.17/outbox.cif.g08.bks.cpg/sg12_185_cif.got.tgz:368096.got - 2010.06.03 13:09:07.
