data_PCOD9176659
_publ_section_title
;
Structure prediction by ZEFSAII (Michael W. Deem and Ramdas Pophale) SiO2 
 PCOD9176659
Probable space group: C 2/M
;
_chemical_formula_sum "Si O2"
_cell_formula_units_Z 52
_cell_length_a 14.529366
_cell_length_b 23.222471
_cell_length_c 11.931524
_cell_angle_alpha 90.000000
_cell_angle_beta 45.307774
_cell_angle_gamma 90.000000
_cell_volume 2861.912912
_symmetry_space_group_name_H-M "C 2/M"
_symmetry_group_IT_number 12
_symmetry_cell_setting 'monoclinic'
loop_
_space_group_symop_operation_xyz
x,y,z
-x,y,-z
-x,-y,-z
x,-y,z
1/2+x,1/2+y,z
1/2-x,1/2+y,-z
1/2-x,1/2-y,-z
1/2+x,1/2-y,z
loop_
_atom_site_type_symbol
_atom_site_label
_atom_site_fract_x
_atom_site_fract_y
_atom_site_fract_z
Si Si1 0.000000 0.655425 0.500000
Si Si2 0.394264 0.932146 0.411709
Si Si3 0.128357 0.754808 0.245234
Si Si4 0.855313 0.116099 0.734387
Si Si5 0.432733 0.892084 0.942429
Si Si6 0.620452 0.567514 0.533527
Si Si7 0.569829 0.754487 0.053536
O O1 0.079241 0.612224 0.511310
O O2 0.077133 0.699959 0.355231
O O3 0.498751 0.920527 0.222945
O O4 0.251130 0.919079 0.487515
O O5 0.400682 0.000000 0.437327
O O6 0.134360 0.816044 0.302206
O O7 0.046013 0.765495 0.201605
O O8 0.278294 0.742534 0.091202
O O9 0.853055 0.082961 0.618765
O O10 0.987973 0.098701 0.681657
O O11 0.722875 0.102523 0.913750
O O12 0.455583 0.823170 0.918348
O O13 0.500000 0.913349 0.000000
O O14 0.596472 0.500000 0.563239
O O15 0.500000 0.732975 0.000000
#
# Coordination Sequence:
#
# PCOD9176659 Si02
#       7
#     4   8   8   8   8   8   8
#     4  12  23  40  58  80 117 158 192 240 286 340
#     4  11  24  39  58  83 114 156 203 240 284 340
#     4  10  21  35  58  87 114 147 190 224 285 352
#     4  10  19  34  60  88 118 146 184 232 293 352
#     4  10  18  35  60  85 114 145 189 242 287 339
#     4  10  21  37  54  82 120 152 185 238 292 337
#     4   9  19  37  58  81 115 150 177 233 288 333
#
# _framework density 18.169665999999999
#
# number of rings (size 3 to 8) (size 9 to 14) (size 15 to 20)
#    0.000    1.846    3.077    2.077    0.000    2.769 
#    0.000    2.308    0.000    0.000    0.000    3.231 
#    0.000    0.000    0.000    0.000    0.000    0.000 
#
# Total GULP energy -144857.878502 kJ/mol
# GULP energy per Si atom -5571.456865 kJ/mol
# Density = 1.812831 g / cm^3
# Si number density = 18.169666 Si / 1000 Ang^3
#
#
#
# Elastic Constant Matrix: (Units=GPa)
#
#
# Indices 1 2 3 4 5 6 
#
# 1 112.9316 55.1008 46.9144 0.0000 -4.8402 0.0000
# 2 55.1008 74.3156 34.3059 0.0000 -11.4505 0.0000
# 3 46.9144 34.3059 46.0697 0.0000 -9.2619 0.0000
# 4 0.0000 0.0000 0.0000 -0.3905 0.0000 -9.1991
# 5 -4.8402 -11.4505 -9.2619 0.0000 27.8962 0.0000
# 6 0.0000 0.0000 0.0000 -9.1991 0.0000 31.8852
#
#
#
# Elastic Compliance Matrix: (Units=1/GPa)
#
#
# Indices 1 2 3 4 5 6 
#
# 1 0.018122 -0.007921 -0.013477 0.000000 -0.004582 0.000000
# 2 -0.007921 0.024307 -0.008899 0.000000 0.005649 0.000000
# 3 -0.013477 -0.008899 0.043774 0.000000 0.008543 0.000000
# 4 0.000000 0.000000 0.000000 -0.328463 0.000000 -0.094764
# 5 -0.004582 0.005649 0.008543 0.000000 0.040207 0.000000
# 6 0.000000 0.000000 0.000000 -0.094764 0.000000 0.004022
#
#
# Mechanical properties :
#
#
# Convention : Reuss Voigt Hill
#
# Bulk Modulus (GPa) = 39.04699 56.21768 47.63233
# Shear Modulus (GPa) = -38.78970 18.34457 -10.22256
#
# Velocity S-wave (km/s) = -4.62547 3.18091 -2.37453
# Velocity P-wave (km/s) = 2.64381 6.67072 4.33063
#
# Compressibility (1/GPa) = 0.02561017
#
# Stress axis : x y z
#
# Youngs Moduli (GPa) = 55.18172 41.13985 22.84465
#
# Poissons Ratio (x) = 0.32587 0.30787
# Poissons Ratio (y) = 0.43710 0.20329
# Poissons Ratio (z) = 0.74367 0.36609
#
# Static dielectric constant tensor:
#      x y z
#    x 1.607530 0.000000 0.019200 
#    y 0.000000 1.605150 0.000000 
#    z 0.019200 0.000000 1.642430 
# 
# From -- ./inp_files/148571.got.cif
#   From: 2010.05.17/outbox.cif.g08.bks.cpg/sg12_75_cif.got.tgz:148571.got - 2010.06.03 13:09:07.
