data_PCOD9176387
_publ_section_title
;
Structure prediction by ZEFSAII (Michael W. Deem and Ramdas Pophale) SiO2 
 PCOD9176387
Probable space group: C 2/M
;
_chemical_formula_sum "Si O2"
_cell_formula_units_Z 32
_cell_length_a 20.883713
_cell_length_b 8.737271
_cell_length_c 25.698416
_cell_angle_alpha 90.000000
_cell_angle_beta 22.834494
_cell_angle_gamma 90.000000
_cell_volume 1819.703028
_symmetry_space_group_name_H-M "C 2/M"
_symmetry_group_IT_number 12
_symmetry_cell_setting 'monoclinic'
loop_
_space_group_symop_operation_xyz
x,y,z
-x,y,-z
-x,-y,-z
x,-y,z
1/2+x,1/2+y,z
1/2-x,1/2+y,-z
1/2-x,1/2-y,-z
1/2+x,1/2-y,z
loop_
_atom_site_type_symbol
_atom_site_label
_atom_site_fract_x
_atom_site_fract_y
_atom_site_fract_z
Si Si1 0.251567 0.685110 0.843023
Si Si2 0.106960 0.681687 0.571310
Si Si3 0.412213 0.185745 0.144306
Si Si4 0.157230 0.816271 0.419532
O O1 0.264869 0.500000 0.834149
O O2 0.427519 0.756790 0.722598
O O3 0.191740 0.728545 0.829431
O O4 0.101150 0.732528 0.993423
O O5 0.109602 0.500000 0.572371
O O6 0.250000 0.750000 0.500000
O O7 0.135472 0.735826 0.490725
O O8 0.317787 0.235516 0.266730
O O9 0.411464 0.000000 0.145311
O O10 0.000000 0.789353 0.500000
O O11 0.165900 0.000000 0.421706
#
# Coordination Sequence:
#
# PCOD9176387 Si02
#       4
#     8   8   8   8
#     4   9  16  33  57  83 112 145 183 222 271 329
#     4  12  25  39  55  79 112 151 190 231 278 329
#     4   8  15  29  57  88 112 141 179 222 272 329
#     4  10  18  34  60  87 113 144 183 226 273 329
#
# _framework density 17.585286
#
# number of rings (size 3 to 8) (size 9 to 14) (size 15 to 20)
#    0.000    2.250    2.500    3.750    0.000    0.500 
#    0.000    5.000    0.000    0.000    0.000    0.000 
#    0.000    0.000    0.000    0.000    0.000    0.000 
#
# Total GULP energy -89262.490549 kJ/mol
# GULP energy per Si atom -5578.905659 kJ/mol
# Density = 1.754526 g / cm^3
# Si number density = 17.585286 Si / 1000 Ang^3
#
#
#
# Elastic Constant Matrix: (Units=GPa)
#
#
# Indices 1 2 3 4 5 6 
#
# 1 68.8673 44.9296 63.3479 -0.0001 -13.9072 -0.0001
# 2 44.9296 62.3839 55.5600 -0.0007 -7.9197 0.0002
# 3 63.3479 55.5600 180.6970 -0.0008 -11.0350 0.0001
# 4 -0.0001 -0.0007 -0.0008 23.1726 0.0002 -3.4406
# 5 -13.9072 -7.9197 -11.0350 0.0002 27.8933 -0.0001
# 6 -0.0001 0.0002 0.0001 -3.4406 -0.0001 21.1700
#
#
#
# Elastic Compliance Matrix: (Units=1/GPa)
#
#
# Indices 1 2 3 4 5 6 
#
# 1 0.033046 -0.017642 -0.005596 -0.000001 0.009254 0.000000
# 2 -0.017642 0.031866 -0.003687 0.000001 -0.001207 0.000000
# 3 -0.005596 -0.003687 0.008603 0.000000 -0.000433 0.000000
# 4 -0.000001 0.000001 0.000000 0.044222 0.000000 0.007187
# 5 0.009254 -0.001207 -0.000433 0.000000 0.039951 0.000000
# 6 0.000000 0.000000 0.000000 0.007187 0.000000 0.048405
#
#
# Mechanical properties :
#
#
# Convention : Reuss Voigt Hill
#
# Bulk Modulus (GPa) = 50.84830 71.06924 60.95877
# Shear Modulus (GPa) = 18.76193 24.32122 21.54158
#
# Velocity S-wave (km/s) = 3.26990 3.72296 3.50376
# Velocity P-wave (km/s) = 6.57529 7.68000 7.14901
#
# Compressibility (1/GPa) = 0.01966634
#
# Stress axis : x y z
#
# Youngs Moduli (GPa) = 30.26047 31.38115 116.23853
#
# Poissons Ratio (x) = 0.55363 0.65043
# Poissons Ratio (y) = 0.53386 0.42856
# Poissons Ratio (z) = 0.16933 0.11570
#
# Static dielectric constant tensor:
#      x y z
#    x 1.564820 0.000000 0.015310 
#    y 0.000000 1.590500 0.000000 
#    z 0.015310 0.000000 1.624470 
# 
# From -- ./inp_files/161649.got.cif
#   From: 2010.05.17/outbox.cif.g08.bks.cpg/sg12_81_cif.got.tgz:161649.got - 2010.06.03 13:09:07.
