data_PCOD9176090
_publ_section_title
;
Structure prediction by ZEFSAII (Michael W. Deem and Ramdas Pophale) SiO2 
 PCOD9176090
Probable space group: C 2/M
;
_chemical_formula_sum "Si O2"
_cell_formula_units_Z 52
_cell_length_a 17.841820
_cell_length_b 22.858104
_cell_length_c 9.655838
_cell_angle_alpha 90.000000
_cell_angle_beta 39.286254
_cell_angle_gamma 90.000000
_cell_volume 2493.486050
_symmetry_space_group_name_H-M "C 2/M"
_symmetry_group_IT_number 12
_symmetry_cell_setting 'monoclinic'
loop_
_space_group_symop_operation_xyz
x,y,z
-x,y,-z
-x,-y,-z
x,-y,z
1/2+x,1/2+y,z
1/2-x,1/2+y,-z
1/2-x,1/2-y,-z
1/2+x,1/2-y,z
loop_
_atom_site_type_symbol
_atom_site_label
_atom_site_fract_x
_atom_site_fract_y
_atom_site_fract_z
Si Si1 0.256173 0.813008 0.060214
Si Si2 0.500000 0.285675 0.500000
Si Si3 0.563651 0.269695 0.701038
Si Si4 0.825507 0.681500 0.263009
Si Si5 0.276618 0.435410 0.637301
Si Si6 0.735592 0.434257 0.011037
Si Si7 0.985215 0.102916 0.859332
O O1 0.329114 0.804038 0.095767
O O2 0.298490 0.869867 0.914805
O O3 0.117730 0.823221 0.302559
O O4 0.250000 0.750000 0.000000
O O5 0.526375 0.250271 0.600863
O O6 0.694924 0.297883 0.499406
O O7 0.583207 0.216070 0.774499
O O8 0.482547 0.325444 0.858082
O O9 0.820063 0.611668 0.273030
O O10 0.243515 0.500000 0.640274
O O11 0.289681 0.435634 0.786119
O O12 0.400455 0.417934 0.389990
O O13 0.785507 0.500000 0.910203
O O14 0.625968 0.424706 0.062382
O O15 0.000000 0.086633 0.000000
#
# Coordination Sequence:
#
# PCOD9176090 Si02
#       7
#     8   4   8   8   8   8   8
#     4  10  20  33  53  77 105 138 180 221 261 316
#     4  10  18  34  55  74 103 136 180 216 268 316
#     4   9  17  30  47  69  98 136 171 211 254 308
#     4   8  17  30  47  71  98 130 172 219 253 295
#     4   9  18  33  51  68  96 140 178 206 255 319
#     4  10  20  34  51  73 103 142 175 210 259 324
#     4  11  21  28  45  71 107 136 169 207 258 318
#
# _framework density 20.854337000000001
#
# number of rings (size 3 to 8) (size 9 to 14) (size 15 to 20)
#    0.000    2.462    1.538    1.846    2.154    2.462 
#    0.000    0.000    0.000    0.000    0.000    2.154 
#    0.000    5.538    0.000    0.000    0.000    0.000 
#
# Total GULP energy -144813.505894 kJ/mol
# GULP energy per Si atom -5569.750227 kJ/mol
# Density = 2.080687 g / cm^3
# Si number density = 20.854337 Si / 1000 Ang^3
#
#
#
# Elastic Constant Matrix: (Units=GPa)
#
#
# Indices 1 2 3 4 5 6 
#
# 1 103.2610 53.5294 8.2652 0.0000 17.5557 0.0001
# 2 53.5294 196.0106 3.9152 -0.0001 20.9130 0.0001
# 3 8.2652 3.9152 17.0144 -0.0001 5.5975 0.0001
# 4 0.0000 -0.0001 -0.0001 14.0669 0.0001 4.4678
# 5 17.5557 20.9130 5.5975 0.0001 26.9675 -0.0001
# 6 0.0001 0.0001 0.0001 4.4678 -0.0001 31.0809
#
#
#
# Elastic Compliance Matrix: (Units=1/GPa)
#
#
# Indices 1 2 3 4 5 6 
#
# 1 0.012260 -0.002730 -0.003647 0.000000 -0.005107 0.000000
# 2 -0.002730 0.006170 0.000962 0.000000 -0.003207 0.000000
# 3 -0.003647 0.000962 0.064170 0.000001 -0.011691 0.000000
# 4 0.000000 0.000000 0.000001 0.074490 0.000000 -0.010708
# 5 -0.005107 -0.003207 -0.011691 0.000000 0.045320 0.000000
# 6 0.000000 0.000000 0.000000 -0.010708 0.000000 0.033713
#
#
# Mechanical properties :
#
#
# Convention : Reuss Voigt Hill
#
# Bulk Modulus (GPa) = 13.93368 49.74507 31.83938
# Shear Modulus (GPa) = 18.45848 31.12813 24.79330
#
# Velocity S-wave (km/s) = 2.97832 3.86767 3.45175
# Velocity P-wave (km/s) = 4.30385 6.62197 5.58451
#
# Compressibility (1/GPa) = 0.07176856
#
# Stress axis : x y z
#
# Youngs Moduli (GPa) = 81.56793 162.06417 15.58353
#
# Poissons Ratio (x) = 0.44250 0.05684
# Poissons Ratio (y) = 0.22271 -0.01499
# Poissons Ratio (z) = 0.29749 -0.15585
#
# Static dielectric constant tensor:
#      x y z
#    x 1.748300 0.000000 -0.009680 
#    y 0.000000 1.842840 0.000000 
#    z -0.009680 0.000000 1.829990 
# 
# From -- ./inp_files/79069.got.cif
#   From: 2010.05.17/outbox.cif.g08.bks.cpg/sg12_40_cif.got.tgz:79069.got - 2010.06.03 13:09:07.
