data_PCOD9176792
_publ_section_title
;
Structure prediction by ZEFSAII (Michael W. Deem and Ramdas Pophale) SiO2 
 PCOD9176792
Probable space group: C 2/M
;
_chemical_formula_sum "Si O2"
_cell_formula_units_Z 56
_cell_length_a 15.342651
_cell_length_b 21.423276
_cell_length_c 16.993904
_cell_angle_alpha 90.000000
_cell_angle_beta 32.690276
_cell_angle_gamma 90.000000
_cell_volume 3016.835381
_symmetry_space_group_name_H-M "C 2/M"
_symmetry_group_IT_number 12
_symmetry_cell_setting 'monoclinic'
loop_
_space_group_symop_operation_xyz
x,y,z
-x,y,-z
-x,-y,-z
x,-y,z
1/2+x,1/2+y,z
1/2-x,1/2+y,-z
1/2-x,1/2-y,-z
1/2+x,1/2-y,z
loop_
_atom_site_type_symbol
_atom_site_label
_atom_site_fract_x
_atom_site_fract_y
_atom_site_fract_z
Si Si1 0.671231 0.166799 0.072455
Si Si2 0.177902 0.930374 0.329982
Si Si3 0.190148 0.680203 0.872008
Si Si4 0.405990 0.071658 0.309212
Si Si5 0.323022 0.758225 0.634522
Si Si6 0.313069 0.683584 0.486226
Si Si7 0.498996 0.296794 0.202693
O O1 0.579680 0.103715 0.163660
O O2 0.556838 0.225864 0.179031
O O3 0.696084 0.175658 0.960489
O O4 0.855525 0.174884 0.959601
O O5 0.238116 0.881860 0.220871
O O6 0.308965 0.930369 0.300433
O O7 0.000000 0.917737 0.500000
O O8 0.170163 0.000000 0.301785
O O9 0.279640 0.734236 0.754522
O O10 0.000000 0.686162 0.000000
O O11 0.304550 0.124467 0.432975
O O12 0.411770 0.000000 0.334277
O O13 0.500000 0.788942 0.500000
O O14 0.339586 0.700691 0.558154
O O15 0.167849 0.794783 0.719277
O O16 0.250000 0.750000 0.500000
O O17 0.462128 0.670930 0.314664
#
# Coordination Sequence:
#
# PCOD9176792 Si02
#       7
#     8   8   8   8   8   8   8
#     4  11  21  35  50  78 111 152 177 230 276 333
#     4  10  21  33  46  68 104 149 198 229 250 298
#     4  12  19  31  49  74 109 142 190 218 273 307
#     4  11  21  36  52  76 110 150 195 228 266 317
#     4  11  20  33  52  79 106 142 182 234 276 316
#     4  10  18  36  55  78 106 149 188 225 278 319
#     4  10  21  35  54  75 106 145 187 222 289 324
#
# _framework density 18.562497
#
# number of rings (size 3 to 8) (size 9 to 14) (size 15 to 20)
#    0.000    1.286    7.143    1.286    2.000    0.857 
#    0.000    0.714    0.000    0.000    0.000    0.000 
#    0.000   18.857    0.000    0.143    0.000    0.000 
#
# Total GULP energy -156032.002614 kJ/mol
# GULP energy per Si atom -5572.571522 kJ/mol
# Density = 1.852025 g / cm^3
# Si number density = 18.562497 Si / 1000 Ang^3
#
#
#
# Elastic Constant Matrix: (Units=GPa)
#
#
# Indices 1 2 3 4 5 6 
#
# 1 38.1979 14.4880 25.6292 0.0033 -22.4617 -0.0020
# 2 14.4880 90.5952 41.3851 0.0000 -7.7881 -0.0002
# 3 25.6292 41.3851 129.0197 0.0052 -19.6916 -0.0010
# 4 0.0033 0.0000 0.0052 6.0916 -0.0025 7.2840
# 5 -22.4617 -7.7881 -19.6916 -0.0025 44.0644 0.0010
# 6 -0.0020 -0.0002 -0.0010 7.2840 0.0010 12.5033
#
#
#
# Elastic Compliance Matrix: (Units=1/GPa)
#
#
# Indices 1 2 3 4 5 6 
#
# 1 0.041119 -0.002981 -0.004393 -0.000055 0.018470 0.000036
# 2 -0.002981 0.013158 -0.003762 0.000017 -0.000875 -0.000010
# 3 -0.004393 -0.003762 0.010074 -0.000018 0.001598 0.000010
# 4 -0.000055 0.000017 -0.000018 0.541058 0.000005 -0.315202
# 5 0.018470 -0.000875 0.001598 0.000005 0.032669 -0.000003
# 6 0.000036 -0.000010 0.000010 -0.315202 -0.000003 0.263605
#
#
# Mechanical properties :
#
#
# Convention : Reuss Voigt Hill
#
# Bulk Modulus (GPa) = 23.76498 46.75748 35.26123
# Shear Modulus (GPa) = 5.33060 24.28590 14.80825
#
# Velocity S-wave (km/s) = 1.69645 3.62101 2.82751
# Velocity P-wave (km/s) = 4.08261 6.53653 5.44949
#
# Compressibility (1/GPa) = 0.04207873
#
# Stress axis : x y z
#
# Youngs Moduli (GPa) = 24.31986 75.99828 99.26590
#
# Poissons Ratio (x) = 0.22657 0.43605
# Poissons Ratio (y) = 0.07250 0.37345
# Poissons Ratio (z) = 0.10683 0.28591
#
# Static dielectric constant tensor:
#      x y z
#    x 1.786010 0.000000 -0.059890 
#    y 0.000000 1.658620 0.000000 
#    z -0.059890 0.000000 1.724120 
# 
# From -- ./inp_files/278997.got.cif
#   From: 2010.05.17/outbox.cif.g08.bks.cpg/sg12_140_cif.got.tgz:278997.got - 2010.06.03 13:09:07.
