data_PCOD9176347
_publ_section_title
;
Structure prediction by ZEFSAII (Michael W. Deem and Ramdas Pophale) SiO2 
 PCOD9176347
Probable space group: C 2/M
;
_chemical_formula_sum "Si O2"
_cell_formula_units_Z 32
_cell_length_a 21.631083
_cell_length_b 8.042566
_cell_length_c 9.089557
_cell_angle_alpha 90.000000
_cell_angle_beta 108.813707
_cell_angle_gamma 90.000000
_cell_volume 1496.819151
_symmetry_space_group_name_H-M "C 2/M"
_symmetry_group_IT_number 12
_symmetry_cell_setting 'monoclinic'
loop_
_space_group_symop_operation_xyz
x,y,z
-x,y,-z
-x,-y,-z
x,-y,z
1/2+x,1/2+y,z
1/2-x,1/2+y,-z
1/2-x,1/2-y,-z
1/2+x,1/2-y,z
loop_
_atom_site_type_symbol
_atom_site_label
_atom_site_fract_x
_atom_site_fract_y
_atom_site_fract_z
Si Si1 0.925223 0.000000 0.880440
Si Si2 0.665101 0.804747 0.093234
Si Si3 0.996914 0.000000 0.320179
Si Si4 0.310728 0.300620 0.225338
Si Si5 0.559358 0.821744 0.660108
O O1 0.886076 0.833805 0.894548
O O2 0.935595 0.000000 0.711925
O O3 0.000000 0.000000 0.000000
O O4 0.736915 0.767409 0.217443
O O5 0.649135 0.000000 0.108223
O O6 0.678082 0.777610 0.928438
O O7 0.000000 0.000000 0.500000
O O8 0.958171 0.166683 0.251421
O O9 0.318067 0.500000 0.222070
O O10 0.371314 0.222415 0.360356
O O11 0.500000 0.831189 0.500000
O O12 0.562950 0.000000 0.738064
#
# Coordination Sequence:
#
# PCOD9176347 Si02
#       5
#     4   8   4   8   8
#     4  12  24  38  60  92 125 155 207 254 308 364
#     4  10  22  36  56  90 124 162 193 249 310 362
#     4  10  22  40  60  84 122 161 201 252 303 364
#     4  10  18  34  59  88 126 158 201 242 306 374
#     4  10  20  34  58  90 111 154 207 251 295 354
#
# _framework density 21.378668999999999
#
# number of rings (size 3 to 8) (size 9 to 14) (size 15 to 20)
#    0.000    1.750    2.500    2.250    3.500    1.500 
#    0.000    0.000    0.000    6.000    0.000    0.000 
#    0.000    0.000    0.000    0.000    0.000    0.000 
#
# Total GULP energy -89177.091623 kJ/mol
# GULP energy per Si atom -5573.568226 kJ/mol
# Density = 2.133001 g / cm^3
# Si number density = 21.378669 Si / 1000 Ang^3
#
#
#
# Elastic Constant Matrix: (Units=GPa)
#
#
# Indices 1 2 3 4 5 6 
#
# 1 180.9397 95.2738 43.5573 0.0000 21.6825 0.0000
# 2 95.2738 223.7957 9.9070 0.0000 -7.7110 0.0000
# 3 43.5573 9.9070 46.8204 0.0000 5.0654 0.0000
# 4 0.0000 0.0000 0.0000 8.8810 0.0000 2.4392
# 5 21.6825 -7.7110 5.0654 0.0000 41.3557 0.0000
# 6 0.0000 0.0000 0.0000 2.4392 0.0000 36.4575
#
#
#
# Elastic Compliance Matrix: (Units=1/GPa)
#
#
# Indices 1 2 3 4 5 6 
#
# 1 0.010336 -0.004218 -0.008160 0.000000 -0.005206 0.000000
# 2 -0.004218 0.006271 0.002262 0.000000 0.003104 0.000000
# 3 -0.008160 0.002262 0.028338 0.000000 0.001229 0.000000
# 4 0.000000 0.000000 0.000000 0.114708 0.000000 -0.007675
# 5 -0.005206 0.003104 0.001229 0.000000 0.027338 0.000000
# 6 0.000000 0.000000 0.000000 -0.007675 0.000000 0.027943
#
#
# Mechanical properties :
#
#
# Convention : Reuss Voigt Hill
#
# Bulk Modulus (GPa) = 40.46652 83.22579 61.84615
# Shear Modulus (GPa) = 20.54193 37.52669 29.03431
#
# Velocity S-wave (km/s) = 3.10314 4.19421 3.68924
# Velocity P-wave (km/s) = 5.63993 7.90374 6.86578
#
# Compressibility (1/GPa) = 0.02471179
#
# Stress axis : x y z
#
# Youngs Moduli (GPa) = 96.74818 159.46297 35.28846
#
# Poissons Ratio (x) = 0.67268 0.28795
# Poissons Ratio (y) = 0.40813 -0.07981
# Poissons Ratio (z) = 0.78945 -0.36066
#
# Static dielectric constant tensor:
#      x y z
#    x 1.849690 0.000000 0.089430 
#    y 0.000000 1.821460 0.000000 
#    z 0.089430 0.000000 1.912870 
# 
# From -- ./inp_files/150995.got.cif
#   From: 2010.05.17/outbox.cif.g08.bks.cpg/sg12_76_cif.got.tgz:150995.got - 2010.06.03 13:09:07.
