data_PCOD9176062
_publ_section_title
;
Structure prediction by ZEFSAII (Michael W. Deem and Ramdas Pophale) SiO2 
 PCOD9176062
Probable space group: C 2/M
;
_chemical_formula_sum "Si O2"
_cell_formula_units_Z 56
_cell_length_a 12.684106
_cell_length_b 21.128447
_cell_length_c 11.391185
_cell_angle_alpha 90.000000
_cell_angle_beta 59.117301
_cell_angle_gamma 90.000000
_cell_volume 2619.961700
_symmetry_space_group_name_H-M "C 2/M"
_symmetry_group_IT_number 12
_symmetry_cell_setting 'monoclinic'
loop_
_space_group_symop_operation_xyz
x,y,z
-x,y,-z
-x,-y,-z
x,-y,z
1/2+x,1/2+y,z
1/2-x,1/2+y,-z
1/2-x,1/2-y,-z
1/2+x,1/2-y,z
loop_
_atom_site_type_symbol
_atom_site_label
_atom_site_fract_x
_atom_site_fract_y
_atom_site_fract_z
Si Si1 0.772915 0.569879 0.901240
Si Si2 0.327784 0.269075 0.696299
Si Si3 0.888148 0.769035 0.011441
Si Si4 0.123551 0.128399 0.172529
Si Si5 0.525467 0.822397 0.225033
Si Si6 0.631047 0.160651 0.491935
Si Si7 0.854441 0.924637 0.269163
O O1 0.824479 0.500000 0.856011
O O2 0.879247 0.620607 0.821477
O O3 0.671889 0.579175 0.856202
O O4 0.710831 0.576136 0.064694
O O5 0.349730 0.342642 0.713958
O O6 0.434721 0.233220 0.708300
O O7 0.333327 0.231882 0.570952
O O8 0.204819 0.247236 0.833296
O O9 0.836933 0.812914 0.937492
O O10 0.952483 0.709166 0.912631
O O11 0.000000 0.807861 0.000000
O O12 0.983039 0.107066 0.235273
O O13 0.395718 0.842101 0.353369
O O14 0.500000 0.143558 0.500000
O O15 0.739522 0.113596 0.391124
O O16 0.854872 0.000000 0.297975
#
# Coordination Sequence:
#
# PCOD9176062 Si02
#       7
#     8   8   8   8   8   8   8
#     4  11  19  31  53  79 111 147 185 229 282 338
#     4  10  18  34  54  76 110 154 179 224 281 332
#     4  11  19  32  58  80 110 144 179 232 291 335
#     4  11  19  33  51  79 115 144 184 226 276 336
#     4  10  19  35  51  81 112 142 187 230 280 341
#     4  10  19  35  54  76 115 149 191 227 278 343
#     4  11  22  33  51  80 117 155 185 229 285 345
#
# _framework density 21.374359999999999
#
# number of rings (size 3 to 8) (size 9 to 14) (size 15 to 20)
#    0.000    1.429    5.714    3.429    0.000    2.000 
#    0.000   12.857    0.000    0.429    0.000    0.000 
#    0.000   29.714    0.000    0.000    0.000    0.000 
#
# Total GULP energy -156027.055696 kJ/mol
# GULP energy per Si atom -5572.394846 kJ/mol
# Density = 2.132571 g / cm^3
# Si number density = 21.374360 Si / 1000 Ang^3
#
#
#
# Elastic Constant Matrix: (Units=GPa)
#
#
# Indices 1 2 3 4 5 6 
#
# 1 35.4003 17.9342 30.4153 0.0000 -4.1827 0.0000
# 2 17.9342 99.6895 53.8942 0.0000 1.5669 0.0000
# 3 30.4153 53.8942 148.6650 0.0000 -16.5452 0.0000
# 4 0.0000 0.0000 0.0000 9.9012 0.0000 -3.6327
# 5 -4.1827 1.5669 -16.5452 0.0000 19.4493 0.0000
# 6 0.0000 0.0000 0.0000 -3.6327 0.0000 23.6137
#
#
#
# Elastic Compliance Matrix: (Units=1/GPa)
#
#
# Indices 1 2 3 4 5 6 
#
# 1 0.035140 -0.003313 -0.005653 0.000000 0.003015 0.000000
# 2 -0.003313 0.013316 -0.004803 0.000000 -0.005871 0.000000
# 3 -0.005653 -0.004803 0.010529 0.000000 0.008128 0.000000
# 4 0.000000 0.000000 0.000000 0.107040 0.000000 0.016467
# 5 0.003015 -0.005871 0.008128 0.000000 0.059451 0.000000
# 6 0.000000 0.000000 0.000000 0.016467 0.000000 0.044882
#
#
# Mechanical properties :
#
#
# Convention : Reuss Voigt Hill
#
# Bulk Modulus (GPa) = 31.79933 54.24914 43.02424
# Shear Modulus (GPa) = 16.21392 22.69357 19.45374
#
# Velocity S-wave (km/s) = 2.75720 3.26194 3.02013
# Velocity P-wave (km/s) = 5.00458 6.29465 5.68632
#
# Compressibility (1/GPa) = 0.03144720
#
# Stress axis : x y z
#
# Youngs Moduli (GPa) = 28.45784 75.09759 94.97842
#
# Poissons Ratio (x) = 0.24881 0.53687
# Poissons Ratio (y) = 0.09429 0.45617
# Poissons Ratio (z) = 0.16086 0.36069
#
# Static dielectric constant tensor:
#      x y z
#    x 1.891290 0.000000 0.051870 
#    y 0.000000 1.809630 0.000000 
#    z 0.051870 0.000000 1.851700 
# 
# From -- ./inp_files/218256.got.cif
#   From: 2010.05.17/outbox.cif.g08.bks.cpg/sg12_110_cif.got.tgz:218256.got - 2010.06.03 13:09:07.
