data_PCOD9176444
_publ_section_title
;
Structure prediction by ZEFSAII (Michael W. Deem and Ramdas Pophale) SiO2 
 PCOD9176444
Probable space group: C 2/M
;
_chemical_formula_sum "Si O2"
_cell_formula_units_Z 56
_cell_length_a 32.345255
_cell_length_b 7.867478
_cell_length_c 18.196950
_cell_angle_alpha 90.000000
_cell_angle_beta 35.450954
_cell_angle_gamma 90.000000
_cell_volume 2685.821161
_symmetry_space_group_name_H-M "C 2/M"
_symmetry_group_IT_number 12
_symmetry_cell_setting 'monoclinic'
loop_
_space_group_symop_operation_xyz
x,y,z
-x,y,-z
-x,-y,-z
x,-y,z
1/2+x,1/2+y,z
1/2-x,1/2+y,-z
1/2-x,1/2-y,-z
1/2+x,1/2-y,z
loop_
_atom_site_type_symbol
_atom_site_label
_atom_site_fract_x
_atom_site_fract_y
_atom_site_fract_z
Si Si1 0.918736 0.792138 0.596460
Si Si2 0.088908 0.199808 0.557876
Si Si3 0.330874 0.295633 0.863659
Si Si4 0.088975 0.199759 0.803628
Si Si5 0.937181 0.790777 0.839391
Si Si6 0.419018 0.301990 0.026544
Si Si7 0.686799 0.812376 0.539434
O O1 0.903067 0.731514 0.536320
O O2 0.862999 0.733522 0.739368
O O3 0.000000 0.745818 0.500000
O O4 0.916352 0.000000 0.600322
O O5 0.157769 0.218323 0.509710
O O6 0.017261 0.266179 0.702069
O O7 0.075130 0.000000 0.569114
O O8 0.334925 0.500000 0.855958
O O9 0.383951 0.239886 0.851792
O O10 0.250000 0.250000 0.000000
O O11 0.121882 0.304294 0.690522
O O12 0.004170 0.200814 0.916157
O O13 0.110262 0.000000 0.765609
O O14 0.110639 0.266368 0.853155
O O15 0.909741 0.728877 0.958732
O O16 0.938714 0.000000 0.841905
O O17 0.396606 0.500000 0.057239
O O18 0.750000 0.750000 0.500000
O O19 0.704739 0.000000 0.488620
#
# Coordination Sequence:
#
# PCOD9176444 Si02
#       7
#     8   8   8   8   8   8   8
#     4   9  16  31  60  92 114 145 195 244 283 336
#     4  10  18  34  62  87 108 140 193 247 287 332
#     4  10  20  35  55  82 118 154 189 230 285 343
#     4   9  16  31  55  79 105 137 176 220 270 327
#     4   9  15  28  56  84 106 142 188 227 269 332
#     4   8  14  26  52  84 106 132 174 219 264 323
#     4  12  25  40  56  77 110 149 190 236 293 348
#
# _framework density 20.850234
#
# number of rings (size 3 to 8) (size 9 to 14) (size 15 to 20)
#    0.000    2.429    2.857    2.143    0.000    0.000 
#    2.571    2.857    0.000    0.857    0.000    0.000 
#    0.000    0.000    0.000    0.000    0.000    0.000 
#
# Total GULP energy -156020.075355 kJ/mol
# GULP energy per Si atom -5572.145548 kJ/mol
# Density = 2.080278 g / cm^3
# Si number density = 20.850234 Si / 1000 Ang^3
#
#
#
# Elastic Constant Matrix: (Units=GPa)
#
#
# Indices 1 2 3 4 5 6 
#
# 1 159.2084 1.8827 60.3536 -0.0040 32.7145 0.0018
# 2 1.8827 16.3190 0.7114 -0.0160 2.4354 -0.0003
# 3 60.3536 0.7114 74.8870 -0.0123 17.2272 0.0041
# 4 -0.0040 -0.0160 -0.0123 11.1103 0.0025 -7.9191
# 5 32.7145 2.4354 17.2272 0.0025 42.8357 -0.0020
# 6 0.0018 -0.0003 0.0041 -7.9191 -0.0020 4.6646
#
#
#
# Elastic Compliance Matrix: (Units=1/GPa)
#
#
# Indices 1 2 3 4 5 6 
#
# 1 0.009858 -0.000127 -0.006847 0.000014 -0.004768 0.000025
# 2 -0.000127 0.061808 0.000332 -0.000438 -0.003550 -0.000741
# 3 -0.006847 0.000332 0.019471 -0.000043 -0.002621 -0.000088
# 4 0.000014 -0.000438 -0.000043 -0.428436 0.000022 -0.727360
# 5 -0.004768 -0.003550 -0.002621 0.000022 0.028242 0.000053
# 6 0.000025 -0.000741 -0.000088 -0.727360 0.000053 -1.020464
#
#
# Mechanical properties :
#
#
# Convention : Reuss Voigt Hill
#
# Bulk Modulus (GPa) = 12.84468 41.81218 27.32843
# Shear Modulus (GPa) = -3.87511 24.21990 10.17240
#
# Velocity S-wave (km/s) = -1.36476 3.41194 2.21120
# Velocity P-wave (km/s) = 1.92104 5.96816 4.43336
#
# Compressibility (1/GPa) = 0.07785324
#
# Stress axis : x y z
#
# Youngs Moduli (GPa) = 101.44319 16.17914 51.35833
#
# Poissons Ratio (x) = 0.00206 0.35163
# Poissons Ratio (y) = 0.01291 -0.01706
# Poissons Ratio (z) = 0.69454 -0.00537
#
# Static dielectric constant tensor:
#      x y z
#    x 1.852930 0.000000 0.015030 
#    y 0.000000 1.783890 0.000000 
#    z 0.015030 0.000000 1.796770 
# 
# From -- ./inp_files/281644.got.cif
#   From: 2010.05.17/outbox.cif.g08.bks.cpg/sg12_141_cif.got.tgz:281644.got - 2010.06.03 13:09:07.
