data_PCOD9176907
_publ_section_title
;
Structure prediction by ZEFSAII (Michael W. Deem and Ramdas Pophale) SiO2 
 PCOD9176907
Probable space group: C 2/M
;
_chemical_formula_sum "Si O2"
_cell_formula_units_Z 64
_cell_length_a 26.834449
_cell_length_b 7.673156
_cell_length_c 14.349264
_cell_angle_alpha 90.000000
_cell_angle_beta 92.958010
_cell_angle_gamma 90.000000
_cell_volume 2950.647337
_symmetry_space_group_name_H-M "C 2/M"
_symmetry_group_IT_number 12
_symmetry_cell_setting 'monoclinic'
loop_
_space_group_symop_operation_xyz
x,y,z
-x,y,-z
-x,-y,-z
x,-y,z
1/2+x,1/2+y,z
1/2-x,1/2+y,-z
1/2-x,1/2-y,-z
1/2+x,1/2-y,z
loop_
_atom_site_type_symbol
_atom_site_label
_atom_site_fract_x
_atom_site_fract_y
_atom_site_fract_z
Si Si1 0.159525 0.214338 0.607182
Si Si2 0.950903 0.209816 0.940082
Si Si3 0.860041 0.797847 0.602785
Si Si4 0.228091 0.292332 0.897264
Si Si5 0.884944 0.706548 0.100764
Si Si6 0.436207 0.701416 0.289231
Si Si7 0.545513 0.714974 0.273745
Si Si8 0.736122 0.797452 0.295865
O O1 0.153954 0.273351 0.500071
O O2 0.111259 0.275907 0.660541
O O3 0.211784 0.272708 0.656974
O O4 0.160662 0.000000 0.611784
O O5 0.948785 0.270393 0.833414
O O6 0.953689 0.000000 0.938022
O O7 0.903641 0.258977 0.998404
O O8 0.000000 0.274538 0.000000
O O9 0.908433 0.723570 0.659226
O O10 0.812358 0.789225 0.665236
O O11 0.872197 0.000000 0.586525
O O12 0.227087 0.500000 0.886395
O O13 0.170982 0.227082 0.887142
O O14 0.259667 0.218924 0.814769
O O15 0.250000 0.250000 0.000000
O O16 0.885816 0.500000 0.117313
O O17 0.922347 0.790788 0.178634
O O18 0.439334 0.500000 0.318831
O O19 0.491584 0.775035 0.305701
O O20 0.545313 0.500000 0.272940
O O21 0.732434 0.000000 0.321056
#
# Coordination Sequence:
#
# PCOD9176907 Si02
#       8
#     8   8   8   8   8   8   8   8
#     4   9  19  35  61  88 112 147 196 249 297 343
#     4  10  19  34  56  80 110 153 195 227 269 338
#     4  10  21  38  57  86 120 152 195 246 297 346
#     4  11  25  42  60  87 119 152 189 236 291 346
#     4  11  23  37  55  85 116 147 186 236 289 340
#     4  10  18  36  61  84 113 153 195 238 286 344
#     4   9  19  34  56  85 115 151 195 238 287 342
#     4  11  22  39  61  87 116 155 198 237 290 352
#
# _framework density 21.690156999999999
#
# number of rings (size 3 to 8) (size 9 to 14) (size 15 to 20)
#    0.000    1.875    2.500    1.500    1.750    2.250 
#    0.000    4.375    0.000    0.000    0.000    1.750 
#    0.000    0.000    0.000    0.000    0.000    0.000 
#
# Total GULP energy -178813.019533 kJ/mol
# GULP energy per Si atom -5587.906860 kJ/mol
# Density = 2.164079 g / cm^3
# Si number density = 21.690157 Si / 1000 Ang^3
#
#
#
# Elastic Constant Matrix: (Units=GPa)
#
#
# Indices 1 2 3 4 5 6 
#
# 1 133.7980 -7.1745 47.0564 0.0000 7.3871 0.0000
# 2 -7.1745 40.4000 -11.0560 0.0000 4.4225 0.0000
# 3 47.0564 -11.0560 89.7773 0.0000 21.9460 0.0000
# 4 0.0000 0.0000 0.0000 4.4550 0.0000 -7.3248
# 5 7.3871 4.4225 21.9460 0.0000 28.5374 0.0000
# 6 0.0000 0.0000 0.0000 -7.3248 0.0000 13.5451
#
#
#
# Elastic Compliance Matrix: (Units=1/GPa)
#
#
# Indices 1 2 3 4 5 6 
#
# 1 0.009225 0.000029 -0.005230 0.000000 0.001630 0.000000
# 2 0.000029 0.027139 0.005366 0.000000 -0.008340 0.000000
# 3 -0.005230 0.005366 0.017750 0.000000 -0.013128 0.000000
# 4 0.000000 0.000000 0.000000 2.024464 0.000000 1.094779
# 5 0.001630 -0.008340 -0.013128 0.000000 0.046008 0.000000
# 6 0.000000 0.000000 0.000000 1.094779 0.000000 0.665857
#
#
# Mechanical properties :
#
#
# Convention : Reuss Voigt Hill
#
# Bulk Modulus (GPa) = 18.36811 35.73635 27.05223
# Shear Modulus (GPa) = 1.78046 24.98412 13.38229
#
# Velocity S-wave (km/s) = 0.90700 3.39759 2.48659
# Velocity P-wave (km/s) = 3.09575 5.64829 4.55449
#
# Compressibility (1/GPa) = 0.05444217
#
# Stress axis : x y z
#
# Youngs Moduli (GPa) = 108.40218 36.84747 56.33846
#
# Poissons Ratio (x) = -0.00105 0.29465
# Poissons Ratio (y) = -0.00309 -0.30230
# Poissons Ratio (z) = 0.56695 -0.19772
#
# Static dielectric constant tensor:
#      x y z
#    x 1.783960 0.000000 0.000960 
#    y 0.000000 1.831880 0.000000 
#    z 0.000960 0.000000 1.754870 
# 
# From -- ./inp_files/238707.got.cif
#   From: 2010.05.17/outbox.cif.g08.bks.cpg/sg12_120_cif.got.tgz:238707.got - 2010.06.03 13:09:07.
