data_PCOD9176573
_publ_section_title
;
Structure prediction by ZEFSAII (Michael W. Deem and Ramdas Pophale) SiO2 
 PCOD9176573
Probable space group: C 2/M
;
_chemical_formula_sum "Si O2"
_cell_formula_units_Z 36
_cell_length_a 16.936769
_cell_length_b 14.721741
_cell_length_c 8.598557
_cell_angle_alpha 90.000000
_cell_angle_beta 129.527463
_cell_angle_gamma 90.000000
_cell_volume 1653.673187
_symmetry_space_group_name_H-M "C 2/M"
_symmetry_group_IT_number 12
_symmetry_cell_setting 'monoclinic'
loop_
_space_group_symop_operation_xyz
x,y,z
-x,y,-z
-x,-y,-z
x,-y,z
1/2+x,1/2+y,z
1/2-x,1/2+y,-z
1/2-x,1/2-y,-z
1/2+x,1/2-y,z
loop_
_atom_site_type_symbol
_atom_site_label
_atom_site_fract_x
_atom_site_fract_y
_atom_site_fract_z
Si Si1 0.108112 0.000000 0.047360
Si Si2 0.881088 0.500000 0.384200
Si Si3 0.731241 0.000000 0.463936
Si Si4 0.115486 0.693285 0.717936
Si Si5 0.807127 0.185140 0.447519
Si Si6 0.466011 0.313558 0.132780
O O1 0.190279 0.000000 0.289038
O O2 0.101674 0.905324 0.947778
O O3 0.000000 0.000000 0.000000
O O4 0.870099 0.500000 0.557970
O O5 0.841289 0.592730 0.256784
O O6 0.000000 0.500000 0.500000
O O7 0.749977 0.910590 0.387411
O O8 0.183176 0.763261 0.703099
O O9 0.000000 0.692785 0.500000
O O10 0.094656 0.732044 0.862186
O O11 0.750000 0.250000 0.500000
O O12 0.925360 0.169126 0.646194
O O13 0.500000 0.292385 0.000000
#
# Coordination Sequence:
#
# PCOD9176573 Si02
#       6
#     4   4   4   8   8   8
#     4  10  18  35  57  87 116 156 184 229 311 354
#     4  10  20  38  54  80 117 162 196 231 290 344
#     4  12  20  35  62  88 119 153 196 241 294 355
#     4   9  20  34  57  84 114 151 197 241 282 344
#     4  11  20  34  56  91 114 150 199 245 287 340
#     4  10  19  37  59  84 120 158 190 234 301 355
#
# _framework density 21.76972
#
# number of rings (size 3 to 8) (size 9 to 14) (size 15 to 20)
#    0.000    1.778    6.667    0.000    0.000    0.889 
#    0.000    8.333    0.000    0.000    0.000    0.000 
#    0.000    0.000    0.000    0.000    0.000    0.000 
#
# Total GULP energy -100473.257312 kJ/mol
# GULP energy per Si atom -5581.847628 kJ/mol
# Density = 2.172017 g / cm^3
# Si number density = 21.769720 Si / 1000 Ang^3
#
#
#
# Elastic Constant Matrix: (Units=GPa)
#
#
# Indices 1 2 3 4 5 6 
#
# 1 116.4622 58.9128 21.1370 0.0000 -23.3983 0.0000
# 2 58.9128 212.7079 30.6384 0.0000 -50.1468 0.0000
# 3 21.1370 30.6384 41.6420 0.0000 -11.3735 0.0000
# 4 0.0000 0.0000 0.0000 12.9671 0.0000 -20.3289
# 5 -23.3983 -50.1468 -11.3735 0.0000 51.9275 0.0000
# 6 0.0000 0.0000 0.0000 -20.3289 0.0000 29.8327
#
#
#
# Elastic Compliance Matrix: (Units=1/GPa)
#
#
# Indices 1 2 3 4 5 6 
#
# 1 0.010617 -0.001944 -0.003366 0.000000 0.002169 0.000000
# 2 -0.001944 0.006832 -0.002635 0.000000 0.005145 0.000000
# 3 -0.003366 -0.002635 0.028242 0.000000 0.002125 0.000000
# 4 0.000000 0.000000 0.000000 -1.129248 0.000000 -0.769503
# 5 0.002169 0.005145 0.002125 0.000000 0.025669 0.000000
# 6 0.000000 0.000000 0.000000 -0.769503 0.000000 -0.490842
#
#
# Mechanical properties :
#
#
# Convention : Reuss Voigt Hill
#
# Bulk Modulus (GPa) = 33.55664 65.79873 49.67769
# Shear Modulus (GPa) = -3.28320 36.28706 16.50193
#
# Velocity S-wave (km/s) = -1.22940 4.08715 2.75621
# Velocity P-wave (km/s) = 3.66505 7.25007 5.74439
#
# Compressibility (1/GPa) = 0.02980036
#
# Stress axis : x y z
#
# Youngs Moduli (GPa) = 94.19161 146.36603 35.40881
#
# Poissons Ratio (x) = 0.28458 0.11919
# Poissons Ratio (y) = 0.18313 0.09329
# Poissons Ratio (z) = 0.31705 0.38564
#
# Static dielectric constant tensor:
#      x y z
#    x 1.901350 0.000000 0.021780 
#    y 0.000000 1.843550 0.000000 
#    z 0.021780 0.000000 1.820720 
# 
# From -- ./inp_files/58638.got.cif
#   From: 2010.05.17/outbox.cif.g08.bks.cpg/sg12_30_cif.got.tgz:58638.got - 2010.06.03 13:09:07.
