data_PCOD9176222
_publ_section_title
;
Structure prediction by ZEFSAII (Michael W. Deem and Ramdas Pophale) SiO2 
 PCOD9176222
Probable space group: C 2/M
;
_chemical_formula_sum "Si O2"
_cell_formula_units_Z 40
_cell_length_a 17.741479
_cell_length_b 27.905619
_cell_length_c 8.659668
_cell_angle_alpha 90.000000
_cell_angle_beta 27.850024
_cell_angle_gamma 90.000000
_cell_volume 2002.844515
_symmetry_space_group_name_H-M "C 2/M"
_symmetry_group_IT_number 12
_symmetry_cell_setting 'monoclinic'
loop_
_space_group_symop_operation_xyz
x,y,z
-x,y,-z
-x,-y,-z
x,-y,z
1/2+x,1/2+y,z
1/2-x,1/2+y,-z
1/2-x,1/2-y,-z
1/2+x,1/2-y,z
loop_
_atom_site_type_symbol
_atom_site_label
_atom_site_fract_x
_atom_site_fract_y
_atom_site_fract_z
Si Si1 0.690737 0.702131 0.691897
Si Si2 0.316722 0.603808 0.776191
Si Si3 0.317719 0.500000 0.397248
Si Si4 0.691447 0.199298 0.169819
Si Si5 0.681299 0.602770 0.597729
Si Si6 0.184285 0.000000 0.226329
O O1 0.750000 0.750000 0.500000
O O2 0.736237 0.700010 0.788734
O O3 0.763031 0.652049 0.499557
O O4 0.500000 0.700981 0.000000
O O5 0.500000 0.602521 0.500000
O O6 0.322435 0.605522 0.580407
O O7 0.242450 0.551510 0.954848
O O8 0.245413 0.651628 0.980432
O O9 0.243748 0.551575 0.487393
O O10 0.324444 0.500000 0.571289
O O11 0.500000 0.500000 0.000000
O O12 0.500000 0.199722 0.500000
O O13 0.750000 0.250000 0.000000
O O14 0.500000 0.602383 0.000000
O O15 0.000000 0.000000 0.500000
#
# Coordination Sequence:
#
# PCOD9176222 Si02
#       6
#     8   8   4   8   8   4
#     4  11  22  38  58  83 111 145 187 235 286 343
#     4  10  18  34  57  85 119 156 197 242 288 348
#     4   8  14  26  46  76 111 141 180 232 281 325
#     4  12  25  41  60  86 117 155 195 242 299 356
#     4   9  17  30  52  82 112 145 186 235 283 332
#     4   8  16  28  51  82 114 153 195 236 284 339
#
# _framework density 19.971595000000001
#
# number of rings (size 3 to 8) (size 9 to 14) (size 15 to 20)
#    0.000    2.000    0.000    5.400    0.000    1.600 
#    0.000    0.500    0.000    0.000    0.000    4.900 
#    0.000    0.000    0.000    0.000    0.000    0.000 
#
# Total GULP energy -111364.615377 kJ/mol
# GULP energy per Si atom -5568.230769 kJ/mol
# Density = 1.992614 g / cm^3
# Si number density = 19.971595 Si / 1000 Ang^3
#
#
#
# Elastic Constant Matrix: (Units=GPa)
#
#
# Indices 1 2 3 4 5 6 
#
# 1 111.6383 61.5122 29.1227 -0.0001 12.2190 0.0001
# 2 61.5122 288.5803 61.8114 0.0003 23.8434 -0.0002
# 3 29.1227 61.8114 52.3256 -0.0002 -0.0726 -0.0002
# 4 -0.0001 0.0003 -0.0002 21.6695 -0.0001 13.5216
# 5 12.2190 23.8434 -0.0726 -0.0001 22.6126 0.0002
# 6 0.0001 -0.0002 -0.0002 13.5216 0.0002 21.2082
#
#
#
# Elastic Compliance Matrix: (Units=1/GPa)
#
#
# Indices 1 2 3 4 5 6 
#
# 1 0.011398 -0.000847 -0.005351 0.000000 -0.005283 0.000000
# 2 -0.000847 0.005319 -0.005820 0.000000 -0.005170 0.000000
# 3 -0.005351 -0.005820 0.028976 0.000001 0.009121 0.000000
# 4 0.000000 0.000000 0.000001 0.076637 0.000001 -0.048861
# 5 -0.005283 -0.005170 0.009121 0.000001 0.052559 -0.000001
# 6 0.000000 0.000000 0.000000 -0.048861 -0.000001 0.078304
#
#
# Mechanical properties :
#
#
# Convention : Reuss Voigt Hill
#
# Bulk Modulus (GPa) = 46.16897 84.15965 65.16431
# Shear Modulus (GPa) = 17.57795 33.10459 25.34127
#
# Velocity S-wave (km/s) = 2.96995 4.07576 3.56598
# Velocity P-wave (km/s) = 5.91002 8.02373 7.04658
#
# Compressibility (1/GPa) = 0.02165957
#
# Stress axis : x y z
#
# Youngs Moduli (GPa) = 87.73265 187.98988 34.51101
#
# Poissons Ratio (x) = 0.15923 0.18466
# Poissons Ratio (y) = 0.07431 0.20084
# Poissons Ratio (z) = 0.46943 1.09401
#
# Static dielectric constant tensor:
#      x y z
#    x 1.585200 0.000000 -0.042420 
#    y 0.000000 1.932270 0.000000 
#    z -0.042420 0.000000 1.693520 
# 
# From -- ./inp_files/79801.got.cif
#   From: 2010.05.17/outbox.cif.g08.bks.cpg/sg12_40_cif.got.tgz:79801.got - 2010.06.03 13:09:07.
