data_PCOD9176078
_publ_section_title
;
Structure prediction by ZEFSAII (Michael W. Deem and Ramdas Pophale) SiO2 
 PCOD9176078
Probable space group: C 2/M
;
_chemical_formula_sum "Si O2"
_cell_formula_units_Z 64
_cell_length_a 17.031893
_cell_length_b 16.749221
_cell_length_c 12.799908
_cell_angle_alpha 90.000000
_cell_angle_beta 102.349156
_cell_angle_gamma 90.000000
_cell_volume 3566.956365
_symmetry_space_group_name_H-M "C 2/M"
_symmetry_group_IT_number 12
_symmetry_cell_setting 'monoclinic'
loop_
_space_group_symop_operation_xyz
x,y,z
-x,y,-z
-x,-y,-z
x,-y,z
1/2+x,1/2+y,z
1/2-x,1/2+y,-z
1/2-x,1/2-y,-z
1/2+x,1/2-y,z
loop_
_atom_site_type_symbol
_atom_site_label
_atom_site_fract_x
_atom_site_fract_y
_atom_site_fract_z
Si Si1 0.475968 0.412456 0.371704
Si Si2 0.797001 0.850058 0.291179
Si Si3 0.806036 0.674823 0.547208
Si Si4 0.554183 0.767485 0.915144
Si Si5 0.475860 0.761142 0.672665
Si Si6 0.642256 0.169450 0.659336
Si Si7 0.333239 0.090641 0.111924
Si Si8 0.290950 0.667872 0.051978
O O1 0.500000 0.413831 0.500000
O O2 0.495900 0.500000 0.332722
O O3 0.381052 0.395712 0.330727
O O4 0.519336 0.334131 0.340627
O O5 0.738088 0.870480 0.370487
O O6 0.815449 0.755071 0.306721
O O7 0.767914 0.858253 0.163284
O O8 0.750000 0.750000 0.500000
O O9 0.890180 0.707258 0.614422
O O10 0.826560 0.634897 0.441429
O O11 0.497819 0.775938 0.798701
O O12 0.608671 0.847286 0.931550
O O13 0.615262 0.692609 0.918804
O O14 0.500000 0.758233 0.000000
O O15 0.548183 0.805056 0.630321
O O16 0.660347 0.115472 0.764786
O O17 0.358154 0.000000 0.104735
O O18 0.244081 0.104684 0.039870
O O19 0.250000 0.750000 0.000000
#
# Coordination Sequence:
#
# PCOD9176078 Si02
#       8
#     8   8   8   8   8   8   8   8
#     4  10  19  33  54  78 112 149 177 215 277 337
#     4  10  18  34  54  83 106 143 187 235 270 321
#     4  10  20  28  56  85 108 137 187 240 272 318
#     4  10  21  35  61  83 107 145 190 240 272 324
#     4  10  18  34  55  80 109 143 191 227 276 324
#     4   9  17  35  52  80 108 145 186 226 272 333
#     4  10  21  36  60  84 113 151 182 227 289 340
#     4  10  18  36  56  81 113 144 190 228 279 327
#
# _framework density 17.942468000000002
#
# number of rings (size 3 to 8) (size 9 to 14) (size 15 to 20)
#    0.000    2.125    5.000    2.625    3.500    0.750 
#    0.000    0.625    0.000   15.750    0.000    0.000 
#    0.000    0.000    0.000    0.000    0.000    0.000 
#
# Total GULP energy -178208.479571 kJ/mol
# GULP energy per Si atom -5569.014987 kJ/mol
# Density = 1.790163 g / cm^3
# Si number density = 17.942468 Si / 1000 Ang^3
#
#
#
# Elastic Constant Matrix: (Units=GPa)
#
#
# Indices 1 2 3 4 5 6 
#
# 1 53.2456 -6.1348 38.8738 0.0000 1.3257 0.0000
# 2 -6.1348 47.0044 4.9550 0.0000 3.1912 0.0000
# 3 38.8738 4.9550 101.8515 0.0000 2.1768 0.0000
# 4 0.0000 0.0000 0.0000 -1.5013 0.0000 3.3739
# 5 1.3257 3.1912 2.1768 0.0000 37.2831 0.0000
# 6 0.0000 0.0000 0.0000 3.3739 0.0000 7.7480
#
#
#
# Elastic Compliance Matrix: (Units=1/GPa)
#
#
# Indices 1 2 3 4 5 6 
#
# 1 0.027025 0.004688 -0.010527 0.000000 -0.000748 0.000000
# 2 0.004688 0.022315 -0.002834 0.000000 -0.001911 0.000000
# 3 -0.010527 -0.002834 0.013978 0.000000 -0.000199 0.000000
# 4 0.000000 0.000000 0.000000 -0.336646 0.000000 0.146596
# 5 -0.000748 -0.001911 -0.000199 0.000000 0.027024 0.000000
# 6 0.000000 0.000000 0.000000 0.146596 0.000000 0.065229
#
#
# Mechanical properties :
#
#
# Convention : Reuss Voigt Hill
#
# Bulk Modulus (GPa) = 21.75240 30.83219 26.29229
# Shear Modulus (GPa) = -33.69145 19.66647 -7.01249
#
# Velocity S-wave (km/s) = -4.33800 3.31431 -1.97909
# Velocity P-wave (km/s) = 3.59740 5.64512 3.07621
#
# Compressibility (1/GPa) = 0.04597194
#
# Stress axis : x y z
#
# Youngs Moduli (GPa) = 37.00279 44.81313 71.54051
#
# Poissons Ratio (x) = -0.21007 0.75309
# Poissons Ratio (y) = -0.17345 0.20274
# Poissons Ratio (z) = 0.38952 0.12700
#
# Static dielectric constant tensor:
#      x y z
#    x 1.648290 0.000000 -0.003060 
#    y 0.000000 1.592660 0.000000 
#    z -0.003060 0.000000 1.646370 
# 
# From -- ./inp_files/157884.got.cif
#   From: 2010.05.17/outbox.cif.g08.bks.cpg/sg12_79_cif.got.tgz:157884.got - 2010.06.03 13:09:07.
