data_PCOD9176991
_publ_section_title
;
Structure prediction by ZEFSAII (Michael W. Deem and Ramdas Pophale) SiO2 
 PCOD9176991
Probable space group: C 2/M
;
_chemical_formula_sum "Si O2"
_cell_formula_units_Z 44
_cell_length_a 28.855320
_cell_length_b 10.370786
_cell_length_c 7.037680
_cell_angle_alpha 90.000000
_cell_angle_beta 105.643085
_cell_angle_gamma 90.000000
_cell_volume 2028.034618
_symmetry_space_group_name_H-M "C 2/M"
_symmetry_group_IT_number 12
_symmetry_cell_setting 'monoclinic'
loop_
_space_group_symop_operation_xyz
x,y,z
-x,y,-z
-x,-y,-z
x,-y,z
1/2+x,1/2+y,z
1/2-x,1/2+y,-z
1/2-x,1/2-y,-z
1/2+x,1/2-y,z
loop_
_atom_site_type_symbol
_atom_site_label
_atom_site_fract_x
_atom_site_fract_y
_atom_site_fract_z
Si Si1 0.838074 0.500000 0.802156
Si Si2 0.858716 0.853573 0.582217
Si Si3 0.580756 0.000000 0.804193
Si Si4 0.200445 0.652313 0.728483
Si Si5 0.192901 0.237451 0.139480
Si Si6 0.050143 0.278557 0.476995
Si Si7 0.444070 0.000000 0.804678
O O1 0.804608 0.377444 0.760396
O O2 0.884716 0.500000 0.717784
O O3 0.867659 0.500000 0.034919
O O4 0.824879 0.747264 0.447424
O O5 0.851528 0.829684 0.800944
O O6 0.911249 0.822206 0.557500
O O7 0.844956 0.000000 0.523321
O O8 0.571844 0.125091 0.663474
O O9 0.548219 0.000000 0.960511
O O10 0.187643 0.500000 0.697002
O O11 0.258249 0.660354 0.776551
O O12 0.188115 0.724306 0.914409
O O13 0.039515 0.374225 0.289182
O O14 0.000000 0.225003 0.500000
#
# Coordination Sequence:
#
# PCOD9176991 Si02
#       7
#     4   8   4   8   8   8   4
#     4  10  18  36  67  92 130 170 197 271 315 382
#     4  12  27  44  65  93 133 178 218 269 330 391
#     4   9  19  37  61  98 127 161 210 266 330 370
#     4  11  26  42  70  98 128 172 221 274 320 389
#     4  11  23  42  65  97 133 169 215 262 333 383
#     4  11  23  38  62  94 128 168 218 270 323 391
#     4   9  19  37  63  96 127 165 206 274 322 379
#
# _framework density 21.695884
#
# number of rings (size 3 to 8) (size 9 to 14) (size 15 to 20)
#    0.545    0.727    2.727    3.273    5.091    3.273 
#    0.000    0.000    0.000    0.000    0.000    6.364 
#    0.000    0.000    0.000    0.000    0.000    0.000 
#
# Total GULP energy -122756.128735 kJ/mol
# GULP energy per Si atom -5579.824033 kJ/mol
# Density = 2.164650 g / cm^3
# Si number density = 21.695884 Si / 1000 Ang^3
#
#
#
# Elastic Constant Matrix: (Units=GPa)
#
#
# Indices 1 2 3 4 5 6 
#
# 1 88.4698 20.2541 55.4857 0.0000 -26.2531 0.0000
# 2 20.2541 122.6637 53.6173 0.0000 -1.0490 0.0000
# 3 55.4857 53.6173 99.3276 0.0000 -19.9966 0.0000
# 4 0.0000 0.0000 0.0000 -0.4770 0.0000 12.7419
# 5 -26.2531 -1.0490 -19.9966 0.0000 37.1522 0.0000
# 6 0.0000 0.0000 0.0000 12.7419 0.0000 19.5650
#
#
#
# Elastic Compliance Matrix: (Units=1/GPa)
#
#
# Indices 1 2 3 4 5 6 
#
# 1 0.019880 0.001151 -0.009972 0.000000 0.008713 0.000000
# 2 0.001151 0.011073 -0.007171 0.000000 -0.002734 0.000000
# 3 -0.009972 -0.007171 0.020243 0.000000 0.003646 0.000000
# 4 0.000000 0.000000 0.000000 -0.113956 0.000000 0.074215
# 5 0.008713 -0.002734 0.003646 0.000000 0.034958 0.000000
# 6 0.000000 0.000000 0.000000 0.074215 0.000000 0.002778
#
#
# Mechanical properties :
#
#
# Convention : Reuss Voigt Hill
#
# Bulk Modulus (GPa) = 52.05043 63.24170 57.64607
# Shear Modulus (GPa) = 374.12566 23.32162 198.72364
#
# Velocity S-wave (km/s) = 13.14592 3.28217 9.58092
# Velocity P-wave (km/s) = 15.95190 6.60121 12.20736
#
# Compressibility (1/GPa) = 0.01921214
#
# Stress axis : x y z
#
# Youngs Moduli (GPa) = 50.30301 90.30737 49.39947
#
# Poissons Ratio (x) = -0.10394 0.49262
# Poissons Ratio (y) = -0.05790 0.35423
# Poissons Ratio (z) = 0.50163 0.64756
#
# Static dielectric constant tensor:
#      x y z
#    x 1.889980 0.000000 -0.059330 
#    y 0.000000 1.744860 0.000000 
#    z -0.059330 0.000000 1.879460 
# 
# From -- ./inp_files/108262.got.cif
#   From: 2010.05.17/outbox.cif.g08.bks.cpg/sg12_55_cif.got.tgz:108262.got - 2010.06.03 13:09:07.
