data_PCOD9176498
_publ_section_title
;
Structure prediction by ZEFSAII (Michael W. Deem and Ramdas Pophale) SiO2 
 PCOD9176498
Probable space group: C 2/M
;
_chemical_formula_sum "Si O2"
_cell_formula_units_Z 56
_cell_length_a 17.324532
_cell_length_b 20.442043
_cell_length_c 17.613315
_cell_angle_alpha 90.000000
_cell_angle_beta 150.454829
_cell_angle_gamma 90.000000
_cell_volume 3075.886822
_symmetry_space_group_name_H-M "C 2/M"
_symmetry_group_IT_number 12
_symmetry_cell_setting 'monoclinic'
loop_
_space_group_symop_operation_xyz
x,y,z
-x,y,-z
-x,-y,-z
x,-y,z
1/2+x,1/2+y,z
1/2-x,1/2+y,-z
1/2-x,1/2-y,-z
1/2+x,1/2-y,z
loop_
_atom_site_type_symbol
_atom_site_label
_atom_site_fract_x
_atom_site_fract_y
_atom_site_fract_z
Si Si1 0.571876 0.727241 0.845412
Si Si2 0.617398 0.858036 0.354335
Si Si3 0.277935 0.855642 0.819758
Si Si4 0.361964 0.704121 0.933016
Si Si5 0.986743 0.575786 0.875646
Si Si6 0.040050 0.174847 0.403759
Si Si7 0.005794 0.324186 0.594181
O O1 0.457697 0.788289 0.734021
O O2 0.544745 0.682148 0.750405
O O3 0.750000 0.750000 0.000000
O O4 0.559175 0.698368 0.917306
O O5 0.527064 0.910085 0.225220
O O6 0.795129 0.856380 0.476666
O O7 0.591116 0.862080 0.422722
O O8 0.328833 0.780567 0.881460
O O9 0.359578 0.880634 0.812857
O O10 0.091050 0.859811 0.657629
O O11 0.351439 0.899626 0.949427
O O12 0.188371 0.674325 0.776650
O O13 0.500000 0.676685 0.000000
O O14 0.961453 0.500000 0.870595
O O15 0.055324 0.248653 0.450519
O O16 0.000000 0.342807 0.500000
#
# Coordination Sequence:
#
# PCOD9176498 Si02
#       7
#     8   8   8   8   8   8   8
#     4  11  16  33  48  74 104 145 184 202 250 318
#     4  11  21  36  50  73 111 142 179 222 263 313
#     4  10  18  35  52  77 106 134 177 221 263 309
#     4  11  19  28  51  76 106 143 169 212 252 314
#     4  11  22  37  58  75  99 140 188 229 268 310
#     4  10  22  30  53  76 109 151 166 212 266 326
#     4  10  22  32  48  78 112 140 175 207 260 325
#
# _framework density 18.206132
#
# number of rings (size 3 to 8) (size 9 to 14) (size 15 to 20)
#    0.000    1.429    7.143    2.571    8.000    0.000 
#    0.000    2.143    0.000    0.429    0.000    0.000 
#    0.000    1.714    0.000    0.000    0.000    0.000 
#
# Total GULP energy -156023.982955 kJ/mol
# GULP energy per Si atom -5572.285106 kJ/mol
# Density = 1.816469 g / cm^3
# Si number density = 18.206132 Si / 1000 Ang^3
#
#
#
# Elastic Constant Matrix: (Units=GPa)
#
#
# Indices 1 2 3 4 5 6 
#
# 1 82.3755 10.0975 36.4552 0.0003 -2.0947 -0.0003
# 2 10.0975 24.9817 4.6381 0.0002 0.3144 0.0002
# 3 36.4552 4.6381 70.7763 0.0009 -6.8477 0.0008
# 4 0.0003 0.0002 0.0009 5.2484 0.0005 -0.3697
# 5 -2.0947 0.3144 -6.8477 0.0005 45.6833 0.0004
# 6 -0.0003 0.0002 0.0008 -0.3697 0.0004 3.2093
#
#
#
# Elastic Compliance Matrix: (Units=1/GPa)
#
#
# Indices 1 2 3 4 5 6 
#
# 1 0.016351 -0.005094 -0.008130 0.000001 -0.000434 0.000004
# 2 -0.005094 0.042131 -0.000190 -0.000001 -0.000552 -0.000003
# 3 -0.008130 -0.000190 0.018562 -0.000003 0.002411 -0.000006
# 4 0.000001 -0.000001 -0.000003 0.192091 -0.000003 0.022128
# 5 -0.000434 -0.000552 0.002411 -0.000003 0.022235 -0.000004
# 6 0.000004 -0.000003 -0.000006 0.022128 -0.000004 0.314141
#
#
# Mechanical properties :
#
#
# Convention : Reuss Voigt Hill
#
# Bulk Modulus (GPa) = 19.91449 31.16833 25.54141
# Shear Modulus (GPa) = 7.70322 19.29105 13.49713
#
# Velocity S-wave (km/s) = 2.05920 3.25867 2.72573
# Velocity P-wave (km/s) = 4.07625 5.59602 4.89547
#
# Compressibility (1/GPa) = 0.05021469
#
# Stress axis : x y z
#
# Youngs Moduli (GPa) = 61.15862 23.73566 53.87228
#
# Poissons Ratio (x) = 0.12091 0.43799
# Poissons Ratio (y) = 0.31155 0.01026
# Poissons Ratio (z) = 0.49723 0.00452
#
# Static dielectric constant tensor:
#      x y z
#    x 0.993160 0.000000 0.137450 
#    y 0.000000 1.614870 0.000000 
#    z 0.137450 0.000000 1.639260 
# 
# From -- ./inp_files/279338.got.cif
#   From: 2010.05.17/outbox.cif.g08.bks.cpg/sg12_140_cif.got.tgz:279338.got - 2010.06.03 13:09:07.
