data_PCOD9176436
_publ_section_title
;
Structure prediction by ZEFSAII (Michael W. Deem and Ramdas Pophale) SiO2 
 PCOD9176436
Probable space group: C 2/M
;
_chemical_formula_sum "Si O2"
_cell_formula_units_Z 52
_cell_length_a 12.259574
_cell_length_b 22.614244
_cell_length_c 12.233846
_cell_angle_alpha 90.000000
_cell_angle_beta 46.001619
_cell_angle_gamma 90.000000
_cell_volume 2439.868404
_symmetry_space_group_name_H-M "C 2/M"
_symmetry_group_IT_number 12
_symmetry_cell_setting 'monoclinic'
loop_
_space_group_symop_operation_xyz
x,y,z
-x,y,-z
-x,-y,-z
x,-y,z
1/2+x,1/2+y,z
1/2-x,1/2+y,-z
1/2-x,1/2-y,-z
1/2+x,1/2-y,z
loop_
_atom_site_type_symbol
_atom_site_label
_atom_site_fract_x
_atom_site_fract_y
_atom_site_fract_z
Si Si1 0.301647 0.822264 0.826031
Si Si2 0.191206 0.500000 0.577384
Si Si3 0.825199 0.186175 0.867382
Si Si4 0.983588 0.000000 0.226874
Si Si5 0.644181 0.129226 0.831905
Si Si6 0.107961 0.870253 0.765476
Si Si7 0.747924 0.000000 0.778773
Si Si8 0.617278 0.127903 0.599508
O O1 0.284424 0.752259 0.858641
O O2 0.179366 0.850798 0.830844
O O3 0.466924 0.838728 0.666870
O O4 0.282170 0.843148 0.964925
O O5 0.319413 0.500000 0.397493
O O6 0.290515 0.500000 0.619857
O O7 0.089901 0.557870 0.634531
O O8 0.802246 0.149330 0.774733
O O9 0.988405 0.178510 0.807191
O O10 0.974545 0.064860 0.174290
O O11 0.120143 0.000000 0.221366
O O12 0.649747 0.059339 0.849556
O O13 0.647400 0.147553 0.703374
O O14 0.500000 0.154315 0.000000
O O15 0.243448 0.868263 0.581166
#
# Coordination Sequence:
#
# PCOD9176436 Si02
#       8
#     8   4   8   4   8   8   4   8
#     4  11  25  44  65  89 127 176 216 265 319 392
#     4   8  19  34  63  94 130 170 208 261 324 396
#     4  11  25  43  67  88 126 172 217 265 321 383
#     4  10  19  38  63  95 137 166 205 265 341 391
#     4  11  21  39  64  94 127 165 213 267 327 381
#     4  11  24  44  66  99 130 170 218 266 329 392
#     4  10  18  34  61  94 125 163 214 271 315 384
#     4  10  22  41  66  97 129 166 213 270 322 382
#
# _framework density 21.312626000000002
#
# number of rings (size 3 to 8) (size 9 to 14) (size 15 to 20)
#    0.000    1.538    3.077    1.385    2.154    1.846 
#    2.769    5.385    0.000    0.000    0.000    0.000 
#    0.000    0.000    0.000    0.000    0.000    0.000 
#
# Total GULP energy -144834.058338 kJ/mol
# GULP energy per Si atom -5570.540705 kJ/mol
# Density = 2.126412 g / cm^3
# Si number density = 21.312626 Si / 1000 Ang^3
#
#
#
# Elastic Constant Matrix: (Units=GPa)
#
#
# Indices 1 2 3 4 5 6 
#
# 1 86.0119 22.5975 7.5386 0.0000 22.4558 0.0000
# 2 22.5975 46.1997 13.6181 0.0000 19.7045 0.0000
# 3 7.5386 13.6181 56.2743 0.0000 3.8631 0.0000
# 4 0.0000 0.0000 0.0000 42.3728 0.0000 15.7593
# 5 22.4558 19.7045 3.8631 0.0000 26.2105 0.0000
# 6 0.0000 0.0000 0.0000 15.7593 0.0000 40.5629
#
#
#
# Elastic Compliance Matrix: (Units=1/GPa)
#
#
# Indices 1 2 3 4 5 6 
#
# 1 0.015236 -0.002547 -0.000667 0.000000 -0.011041 0.000000
# 2 -0.002547 0.034526 -0.006447 0.000000 -0.022823 0.000000
# 3 -0.000667 -0.006447 0.019242 0.000000 0.002582 0.000000
# 4 0.000000 0.000000 0.000000 0.027586 0.000000 -0.010718
# 5 -0.011041 -0.022823 0.002582 0.000000 0.064389 0.000000
# 6 0.000000 0.000000 0.000000 -0.010718 0.000000 0.028817
#
#
# Mechanical properties :
#
#
# Convention : Reuss Voigt Hill
#
# Bulk Modulus (GPa) = 20.12779 30.66603 25.39691
# Shear Modulus (GPa) = 22.15530 31.47802 26.81666
#
# Velocity S-wave (km/s) = 3.22769 3.84730 3.55103
# Velocity P-wave (km/s) = 4.83272 5.84427 5.36240
#
# Compressibility (1/GPa) = 0.04968255
#
# Stress axis : x y z
#
# Youngs Moduli (GPa) = 65.63227 28.96395 51.96877
#
# Poissons Ratio (x) = 0.07377 0.03465
# Poissons Ratio (y) = 0.16717 0.33505
# Poissons Ratio (z) = 0.04376 0.18673
#
# Static dielectric constant tensor:
#      x y z
#    x 1.755800 0.000000 0.006040 
#    y 0.000000 1.821810 0.000000 
#    z 0.006040 0.000000 1.809430 
# 
# From -- ./inp_files/135907.got.cif
#   From: 2010.05.17/outbox.cif.g08.bks.cpg/sg12_68_cif.got.tgz:135907.got - 2010.06.03 13:09:07.
