data_PCOD9176099
_publ_section_title
;
Structure prediction by ZEFSAII (Michael W. Deem and Ramdas Pophale) SiO2 
 PCOD9176099
Probable space group: C 2/M
;
_chemical_formula_sum "Si O2"
_cell_formula_units_Z 48
_cell_length_a 9.402247
_cell_length_b 31.556407
_cell_length_c 7.156486
_cell_angle_alpha 90.000000
_cell_angle_beta 97.336184
_cell_angle_gamma 90.000000
_cell_volume 2105.955863
_symmetry_space_group_name_H-M "C 2/M"
_symmetry_group_IT_number 12
_symmetry_cell_setting 'monoclinic'
loop_
_space_group_symop_operation_xyz
x,y,z
-x,y,-z
-x,-y,-z
x,-y,z
1/2+x,1/2+y,z
1/2-x,1/2+y,-z
1/2-x,1/2-y,-z
1/2+x,1/2-y,z
loop_
_atom_site_type_symbol
_atom_site_label
_atom_site_fract_x
_atom_site_fract_y
_atom_site_fract_z
Si Si1 0.305502 0.840222 0.185036
Si Si2 0.196102 0.500000 0.745120
Si Si3 0.380661 0.420739 0.754948
Si Si4 0.874938 0.332728 0.754837
Si Si5 0.142310 0.759748 0.148011
Si Si6 0.807379 0.916408 0.309329
Si Si7 0.366641 0.000000 0.715534
O O1 0.204681 0.880020 0.191446
O O2 0.466245 0.845283 0.287990
O O3 0.213668 0.801054 0.251324
O O4 0.345627 0.833695 0.974010
O O5 0.294516 0.460616 0.817686
O O6 0.162538 0.500000 0.514973
O O7 0.034511 0.500000 0.793461
O O8 0.356569 0.425671 0.528179
O O9 0.552207 0.416306 0.799415
O O10 0.866535 0.281667 0.721761
O O11 0.767064 0.370242 0.680460
O O12 0.250000 0.750000 0.000000
O O13 0.000000 0.768616 0.000000
O O14 0.704495 0.955403 0.233574
#
# Coordination Sequence:
#
# PCOD9176099 Si02
#       7
#     8   4   8   8   8   8   4
#     4  10  21  34  56  82 107 139 182 221 266 317
#     4   9  17  33  56  77 104 141 186 212 259 324
#     4  10  21  35  54  83 109 142 178 222 265 315
#     4  10  20  36  54  82 108 139 180 223 265 318
#     4  10  18  34  55  80 105 140 181 219 260 320
#     4  10  21  35  55  80 113 140 178 221 267 314
#     4   9  17  33  56  77 102 147 178 216 262 319
#
# _framework density 22.7925
#
# number of rings (size 3 to 8) (size 9 to 14) (size 15 to 20)
#    0.000    2.167    3.333    1.500    4.667    4.000 
#    0.000    1.667    0.000    5.000    0.000    0.000 
#    0.000    0.000    0.000    0.000    0.000    0.000 
#
# Total GULP energy -133741.125745 kJ/mol
# GULP energy per Si atom -5572.546906 kJ/mol
# Density = 2.274062 g / cm^3
# Si number density = 22.792500 Si / 1000 Ang^3
#
#
#
# Elastic Constant Matrix: (Units=GPa)
#
#
# Indices 1 2 3 4 5 6 
#
# 1 231.7764 117.1383 8.5537 0.0000 -9.2391 0.0000
# 2 117.1383 201.4468 2.5781 0.0000 -6.1773 0.0000
# 3 8.5537 2.5781 46.7696 0.0000 -0.6384 0.0000
# 4 0.0000 0.0000 0.0000 -26.9141 0.0000 11.0669
# 5 -9.2391 -6.1773 -0.6384 0.0000 18.5550 0.0000
# 6 0.0000 0.0000 0.0000 11.0669 0.0000 38.8790
#
#
#
# Elastic Compliance Matrix: (Units=1/GPa)
#
#
# Indices 1 2 3 4 5 6 
#
# 1 0.006215 -0.003544 -0.000916 0.000000 0.001883 0.000000
# 2 -0.003544 0.007040 0.000268 0.000000 0.000588 0.000000
# 3 -0.000916 0.000268 0.021539 0.000000 0.000374 0.000000
# 4 0.000000 0.000000 0.000000 -0.033262 0.000000 0.009468
# 5 0.001883 0.000588 0.000374 0.000000 0.055040 0.000000
# 6 0.000000 0.000000 0.000000 0.009468 0.000000 0.023026
#
#
# Mechanical properties :
#
#
# Convention : Reuss Voigt Hill
#
# Bulk Modulus (GPa) = 37.86409 81.83699 59.85054
# Shear Modulus (GPa) = 51.66163 29.55215 40.60689
#
# Velocity S-wave (km/s) = 4.76605 3.60470 4.22547
# Velocity P-wave (km/s) = 6.85096 7.30126 7.07969
#
# Compressibility (1/GPa) = 0.02641025
#
# Stress axis : x y z
#
# Youngs Moduli (GPa) = 160.91195 142.05340 46.42701
#
# Poissons Ratio (x) = 0.50347 0.04250
# Poissons Ratio (y) = 0.57031 -0.01245
# Poissons Ratio (z) = 0.14732 -0.03810
#
# Static dielectric constant tensor:
#      x y z
#    x 2.251580 0.000000 0.027460 
#    y 0.000000 1.975410 0.000000 
#    z 0.027460 0.000000 1.937720 
# 
# From -- ./inp_files/42262.got.cif
#   From: 2010.05.17/outbox.cif.g08.bks.cpg/sg12_22_cif.got.tgz:42262.got - 2010.06.03 13:09:07.
