data_PCOD9176744
_publ_section_title
;
Structure prediction by ZEFSAII (Michael W. Deem and Ramdas Pophale) SiO2 
 PCOD9176744
Probable space group: C 2/M
;
_chemical_formula_sum "Si O2"
_cell_formula_units_Z 60
_cell_length_a 5.330954
_cell_length_b 28.111592
_cell_length_c 18.768683
_cell_angle_alpha 90.000000
_cell_angle_beta 70.787127
_cell_angle_gamma 90.000000
_cell_volume 2656.044184
_symmetry_space_group_name_H-M "C 2/M"
_symmetry_group_IT_number 12
_symmetry_cell_setting 'monoclinic'
loop_
_space_group_symop_operation_xyz
x,y,z
-x,y,-z
-x,-y,-z
x,-y,z
1/2+x,1/2+y,z
1/2-x,1/2+y,-z
1/2-x,1/2-y,-z
1/2+x,1/2-y,z
loop_
_atom_site_type_symbol
_atom_site_label
_atom_site_fract_x
_atom_site_fract_y
_atom_site_fract_z
Si Si1 0.328320 0.354430 0.086178
Si Si2 0.247402 0.053828 0.357192
Si Si3 0.675607 0.948143 0.187980
Si Si4 0.033202 0.646908 0.627979
Si Si5 0.262430 0.176844 0.156950
Si Si6 0.305247 0.277276 0.693615
Si Si7 0.028661 0.899698 0.729553
Si Si8 0.500000 0.216490 0.500000
O O1 0.232889 0.404446 0.130022
O O2 0.521407 0.326128 0.123251
O O3 0.053318 0.327295 0.096293
O O4 0.500000 0.362958 0.000000
O O5 0.432304 0.054354 0.267791
O O6 0.359774 0.094072 0.398757
O O7 0.987293 0.076616 0.346363
O O8 0.228137 0.000000 0.384521
O O9 0.917083 0.942304 0.221074
O O10 0.667421 0.000000 0.154191
O O11 0.777135 0.637133 0.701892
O O12 0.962942 0.679836 0.568720
O O13 0.256978 0.674416 0.653828
O O14 0.271825 0.217084 0.216430
O O15 0.201992 0.130997 0.213070
O O16 0.600593 0.257399 0.672552
O O17 0.250000 0.250000 0.500000
#
# Coordination Sequence:
#
# PCOD9176744 Si02
#       8
#     8   8   8   8   8   8   8   4
#     4  11  22  37  59  85 125 179 221 264 340 416
#     4  10  19  35  65  98 131 173 226 284 333 379
#     4   9  18  32  52  88 129 168 220 280 334 392
#     4  11  24  42  66 100 142 177 218 275 327 408
#     4  11  21  40  60  90 121 166 215 280 330 391
#     4  12  23  38  67 100 124 157 213 279 341 388
#     4  10  18  35  63  90 129 170 224 272 331 372
#     4  12  30  50  73 104 147 192 224 260 340 422
#
# _framework density 22.589988000000002
#
# number of rings (size 3 to 8) (size 9 to 14) (size 15 to 20)
#    0.000    1.333    2.667    4.800    1.867    0.800 
#    0.000    0.333    0.000   11.200    0.000    0.000 
#    0.000    0.000    0.000    0.000    0.000    0.000 
#
# Total GULP energy -167261.895348 kJ/mol
# GULP energy per Si atom -5575.396512 kJ/mol
# Density = 2.253857 g / cm^3
# Si number density = 22.589988 Si / 1000 Ang^3
#
#
#
# Elastic Constant Matrix: (Units=GPa)
#
#
# Indices 1 2 3 4 5 6 
#
# 1 110.8718 48.1477 11.4025 0.0000 12.0019 0.0000
# 2 48.1477 114.4374 31.4580 0.0000 5.2419 0.0000
# 3 11.4025 31.4580 55.2751 0.0000 12.1913 0.0000
# 4 0.0000 0.0000 0.0000 25.0063 0.0000 3.2228
# 5 12.0019 5.2419 12.1913 0.0000 17.7340 0.0000
# 6 0.0000 0.0000 0.0000 3.2228 0.0000 21.0124
#
#
#
# Elastic Compliance Matrix: (Units=1/GPa)
#
#
# Indices 1 2 3 4 5 6 
#
# 1 0.011964 -0.005306 0.002348 0.000000 -0.008142 0.000000
# 2 -0.005306 0.012733 -0.007206 0.000000 0.004781 0.000000
# 3 0.002348 -0.007206 0.025447 0.000000 -0.016953 0.000000
# 4 0.000000 0.000000 0.000000 0.040796 0.000000 -0.006257
# 5 -0.008142 0.004781 -0.016953 0.000000 0.072140 0.000000
# 6 0.000000 0.000000 0.000000 -0.006257 0.000000 0.048551
#
#
# Mechanical properties :
#
#
# Convention : Reuss Voigt Hill
#
# Bulk Modulus (GPa) = 33.54116 51.40006 42.47061
# Shear Modulus (GPa) = 20.66984 25.38894 23.02939
#
# Velocity S-wave (km/s) = 3.02818 3.35610 3.19635
# Velocity P-wave (km/s) = 5.20639 6.14986 5.69769
#
# Compressibility (1/GPa) = 0.02981412
#
# Stress axis : x y z
#
# Youngs Moduli (GPa) = 83.58747 78.53776 39.29676
#
# Poissons Ratio (x) = 0.41671 -0.09225
# Poissons Ratio (y) = 0.44350 0.28319
# Poissons Ratio (z) = -0.19622 0.56598
#
# Static dielectric constant tensor:
#      x y z
#    x 2.004420 0.000000 0.025740 
#    y 0.000000 1.888200 0.000000 
#    z 0.025740 0.000000 1.842920 
# 
# From -- ./inp_files/253997.got.cif
#   From: 2010.05.17/outbox.cif.g08.bks.cpg/sg12_127_cif.got.tgz:253997.got - 2010.06.03 13:09:07.
