data_PCOD9176783
_publ_section_title
;
Structure prediction by ZEFSAII (Michael W. Deem and Ramdas Pophale) SiO2 
 PCOD9176783
Probable space group: C 2/M
;
_chemical_formula_sum "Si O2"
_cell_formula_units_Z 40
_cell_length_a 27.099419
_cell_length_b 13.702193
_cell_length_c 21.951089
_cell_angle_alpha 90.000000
_cell_angle_beta 167.728513
_cell_angle_gamma 90.000000
_cell_volume 1732.428267
_symmetry_space_group_name_H-M "C 2/M"
_symmetry_group_IT_number 12
_symmetry_cell_setting 'monoclinic'
loop_
_space_group_symop_operation_xyz
x,y,z
-x,y,-z
-x,-y,-z
x,-y,z
1/2+x,1/2+y,z
1/2-x,1/2+y,-z
1/2-x,1/2-y,-z
1/2+x,1/2-y,z
loop_
_atom_site_type_symbol
_atom_site_label
_atom_site_fract_x
_atom_site_fract_y
_atom_site_fract_z
Si Si1 0.509990 0.200091 0.689117
Si Si2 0.731079 0.895627 0.358764
Si Si3 0.801843 0.140212 0.583765
Si Si4 0.748205 0.105303 0.167570
Si Si5 0.812507 0.325001 0.220239
O O1 0.345423 0.294436 0.476177
O O2 0.388360 0.131035 0.592533
O O3 0.568740 0.142883 0.698855
O O4 0.750000 0.250000 0.000000
O O5 0.785953 0.905003 0.497540
O O6 0.801089 0.000000 0.414226
O O7 0.451997 0.886865 0.022659
O O8 0.750000 0.250000 0.500000
O O9 0.059133 0.127383 0.921287
O O10 0.750434 0.209027 0.136911
O O11 0.000000 0.100251 0.500000
O O12 0.706573 0.000000 0.085521
O O13 0.000000 0.335180 0.500000
#
# Coordination Sequence:
#
# PCOD9176783 Si02
#       5
#     8   8   8   8   8
#     4  11  19  34  58  79 111 146 185 231 275 323
#     4  10  19  34  58  83 110 148 190 231 275 330
#     4  10  18  36  54  77 107 141 185 237 268 318
#     4   9  17  31  48  74 115 149 176 218 270 322
#     4  11  21  34  55  81 112 148 184 225 279 331
#
# _framework density 23.088978999999998
#
# number of rings (size 3 to 8) (size 9 to 14) (size 15 to 20)
#    0.000    1.800    8.000    0.000    0.000    1.600 
#    0.000    1.000    0.000    6.600    0.000    1.400 
#    0.000    0.000    0.000    0.000    0.000    0.000 
#
# Total GULP energy -111431.008938 kJ/mol
# GULP energy per Si atom -5571.550447 kJ/mol
# Density = 2.303643 g / cm^3
# Si number density = 23.088979 Si / 1000 Ang^3
#
#
#
# Elastic Constant Matrix: (Units=GPa)
#
#
# Indices 1 2 3 4 5 6 
#
# 1 96.9994 -30.1303 33.6735 0.0736 14.2971 0.0312
# 2 -30.1303 44.0021 -11.4588 -0.0043 5.7660 -0.0317
# 3 33.6735 -11.4588 184.0212 -0.1974 6.8394 -0.0903
# 4 0.0736 -0.0043 -0.1974 -220.9856 0.1767 -83.7727
# 5 14.2971 5.7660 6.8394 0.1767 35.3687 0.0433
# 6 0.0312 -0.0317 -0.0903 -83.7727 0.0433 -21.9055
#
#
#
# Elastic Compliance Matrix: (Units=1/GPa)
#
#
# Indices 1 2 3 4 5 6 
#
# 1 0.015580 0.011200 -0.001865 -0.000002 -0.007763 0.000007
# 2 0.011200 0.031750 0.000290 -0.000031 -0.009759 0.000070
# 3 -0.001865 0.000290 0.005809 -0.000010 -0.000417 0.000010
# 4 -0.000002 -0.000031 -0.000010 0.010062 0.000005 -0.038480
# 5 -0.007763 -0.009759 -0.000417 0.000005 0.033083 0.000052
# 6 0.000007 0.000070 0.000010 -0.038480 0.000052 0.101506
#
#
# Mechanical properties :
#
#
# Convention : Reuss Voigt Hill
#
# Bulk Modulus (GPa) = 13.81421 34.35461 24.08441
# Shear Modulus (GPa) = 24.67074 -19.30859 2.68108
#
# Velocity S-wave (km/s) = 3.27235 -2.89497 1.07876
# Velocity P-wave (km/s) = 4.50263 1.93315 3.46488
#
# Compressibility (1/GPa) = 0.07238923
#
# Stress axis : x y z
#
# Youngs Moduli (GPa) = 64.18498 31.49627 172.14710
#
# Poissons Ratio (x) = -0.35276 0.32105
# Poissons Ratio (y) = -0.71887 -0.04998
# Poissons Ratio (z) = 0.11970 -0.00914
#
# Static dielectric constant tensor:
#      x y z
#    x 1.945830 -0.000050 0.002180 
#    y -0.000050 1.874930 -0.000020 
#    z 0.002180 -0.000020 1.889460 
# 
# From -- ./inp_files/284921.got.cif
#   From: 2010.05.17/outbox.cif.g08.bks.cpg/sg12_143_cif.got.tgz:284921.got - 2010.06.03 13:09:07.
