data_PCOD9176716
_publ_section_title
;
Structure prediction by ZEFSAII (Michael W. Deem and Ramdas Pophale) SiO2 
 PCOD9176716
Probable space group: C 2/M
;
_chemical_formula_sum "Si O2"
_cell_formula_units_Z 48
_cell_length_a 20.384619
_cell_length_b 18.574311
_cell_length_c 16.402119
_cell_angle_alpha 90.000000
_cell_angle_beta 159.473201
_cell_angle_gamma 90.000000
_cell_volume 2177.626947
_symmetry_space_group_name_H-M "C 2/M"
_symmetry_group_IT_number 12
_symmetry_cell_setting 'monoclinic'
loop_
_space_group_symop_operation_xyz
x,y,z
-x,y,-z
-x,-y,-z
x,-y,z
1/2+x,1/2+y,z
1/2-x,1/2+y,-z
1/2-x,1/2-y,-z
1/2+x,1/2-y,z
loop_
_atom_site_type_symbol
_atom_site_label
_atom_site_fract_x
_atom_site_fract_y
_atom_site_fract_z
Si Si1 0.299813 0.642314 0.871840
Si Si2 0.197415 0.160307 0.361827
Si Si3 0.787635 0.417836 0.782987
Si Si4 0.527489 0.914926 0.412085
Si Si5 0.821407 0.205104 0.232600
Si Si6 0.120120 0.191855 0.459210
O O1 0.169803 0.619845 0.644570
O O2 0.309441 0.728007 0.898836
O O3 0.180932 0.610423 0.808854
O O4 0.514774 0.620737 0.113416
O O5 0.384893 0.113481 0.569564
O O6 0.143837 0.172110 0.393170
O O7 0.251113 0.236704 0.382436
O O8 0.722206 0.500000 0.716502
O O9 0.763168 0.370353 0.836359
O O10 0.681520 0.373150 0.589265
O O11 0.000000 0.419014 0.000000
O O12 0.536595 0.000000 0.429815
O O13 0.000000 0.217966 0.500000
O O14 0.910700 0.208521 0.247008
#
# Coordination Sequence:
#
# PCOD9176716 Si02
#       6
#     8   8   8   8   8   8
#     4  11  20  38  63  89 116 157 204 249 294 352
#     4  11  23  39  62  88 123 161 202 239 305 358
#     4  10  21  38  60  87 117 156 200 245 299 355
#     4  11  23  40  60  89 124 156 202 253 297 355
#     4  10  18  35  62  85 116 149 198 250 290 341
#     4  10  22  40  58  91 120 155 200 251 293 358
#
# _framework density 22.042342000000001
#
# number of rings (size 3 to 8) (size 9 to 14) (size 15 to 20)
#    0.000    1.500    3.333    3.500    0.000    6.333 
#    3.000    0.000    0.000    0.000    0.000    0.000 
#    0.000    0.000    0.000    0.000    0.000    0.000 
#
# Total GULP energy -134017.462600 kJ/mol
# GULP energy per Si atom -5584.060942 kJ/mol
# Density = 2.199217 g / cm^3
# Si number density = 22.042342 Si / 1000 Ang^3
#
#
#
# Elastic Constant Matrix: (Units=GPa)
#
#
# Indices 1 2 3 4 5 6 
#
# 1 126.1094 42.4063 15.0745 0.0000 32.1464 0.0000
# 2 42.4063 155.6554 18.8076 0.0000 12.5371 0.0000
# 3 15.0745 18.8076 56.0651 -0.0002 24.6014 -0.0001
# 4 0.0000 0.0000 -0.0002 10.1396 -0.0001 6.2969
# 5 32.1464 12.5371 24.6014 -0.0001 30.7091 0.0000
# 6 0.0000 0.0000 -0.0001 6.2969 0.0000 17.6923
#
#
#
# Elastic Compliance Matrix: (Units=1/GPa)
#
#
# Indices 1 2 3 4 5 6 
#
# 1 0.012123 -0.002602 0.004188 0.000000 -0.014984 0.000000
# 2 -0.002602 0.007296 -0.002523 0.000000 0.001766 0.000000
# 3 0.004188 -0.002523 0.029344 0.000000 -0.026861 0.000000
# 4 0.000000 0.000000 0.000000 0.126608 0.000000 -0.045061
# 5 -0.014984 0.001766 -0.026861 0.000000 0.069046 0.000000
# 6 0.000000 0.000000 0.000000 -0.045061 0.000000 0.072560
#
#
# Mechanical properties :
#
#
# Convention : Reuss Voigt Hill
#
# Bulk Modulus (GPa) = 21.32700 54.48963 37.90832
# Shear Modulus (GPa) = 14.94857 29.14431 22.04644
#
# Velocity S-wave (km/s) = 2.60700 3.64015 3.16600
# Velocity P-wave (km/s) = 4.33110 6.51473 5.53173
#
# Compressibility (1/GPa) = 0.04688891
#
# Stress axis : x y z
#
# Youngs Moduli (GPa) = 82.48467 137.06289 34.07905
#
# Poissons Ratio (x) = 0.35665 -0.14272
# Poissons Ratio (y) = 0.21463 0.08598
# Poissons Ratio (z) = -0.34545 0.34581
#
# Static dielectric constant tensor:
#      x y z
#    x 1.902670 0.000000 0.000510 
#    y 0.000000 1.808110 0.000000 
#    z 0.000510 0.000000 1.838410 
# 
# From -- ./inp_files/285447.got.cif
#   From: 2010.05.17/outbox.cif.g08.bks.cpg/sg12_143_cif.got.tgz:285447.got - 2010.06.03 13:09:07.
