data_PCOD9176741
_publ_section_title
;
Structure prediction by ZEFSAII (Michael W. Deem and Ramdas Pophale) SiO2 
 PCOD9176741
Probable space group: C 2/M
;
_chemical_formula_sum "Si O2"
_cell_formula_units_Z 48
_cell_length_a 29.088349
_cell_length_b 14.111200
_cell_length_c 9.431115
_cell_angle_alpha 90.000000
_cell_angle_beta 146.480805
_cell_angle_gamma 90.000000
_cell_volume 2137.742035
_symmetry_space_group_name_H-M "C 2/M"
_symmetry_group_IT_number 12
_symmetry_cell_setting 'monoclinic'
loop_
_space_group_symop_operation_xyz
x,y,z
-x,y,-z
-x,-y,-z
x,-y,z
1/2+x,1/2+y,z
1/2-x,1/2+y,-z
1/2-x,1/2-y,-z
1/2+x,1/2-y,z
loop_
_atom_site_type_symbol
_atom_site_label
_atom_site_fract_x
_atom_site_fract_y
_atom_site_fract_z
Si Si1 0.098561 0.606167 0.792394
Si Si2 0.631405 0.779003 0.611604
Si Si3 0.905069 0.891143 0.289463
Si Si4 0.824343 0.390586 0.532667
Si Si5 0.060768 0.708137 0.972572
Si Si6 0.149216 0.105504 0.176068
O O1 0.124880 0.500000 0.896973
O O2 0.143132 0.646578 0.769211
O O3 0.000000 0.603161 0.500000
O O4 0.104818 0.676346 0.939892
O O5 0.636109 0.677340 0.700541
O O6 0.685138 0.814749 0.618135
O O7 0.536534 0.787755 0.310186
O O8 0.000000 0.857507 0.500000
O O9 0.909654 0.000000 0.352060
O O10 0.863772 0.892182 0.028345
O O11 0.824590 0.500000 0.482202
O O12 0.908463 0.366604 0.832836
O O13 0.747679 0.380039 0.444152
O O14 0.095181 0.811153 0.102737
O O15 0.125718 0.000000 0.164203
#
# Coordination Sequence:
#
# PCOD9176741 Si02
#       6
#     8   8   8   8   8   8
#     4   9  17  30  52  79 108 143 191 236 270 321
#     4  11  20  35  58  87 115 148 189 240 294 335
#     4  10  18  35  63  89 111 145 198 247 284 333
#     4  11  25  39  55  84 125 160 185 228 295 353
#     4  11  20  37  59  84 110 154 201 236 276 338
#     4  10  21  39  62  85 113 154 197 237 286 343
#
# _framework density 22.453598
#
# number of rings (size 3 to 8) (size 9 to 14) (size 15 to 20)
#    0.000    1.667    3.333    2.500    0.000    3.333 
#    0.000    0.833    0.000    3.000    0.000    0.000 
#    0.000    0.000    0.000    0.000    0.000    0.000 
#
# Total GULP energy -134086.430151 kJ/mol
# GULP energy per Si atom -5586.934590 kJ/mol
# Density = 2.240249 g / cm^3
# Si number density = 22.453598 Si / 1000 Ang^3
#
#
#
# Elastic Constant Matrix: (Units=GPa)
#
#
# Indices 1 2 3 4 5 6 
#
# 1 27.2571 14.5367 -7.0092 0.0000 0.1241 0.0000
# 2 14.5367 129.9013 -9.7516 0.0000 6.4427 0.0000
# 3 -7.0092 -9.7516 48.6422 0.0000 9.8689 0.0000
# 4 0.0000 0.0000 0.0000 22.3539 0.0000 -5.2324
# 5 0.1241 6.4427 9.8689 0.0000 22.4038 0.0000
# 6 0.0000 0.0000 0.0000 -5.2324 0.0000 21.2595
#
#
#
# Elastic Compliance Matrix: (Units=1/GPa)
#
#
# Indices 1 2 3 4 5 6 
#
# 1 0.040199 -0.004035 0.005264 0.000000 -0.001381 0.000000
# 2 -0.004035 0.008439 0.001755 0.000000 -0.003178 0.000000
# 3 0.005264 0.001755 0.023914 0.000000 -0.011068 0.000000
# 4 0.000000 0.000000 0.000000 0.047470 0.000000 0.011683
# 5 -0.001381 -0.003178 -0.011068 0.000000 0.050432 0.000000
# 6 0.000000 0.000000 0.000000 0.011683 0.000000 0.049913
#
#
# Mechanical properties :
#
#
# Convention : Reuss Voigt Hill
#
# Bulk Modulus (GPa) = 12.73543 22.37250 17.55396
# Shear Modulus (GPa) = 20.78370 27.07177 23.92773
#
# Velocity S-wave (km/s) = 3.04572 3.47605 3.26797
# Velocity P-wave (km/s) = 4.24885 5.10843 4.69834
#
# Compressibility (1/GPa) = 0.07852108
#
# Stress axis : x y z
#
# Youngs Moduli (GPa) = 24.87595 118.49710 41.81608
#
# Poissons Ratio (x) = 0.47812 -0.22012
# Poissons Ratio (y) = 0.10037 -0.07339
# Poissons Ratio (z) = -0.13095 -0.20797
#
# Static dielectric constant tensor:
#      x y z
#    x 1.816970 0.000000 0.016550 
#    y 0.000000 1.821600 0.000000 
#    z 0.016550 0.000000 1.876420 
# 
# From -- ./inp_files/111484.got.cif
#   From: 2010.05.17/outbox.cif.g08.bks.cpg/sg12_56_cif.got.tgz:111484.got - 2010.06.03 13:09:07.
