data_PCOD9176587
_publ_section_title
;
Structure prediction by ZEFSAII (Michael W. Deem and Ramdas Pophale) SiO2 
 PCOD9176587
Probable space group: C 2/M
;
_chemical_formula_sum "Si O2"
_cell_formula_units_Z 64
_cell_length_a 8.746585
_cell_length_b 13.452519
_cell_length_c 30.365893
_cell_angle_alpha 90.000000
_cell_angle_beta 58.864011
_cell_angle_gamma 90.000000
_cell_volume 3058.248468
_symmetry_space_group_name_H-M "C 2/M"
_symmetry_group_IT_number 12
_symmetry_cell_setting 'monoclinic'
loop_
_space_group_symop_operation_xyz
x,y,z
-x,y,-z
-x,-y,-z
x,-y,z
1/2+x,1/2+y,z
1/2-x,1/2+y,-z
1/2-x,1/2-y,-z
1/2+x,1/2-y,z
loop_
_atom_site_type_symbol
_atom_site_label
_atom_site_fract_x
_atom_site_fract_y
_atom_site_fract_z
Si Si1 0.230608 0.611508 0.830417
Si Si2 0.361117 0.389578 0.480197
Si Si3 0.149658 0.887631 0.791660
Si Si4 0.937995 0.310212 0.418655
Si Si5 0.678803 0.248148 0.654717
Si Si6 0.201610 0.809569 0.271874
Si Si7 0.921982 0.191309 0.108136
Si Si8 0.810639 0.710936 0.038202
O O1 0.183542 0.500000 0.850875
O O2 0.438447 0.630558 0.812697
O O3 0.225052 0.623814 0.778426
O O4 0.105081 0.695109 0.870493
O O5 0.500000 0.374412 0.500000
O O6 0.386239 0.500000 0.458727
O O7 0.165297 0.376943 0.530958
O O8 0.393491 0.302573 0.440807
O O9 0.258140 0.803420 0.750170
O O10 0.179150 0.871892 0.839777
O O11 0.191682 0.000000 0.772590
O O12 0.861063 0.320367 0.381265
O O13 0.149523 0.313975 0.382876
O O14 0.714913 0.182763 0.692539
O O15 0.509785 0.316741 0.690543
O O16 0.852970 0.203138 0.068343
O O17 0.128868 0.157705 0.080175
O O18 0.750000 0.750000 0.000000
O O19 0.000000 0.658206 0.000000
#
# Coordination Sequence:
#
# PCOD9176587 Si02
#       8
#     8   8   8   8   8   8   8   8
#     4  10  20  35  58  84 110 145 188 227 272 325
#     4  10  20  37  60  85 112 141 185 232 272 318
#     4  10  20  35  58  84 111 145 186 229 273 321
#     4  10  20  38  58  82 110 149 176 232 269 332
#     4  10  20  36  58  79 114 148 183 215 285 322
#     4  10  20  38  56  81 112 151 177 232 268 330
#     4  10  18  35  58  82 109 146 184 232 271 326
#     4   9  18  32  56  81 109 149 186 219 281 333
#
# _framework density 20.927012000000001
#
# number of rings (size 3 to 8) (size 9 to 14) (size 15 to 20)
#    0.000    2.125    3.750    0.000    0.000    0.000 
#    0.000   11.250    0.000   15.000    0.000    0.000 
#    0.000    0.000    0.000    0.000    0.000    0.000 
#
# Total GULP energy -178393.861254 kJ/mol
# GULP energy per Si atom -5574.808164 kJ/mol
# Density = 2.087938 g / cm^3
# Si number density = 20.927012 Si / 1000 Ang^3
#
#
#
# Elastic Constant Matrix: (Units=GPa)
#
#
# Indices 1 2 3 4 5 6 
#
# 1 77.6870 4.6291 25.5782 0.0000 3.2183 0.0000
# 2 4.6291 69.8168 18.2724 0.0000 -3.0361 0.0000
# 3 25.5782 18.2724 90.8055 0.0000 3.7783 0.0000
# 4 0.0000 0.0000 0.0000 1.7810 0.0000 -0.5514
# 5 3.2183 -3.0361 3.7783 0.0000 37.2759 0.0000
# 6 0.0000 0.0000 0.0000 -0.5514 0.0000 7.1919
#
#
#
# Elastic Compliance Matrix: (Units=1/GPa)
#
#
# Indices 1 2 3 4 5 6 
#
# 1 0.014213 0.000064 -0.003983 0.000000 -0.000818 0.000000
# 2 0.000064 0.015209 -0.003143 0.000000 0.001552 0.000000
# 3 -0.003983 -0.003143 0.012817 0.000000 -0.001211 0.000000
# 4 0.000000 0.000000 0.000000 0.575122 0.000000 0.044093
# 5 -0.000818 0.001552 -0.001211 0.000000 0.027147 0.000000
# 6 0.000000 0.000000 0.000000 0.044093 0.000000 0.142426
#
#
# Mechanical properties :
#
#
# Convention : Reuss Voigt Hill
#
# Bulk Modulus (GPa) = 35.56564 37.25205 36.40884
# Shear Modulus (GPa) = 6.16957 21.90507 14.03732
#
# Velocity S-wave (km/s) = 1.71888 3.23884 2.59274
# Velocity P-wave (km/s) = 4.57945 5.64149 5.13798
#
# Compressibility (1/GPa) = 0.02811703
#
# Stress axis : x y z
#
# Youngs Moduli (GPa) = 70.35572 65.75037 78.01986
#
# Poissons Ratio (x) = -0.00423 0.31072
# Poissons Ratio (y) = -0.00453 0.24523
# Poissons Ratio (z) = 0.28020 0.20666
#
# Static dielectric constant tensor:
#      x y z
#    x 1.808490 0.000000 -0.007000 
#    y 0.000000 1.687170 0.000000 
#    z -0.007000 0.000000 1.786330 
# 
# From -- ./inp_files/372381.got.cif
#   From: 2010.05.17/outbox.cif.g08.bks.cpg/sg12_187_cif.got.tgz:372381.got - 2010.06.03 13:09:07.
