data_PCOD9176371
_publ_section_title
;
Structure prediction by ZEFSAII (Michael W. Deem and Ramdas Pophale) SiO2 
 PCOD9176371
Probable space group: C 2/M
;
_chemical_formula_sum "Si O2"
_cell_formula_units_Z 64
_cell_length_a 16.045450
_cell_length_b 7.607892
_cell_length_c 29.202749
_cell_angle_alpha 90.000000
_cell_angle_beta 123.417222
_cell_angle_gamma 90.000000
_cell_volume 2975.508616
_symmetry_space_group_name_H-M "C 2/M"
_symmetry_group_IT_number 12
_symmetry_cell_setting 'monoclinic'
loop_
_space_group_symop_operation_xyz
x,y,z
-x,y,-z
-x,-y,-z
x,-y,z
1/2+x,1/2+y,z
1/2-x,1/2+y,-z
1/2-x,1/2-y,-z
1/2+x,1/2-y,z
loop_
_atom_site_type_symbol
_atom_site_label
_atom_site_fract_x
_atom_site_fract_y
_atom_site_fract_z
Si Si1 0.100663 0.287286 0.003281
Si Si2 0.180626 0.704772 0.189026
Si Si3 0.819625 0.786977 0.312399
Si Si4 0.052228 0.709852 0.385632
Si Si5 0.275313 0.205464 0.622352
Si Si6 0.045960 0.715931 0.884871
Si Si7 0.778410 0.703202 0.123687
Si Si8 0.598554 0.213028 0.501478
O O1 0.106575 0.500000 0.006382
O O2 0.196458 0.216494 0.058674
O O3 0.090164 0.230985 0.947541
O O4 0.000000 0.236788 0.000000
O O5 0.167256 0.500000 0.196538
O O6 0.253406 0.778477 0.249913
O O7 0.231993 0.713456 0.154966
O O8 0.068240 0.777916 0.153410
O O9 0.773078 0.720076 0.346125
O O10 0.935326 0.738692 0.343849
O O11 0.817997 0.000000 0.312176
O O12 0.068425 0.500000 0.391915
O O13 0.121749 0.781514 0.366109
O O14 0.087131 0.776586 0.445991
O O15 0.195086 0.220409 0.557318
O O16 0.292720 0.000000 0.637734
O O17 0.046621 0.500000 0.885245
O O18 0.118513 0.774725 0.866018
O O19 0.794723 0.500000 0.140259
O O20 0.500000 0.265131 0.500000
O O21 0.602638 0.000000 0.502789
#
# Coordination Sequence:
#
# PCOD9176371 Si02
#       8
#     8   8   8   8   8   8   8   8
#     4  10  18  34  60  83 109 151 186 211 265 337
#     4  10  21  41  60  75 105 149 190 224 267 332
#     4  10  22  38  58  81 105 140 189 236 271 311
#     4  10  21  37  57  82 114 146 178 220 278 335
#     4  10  21  36  56  84 111 143 185 228 271 321
#     4   9  19  36  58  82 110 147 183 217 269 329
#     4  11  22  35  56  88 116 140 178 231 279 316
#     4  10  19  33  55  83 114 149 178 214 275 335
#
# _framework density 21.508928000000001
#
# number of rings (size 3 to 8) (size 9 to 14) (size 15 to 20)
#    0.000    2.000    2.500    1.125    0.000    3.000 
#    0.000    4.375    0.000    0.000    0.000    0.000 
#    0.000    0.000    0.000    0.000    0.000    0.000 
#
# Total GULP energy -178788.440016 kJ/mol
# GULP energy per Si atom -5587.138751 kJ/mol
# Density = 2.145997 g / cm^3
# Si number density = 21.508928 Si / 1000 Ang^3
#
#
#
# Elastic Constant Matrix: (Units=GPa)
#
#
# Indices 1 2 3 4 5 6 
#
# 1 190.5272 -4.2937 73.9076 0.0000 18.6535 0.0000
# 2 -4.2937 37.7351 -16.8233 0.0000 -2.4937 0.0000
# 3 73.9076 -16.8233 135.2374 0.0000 0.4333 0.0000
# 4 0.0000 0.0000 0.0000 -67.0974 0.0000 14.0487
# 5 18.6535 -2.4937 0.4333 0.0000 -5.1774 0.0000
# 6 0.0000 0.0000 0.0000 14.0487 0.0000 11.2407
#
#
#
# Elastic Compliance Matrix: (Units=1/GPa)
#
#
# Indices 1 2 3 4 5 6 
#
# 1 0.004646 0.000477 -0.002532 0.000000 0.016297 0.000000
# 2 0.000477 0.027229 0.003162 0.000000 -0.011132 0.000000
# 3 -0.002532 0.003162 0.009203 0.000000 -0.009875 0.000000
# 4 0.000000 0.000000 0.000000 -0.011813 0.000000 0.014763
# 5 0.016297 -0.011132 -0.009875 0.000000 -0.129895 0.000000
# 6 0.000000 0.000000 0.000000 0.014763 0.000000 0.070511
#
#
# Mechanical properties :
#
#
# Convention : Reuss Voigt Hill
#
# Bulk Modulus (GPa) = 23.09868 52.12009 37.60939
# Shear Modulus (GPa) = -279.28503 8.50712 -135.38895
#
# Velocity S-wave (km/s) = -11.40736 1.99092 -7.94242
# Velocity P-wave (km/s) = 12.75702 5.43778 8.16003
#
# Compressibility (1/GPa) = 0.04329252
#
# Stress axis : x y z
#
# Youngs Moduli (GPa) = 215.24247 36.72557 108.65872
#
# Poissons Ratio (x) = -0.01751 0.27511
# Poissons Ratio (y) = -0.10264 -0.34361
# Poissons Ratio (z) = 0.54497 -0.11614
#
# Static dielectric constant tensor:
#      x y z
#    x 1.780600 0.000000 -0.006800 
#    y 0.000000 1.807370 0.000000 
#    z -0.006800 0.000000 1.735640 
# 
# From -- ./inp_files/338710.got.cif
#   From: 2010.05.17/outbox.cif.g08.bks.cpg/sg12_170_cif.got.tgz:338710.got - 2010.06.03 13:09:07.
