data_PCOD9176304
_publ_section_title
;
Structure prediction by ZEFSAII (Michael W. Deem and Ramdas Pophale) SiO2 
 PCOD9176304
Probable space group: C 2/M
;
_chemical_formula_sum "Si O2"
_cell_formula_units_Z 56
_cell_length_a 14.931075
_cell_length_b 7.621396
_cell_length_c 19.267929
_cell_angle_alpha 90.000000
_cell_angle_beta 99.856008
_cell_angle_gamma 90.000000
_cell_volume 2160.245642
_symmetry_space_group_name_H-M "C 2/M"
_symmetry_group_IT_number 12
_symmetry_cell_setting 'monoclinic'
loop_
_space_group_symop_operation_xyz
x,y,z
-x,y,-z
-x,-y,-z
x,-y,z
1/2+x,1/2+y,z
1/2-x,1/2+y,-z
1/2-x,1/2-y,-z
1/2+x,1/2-y,z
loop_
_atom_site_type_symbol
_atom_site_label
_atom_site_fract_x
_atom_site_fract_y
_atom_site_fract_z
Si Si1 0.380646 0.702190 0.037845
Si Si2 0.766605 0.215646 0.148538
Si Si3 0.623932 0.196918 0.319318
Si Si4 0.815439 0.784495 0.379649
Si Si5 0.572658 0.291533 0.731769
Si Si6 0.905031 0.211118 0.526939
Si Si7 0.428475 0.801339 0.891706
O O1 0.365735 0.500000 0.017043
O O2 0.300071 0.767661 0.076120
O O3 0.474564 0.707111 0.095388
O O4 0.400071 0.803480 0.969803
O O5 0.848205 0.277970 0.208227
O O6 0.664459 0.272645 0.153704
O O7 0.764281 0.000000 0.148859
O O8 0.723318 0.282176 0.331724
O O9 0.532961 0.257833 0.269256
O O10 0.603035 0.203325 0.399207
O O11 0.638592 0.000000 0.296718
O O12 0.899090 0.733907 0.341792
O O13 0.830949 0.728181 0.460485
O O14 0.812988 0.000000 0.381735
O O15 0.582691 0.500000 0.734947
O O16 0.000000 0.242209 0.500000
O O17 0.898848 0.000000 0.537310
O O18 0.444065 0.000000 0.870450
#
# Coordination Sequence:
#
# PCOD9176304 Si02
#       7
#     8   8   8   8   8   8   8
#     4  10  19  34  54  82 112 141 173 219 271 315
#     4   9  20  35  56  79 104 140 185 221 260 310
#     4  11  22  35  53  83 112 135 169 225 278 310
#     4   9  19  35  56  78 104 138 177 215 262 319
#     4  10  20  40  59  73 101 147 186 216 253 320
#     4  10  18  34  59  81 101 139 183 213 257 327
#     4  10  19  34  55  83 109 140 180 219 261 316
#
# _framework density 25.922976999999999
#
# number of rings (size 3 to 8) (size 9 to 14) (size 15 to 20)
#    0.000    2.143    1.429    3.000    0.000    1.429 
#    0.000    8.571    0.000    0.000    0.000    0.000 
#    0.000    0.000    0.000    0.000    0.000    0.000 
#
# Total GULP energy -156577.213121 kJ/mol
# GULP energy per Si atom -5592.043326 kJ/mol
# Density = 2.586398 g / cm^3
# Si number density = 25.922977 Si / 1000 Ang^3
#
#
#
# Elastic Constant Matrix: (Units=GPa)
#
#
# Indices 1 2 3 4 5 6 
#
# 1 145.0617 -0.0212 15.5279 0.0000 26.6885 0.0000
# 2 -0.0212 61.5034 1.9850 0.0000 3.1973 0.0000
# 3 15.5279 1.9850 92.4826 0.0000 28.3921 0.0000
# 4 0.0000 0.0000 0.0000 16.5018 0.0000 6.8785
# 5 26.6885 3.1973 28.3921 0.0000 55.3259 0.0000
# 6 0.0000 0.0000 0.0000 6.8785 0.0000 17.1018
#
#
#
# Elastic Compliance Matrix: (Units=1/GPa)
#
#
# Indices 1 2 3 4 5 6 
#
# 1 0.007570 0.000194 -0.000179 0.000000 -0.003571 0.000000
# 2 0.000194 0.016314 -0.000077 0.000000 -0.000997 0.000000
# 3 -0.000179 -0.000077 0.012839 0.000000 -0.006498 0.000000
# 4 0.000000 0.000000 0.000000 0.072806 0.000000 -0.029283
# 5 -0.003571 -0.000997 -0.006498 0.000000 0.023190 0.000000
# 6 0.000000 0.000000 0.000000 -0.029283 0.000000 0.070251
#
#
# Mechanical properties :
#
#
# Convention : Reuss Voigt Hill
#
# Bulk Modulus (GPa) = 27.32241 37.11458 32.21849
# Shear Modulus (GPa) = 23.22420 36.55629 29.89024
#
# Velocity S-wave (km/s) = 2.99639 3.75932 3.39933
# Velocity P-wave (km/s) = 4.74699 5.76122 5.27852
#
# Compressibility (1/GPa) = 0.03660000
#
# Stress axis : x y z
#
# Youngs Moduli (GPa) = 132.10421 61.29842 77.88473
#
# Poissons Ratio (x) = -0.01189 0.01393
# Poissons Ratio (y) = -0.02563 0.00597
# Poissons Ratio (z) = 0.02363 0.00470
#
# Static dielectric constant tensor:
#      x y z
#    x 2.033800 0.000000 0.052920 
#    y 0.000000 1.949400 0.000000 
#    z 0.052920 0.000000 2.105420 
# 
# From -- ./inp_files/338194.got.cif
#   From: 2010.05.17/outbox.cif.g08.bks.cpg/sg12_170_cif.got.tgz:338194.got - 2010.06.03 13:09:07.
