data_PCOD9176321
_publ_section_title
;
Structure prediction by ZEFSAII (Michael W. Deem and Ramdas Pophale) SiO2 
 PCOD9176321
Probable space group: C 2/M
;
_chemical_formula_sum "Si O2"
_cell_formula_units_Z 64
_cell_length_a 31.649036
_cell_length_b 7.815561
_cell_length_c 19.791872
_cell_angle_alpha 90.000000
_cell_angle_beta 141.651375
_cell_angle_gamma 90.000000
_cell_volume 3037.460796
_symmetry_space_group_name_H-M "C 2/M"
_symmetry_group_IT_number 12
_symmetry_cell_setting 'monoclinic'
loop_
_space_group_symop_operation_xyz
x,y,z
-x,y,-z
-x,-y,-z
x,-y,z
1/2+x,1/2+y,z
1/2-x,1/2+y,-z
1/2-x,1/2-y,-z
1/2+x,1/2-y,z
loop_
_atom_site_type_symbol
_atom_site_label
_atom_site_fract_x
_atom_site_fract_y
_atom_site_fract_z
Si Si1 0.829499 0.204770 0.750122
Si Si2 0.186309 0.298243 0.762550
Si Si3 0.401731 0.297112 0.228291
Si Si4 0.083243 0.794701 0.013355
Si Si5 0.672689 0.290418 0.998146
Si Si6 0.560827 0.796922 0.216119
Si Si7 0.819749 0.710007 0.398852
Si Si8 0.547885 0.207135 0.352924
O O1 0.869576 0.241590 0.731908
O O2 0.752055 0.266153 0.659126
O O3 0.826511 0.000000 0.753955
O O4 0.875191 0.271961 0.870006
O O5 0.199228 0.500000 0.770599
O O6 0.121680 0.274961 0.729420
O O7 0.252916 0.230011 0.885269
O O8 0.178386 0.231062 0.676772
O O9 0.393013 0.500000 0.221118
O O10 0.478500 0.259098 0.302607
O O11 0.352705 0.229913 0.106637
O O12 0.003844 0.752813 0.910619
O O13 0.088730 0.000000 0.021464
O O14 0.119429 0.736632 0.989450
O O15 0.672491 0.500000 0.995890
O O16 0.549884 0.728127 0.278161
O O17 0.561767 0.000000 0.221814
O O18 0.820976 0.500000 0.400799
O O19 0.885530 0.766123 0.523057
O O20 0.548985 0.000000 0.352520
#
# Coordination Sequence:
#
# PCOD9176321 Si02
#       8
#     8   8   8   8   8   8   8   8
#     4  10  20  36  61  86 107 140 186 230 271 322
#     4  10  19  36  61  85 109 140 181 229 275 322
#     4  11  22  36  56  84 116 146 177 221 275 331
#     4  10  18  34  59  84 109 142 183 224 268 324
#     4   9  17  32  57  84 110 139 177 223 270 321
#     4  11  23  36  53  82 118 148 177 221 276 330
#     4   9  19  38  62  82 103 140 192 236 266 311
#     4  10  22  40  58  78 107 147 191 229 267 318
#
# _framework density 21.070229999999999
#
# number of rings (size 3 to 8) (size 9 to 14) (size 15 to 20)
#    0.000    2.000    2.500    1.500    0.000    3.500 
#    0.000    5.625    0.000    0.000    0.000    0.000 
#    0.000    0.000    0.000    0.000    0.000    0.000 
#
# Total GULP energy -178776.789704 kJ/mol
# GULP energy per Si atom -5586.774678 kJ/mol
# Density = 2.102227 g / cm^3
# Si number density = 21.070230 Si / 1000 Ang^3
#
#
#
# Elastic Constant Matrix: (Units=GPa)
#
#
# Indices 1 2 3 4 5 6 
#
# 1 102.9729 -17.4840 28.2397 0.0000 11.0110 0.0000
# 2 -17.4840 20.7881 -3.6602 -0.0001 -1.5905 -0.0001
# 3 28.2397 -3.6602 116.2470 0.0000 17.6437 0.0000
# 4 0.0000 -0.0001 0.0000 10.1234 0.0000 -1.7518
# 5 11.0110 -1.5905 17.6437 0.0000 15.4369 0.0000
# 6 0.0000 -0.0001 0.0000 -1.7518 0.0000 13.2583
#
#
#
# Elastic Compliance Matrix: (Units=1/GPa)
#
#
# Indices 1 2 3 4 5 6 
#
# 1 0.012491 0.009737 -0.001848 0.000000 -0.005794 0.000000
# 2 0.009737 0.056160 -0.000510 0.000000 -0.000577 0.000000
# 3 -0.001848 -0.000510 0.010699 0.000000 -0.010963 0.000000
# 4 0.000000 0.000000 0.000000 0.101092 0.000000 0.013357
# 5 -0.005794 -0.000577 -0.010963 0.000000 0.081383 0.000000
# 6 0.000000 0.000000 0.000000 0.013357 0.000000 0.077189
#
#
# Mechanical properties :
#
#
# Convention : Reuss Voigt Hill
#
# Bulk Modulus (GPa) = 10.62606 28.24431 19.43518
# Shear Modulus (GPa) = 14.05973 23.29124 18.67549
#
# Velocity S-wave (km/s) = 2.58598 3.32838 2.98038
# Velocity P-wave (km/s) = 3.73771 5.31081 4.59212
#
# Compressibility (1/GPa) = 0.09410827
#
# Stress axis : x y z
#
# Youngs Moduli (GPa) = 80.05743 17.80623 93.46434
#
# Poissons Ratio (x) = -0.17338 0.17277
# Poissons Ratio (y) = -0.77952 0.04763
# Poissons Ratio (z) = 0.14798 0.00907
#
# Static dielectric constant tensor:
#      x y z
#    x 1.745750 0.000000 -0.011740 
#    y 0.000000 1.779700 0.000000 
#    z -0.011740 0.000000 1.746900 
# 
# From -- ./inp_files/295867.got.cif
#   From: 2010.05.17/outbox.cif.g08.bks.cpg/sg12_148_cif.got.tgz:295867.got - 2010.06.03 13:09:07.
