data_PCOD9176774
_publ_section_title
;
Structure prediction by ZEFSAII (Michael W. Deem and Ramdas Pophale) SiO2 
 PCOD9176774
Probable space group: C 2/M
;
_chemical_formula_sum "Si O2"
_cell_formula_units_Z 40
_cell_length_a 17.207423
_cell_length_b 20.122179
_cell_length_c 10.327764
_cell_angle_alpha 90.000000
_cell_angle_beta 29.216969
_cell_angle_gamma 90.000000
_cell_volume 1745.509109
_symmetry_space_group_name_H-M "C 2/M"
_symmetry_group_IT_number 12
_symmetry_cell_setting 'monoclinic'
loop_
_space_group_symop_operation_xyz
x,y,z
-x,y,-z
-x,-y,-z
x,-y,z
1/2+x,1/2+y,z
1/2-x,1/2+y,-z
1/2-x,1/2-y,-z
1/2+x,1/2-y,z
loop_
_atom_site_type_symbol
_atom_site_label
_atom_site_fract_x
_atom_site_fract_y
_atom_site_fract_z
Si Si1 0.811907 0.696442 0.848513
Si Si2 0.000000 0.378838 0.000000
Si Si3 0.500000 0.697481 0.500000
Si Si4 0.340052 0.312768 0.477048
Si Si5 0.015361 0.425074 0.263595
Si Si6 0.267304 0.668517 0.311022
O O1 0.821615 0.783265 0.837161
O O2 0.698967 0.684955 0.887039
O O3 0.000000 0.714164 0.500000
O O4 0.874027 0.628114 0.824483
O O5 0.155820 0.333724 0.758264
O O6 0.969155 0.419662 0.914364
O O7 0.572857 0.661200 0.521446
O O8 0.380777 0.334270 0.271362
O O9 0.344773 0.232587 0.485264
O O10 0.040109 0.500000 0.271446
O O11 0.836385 0.397999 0.545140
#
# Coordination Sequence:
#
# PCOD9176774 Si02
#       6
#     8   4   4   8   8   8
#     4  11  20  34  52  79 117 149 190 240 291 338
#     4  10  21  34  54  88 115 148 192 238 295 348
#     4  10  18  36  51  84 117 138 194 238 286 344
#     4   9  17  33  56  75 119 143 183 244 287 338
#     4  11  20  33  54  82 119 151 188 242 294 343
#     4   9  18  33  48  75 110 145 184 227 292 343
#
# _framework density 22.915952000000001
#
# number of rings (size 3 to 8) (size 9 to 14) (size 15 to 20)
#    0.000    2.000    4.000    2.700    0.000    1.600 
#    0.000    0.000    0.000    0.000    0.000   45.500 
#    0.000    0.800    0.000    0.000    0.000    0.000 
#
# Total GULP energy -111430.147918 kJ/mol
# GULP energy per Si atom -5571.507396 kJ/mol
# Density = 2.286379 g / cm^3
# Si number density = 22.915952 Si / 1000 Ang^3
#
#
#
# Elastic Constant Matrix: (Units=GPa)
#
#
# Indices 1 2 3 4 5 6 
#
# 1 269.6911 59.2120 58.9464 0.0010 20.2833 -0.0007
# 2 59.2120 152.3409 41.4412 0.0006 -0.0952 -0.0003
# 3 58.9464 41.4412 99.5499 0.0022 24.5736 -0.0009
# 4 0.0010 0.0006 0.0022 13.2914 -0.0012 -5.0320
# 5 20.2833 -0.0952 24.5736 -0.0012 59.7941 0.0008
# 6 -0.0007 -0.0003 -0.0009 -5.0320 0.0008 18.3255
#
#
#
# Elastic Compliance Matrix: (Units=1/GPa)
#
#
# Indices 1 2 3 4 5 6 
#
# 1 0.004453 -0.001197 -0.001965 0.000000 -0.000705 0.000000
# 2 -0.001197 0.007835 -0.002956 0.000000 0.001633 0.000000
# 3 -0.001965 -0.002956 0.013662 -0.000002 -0.004953 0.000000
# 4 0.000000 0.000000 -0.000002 0.083966 0.000002 0.023056
# 5 -0.000705 0.001633 -0.004953 0.000002 0.019001 0.000000
# 6 0.000000 0.000000 0.000000 0.023056 0.000000 0.060900
#
#
# Mechanical properties :
#
#
# Convention : Reuss Voigt Hill
#
# Bulk Modulus (GPa) = 72.91467 93.42011 83.16739
# Shear Modulus (GPa) = 24.19876 42.41436 33.30656
#
# Velocity S-wave (km/s) = 3.25311 4.30684 3.81651
# Velocity P-wave (km/s) = 6.78216 8.09856 7.46942
#
# Compressibility (1/GPa) = 0.01371466
#
# Stress axis : x y z
#
# Youngs Moduli (GPa) = 224.56023 127.64011 73.19829
#
# Poissons Ratio (x) = 0.15277 0.14380
# Poissons Ratio (y) = 0.26877 0.21636
# Poissons Ratio (z) = 0.44116 0.37729
#
# Static dielectric constant tensor:
#      x y z
#    x 1.880940 0.000000 0.014870 
#    y 0.000000 1.775750 0.000000 
#    z 0.014870 0.000000 2.252930 
# 
# From -- ./inp_files/157619.got.cif
#   From: 2010.05.17/outbox.cif.g08.bks.cpg/sg12_79_cif.got.tgz:157619.got - 2010.06.03 13:09:07.
