data_PCOD9176489
_publ_section_title
;
Structure prediction by ZEFSAII (Michael W. Deem and Ramdas Pophale) SiO2 
 PCOD9176489
Probable space group: C 2/M
;
_chemical_formula_sum "Si O2"
_cell_formula_units_Z 64
_cell_length_a 29.722044
_cell_length_b 27.818958
_cell_length_c 9.838855
_cell_angle_alpha 90.000000
_cell_angle_beta 28.907127
_cell_angle_gamma 90.000000
_cell_volume 3932.447217
_symmetry_space_group_name_H-M "C 2/M"
_symmetry_group_IT_number 12
_symmetry_cell_setting 'monoclinic'
loop_
_space_group_symop_operation_xyz
x,y,z
-x,y,-z
-x,-y,-z
x,-y,z
1/2+x,1/2+y,z
1/2-x,1/2+y,-z
1/2-x,1/2-y,-z
1/2+x,1/2-y,z
loop_
_atom_site_type_symbol
_atom_site_label
_atom_site_fract_x
_atom_site_fract_y
_atom_site_fract_z
Si Si1 0.597033 0.196212 0.297833
Si Si2 0.294615 0.846129 0.236941
Si Si3 0.105996 0.689071 0.762519
Si Si4 0.884130 0.444264 0.954534
Si Si5 0.895161 0.199604 0.316138
Si Si6 0.336696 0.712004 0.780785
Si Si7 0.098325 0.555302 0.419099
Si Si8 0.693617 0.145034 0.280294
O O1 0.500000 0.177303 0.500000
O O2 0.596459 0.253907 0.308216
O O3 0.618501 0.175298 0.389216
O O4 0.673946 0.175607 0.991905
O O5 0.362161 0.821784 0.169171
O O6 0.186780 0.831830 0.534390
O O7 0.315012 0.902885 0.186199
O O8 0.117430 0.745492 0.700771
O O9 0.174526 0.658899 0.484748
O O10 0.000000 0.676533 0.000000
O O11 0.862294 0.500000 0.045958
O O12 0.887520 0.440844 0.781132
O O13 0.988809 0.433553 0.731100
O O14 0.879411 0.200795 0.520977
O O15 0.000000 0.184778 0.000000
O O16 0.250000 0.750000 0.000000
O O17 0.292761 0.665325 0.967712
O O18 0.113273 0.500000 0.417975
O O19 0.167604 0.590908 0.312174
#
# Coordination Sequence:
#
# PCOD9176489 Si02
#       8
#     8   8   8   8   8   8   8   8
#     4  11  19  29  53  74  96 133 173 202 247 310
#     4  12  21  34  52  75 102 141 175 202 257 317
#     4  11  22  32  48  75 109 136 166 206 255 305
#     4   9  17  29  48  75 102 125 164 216 256 300
#     4  11  22  36  51  73 107 139 170 219 257 291
#     4  10  18  35  50  70  99 135 169 211 254 290
#     4   9  16  27  48  77 100 125 166 211 253 304
#     4  11  18  34  50  67 105 136 167 208 248 300
#
# _framework density 16.274853
#
# number of rings (size 3 to 8) (size 9 to 14) (size 15 to 20)
#    0.000    1.500    6.250    3.375    1.750    0.000 
#    0.000    0.625    0.000    2.625    0.000    0.000 
#    0.000    0.500    0.000    0.250    0.000    0.000 
#
# Total GULP energy -178366.692376 kJ/mol
# GULP energy per Si atom -5573.959137 kJ/mol
# Density = 1.623781 g / cm^3
# Si number density = 16.274853 Si / 1000 Ang^3
#
#
#
# Elastic Constant Matrix: (Units=GPa)
#
#
# Indices 1 2 3 4 5 6 
#
# 1 25.0181 17.7300 10.2243 0.0000 -4.5421 0.0000
# 2 17.7300 100.2490 30.3087 0.0000 -9.8639 0.0000
# 3 10.2243 30.3087 75.3892 0.0000 -7.4730 0.0000
# 4 0.0000 0.0000 0.0000 16.1487 0.0000 -9.8651
# 5 -4.5421 -9.8639 -7.4730 0.0000 21.7126 0.0000
# 6 0.0000 0.0000 0.0000 -9.8651 0.0000 17.1537
#
#
#
# Elastic Compliance Matrix: (Units=1/GPa)
#
#
# Indices 1 2 3 4 5 6 
#
# 1 0.047109 -0.006843 -0.003074 0.000000 0.005688 0.000000
# 2 -0.006843 0.012646 -0.003860 0.000000 0.002985 0.000000
# 3 -0.003074 -0.003860 0.015525 0.000000 0.002947 0.000000
# 4 0.000000 0.000000 0.000000 0.095463 0.000000 0.054901
# 5 0.005688 0.002985 0.002947 0.000000 0.049616 0.000000
# 6 0.000000 0.000000 0.000000 0.054901 0.000000 0.089870
#
#
# Mechanical properties :
#
#
# Convention : Reuss Voigt Hill
#
# Bulk Modulus (GPa) = 20.95256 35.24248 28.09752
# Shear Modulus (GPa) = 14.13651 20.49588 17.31620
#
# Velocity S-wave (km/s) = 2.95042 3.55259 3.26542
# Velocity P-wave (km/s) = 4.95063 6.20721 5.61419
#
# Compressibility (1/GPa) = 0.04772686
#
# Stress axis : x y z
#
# Youngs Moduli (GPa) = 21.22721 79.07555 64.41037
#
# Poissons Ratio (x) = 0.54109 0.19801
# Poissons Ratio (y) = 0.14525 0.24864
# Poissons Ratio (z) = 0.06526 0.30525
#
# Static dielectric constant tensor:
#      x y z
#    x 1.557760 0.000000 -0.021590 
#    y 0.000000 1.571380 0.000000 
#    z -0.021590 0.000000 1.580130 
# 
# From -- ./inp_files/113737.got.cif
#   From: 2010.05.17/outbox.cif.g08.bks.cpg/sg12_57_cif.got.tgz:113737.got - 2010.06.03 13:09:07.
