data_PCOD9176100
_publ_section_title
;
Structure prediction by ZEFSAII (Michael W. Deem and Ramdas Pophale) SiO2 
 PCOD9176100
Probable space group: C 2/M
;
_chemical_formula_sum "Si O2"
_cell_formula_units_Z 52
_cell_length_a 26.292980
_cell_length_b 16.878817
_cell_length_c 6.443913
_cell_angle_alpha 90.000000
_cell_angle_beta 86.350392
_cell_angle_gamma 90.000000
_cell_volume 2853.972839
_symmetry_space_group_name_H-M "C 2/M"
_symmetry_group_IT_number 12
_symmetry_cell_setting 'monoclinic'
loop_
_space_group_symop_operation_xyz
x,y,z
-x,y,-z
-x,-y,-z
x,-y,z
1/2+x,1/2+y,z
1/2-x,1/2+y,-z
1/2-x,1/2-y,-z
1/2+x,1/2-y,z
loop_
_atom_site_type_symbol
_atom_site_label
_atom_site_fract_x
_atom_site_fract_y
_atom_site_fract_z
Si Si1 0.547346 0.793363 0.609941
Si Si2 0.780944 0.801895 0.325316
Si Si3 0.000000 0.806508 0.000000
Si Si4 0.317166 0.409290 0.666529
Si Si5 0.407961 0.698844 0.784665
Si Si6 0.635229 0.819087 0.877072
Si Si7 0.774320 0.410452 0.985637
O O1 0.500000 0.834209 0.500000
O O2 0.521772 0.746618 0.807318
O O3 0.571320 0.730979 0.440232
O O4 0.594386 0.838483 0.706956
O O5 0.750000 0.750000 0.500000
O O6 0.807252 0.872867 0.444028
O O7 0.823937 0.745753 0.216381
O O8 0.743478 0.842489 0.169331
O O9 0.048302 0.847011 0.096355
O O10 0.333648 0.500000 0.651720
O O11 0.359153 0.355186 0.764882
O O12 0.265214 0.405506 0.812903
O O13 0.393000 0.775793 0.924603
O O14 0.669315 0.891135 0.948339
O O15 0.771039 0.500000 0.900359
#
# Coordination Sequence:
#
# PCOD9176100 Si02
#       7
#     8   8   4   8   8   8   8
#     4   9  18  33  56  84 110 132 178 240 276 317
#     4  12  21  35  55  80 107 147 192 228 263 317
#     4   8  18  32  53  82 107 132 180 236 282 316
#     4  11  22  35  52  78 115 152 184 224 275 323
#     4  10  18  34  55  80 106 142 186 231 272 323
#     4  11  20  33  58  82 103 146 189 224 268 328
#     4  11  24  38  51  80 121 150 179 226 276 323
#
# _framework density 18.220216000000001
#
# number of rings (size 3 to 8) (size 9 to 14) (size 15 to 20)
#    0.000    1.538    4.615    1.846    0.000    0.000 
#    0.000    0.385    0.000    4.615    0.000   18.308 
#    0.000    0.000    0.000    0.000    0.000    0.000 
#
# Total GULP energy -144931.013818 kJ/mol
# GULP energy per Si atom -5574.269762 kJ/mol
# Density = 1.817875 g / cm^3
# Si number density = 18.220216 Si / 1000 Ang^3
#
#
#
# Elastic Constant Matrix: (Units=GPa)
#
#
# Indices 1 2 3 4 5 6 
#
# 1 98.9701 15.6834 22.7082 0.0000 26.8298 0.0000
# 2 15.6834 31.8314 10.0264 0.0000 -1.5708 0.0000
# 3 22.7082 10.0264 78.9084 0.0000 -2.0812 0.0000
# 4 0.0000 0.0000 0.0000 19.5267 0.0000 -3.1699
# 5 26.8298 -1.5708 -2.0812 0.0000 48.3492 0.0000
# 6 0.0000 0.0000 0.0000 -3.1699 0.0000 4.0366
#
#
#
# Elastic Compliance Matrix: (Units=1/GPa)
#
#
# Indices 1 2 3 4 5 6 
#
# 1 0.014114 -0.006261 -0.003482 0.000000 -0.008186 0.000000
# 2 -0.006261 0.035541 -0.002595 0.000000 0.004517 0.000000
# 3 -0.003482 -0.002595 0.014069 0.000000 0.002454 0.000000
# 4 0.000000 0.000000 0.000000 0.058694 0.000000 0.046092
# 5 -0.008186 0.004517 0.002454 0.000000 0.025478 0.000000
# 6 0.000000 0.000000 0.000000 0.046092 0.000000 0.283926
#
#
# Mechanical properties :
#
#
# Convention : Reuss Voigt Hill
#
# Bulk Modulus (GPa) = 25.60959 34.06065 29.83512
# Shear Modulus (GPa) = 10.64928 25.13529 17.89229
#
# Velocity S-wave (km/s) = 2.42022 3.71823 3.13709
# Velocity P-wave (km/s) = 4.67932 6.09656 5.43434
#
# Compressibility (1/GPa) = 0.03904787
#
# Stress axis : x y z
#
# Youngs Moduli (GPa) = 70.85060 28.13672 71.07604
#
# Poissons Ratio (x) = 0.17617 0.24749
# Poissons Ratio (y) = 0.44361 0.18444
# Poissons Ratio (z) = 0.24671 0.07301
#
# Static dielectric constant tensor:
#      x y z
#    x 1.677690 0.000000 0.028770 
#    y 0.000000 1.585540 0.000000 
#    z 0.028770 0.000000 1.639610 
# 
# From -- ./inp_files/28553.got.cif
#   From: 2010.05.17/outbox.cif.g08.bks.cpg/sg12_15_cif.got.tgz:28553.got - 2010.06.03 13:09:07.
