data_PCOD9176826
_publ_section_title
;
Structure prediction by ZEFSAII (Michael W. Deem and Ramdas Pophale) SiO2 
 PCOD9176826
Probable space group: C 2/M
;
_chemical_formula_sum "Si O2"
_cell_formula_units_Z 44
_cell_length_a 17.764390
_cell_length_b 27.130989
_cell_length_c 5.364692
_cell_angle_alpha 90.000000
_cell_angle_beta 126.645499
_cell_angle_gamma 90.000000
_cell_volume 2074.537045
_symmetry_space_group_name_H-M "C 2/M"
_symmetry_group_IT_number 12
_symmetry_cell_setting 'monoclinic'
loop_
_space_group_symop_operation_xyz
x,y,z
-x,y,-z
-x,-y,-z
x,-y,z
1/2+x,1/2+y,z
1/2-x,1/2+y,-z
1/2-x,1/2-y,-z
1/2+x,1/2-y,z
loop_
_atom_site_type_symbol
_atom_site_label
_atom_site_fract_x
_atom_site_fract_y
_atom_site_fract_z
Si Si1 0.816462 0.820933 0.595844
Si Si2 0.222746 0.944604 0.961372
Si Si3 0.893251 0.078472 0.773549
Si Si4 0.150247 0.639237 0.959050
Si Si5 0.839892 0.277373 0.403691
Si Si6 0.000000 0.662893 0.000000
O O1 0.891729 0.861921 0.806326
O O2 0.848794 0.780946 0.456322
O O3 0.766368 0.790743 0.718319
O O4 0.730117 0.853364 0.323575
O O5 0.153429 0.934748 0.586738
O O6 0.259985 0.000000 0.006717
O O7 0.166676 0.940779 0.110199
O O8 0.305462 0.903545 0.122339
O O9 0.000000 0.060846 0.000000
O O10 0.144457 0.692662 0.816894
O O11 0.050387 0.630517 0.888605
O O12 0.918879 0.302105 0.733369
#
# Coordination Sequence:
#
# PCOD9176826 Si02
#       6
#     8   8   8   8   8   4
#     4   9  20  34  58  87 121 163 204 245 309 372
#     4  11  24  43  67  91 123 169 214 266 329 379
#     4  11  23  41  63  98 130 163 208 264 313 380
#     4  10  20  39  59  85 123 165 211 262 314 374
#     4  10  18  36  57  84 122 163 204 248 309 375
#     4  10  22  34  57  90 118 162 205 260 310 372
#
# _framework density 21.209553
#
# number of rings (size 3 to 8) (size 9 to 14) (size 15 to 20)
#    0.000    1.818    1.818    2.182    1.273    2.182 
#    0.000    4.091    0.000    2.182    0.000    0.000 
#    0.000    0.000    0.000    0.000    0.000    0.000 
#
# Total GULP energy -122657.479081 kJ/mol
# GULP energy per Si atom -5575.339958 kJ/mol
# Density = 2.116128 g / cm^3
# Si number density = 21.209553 Si / 1000 Ang^3
#
#
#
# Elastic Constant Matrix: (Units=GPa)
#
#
# Indices 1 2 3 4 5 6 
#
# 1 129.5381 36.3654 20.9523 0.0000 -2.3890 0.0000
# 2 36.3654 99.1502 -4.4600 0.0000 7.5451 0.0000
# 3 20.9523 -4.4600 60.5765 0.0000 -5.6809 0.0000
# 4 0.0000 0.0000 0.0000 10.3656 0.0000 -2.6205
# 5 -2.3890 7.5451 -5.6809 0.0000 30.4873 0.0000
# 6 0.0000 0.0000 0.0000 -2.6205 0.0000 -0.2769
#
#
#
# Elastic Compliance Matrix: (Units=1/GPa)
#
#
# Indices 1 2 3 4 5 6 
#
# 1 0.009310 -0.003643 -0.003395 0.000000 0.000999 0.000000
# 2 -0.003643 0.011722 0.001857 0.000000 -0.002840 0.000000
# 3 -0.003395 0.001857 0.018067 0.000000 0.002641 0.000000
# 4 0.000000 0.000000 0.000000 0.028436 0.000000 -0.269126
# 5 0.000999 -0.002840 0.002641 0.000000 0.034074 0.000000
# 6 0.000000 0.000000 0.000000 -0.269126 0.000000 -1.064555
#
#
# Mechanical properties :
#
#
# Convention : Reuss Voigt Hill
#
# Bulk Modulus (GPa) = 34.79989 43.88668 39.34328
# Shear Modulus (GPa) = -5.30220 23.87569 9.28674
#
# Velocity S-wave (km/s) = -1.58283 3.35879 2.09477
# Velocity P-wave (km/s) = 3.61978 5.98154 4.94377
#
# Compressibility (1/GPa) = 0.02873572
#
# Stress axis : x y z
#
# Youngs Moduli (GPa) = 107.41078 85.31222 55.35067
#
# Poissons Ratio (x) = 0.31082 0.18790
# Poissons Ratio (y) = 0.39134 -0.10278
# Poissons Ratio (z) = 0.36464 -0.15841
#
# Static dielectric constant tensor:
#      x y z
#    x 1.815160 0.000000 -0.031150 
#    y 0.000000 1.797180 0.000000 
#    z -0.031150 0.000000 1.813930 
# 
# From -- ./inp_files/17812.got.cif
#   From: 2010.05.17/outbox.cif.g08.bks.cpg/sg12_9_cif.got.tgz:17812.got - 2010.06.03 13:09:07.
