data_PCOD9176631
_publ_section_title
;
Structure prediction by ZEFSAII (Michael W. Deem and Ramdas Pophale) SiO2 
 PCOD9176631
Probable space group: C 2/M
;
_chemical_formula_sum "Si O2"
_cell_formula_units_Z 50
_cell_length_a 16.540971
_cell_length_b 15.991807
_cell_length_c 9.862140
_cell_angle_alpha 90.000000
_cell_angle_beta 70.576009
_cell_angle_gamma 90.000000
_cell_volume 2460.253432
_symmetry_space_group_name_H-M "C 2/M"
_symmetry_group_IT_number 12
_symmetry_cell_setting 'monoclinic'
loop_
_space_group_symop_operation_xyz
x,y,z
-x,y,-z
-x,-y,-z
x,-y,z
1/2+x,1/2+y,z
1/2-x,1/2+y,-z
1/2-x,1/2-y,-z
1/2+x,1/2-y,z
loop_
_atom_site_type_symbol
_atom_site_label
_atom_site_fract_x
_atom_site_fract_y
_atom_site_fract_z
Si Si1 0.078675 0.868419 0.039614
Si Si2 0.723082 0.905747 0.060663
Si Si3 0.353741 0.794725 0.135902
Si Si4 0.540527 0.684637 0.349034
Si Si5 0.195325 0.298787 0.334313
Si Si6 0.000000 0.500000 0.500000
Si Si7 0.422811 0.151257 0.366385
O O1 0.173963 0.905216 0.977827
O O2 0.049742 0.868143 0.210266
O O3 0.091671 0.772736 0.979082
O O4 0.000000 0.905247 0.000000
O O5 0.697658 0.847807 0.947671
O O6 0.692680 0.000000 0.057860
O O7 0.684912 0.866452 0.219698
O O8 0.290227 0.737596 0.263521
O O9 0.402753 0.851621 0.217650
O O10 0.500000 0.639057 0.500000
O O11 0.632432 0.722306 0.335667
O O12 0.479966 0.765204 0.355016
O O13 0.163486 0.336295 0.494040
O O14 0.970996 0.573669 0.406524
#
# Coordination Sequence:
#
# PCOD9176631 Si02
#       7
#     8   8   8   8   8   2   8
#     4  11  20  39  63  84 113 148 204 253 275 339
#     4  11  24  37  56  86 123 158 183 239 304 342
#     4  11  21  37  62  86 110 150 204 244 282 329
#     4  10  18  35  59  86 110 149 192 241 289 329
#     4  10  19  39  59  82 115 151 197 243 277 344
#     4  12  24  36  52  86 136 152 174 228 306 364
#     4  11  23  35  58  87 116 157 188 228 301 349
#
# _framework density 20.323108999999999
#
# number of rings (size 3 to 8) (size 9 to 14) (size 15 to 20)
#    0.000    1.280    7.200    1.440    2.240    0.320 
#    0.000    0.000    0.000    3.840    0.000    0.000 
#    0.000    0.000    0.000    0.000    0.000    0.000 
#
# Total GULP energy -139288.818835 kJ/mol
# GULP energy per Si atom -5571.552753 kJ/mol
# Density = 2.027685 g / cm^3
# Si number density = 20.323109 Si / 1000 Ang^3
#
#
#
# Elastic Constant Matrix: (Units=GPa)
#
#
# Indices 1 2 3 4 5 6 
#
# 1 55.6391 -0.7176 9.6912 0.0000 13.9624 0.0000
# 2 -0.7176 55.9847 8.6333 0.0000 11.9858 0.0000
# 3 9.6912 8.6333 117.9011 0.0000 8.3098 0.0000
# 4 0.0000 0.0000 0.0000 7.9433 0.0000 7.5647
# 5 13.9624 11.9858 8.3098 0.0000 35.3943 0.0000
# 6 0.0000 0.0000 0.0000 7.5647 0.0000 3.9842
#
#
#
# Elastic Compliance Matrix: (Units=1/GPa)
#
#
# Indices 1 2 3 4 5 6 
#
# 1 0.020353 0.002274 -0.001240 0.000000 -0.008508 0.000000
# 2 0.002274 0.019621 -0.001110 0.000000 -0.007281 0.000000
# 3 -0.001240 -0.001110 0.008749 0.000000 -0.001189 0.000000
# 4 0.000000 0.000000 0.000000 -0.155774 0.000000 0.295764
# 5 -0.008508 -0.007281 -0.001189 0.000000 0.034354 0.000000
# 6 0.000000 0.000000 0.000000 0.295764 0.000000 -0.310566
#
#
# Mechanical properties :
#
#
# Convention : Reuss Voigt Hill
#
# Bulk Modulus (GPa) = 20.58907 29.41540 25.00224
# Shear Modulus (GPa) = -13.62693 23.59225 4.98266
#
# Velocity S-wave (km/s) = -2.59224 3.41083 1.56750
# Velocity P-wave (km/s) = 1.09237 5.47878 3.95033
#
# Compressibility (1/GPa) = 0.04856946
#
# Stress axis : x y z
#
# Youngs Moduli (GPa) = 49.13223 50.96558 114.30271
#
# Poissons Ratio (x) = -0.11587 0.14171
# Poissons Ratio (y) = -0.11170 0.12693
# Poissons Ratio (z) = 0.06092 0.05660
#
# Static dielectric constant tensor:
#      x y z
#    x 1.765740 0.000000 -0.009570 
#    y 0.000000 1.697040 0.000000 
#    z -0.009570 0.000000 1.744090 
# 
# From -- ./inp_files/75158.got.cif
#   From: 2010.05.17/outbox.cif.g08.bks.cpg/sg12_38_cif.got.tgz:75158.got - 2010.06.03 13:09:07.
