data_PCOD9176665
_publ_section_title
;
Structure prediction by ZEFSAII (Michael W. Deem and Ramdas Pophale) SiO2 
 PCOD9176665
Probable space group: C 2/M
;
_chemical_formula_sum "Si O2"
_cell_formula_units_Z 40
_cell_length_a 9.479173
_cell_length_b 28.028702
_cell_length_c 12.357112
_cell_angle_alpha 90.000000
_cell_angle_beta 36.229703
_cell_angle_gamma 90.000000
_cell_volume 1940.418842
_symmetry_space_group_name_H-M "C 2/M"
_symmetry_group_IT_number 12
_symmetry_cell_setting 'monoclinic'
loop_
_space_group_symop_operation_xyz
x,y,z
-x,y,-z
-x,-y,-z
x,-y,z
1/2+x,1/2+y,z
1/2-x,1/2+y,-z
1/2-x,1/2-y,-z
1/2+x,1/2-y,z
loop_
_atom_site_type_symbol
_atom_site_label
_atom_site_fract_x
_atom_site_fract_y
_atom_site_fract_z
Si Si1 0.749348 0.684482 0.394872
Si Si2 0.214904 0.212601 0.659857
Si Si3 0.619777 0.553245 0.542503
Si Si4 0.551194 0.612035 0.801983
Si Si5 0.399959 0.096649 0.777419
O O1 0.500000 0.666813 0.500000
O O2 0.837298 0.732477 0.278668
O O3 0.674867 0.703818 0.558189
O O4 0.950381 0.644797 0.286913
O O5 0.500000 0.205248 0.500000
O O6 0.064912 0.169726 0.804212
O O7 0.500000 0.561795 0.500000
O O8 0.550969 0.500000 0.622066
O O9 0.569384 0.591552 0.669131
O O10 0.901355 0.556363 0.345619
O O11 0.776047 0.597130 0.736598
O O12 0.311820 0.593069 0.005507
#
# Coordination Sequence:
#
# PCOD9176665 Si02
#       5
#     8   8   8   8   8
#     4  10  20  34  59  90 123 167 212 249 298 351
#     4  10  18  35  60  86 124 170 210 248 294 354
#     4  11  25  46  68  90 120 156 198 255 317 369
#     4  11  23  40  65  92 125 164 204 252 303 363
#     4  11  23  40  63  95 126 160 207 250 302 368
#
# _framework density 20.614106
#
# number of rings (size 3 to 8) (size 9 to 14) (size 15 to 20)
#    0.000    1.400    4.000    1.200    0.000    4.000 
#    0.000    4.000    0.000    0.000    0.000    0.000 
#    0.000    0.000    0.000    0.000    0.000    0.000 
#
# Total GULP energy -111514.023725 kJ/mol
# GULP energy per Si atom -5575.701186 kJ/mol
# Density = 2.056719 g / cm^3
# Si number density = 20.614106 Si / 1000 Ang^3
#
#
#
# Elastic Constant Matrix: (Units=GPa)
#
#
# Indices 1 2 3 4 5 6 
#
# 1 145.6989 23.7562 40.4858 0.0000 -6.0542 0.0000
# 2 23.7562 105.0003 12.4306 0.0000 3.5585 0.0000
# 3 40.4858 12.4306 66.0293 0.0000 -0.5480 0.0000
# 4 0.0000 0.0000 0.0000 13.2707 0.0000 -4.4911
# 5 -6.0542 3.5585 -0.5480 0.0000 18.4444 0.0000
# 6 0.0000 0.0000 0.0000 -4.4911 0.0000 14.4193
#
#
#
# Elastic Compliance Matrix: (Units=1/GPa)
#
#
# Indices 1 2 3 4 5 6 
#
# 1 0.008608 -0.001458 -0.004979 0.000000 0.002959 0.000000
# 2 -0.001458 0.010057 -0.001020 0.000000 -0.002449 0.000000
# 3 -0.004979 -0.001020 0.018382 0.000000 -0.000891 0.000000
# 4 0.000000 0.000000 0.000000 0.084233 0.000000 0.026235
# 5 0.002959 -0.002449 -0.000891 0.000000 0.055634 0.000000
# 6 0.000000 0.000000 0.000000 0.026235 0.000000 0.077523
#
#
# Mechanical properties :
#
#
# Convention : Reuss Voigt Hill
#
# Bulk Modulus (GPa) = 45.17942 52.23040 48.70491
# Shear Modulus (GPa) = 18.06829 25.23060 21.64945
#
# Velocity S-wave (km/s) = 2.96379 3.50229 3.24423
# Velocity P-wave (km/s) = 5.80314 6.46119 6.14098
#
# Compressibility (1/GPa) = 0.02213397
#
# Stress axis : x y z
#
# Youngs Moduli (GPa) = 116.17590 99.42893 54.40103
#
# Poissons Ratio (x) = 0.14500 0.27084
# Poissons Ratio (y) = 0.16942 0.05546
# Poissons Ratio (z) = 0.57840 0.10137
#
# Static dielectric constant tensor:
#      x y z
#    x 1.777940 0.000000 0.019420 
#    y 0.000000 1.848790 0.000000 
#    z 0.019420 0.000000 1.713790 
# 
# From -- ./inp_files/124987.got.cif
#   From: 2010.05.17/outbox.cif.g08.bks.cpg/sg12_63_cif.got.tgz:124987.got - 2010.06.03 13:09:07.
