data_PCOD9176119
_publ_section_title
;
Structure prediction by ZEFSAII (Michael W. Deem and Ramdas Pophale) SiO2 
 PCOD9176119
Probable space group: C 2/M
;
_chemical_formula_sum "Si O2"
_cell_formula_units_Z 64
_cell_length_a 9.090893
_cell_length_b 19.180853
_cell_length_c 25.577967
_cell_angle_alpha 90.000000
_cell_angle_beta 125.032294
_cell_angle_gamma 90.000000
_cell_volume 3652.022988
_symmetry_space_group_name_H-M "C 2/M"
_symmetry_group_IT_number 12
_symmetry_cell_setting 'monoclinic'
loop_
_space_group_symop_operation_xyz
x,y,z
-x,y,-z
-x,-y,-z
x,-y,z
1/2+x,1/2+y,z
1/2-x,1/2+y,-z
1/2-x,1/2-y,-z
1/2+x,1/2-y,z
loop_
_atom_site_type_symbol
_atom_site_label
_atom_site_fract_x
_atom_site_fract_y
_atom_site_fract_z
Si Si1 0.675129 0.332657 0.806286
Si Si2 0.743238 0.420860 0.722799
Si Si3 0.098386 0.801143 0.629547
Si Si4 0.184691 0.582964 0.068838
Si Si5 0.020535 0.915845 0.062718
Si Si6 0.159493 0.580916 0.796909
Si Si7 0.772971 0.206757 0.754263
Si Si8 0.305765 0.220070 0.454697
O O1 0.651711 0.388382 0.754982
O O2 0.788846 0.369242 0.875061
O O3 0.762192 0.264838 0.797492
O O4 0.479225 0.310047 0.785320
O O5 0.690694 0.500000 0.702985
O O6 0.699308 0.371538 0.665313
O O7 0.956888 0.417462 0.775858
O O8 0.174181 0.741493 0.684284
O O9 0.145595 0.776369 0.580517
O O10 0.886667 0.813381 0.598920
O O11 0.194538 0.500000 0.084691
O O12 0.349450 0.599618 0.063677
O O13 0.000000 0.593877 0.000000
O O14 0.200768 0.895675 0.129958
O O15 0.028840 0.000000 0.060298
O O16 0.000000 0.887496 0.000000
O O17 0.201064 0.500000 0.790987
O O18 0.180603 0.635586 0.754434
O O19 0.500000 0.181287 0.500000
O O20 0.250000 0.250000 0.500000
#
# Coordination Sequence:
#
# PCOD9176119 Si02
#       8
#     8   8   8   8   8   8   8   8
#     4  11  22  37  54  79 110 144 187 233 286 337
#     4  10  21  34  55  84 114 149 185 229 281 333
#     4  10  18  34  55  83 113 143 182 221 269 321
#     4  10  21  37  57  79 104 139 187 235 283 338
#     4   9  18  33  53  76 101 136 179 228 279 329
#     4  10  20  35  55  81 110 141 184 231 283 338
#     4  11  21  36  57  81 113 147 177 227 283 334
#     4   9  18  32  56  84 110 141 181 225 258 305
#
# _framework density 17.524533999999999
#
# number of rings (size 3 to 8) (size 9 to 14) (size 15 to 20)
#    0.000    2.000    1.250    4.125    1.750    0.500 
#    0.000    1.250    0.000    3.750    0.000    3.500 
#    0.000    0.000    0.000    0.000    0.000    0.000 
#
# Total GULP energy -178304.881934 kJ/mol
# GULP energy per Si atom -5572.027560 kJ/mol
# Density = 1.748465 g / cm^3
# Si number density = 17.524534 Si / 1000 Ang^3
#
#
#
# Elastic Constant Matrix: (Units=GPa)
#
#
# Indices 1 2 3 4 5 6 
#
# 1 87.7312 26.9990 31.0005 0.0000 6.6874 0.0000
# 2 26.9990 77.1364 36.2474 0.0000 -6.1443 0.0000
# 3 31.0005 36.2474 81.5185 0.0000 1.1284 0.0000
# 4 0.0000 0.0000 0.0000 6.1976 0.0000 1.8258
# 5 6.6874 -6.1443 1.1284 0.0000 35.7495 0.0000
# 6 0.0000 0.0000 0.0000 1.8258 0.0000 14.5375
#
#
#
# Elastic Compliance Matrix: (Units=1/GPa)
#
#
# Indices 1 2 3 4 5 6 
#
# 1 0.014008 -0.003369 -0.003786 0.000000 -0.003080 0.000000
# 2 -0.003369 0.017538 -0.006570 0.000000 0.003852 0.000000
# 3 -0.003786 -0.006570 0.016642 0.000000 -0.000946 0.000000
# 4 0.000000 0.000000 0.000000 0.167553 0.000000 -0.021044
# 5 -0.003080 0.003852 -0.000946 0.000000 0.029240 0.000000
# 6 0.000000 0.000000 0.000000 -0.021044 0.000000 0.071430
#
#
# Mechanical properties :
#
#
# Convention : Reuss Voigt Hill
#
# Bulk Modulus (GPa) = 48.22572 48.32000 48.27286
# Shear Modulus (GPa) = 14.25417 21.43953 17.84685
#
# Velocity S-wave (km/s) = 2.85508 3.50151 3.19469
# Velocity P-wave (km/s) = 6.20059 6.63175 6.41979
#
# Compressibility (1/GPa) = 0.02073582
#
# Stress axis : x y z
#
# Youngs Moduli (GPa) = 71.38784 57.02063 60.09036
#
# Poissons Ratio (x) = 0.19211 0.22752
# Poissons Ratio (y) = 0.24051 0.39481
# Poissons Ratio (z) = 0.27030 0.37464
#
# Static dielectric constant tensor:
#      x y z
#    x 1.609070 0.000000 0.015670 
#    y 0.000000 1.589740 0.000000 
#    z 0.015670 0.000000 1.634590 
# 
# From -- ./inp_files/333609.got.cif
#   From: 2010.05.17/outbox.cif.g08.bks.cpg/sg12_167_cif.got.tgz:333609.got - 2010.06.03 13:09:07.
