data_PCOD9176393
_publ_section_title
;
Structure prediction by ZEFSAII (Michael W. Deem and Ramdas Pophale) SiO2 
 PCOD9176393
Probable space group: C 2/M
;
_chemical_formula_sum "Si O2"
_cell_formula_units_Z 64
_cell_length_a 32.451954
_cell_length_b 17.322433
_cell_length_c 9.015711
_cell_angle_alpha 90.000000
_cell_angle_beta 39.128494
_cell_angle_gamma 90.000000
_cell_volume 3198.317137
_symmetry_space_group_name_H-M "C 2/M"
_symmetry_group_IT_number 12
_symmetry_cell_setting 'monoclinic'
loop_
_space_group_symop_operation_xyz
x,y,z
-x,y,-z
-x,-y,-z
x,-y,z
1/2+x,1/2+y,z
1/2-x,1/2+y,-z
1/2-x,1/2-y,-z
1/2+x,1/2-y,z
loop_
_atom_site_type_symbol
_atom_site_label
_atom_site_fract_x
_atom_site_fract_y
_atom_site_fract_z
Si Si1 0.657564 0.340610 0.072124
Si Si2 0.099325 0.412480 0.001321
Si Si3 0.290370 0.089004 0.763048
Si Si4 0.895709 0.687177 0.300047
Si Si5 0.978479 0.327357 0.358957
Si Si6 0.070419 0.190604 0.036185
Si Si7 0.464130 0.588493 0.438775
Si Si8 0.339846 0.832628 0.904799
O O1 0.600843 0.361846 0.348825
O O2 0.684542 0.254929 0.028893
O O3 0.715771 0.400919 0.923446
O O4 0.625617 0.337212 0.997115
O O5 0.118779 0.500000 0.951889
O O6 0.149934 0.364353 0.959118
O O7 0.023993 0.400765 0.260004
O O8 0.097241 0.377676 0.844222
O O9 0.331351 0.156739 0.565312
O O10 0.300056 0.110892 0.908911
O O11 0.312546 0.000000 0.675200
O O12 0.952094 0.682740 0.265443
O O13 0.901480 0.767492 0.190055
O O14 0.913787 0.328909 0.635292
O O15 0.028413 0.256568 0.240012
O O16 0.015344 0.124388 0.178657
O O17 0.500000 0.589032 0.500000
O O18 0.447978 0.500000 0.448578
#
# Coordination Sequence:
#
# PCOD9176393 Si02
#       8
#     8   8   8   8   8   8   8   8
#     4  11  20  36  63  85 117 157 204 242 295 355
#     4  11  21  33  55  85 119 154 197 246 299 349
#     4  11  25  41  57  85 123 160 206 251 288 347
#     4  10  22  38  59  81 119 166 197 234 296 352
#     4  10  20  34  57  85 117 154 193 242 295 358
#     4  10  18  34  60  89 117 148 198 243 290 360
#     4   9  18  31  57  93 120 145 183 250 311 343
#     4  11  21  37  58  86 116 156 202 244 304 349
#
# _framework density 20.010522999999999
#
# number of rings (size 3 to 8) (size 9 to 14) (size 15 to 20)
#    0.000    1.625    3.750    3.375    0.000    5.000 
#    0.000    0.000    0.000    1.500    0.000    0.000 
#    0.000    0.000    0.000    0.000    0.000    0.000 
#
# Total GULP energy -178386.148243 kJ/mol
# GULP energy per Si atom -5574.567133 kJ/mol
# Density = 1.996498 g / cm^3
# Si number density = 20.010523 Si / 1000 Ang^3
#
#
#
# Elastic Constant Matrix: (Units=GPa)
#
#
# Indices 1 2 3 4 5 6 
#
# 1 100.5889 28.9841 25.1275 0.0000 -2.8505 0.0000
# 2 28.9841 102.9039 8.2169 0.0000 1.5620 0.0000
# 3 25.1275 8.2169 35.1079 0.0000 -3.3837 0.0000
# 4 0.0000 0.0000 0.0000 23.2201 0.0000 -3.2891
# 5 -2.8505 1.5620 -3.3837 0.0000 24.8367 0.0000
# 6 0.0000 0.0000 0.0000 -3.2891 0.0000 14.2621
#
#
#
# Elastic Compliance Matrix: (Units=1/GPa)
#
#
# Indices 1 2 3 4 5 6 
#
# 1 0.012940 -0.002972 -0.008516 0.000000 0.000512 0.000000
# 2 -0.002972 0.010608 -0.000459 0.000000 -0.001071 0.000000
# 3 -0.008516 -0.000459 0.035055 0.000000 0.003827 0.000000
# 4 0.000000 0.000000 0.000000 0.044521 0.000000 0.010267
# 5 0.000512 -0.001071 0.003827 0.000000 0.040911 0.000000
# 6 0.000000 0.000000 0.000000 0.010267 0.000000 0.072484
#
#
# Mechanical properties :
#
#
# Convention : Reuss Voigt Hill
#
# Bulk Modulus (GPa) = 28.81151 40.36197 34.58674
# Shear Modulus (GPa) = 19.84273 24.21526 22.02899
#
# Velocity S-wave (km/s) = 3.15241 3.48246 3.32154
# Velocity P-wave (km/s) = 5.26115 6.03193 5.65968
#
# Compressibility (1/GPa) = 0.03470835
#
# Stress axis : x y z
#
# Youngs Moduli (GPa) = 77.28062 94.26952 28.52649
#
# Poissons Ratio (x) = 0.28021 0.24294
# Poissons Ratio (y) = 0.22971 0.01308
# Poissons Ratio (z) = 0.65815 0.04323
#
# Static dielectric constant tensor:
#      x y z
#    x 1.714240 0.000000 0.010460 
#    y 0.000000 1.746130 0.000000 
#    z 0.010460 0.000000 1.770890 
# 
# From -- ./inp_files/112835.got.cif
#   From: 2010.05.17/outbox.cif.g08.bks.cpg/sg12_57_cif.got.tgz:112835.got - 2010.06.03 13:09:07.
