data_PCOD9176841
_publ_section_title
;
Structure prediction by ZEFSAII (Michael W. Deem and Ramdas Pophale) SiO2 
 PCOD9176841
Probable space group: C 2/M
;
_chemical_formula_sum "Si O2"
_cell_formula_units_Z 56
_cell_length_a 16.591534
_cell_length_b 16.625180
_cell_length_c 15.076917
_cell_angle_alpha 90.000000
_cell_angle_beta 130.513203
_cell_angle_gamma 90.000000
_cell_volume 3161.734972
_symmetry_space_group_name_H-M "C 2/M"
_symmetry_group_IT_number 12
_symmetry_cell_setting 'monoclinic'
loop_
_space_group_symop_operation_xyz
x,y,z
-x,y,-z
-x,-y,-z
x,-y,z
1/2+x,1/2+y,z
1/2-x,1/2+y,-z
1/2-x,1/2-y,-z
1/2+x,1/2-y,z
loop_
_atom_site_type_symbol
_atom_site_label
_atom_site_fract_x
_atom_site_fract_y
_atom_site_fract_z
Si Si1 0.922346 0.209389 0.241588
Si Si2 0.907660 0.656177 0.080447
Si Si3 0.866699 0.404875 0.701271
Si Si4 0.383107 0.700057 0.928873
Si Si5 0.137830 0.717423 0.453805
Si Si6 0.314030 0.591526 0.036377
Si Si7 0.723343 0.271232 0.690811
O O1 0.898573 0.283351 0.157992
O O2 0.894919 0.131673 0.163821
O O3 0.846529 0.210592 0.272627
O O4 0.042861 0.223507 0.357199
O O5 0.020704 0.612756 0.169763
O O6 0.898574 0.714137 0.989119
O O7 0.804797 0.600428 0.010403
O O8 0.845043 0.500000 0.684710
O O9 0.878568 0.366197 0.610744
O O10 0.776028 0.351130 0.685066
O O11 0.321341 0.716764 0.794326
O O12 0.500000 0.665623 0.000000
O O13 0.320802 0.643015 0.951340
O O14 0.250000 0.750000 0.500000
O O15 0.152027 0.722622 0.569378
O O16 0.339973 0.500000 0.037972
#
# Coordination Sequence:
#
# PCOD9176841 Si02
#       7
#     8   8   8   8   8   8   8
#     4  10  19  36  59  81 109 146 196 229 267 334
#     4  10  18  36  58  82 113 154 179 229 282 334
#     4  10  21  36  57  87 116 141 182 242 290 319
#     4  11  20  36  59  83 112 147 194 227 267 343
#     4   9  21  37  60  80 103 150 193 225 273 337
#     4  11  22  35  55  85 120 150 180 230 287 328
#     4  11  19  36  60  84 107 149 189 223 275 335
#
# _framework density 17.711794999999999
#
# number of rings (size 3 to 8) (size 9 to 14) (size 15 to 20)
#    0.000    1.714    4.286    1.714    2.000    0.857 
#    0.000    4.286    0.000    6.000    0.000    0.000 
#    0.000    0.000    0.000    0.000    0.000    0.000 
#
# Total GULP energy -156117.342546 kJ/mol
# GULP energy per Si atom -5575.619377 kJ/mol
# Density = 1.767148 g / cm^3
# Si number density = 17.711795 Si / 1000 Ang^3
#
#
#
# Elastic Constant Matrix: (Units=GPa)
#
#
# Indices 1 2 3 4 5 6 
#
# 1 50.6937 14.6215 4.2242 0.0000 13.7319 0.0000
# 2 14.6215 76.3354 31.5038 0.0000 2.5510 0.0000
# 3 4.2242 31.5038 113.8840 0.0000 9.5731 0.0000
# 4 0.0000 0.0000 0.0000 7.5570 0.0000 5.3763
# 5 13.7319 2.5510 9.5731 0.0000 34.3755 0.0000
# 6 0.0000 0.0000 0.0000 5.3763 0.0000 10.9833
#
#
#
# Elastic Compliance Matrix: (Units=1/GPa)
#
#
# Indices 1 2 3 4 5 6 
#
# 1 0.023521 -0.004693 0.001215 0.000000 -0.009386 0.000000
# 2 -0.004693 0.015725 -0.004337 0.000000 0.001916 0.000000
# 3 0.001215 -0.004337 0.010188 0.000000 -0.003001 0.000000
# 4 0.000000 0.000000 0.000000 0.203031 0.000000 -0.099383
# 5 -0.009386 0.001916 -0.003001 0.000000 0.033533 0.000000
# 6 0.000000 0.000000 0.000000 -0.099383 0.000000 0.139695
#
#
# Mechanical properties :
#
#
# Convention : Reuss Voigt Hill
#
# Bulk Modulus (GPa) = 29.58276 37.95691 33.76983
# Shear Modulus (GPa) = 11.04750 23.28741 17.16746
#
# Velocity S-wave (km/s) = 2.50018 3.62995 3.11668
# Velocity P-wave (km/s) = 5.00730 6.24864 5.66209
#
# Compressibility (1/GPa) = 0.03380347
#
# Stress axis : x y z
#
# Youngs Moduli (GPa) = 42.51489 63.59370 98.15708
#
# Poissons Ratio (x) = 0.29844 -0.11924
# Poissons Ratio (y) = 0.19952 0.42570
# Poissons Ratio (z) = -0.05165 0.27580
#
# Static dielectric constant tensor:
#      x y z
#    x 1.643410 0.000000 -0.006070 
#    y 0.000000 1.567090 0.000000 
#    z -0.006070 0.000000 1.640470 
# 
# From -- ./inp_files/225200.got.cif
#   From: 2010.05.17/outbox.cif.g08.bks.cpg/sg12_113_cif.got.tgz:225200.got - 2010.06.03 13:09:07.
