data_PCOD9176008
_publ_section_title
;
Structure prediction by ZEFSAII (Michael W. Deem and Ramdas Pophale) SiO2 
 PCOD9176008
Probable space group: C 2/M
;
_chemical_formula_sum "Si O2"
_cell_formula_units_Z 48
_cell_length_a 19.820905
_cell_length_b 14.593843
_cell_length_c 10.526005
_cell_angle_alpha 90.000000
_cell_angle_beta 114.059483
_cell_angle_gamma 90.000000
_cell_volume 2780.262885
_symmetry_space_group_name_H-M "C 2/M"
_symmetry_group_IT_number 12
_symmetry_cell_setting 'monoclinic'
loop_
_space_group_symop_operation_xyz
x,y,z
-x,y,-z
-x,-y,-z
x,-y,z
1/2+x,1/2+y,z
1/2-x,1/2+y,-z
1/2-x,1/2-y,-z
1/2+x,1/2-y,z
loop_
_atom_site_type_symbol
_atom_site_label
_atom_site_fract_x
_atom_site_fract_y
_atom_site_fract_z
Si Si1 0.130990 0.295686 0.918996
Si Si2 0.518981 0.716811 0.159145
Si Si3 0.899050 0.601082 0.852353
Si Si4 0.256029 0.211882 0.190601
Si Si5 0.772198 0.897589 0.334615
Si Si6 0.336010 0.607587 0.665566
O O1 0.177551 0.333797 0.836752
O O2 0.058799 0.235545 0.831679
O O3 0.108881 0.372975 0.004792
O O4 0.188177 0.232295 0.042725
O O5 0.555497 0.817097 0.173568
O O6 0.582287 0.651494 0.262017
O O7 0.500000 0.686645 0.000000
O O8 0.930107 0.500000 0.858429
O O9 0.816997 0.602744 0.730808
O O10 0.288472 0.310420 0.259451
O O11 0.219668 0.159246 0.280705
O O12 0.805618 0.883485 0.499356
O O13 0.794176 0.000000 0.305578
O O14 0.338716 0.500000 0.699763
#
# Coordination Sequence:
#
# PCOD9176008 Si02
#       6
#     8   8   8   8   8   8
#     4   9  19  32  51  75 107 131 167 207 261 310
#     4  10  18  34  49  77 107 133 170 210 257 308
#     4   9  17  31  55  78 100 131 171 215 255 300
#     4  10  18  35  53  73 104 134 167 216 257 299
#     4   9  18  33  55  78  97 130 178 214 251 301
#     4  11  21  33  54  78 103 140 178 212 251 304
#
# _framework density 17.264554
#
# number of rings (size 3 to 8) (size 9 to 14) (size 15 to 20)
#    0.000    2.333    5.000    0.500    0.000    4.000 
#    0.000    4.167    0.000    2.000    0.000    3.500 
#    0.000    0.000    0.000    0.000    0.000    0.000 
#
# Total GULP energy -133623.777730 kJ/mol
# GULP energy per Si atom -5567.657405 kJ/mol
# Density = 1.722526 g / cm^3
# Si number density = 17.264554 Si / 1000 Ang^3
#
#
#
# Elastic Constant Matrix: (Units=GPa)
#
#
# Indices 1 2 3 4 5 6 
#
# 1 62.1561 27.6566 20.5091 0.0000 5.0165 0.0000
# 2 27.6566 87.3460 31.0888 0.0000 4.3973 0.0000
# 3 20.5091 31.0888 69.5220 0.0000 21.2360 0.0000
# 4 0.0000 0.0000 0.0000 10.3196 0.0000 -2.8744
# 5 5.0165 4.3973 21.2360 0.0000 15.3629 0.0000
# 6 0.0000 0.0000 0.0000 -2.8744 0.0000 9.1806
#
#
#
# Elastic Compliance Matrix: (Units=1/GPa)
#
#
# Indices 1 2 3 4 5 6 
#
# 1 0.019435 -0.004897 -0.003519 0.000000 -0.000080 0.000000
# 2 -0.004897 0.015415 -0.007943 0.000000 0.008167 0.000000
# 3 -0.003519 -0.007943 0.031031 0.000000 -0.039471 0.000000
# 4 0.000000 0.000000 0.000000 0.106162 0.000000 0.033239
# 5 -0.000080 0.008167 -0.039471 0.000000 0.117341 0.000000
# 6 0.000000 0.000000 0.000000 0.033239 0.000000 0.119333
#
#
# Mechanical properties :
#
#
# Convention : Reuss Voigt Hill
#
# Bulk Modulus (GPa) = 30.15471 41.94811 36.05141
# Shear Modulus (GPa) = 11.04996 16.29060 13.67028
#
# Velocity S-wave (km/s) = 2.53264 3.07512 2.81697
# Velocity P-wave (km/s) = 5.10456 6.07935 5.61315
#
# Compressibility (1/GPa) = 0.03316232
#
# Stress axis : x y z
#
# Youngs Moduli (GPa) = 51.45311 64.86984 32.22590
#
# Poissons Ratio (x) = 0.31769 0.11340
# Poissons Ratio (y) = 0.25198 0.25598
# Poissons Ratio (z) = 0.18106 0.51529
#
# Static dielectric constant tensor:
#      x y z
#    x 1.620020 0.000000 0.010950 
#    y 0.000000 1.605800 0.000000 
#    z 0.010950 0.000000 1.582620 
# 
# From -- ./inp_files/166162.got.cif
#   From: 2010.05.17/outbox.cif.g08.bks.cpg/sg12_84_cif.got.tgz:166162.got - 2010.06.03 13:09:07.
