data_PCOD9176431
_publ_section_title
;
Structure prediction by ZEFSAII (Michael W. Deem and Ramdas Pophale) SiO2 
 PCOD9176431
Probable space group: C 2/M
;
_chemical_formula_sum "Si O2"
_cell_formula_units_Z 52
_cell_length_a 29.494772
_cell_length_b 7.462111
_cell_length_c 14.849359
_cell_angle_alpha 90.000000
_cell_angle_beta 46.452876
_cell_angle_gamma 90.000000
_cell_volume 2368.849222
_symmetry_space_group_name_H-M "C 2/M"
_symmetry_group_IT_number 12
_symmetry_cell_setting 'monoclinic'
loop_
_space_group_symop_operation_xyz
x,y,z
-x,y,-z
-x,-y,-z
x,-y,z
1/2+x,1/2+y,z
1/2-x,1/2+y,-z
1/2-x,1/2-y,-z
1/2+x,1/2-y,z
loop_
_atom_site_type_symbol
_atom_site_label
_atom_site_fract_x
_atom_site_fract_y
_atom_site_fract_z
Si Si1 0.755039 0.000000 0.279806
Si Si2 0.622202 0.284870 0.586723
Si Si3 0.686732 0.808234 0.680968
Si Si4 0.978441 0.780978 0.790682
Si Si5 0.824574 0.785227 0.682934
Si Si6 0.942214 0.217942 0.641754
Si Si7 0.433318 0.284898 0.043701
O O1 0.773931 0.846130 0.328144
O O2 0.735501 0.840239 0.234175
O O3 0.621173 0.500000 0.592281
O O4 0.666513 0.219481 0.605719
O O5 0.550812 0.223969 0.699834
O O6 0.643886 0.234312 0.457039
O O7 0.621775 0.803615 0.825536
O O8 0.718853 0.000000 0.647017
O O9 0.951809 0.722709 0.731099
O O10 0.978875 0.000000 0.791197
O O11 0.940164 0.726162 0.931167
O O12 0.876274 0.737348 0.686845
O O13 0.813867 0.000000 0.699997
O O14 0.000000 0.278373 0.500000
O O15 0.945371 0.000000 0.637958
O O16 0.420256 0.500000 0.063425
O O17 0.500000 0.257281 0.000000
#
# Coordination Sequence:
#
# PCOD9176431 Si02
#       7
#     4   8   8   8   8   8   8
#     4  12  26  46  60  84 122 168 220 266 288 354
#     4  10  18  36  58  91 130 161 192 243 303 375
#     4  12  25  41  62  86 121 166 211 256 311 359
#     4   9  16  28  60  96 128 161 194 235 313 380
#     4  10  22  39  64  89 123 166 207 248 306 362
#     4   9  15  30  59  97 129 158 196 247 309 378
#     4  10  18  34  61  91 126 161 196 249 315 374
#
# _framework density 21.951585000000001
#
# number of rings (size 3 to 8) (size 9 to 14) (size 15 to 20)
#    0.000    1.846    4.615    0.462    1.077    0.923 
#    0.000    0.385    3.385    0.923    0.000    0.000 
#    0.000    0.000    0.000    0.000    0.000    0.000 
#
# Total GULP energy -144896.555122 kJ/mol
# GULP energy per Si atom -5572.944428 kJ/mol
# Density = 2.190162 g / cm^3
# Si number density = 21.951585 Si / 1000 Ang^3
#
#
#
# Elastic Constant Matrix: (Units=GPa)
#
#
# Indices 1 2 3 4 5 6 
#
# 1 135.3262 38.8697 2.6719 0.0006 30.0838 -0.0007
# 2 38.8697 101.2195 1.4961 0.0008 1.3919 -0.0016
# 3 2.6719 1.4961 66.8222 -0.0003 16.6385 0.0004
# 4 0.0006 0.0008 -0.0003 -98.0130 -0.0001 70.8498
# 5 30.0838 1.3919 16.6385 -0.0001 29.4983 0.0001
# 6 -0.0007 -0.0016 0.0004 70.8498 0.0001 -30.6223
#
#
#
# Elastic Compliance Matrix: (Units=1/GPa)
#
#
# Indices 1 2 3 4 5 6 
#
# 1 0.011483 -0.004272 0.002911 0.000000 -0.013151 0.000000
# 2 -0.004272 0.011476 -0.001205 0.000000 0.004495 0.000000
# 3 0.002911 -0.001205 0.018150 0.000000 -0.013149 0.000000
# 4 0.000000 0.000000 0.000000 0.015172 0.000000 0.035104
# 5 -0.013151 0.004495 -0.013149 0.000000 0.054517 0.000000
# 6 0.000000 0.000000 0.000000 0.035104 0.000000 0.048562
#
#
# Mechanical properties :
#
#
# Convention : Reuss Voigt Hill
#
# Bulk Modulus (GPa) = 27.79602 43.27146 35.53374
# Shear Modulus (GPa) = 28.33131 -2.47206 12.92963
#
# Velocity S-wave (km/s) = 3.59643 -1.06235 2.42958
# Velocity P-wave (km/s) = 5.47135 4.27203 4.90846
#
# Compressibility (1/GPa) = 0.03597638
#
# Stress axis : x y z
#
# Youngs Moduli (GPa) = 87.08899 87.13920 55.09702
#
# Poissons Ratio (x) = 0.37223 -0.16039
# Poissons Ratio (y) = 0.37201 0.06641
# Poissons Ratio (z) = -0.25352 0.10503
#
# Static dielectric constant tensor:
#      x y z
#    x 1.793050 0.000000 -0.044250 
#    y 0.000000 1.833580 0.000000 
#    z -0.044250 0.000000 1.813980 
# 
# From -- ./inp_files/248099.got.cif
#   From: 2010.05.17/outbox.cif.g08.bks.cpg/sg12_125_cif.got.tgz:248099.got - 2010.06.03 13:09:07.
