data_PCOD9176847
_publ_section_title
;
Structure prediction by ZEFSAII (Michael W. Deem and Ramdas Pophale) SiO2 
 PCOD9176847
Probable space group: C 2/M
;
_chemical_formula_sum "Si O2"
_cell_formula_units_Z 64
_cell_length_a 25.188175
_cell_length_b 22.168905
_cell_length_c 8.091724
_cell_angle_alpha 90.000000
_cell_angle_beta 48.139919
_cell_angle_gamma 90.000000
_cell_volume 3365.178158
_symmetry_space_group_name_H-M "C 2/M"
_symmetry_group_IT_number 12
_symmetry_cell_setting 'monoclinic'
loop_
_space_group_symop_operation_xyz
x,y,z
-x,y,-z
-x,-y,-z
x,-y,z
1/2+x,1/2+y,z
1/2-x,1/2+y,-z
1/2-x,1/2-y,-z
1/2+x,1/2-y,z
loop_
_atom_site_type_symbol
_atom_site_label
_atom_site_fract_x
_atom_site_fract_y
_atom_site_fract_z
Si Si1 0.394850 0.322311 0.419584
Si Si2 0.746285 0.068396 0.418322
Si Si3 0.428235 0.215218 0.547618
Si Si4 0.902795 0.886358 0.066213
Si Si5 0.272040 0.839671 0.245331
Si Si6 0.035633 0.064896 0.603624
Si Si7 0.701396 0.137525 0.189387
Si Si8 0.168082 0.780024 0.984627
O O1 0.436018 0.261286 0.379450
O O2 0.418935 0.349781 0.197144
O O3 0.309754 0.316913 0.588073
O O4 0.412918 0.377772 0.503782
O O5 0.832406 0.073739 0.242162
O O6 0.720331 0.115661 0.613911
O O7 0.722022 0.087630 0.283331
O O8 0.724543 0.000000 0.499758
O O9 0.500000 0.203230 0.500000
O O10 0.380131 0.157384 0.608976
O O11 0.375661 0.254177 0.772460
O O12 0.877314 0.834448 0.994076
O O13 0.969708 0.923023 0.862603
O O14 0.318413 0.778264 0.159229
O O15 0.288416 0.870351 0.031018
O O16 0.000000 0.061813 0.500000
O O17 0.070335 0.000000 0.570061
O O18 0.756154 0.191962 0.120093
#
# Coordination Sequence:
#
# PCOD9176847 Si02
#       8
#     8   8   8   8   8   8   8   8
#     4  11  20  32  53  78 108 149 186 234 286 331
#     4  10  23  37  57  86 113 145 194 245 285 346
#     4  11  20  33  56  86 118 142 189 234 288 348
#     4  10  22  34  56  78 112 145 194 238 286 337
#     4  10  20  35  58  85 113 147 190 237 295 344
#     4  11  24  38  50  69 109 164 203 228 267 327
#     4  10  20  37  61  82 116 155 185 236 297 350
#     4  10  18  36  58  84 114 150 185 235 294 353
#
# _framework density 19.018308999999999
#
# number of rings (size 3 to 8) (size 9 to 14) (size 15 to 20)
#    0.000    1.625    2.500    3.375    3.500    5.000 
#    0.000    0.000    0.000    0.375    0.000    3.500 
#    0.000    0.000    0.000    0.000    0.000    0.000 
#
# Total GULP energy -178467.258934 kJ/mol
# GULP energy per Si atom -5577.101842 kJ/mol
# Density = 1.897502 g / cm^3
# Si number density = 19.018309 Si / 1000 Ang^3
#
#
#
# Elastic Constant Matrix: (Units=GPa)
#
#
# Indices 1 2 3 4 5 6 
#
# 1 53.3067 -8.1692 1.1763 0.0000 -6.0176 0.0000
# 2 -8.1692 35.7859 8.9975 0.0000 -2.3787 0.0000
# 3 1.1763 8.9975 42.4225 0.0000 10.3094 0.0000
# 4 0.0000 0.0000 0.0000 -339.4673 0.0000 -627.4151
# 5 -6.0176 -2.3787 10.3094 0.0000 26.6742 0.0000
# 6 0.0000 0.0000 0.0000 -627.4151 0.0000-1102.7159
#
#
#
# Elastic Compliance Matrix: (Units=1/GPa)
#
#
# Indices 1 2 3 4 5 6 
#
# 1 0.020478 0.005960 -0.003403 0.000000 0.006467 0.000000
# 2 0.005960 0.032024 -0.008805 0.000000 0.007604 0.000000
# 3 -0.003403 -0.008805 0.028598 0.000000 -0.012606 0.000000
# 4 0.000000 0.000000 0.000000 0.057095 0.000000 -0.032485
# 5 0.006467 0.007604 -0.012606 0.000000 0.044498 0.000000
# 6 0.000000 0.000000 0.000000 -0.032485 0.000000 0.017576
#
#
# Mechanical properties :
#
#
# Convention : Reuss Voigt Hill
#
# Bulk Modulus (GPa) = 14.57667 15.05827 14.81747
# Shear Modulus (GPa) = 21.21940 -274.46777 -126.62419
#
# Velocity S-wave (km/s) = 3.34389 -12.02626 -8.16852
# Velocity P-wave (km/s) = 4.75289 13.59803 9.00878
#
# Compressibility (1/GPa) = 0.06860279
#
# Stress axis : x y z
#
# Youngs Moduli (GPa) = 48.83317 31.22676 34.96781
#
# Poissons Ratio (x) = -0.18612 0.11901
# Poissons Ratio (y) = -0.29106 0.30790
# Poissons Ratio (z) = 0.16620 0.27496
#
# Static dielectric constant tensor:
#      x y z
#    x 1.736370 0.000000 0.045850 
#    y 0.000000 1.743030 0.000000 
#    z 0.045850 0.000000 1.707070 
# 
# From -- ./inp_files/106377.got.cif
#   From: 2010.05.17/outbox.cif.g08.bks.cpg/sg12_54_cif.got.tgz:106377.got - 2010.06.03 13:09:07.
