data_PCOD9176755
_publ_section_title
;
Structure prediction by ZEFSAII (Michael W. Deem and Ramdas Pophale) SiO2 
 PCOD9176755
Probable space group: C 2/M
;
_chemical_formula_sum "Si O2"
_cell_formula_units_Z 64
_cell_length_a 19.474191
_cell_length_b 23.819935
_cell_length_c 15.826439
_cell_angle_alpha 90.000000
_cell_angle_beta 155.373519
_cell_angle_gamma 90.000000
_cell_volume 3059.198984
_symmetry_space_group_name_H-M "C 2/M"
_symmetry_group_IT_number 12
_symmetry_cell_setting 'monoclinic'
loop_
_space_group_symop_operation_xyz
x,y,z
-x,y,-z
-x,-y,-z
x,-y,z
1/2+x,1/2+y,z
1/2-x,1/2+y,-z
1/2-x,1/2-y,-z
1/2+x,1/2-y,z
loop_
_atom_site_type_symbol
_atom_site_label
_atom_site_fract_x
_atom_site_fract_y
_atom_site_fract_z
Si Si1 0.393663 0.367159 0.812647
Si Si2 0.854336 0.938431 0.498260
Si Si3 0.186774 0.347161 0.952698
Si Si4 0.463130 0.063128 0.737024
Si Si5 0.145260 0.277862 0.457776
Si Si6 0.476690 0.322681 0.572098
Si Si7 0.608822 0.934237 0.544323
Si Si8 0.875733 0.934802 0.057928
O O1 0.263333 0.327490 0.621409
O O2 0.288550 0.408998 0.752927
O O3 0.498759 0.405073 0.866331
O O4 0.500000 0.333266 0.000000
O O5 0.702058 0.931418 0.393158
O O6 0.881471 0.882071 0.476047
O O7 0.017661 0.941645 0.738019
O O8 0.833097 0.000000 0.432219
O O9 0.097611 0.391957 0.913972
O O10 0.038641 0.303027 0.767644
O O11 0.350936 0.324713 0.181783
O O12 0.244846 0.385993 0.937318
O O13 0.431078 0.071871 0.600619
O O14 0.526003 0.000000 0.816855
O O15 0.250000 0.250000 0.500000
O O16 0.122702 0.228893 0.500134
O O17 0.500000 0.312742 0.500000
O O18 0.500000 0.910359 0.500000
O O19 0.614098 0.000000 0.562891
O O20 0.820910 0.000000 0.974136
#
# Coordination Sequence:
#
# PCOD9176755 Si02
#       8
#     8   8   8   8   8   8   8   8
#     4  12  26  40  60  93 133 174 219 272 334 386
#     4   9  18  39  68  93 127 170 212 262 328 404
#     4  11  22  41  68  94 124 169 220 267 323 390
#     4  10  18  35  64  95 128 173 221 259 311 395
#     4  12  26  48  69  88 126 176 228 272 319 399
#     4  11  26  44  68  99 128 159 211 282 344 390
#     4  10  21  37  58  93 139 180 216 264 321 384
#     4  10  20  37  62  96 133 174 220 263 317 390
#
# _framework density 20.920508999999999
#
# number of rings (size 3 to 8) (size 9 to 14) (size 15 to 20)
#    0.000    1.375    2.500    3.375    1.750    4.250 
#    0.000    1.875    0.000    1.500    0.000    0.000 
#    0.000    0.000    0.000    0.000    0.000    0.000 
#
# Total GULP energy -178332.160489 kJ/mol
# GULP energy per Si atom -5572.880015 kJ/mol
# Density = 2.087289 g / cm^3
# Si number density = 20.920509 Si / 1000 Ang^3
#
#
#
# Elastic Constant Matrix: (Units=GPa)
#
#
# Indices 1 2 3 4 5 6 
#
# 1 138.7562 79.2135 31.9917 0.0000 19.4707 0.0000
# 2 79.2135 132.0972 31.8318 0.0000 10.8978 0.0000
# 3 31.9917 31.8318 51.3097 0.0000 11.8139 0.0000
# 4 0.0000 0.0000 0.0000 12.3307 0.0000 14.9015
# 5 19.4707 10.8978 11.8139 0.0000 28.8368 0.0000
# 6 0.0000 0.0000 0.0000 14.9015 0.0000 39.6913
#
#
#
# Elastic Compliance Matrix: (Units=1/GPa)
#
#
# Indices 1 2 3 4 5 6 
#
# 1 0.011987 -0.006184 -0.002553 0.000000 -0.004711 0.000000
# 2 -0.006184 0.012130 -0.003948 0.000000 0.001209 0.000000
# 3 -0.002553 -0.003948 0.025164 0.000000 -0.007094 0.000000
# 4 0.000000 0.000000 0.000000 0.148453 0.000000 -0.055735
# 5 -0.004711 0.001209 -0.007094 0.000000 0.040308 0.000000
# 6 0.000000 0.000000 0.000000 -0.055735 0.000000 0.046119
#
#
# Mechanical properties :
#
#
# Convention : Reuss Voigt Hill
#
# Bulk Modulus (GPa) = 41.82137 67.58190 54.70164
# Shear Modulus (GPa) = 15.74797 28.11349 21.93073
#
# Velocity S-wave (km/s) = 2.74661 3.66980 3.24124
# Velocity P-wave (km/s) = 5.48566 7.09442 6.34127
#
# Compressibility (1/GPa) = 0.02391122
#
# Stress axis : x y z
#
# Youngs Moduli (GPa) = 83.42374 82.43809 39.74009
#
# Poissons Ratio (x) = 0.50983 0.10144
# Poissons Ratio (y) = 0.51593 0.15689
# Poissons Ratio (z) = 0.21294 0.32545
#
# Static dielectric constant tensor:
#      x y z
#    x 1.794790 0.000000 0.046630 
#    y 0.000000 1.830690 0.000000 
#    z 0.046630 0.000000 1.845310 
# 
# From -- ./inp_files/228171.got.cif
#   From: 2010.05.17/outbox.cif.g08.bks.cpg/sg12_115_cif.got.tgz:228171.got - 2010.06.03 13:09:07.
