data_PCOD9176848
_publ_section_title
;
Structure prediction by ZEFSAII (Michael W. Deem and Ramdas Pophale) SiO2 
 PCOD9176848
Probable space group: C 2/M
;
_chemical_formula_sum "Si O2"
_cell_formula_units_Z 56
_cell_length_a 17.601365
_cell_length_b 13.738453
_cell_length_c 11.131205
_cell_angle_alpha 90.000000
_cell_angle_beta 72.486387
_cell_angle_gamma 90.000000
_cell_volume 2566.925808
_symmetry_space_group_name_H-M "C 2/M"
_symmetry_group_IT_number 12
_symmetry_cell_setting 'monoclinic'
loop_
_space_group_symop_operation_xyz
x,y,z
-x,y,-z
-x,-y,-z
x,-y,z
1/2+x,1/2+y,z
1/2-x,1/2+y,-z
1/2-x,1/2-y,-z
1/2+x,1/2-y,z
loop_
_atom_site_type_symbol
_atom_site_label
_atom_site_fract_x
_atom_site_fract_y
_atom_site_fract_z
Si Si1 0.512549 0.810455 0.625920
Si Si2 0.646185 0.701187 0.295546
Si Si3 0.281942 0.888203 0.827420
Si Si4 0.788854 0.615351 0.095554
Si Si5 0.670886 0.686395 0.537243
Si Si6 0.887783 0.892106 0.191181
Si Si7 0.947874 0.318462 0.138922
O O1 0.500000 0.858309 0.500000
O O2 0.446885 0.724111 0.671263
O O3 0.598578 0.762278 0.576895
O O4 0.516553 0.861878 0.754078
O O5 0.681441 0.811558 0.282161
O O6 0.700748 0.653026 0.168686
O O7 0.663408 0.641634 0.408544
O O8 0.186052 0.882958 0.866068
O O9 0.304628 0.000000 0.792242
O O10 0.309131 0.859048 0.948224
O O11 0.789252 0.500000 0.102402
O O12 0.855984 0.654568 0.154756
O O13 0.750000 0.750000 0.500000
O O14 0.656027 0.618419 0.658201
O O15 0.945387 0.799798 0.149919
O O16 0.923574 0.000000 0.163730
O O17 0.000000 0.348430 0.000000
#
# Coordination Sequence:
#
# PCOD9176848 Si02
#       7
#     8   8   8   8   8   8   8
#     4   9  21  36  60  90 119 156 200 252 313 365
#     4  11  19  37  64  83 118 157 206 254 298 368
#     4  10  20  35  59  89 120 156 199 255 313 360
#     4  11  24  39  60  91 125 165 209 254 308 368
#     4  10  18  36  58  84 115 159 196 240 300 364
#     4  10  21  37  58  90 125 156 201 255 310 365
#     4  11  22  39  63  91 122 168 208 255 310 368
#
# _framework density 21.815981000000001
#
# number of rings (size 3 to 8) (size 9 to 14) (size 15 to 20)
#    0.000    1.714    2.857    2.143    2.000    1.143 
#    0.000    3.571    0.000   16.714    0.000    0.000 
#    0.000    0.000    0.000    0.000    0.000    0.000 
#
# Total GULP energy -156094.786114 kJ/mol
# GULP energy per Si atom -5574.813790 kJ/mol
# Density = 2.176633 g / cm^3
# Si number density = 21.815981 Si / 1000 Ang^3
#
#
#
# Elastic Constant Matrix: (Units=GPa)
#
#
# Indices 1 2 3 4 5 6 
#
# 1 80.8980 -4.8144 33.4399 0.0000 6.7528 0.0000
# 2 -4.8144 47.0454 15.7964 0.0000 6.9622 0.0000
# 3 33.4399 15.7964 117.0466 0.0000 20.1213 0.0000
# 4 0.0000 0.0000 0.0000 11.5266 0.0000 4.3113
# 5 6.7528 6.9622 20.1213 0.0000 49.5528 0.0000
# 6 0.0000 0.0000 0.0000 4.3113 0.0000 2.3719
#
#
#
# Elastic Compliance Matrix: (Units=1/GPa)
#
#
# Indices 1 2 3 4 5 6 
#
# 1 0.014424 0.003052 -0.004430 0.000000 -0.000595 0.000000
# 2 0.003052 0.023106 -0.003613 0.000000 -0.002195 0.000000
# 3 -0.004430 -0.003613 0.010864 0.000000 -0.003300 0.000000
# 4 0.000000 0.000000 0.000000 0.270999 0.000000 -0.492590
# 5 -0.000595 -0.002195 -0.003300 0.000000 0.021910 0.000000
# 6 0.000000 0.000000 0.000000 -0.492590 0.000000 1.316979
#
#
# Mechanical properties :
#
#
# Convention : Reuss Voigt Hill
#
# Bulk Modulus (GPa) = 26.03385 37.09265 31.56325
# Shear Modulus (GPa) = 2.97430 26.06145 14.51787
#
# Velocity S-wave (km/s) = 1.16890 3.46005 2.58247
# Velocity P-wave (km/s) = 3.71228 5.74474 4.83648
#
# Compressibility (1/GPa) = 0.03841154
#
# Stress axis : x y z
#
# Youngs Moduli (GPa) = 69.32935 43.27816 92.04484
#
# Poissons Ratio (x) = -0.13208 0.40779
# Poissons Ratio (y) = -0.21158 0.33255
# Poissons Ratio (z) = 0.30716 0.15636
#
# Static dielectric constant tensor:
#      x y z
#    x 1.829310 0.000000 0.058820 
#    y 0.000000 1.759290 0.000000 
#    z 0.058820 0.000000 1.896050 
# 
# From -- ./inp_files/155981.got.cif
#   From: 2010.05.17/outbox.cif.g08.bks.cpg/sg12_78_cif.got.tgz:155981.got - 2010.06.03 13:09:07.
