data_PCOD9176980
_publ_section_title
;
Structure prediction by ZEFSAII (Michael W. Deem and Ramdas Pophale) SiO2 
 PCOD9176980
Probable space group: C 2/M
;
_chemical_formula_sum "Si O2"
_cell_formula_units_Z 56
_cell_length_a 9.673217
_cell_length_b 16.599068
_cell_length_c 21.612932
_cell_angle_alpha 90.000000
_cell_angle_beta 52.032565
_cell_angle_gamma 90.000000
_cell_volume 2735.855806
_symmetry_space_group_name_H-M "C 2/M"
_symmetry_group_IT_number 12
_symmetry_cell_setting 'monoclinic'
loop_
_space_group_symop_operation_xyz
x,y,z
-x,y,-z
-x,-y,-z
x,-y,z
1/2+x,1/2+y,z
1/2-x,1/2+y,-z
1/2-x,1/2-y,-z
1/2+x,1/2-y,z
loop_
_atom_site_type_symbol
_atom_site_label
_atom_site_fract_x
_atom_site_fract_y
_atom_site_fract_z
Si Si1 0.557386 0.593269 0.649222
Si Si2 0.040895 0.674661 0.316665
Si Si3 0.989868 0.595874 0.104635
Si Si4 0.611022 0.404954 0.774815
Si Si5 0.212123 0.671015 0.728557
Si Si6 0.138182 0.593535 0.518053
Si Si7 0.218106 0.095362 0.064979
O O1 0.612483 0.500000 0.637544
O O2 0.585017 0.625782 0.711384
O O3 0.355850 0.600069 0.686099
O O4 0.683973 0.627934 0.561578
O O5 0.190370 0.608898 0.260134
O O6 0.160581 0.753547 0.293145
O O7 0.899775 0.682665 0.301844
O O8 0.941225 0.646513 0.405595
O O9 0.002840 0.500000 0.117158
O O10 0.919921 0.648460 0.180101
O O11 0.845146 0.600745 0.089714
O O12 0.172261 0.625766 0.024043
O O13 0.573676 0.500000 0.781802
O O14 0.467871 0.369713 0.861775
O O15 0.161347 0.500000 0.533028
O O16 0.000000 0.592102 0.500000
O O17 0.195519 0.000000 0.058067
#
# Coordination Sequence:
#
# PCOD9176980 Si02
#       7
#     8   8   8   8   8   8   8
#     4  10  20  38  67  94 121 157 200 249 303 362
#     4  12  27  42  59  86 125 165 212 250 303 360
#     4   9  17  34  63  96 123 154 200 253 302 358
#     4  10  18  36  65  94 121 158 202 248 302 366
#     4  12  26  42  59  86 125 169 207 252 301 359
#     4  10  21  41  69  96 120 153 199 252 306 363
#     4   8  15  30  63  99 121 151 197 249 305 361
#
# _framework density 20.468914000000002
#
# number of rings (size 3 to 8) (size 9 to 14) (size 15 to 20)
#    0.000    1.857    2.857    2.571    0.000    3.429 
#    0.000    2.857    0.000    2.571    0.000    0.000 
#    0.000    0.000    0.000    0.000    0.000    0.000 
#
# Total GULP energy -156198.987763 kJ/mol
# GULP energy per Si atom -5578.535277 kJ/mol
# Density = 2.042233 g / cm^3
# Si number density = 20.468914 Si / 1000 Ang^3
#
#
#
# Elastic Constant Matrix: (Units=GPa)
#
#
# Indices 1 2 3 4 5 6 
#
# 1 90.4109 3.0220 31.3021 0.0001 -0.4364 0.0000
# 2 3.0220 37.8067 35.3585 0.0000 9.2728 0.0000
# 3 31.3021 35.3585 152.1217 0.0000 -20.7872 0.0000
# 4 0.0001 0.0000 0.0000 -4.9428 0.0000 0.8788
# 5 -0.4364 9.2728 -20.7872 0.0000 31.3532 0.0000
# 6 0.0000 0.0000 0.0000 0.8788 0.0000 13.9996
#
#
#
# Elastic Compliance Matrix: (Units=1/GPa)
#
#
# Indices 1 2 3 4 5 6 
#
# 1 0.012228 0.003328 -0.003740 0.000000 -0.003294 0.000000
# 2 0.003328 0.045132 -0.014287 0.000001 -0.022774 0.000000
# 3 -0.003740 -0.014287 0.012354 0.000000 0.012364 0.000000
# 4 0.000000 0.000001 0.000000 -0.200080 0.000000 0.012559
# 5 -0.003294 -0.022774 0.012364 0.000000 0.046781 0.000000
# 6 0.000000 0.000000 0.000000 0.012559 0.000000 0.070642
#
#
# Mechanical properties :
#
#
# Convention : Reuss Voigt Hill
#
# Bulk Modulus (GPa) = 24.80404 46.63384 35.71894
# Shear Modulus (GPa) = 167.25793 22.12577 94.69185
#
# Velocity S-wave (km/s) = 9.04934 3.29134 6.80894
# Velocity P-wave (km/s) = 11.01506 6.10542 8.90527
#
# Compressibility (1/GPa) = 0.04031601
#
# Stress axis : x y z
#
# Youngs Moduli (GPa) = 81.77772 22.15718 80.94829
#
# Poissons Ratio (x) = -0.07374 0.30273
# Poissons Ratio (y) = -0.27216 1.15652
# Poissons Ratio (z) = 0.30583 0.31656
#
# Static dielectric constant tensor:
#      x y z
#    x 1.725150 0.000000 -0.038010 
#    y 0.000000 1.835280 0.000000 
#    z -0.038010 0.000000 1.760340 
# 
# From -- ./inp_files/258001.got.cif
#   From: 2010.05.17/outbox.cif.g08.bks.cpg/sg12_130_cif.got.tgz:258001.got - 2010.06.03 13:09:07.
