data_PCOD9176216
_publ_section_title
;
Structure prediction by ZEFSAII (Michael W. Deem and Ramdas Pophale) SiO2 
 PCOD9176216
Probable space group: C 2/M
;
_chemical_formula_sum "Si O2"
_cell_formula_units_Z 48
_cell_length_a 16.608739
_cell_length_b 14.851638
_cell_length_c 14.892582
_cell_angle_alpha 90.000000
_cell_angle_beta 32.744497
_cell_angle_gamma 90.000000
_cell_volume 1986.977417
_symmetry_space_group_name_H-M "C 2/M"
_symmetry_group_IT_number 12
_symmetry_cell_setting 'monoclinic'
loop_
_space_group_symop_operation_xyz
x,y,z
-x,y,-z
-x,-y,-z
x,-y,z
1/2+x,1/2+y,z
1/2-x,1/2+y,-z
1/2-x,1/2-y,-z
1/2+x,1/2-y,z
loop_
_atom_site_type_symbol
_atom_site_label
_atom_site_fract_x
_atom_site_fract_y
_atom_site_fract_z
Si Si1 0.893908 0.704176 0.792522
Si Si2 0.594769 0.098056 0.054871
Si Si3 0.219161 0.628181 0.743118
Si Si4 0.818782 0.671695 0.677388
Si Si5 0.725415 0.150010 0.474648
Si Si6 0.974565 0.903479 0.371048
O O1 0.652080 0.819091 0.062345
O O2 0.795092 0.659986 0.806067
O O3 0.047951 0.645856 0.650103
O O4 0.941761 0.806839 0.719824
O O5 0.678210 0.097703 0.880843
O O6 0.614458 0.000000 0.079813
O O7 0.421474 0.107842 0.188167
O O8 0.242880 0.733634 0.727270
O O9 0.373342 0.596906 0.555652
O O10 0.758265 0.622101 0.646063
O O11 0.000000 0.676188 0.500000
O O12 0.750000 0.250000 0.500000
O O13 0.848067 0.096603 0.413333
O O14 0.055539 0.000000 0.289654
#
# Coordination Sequence:
#
# PCOD9176216 Si02
#       6
#     8   8   8   8   8   8
#     4  10  20  35  55  82 116 152 185 228 287 343
#     4  11  23  37  57  84 116 152 192 235 280 338
#     4  11  19  35  57  86 116 144 184 237 293 338
#     4  10  18  34  57  84 114 147 187 230 285 341
#     4   9  15  30  53  75 107 142 183 223 264 323
#     4  11  19  33  58  88 115 143 186 239 284 333
#
# _framework density 24.157294
#
# number of rings (size 3 to 8) (size 9 to 14) (size 15 to 20)
#    0.000    1.667    6.667    3.000    0.000    0.667 
#    0.000    4.167    0.000    3.000    0.000   10.500 
#    0.000    0.000    0.000    0.000    0.000    0.000 
#
# Total GULP energy -133622.403879 kJ/mol
# GULP energy per Si atom -5567.600162 kJ/mol
# Density = 2.410231 g / cm^3
# Si number density = 24.157294 Si / 1000 Ang^3
#
#
#
# Elastic Constant Matrix: (Units=GPa)
#
#
# Indices 1 2 3 4 5 6 
#
# 1 179.5645 30.8967 50.0680 0.0000 14.7607 0.0000
# 2 30.8967 86.0345 19.8115 0.0003 6.6800 -0.0002
# 3 50.0680 19.8115 82.6224 0.0009 4.1870 -0.0006
# 4 0.0000 0.0003 0.0009 -42.4891 -0.0001 35.7208
# 5 14.7607 6.6800 4.1870 -0.0001 43.3315 0.0001
# 6 0.0000 -0.0002 -0.0006 35.7208 0.0001 -70.3860
#
#
#
# Elastic Compliance Matrix: (Units=1/GPa)
#
#
# Indices 1 2 3 4 5 6 
#
# 1 0.007040 -0.001511 -0.003813 0.000000 -0.001797 0.000000
# 2 -0.001511 0.012741 -0.002076 0.000000 -0.001249 0.000000
# 3 -0.003813 -0.002076 0.014903 0.000000 0.000179 0.000000
# 4 0.000000 0.000000 0.000000 -0.041049 0.000000 -0.020832
# 5 -0.001797 -0.001249 0.000179 0.000000 0.023865 0.000000
# 6 0.000000 0.000000 0.000000 -0.020832 0.000000 -0.024780
#
#
# Mechanical properties :
#
#
# Convention : Reuss Voigt Hill
#
# Bulk Modulus (GPa) = 50.29236 61.08598 55.68917
# Shear Modulus (GPa) = 353.44615 2.58762 178.01689
#
# Velocity S-wave (km/s) = 12.10900 1.03609 8.59364
# Velocity P-wave (km/s) = 14.70945 5.17426 11.02590
#
# Compressibility (1/GPa) = 0.01988373
#
# Stress axis : x y z
#
# Youngs Moduli (GPa) = 142.05044 78.48779 67.10278
#
# Poissons Ratio (x) = 0.11857 0.25584
# Poissons Ratio (y) = 0.21459 0.13933
# Poissons Ratio (z) = 0.54160 0.16297
#
# Static dielectric constant tensor:
#      x y z
#    x 1.999540 0.000000 0.116020 
#    y 0.000000 1.965480 0.000000 
#    z 0.116020 0.000000 2.057280 
# 
# From -- ./inp_files/278871.got.cif
#   From: 2010.05.17/outbox.cif.g08.bks.cpg/sg12_140_cif.got.tgz:278871.got - 2010.06.03 13:09:07.
