data_PCOD9176909
_publ_section_title
;
Structure prediction by ZEFSAII (Michael W. Deem and Ramdas Pophale) SiO2 
 PCOD9176909
Probable space group: C 2/M
;
_chemical_formula_sum "Si O2"
_cell_formula_units_Z 50
_cell_length_a 14.430720
_cell_length_b 7.782045
_cell_length_c 23.927039
_cell_angle_alpha 90.000000
_cell_angle_beta 120.727374
_cell_angle_gamma 90.000000
_cell_volume 2309.783486
_symmetry_space_group_name_H-M "C 2/M"
_symmetry_group_IT_number 12
_symmetry_cell_setting 'monoclinic'
loop_
_space_group_symop_operation_xyz
x,y,z
-x,y,-z
-x,-y,-z
x,-y,z
1/2+x,1/2+y,z
1/2-x,1/2+y,-z
1/2-x,1/2-y,-z
1/2+x,1/2-y,z
loop_
_atom_site_type_symbol
_atom_site_label
_atom_site_fract_x
_atom_site_fract_y
_atom_site_fract_z
Si Si1 0.577868 0.309326 0.454510
Si Si2 0.343499 0.202521 0.107786
Si Si3 0.166233 0.299745 0.366853
Si Si4 0.000000 0.500000 0.500000
Si Si5 0.606130 0.208497 0.000371
Si Si6 0.435613 0.701615 0.254000
Si Si7 0.834451 0.801573 0.330891
O O1 0.593779 0.500000 0.483638
O O2 0.652804 0.285335 0.423310
O O3 0.578070 0.152249 0.496956
O O4 0.455353 0.298831 0.392368
O O5 0.389921 0.268119 0.062866
O O6 0.393931 0.281719 0.178601
O O7 0.364739 0.000000 0.117269
O O8 0.215583 0.232864 0.063876
O O9 0.190742 0.500000 0.384661
O O10 0.253174 0.222517 0.350616
O O11 0.050058 0.288318 0.300770
O O12 0.607637 0.000000 0.000158
O O13 0.500000 0.265780 0.000000
O O14 0.451411 0.500000 0.271982
O O15 0.349165 0.770676 0.272964
O O16 0.798485 0.000000 0.313909
#
# Coordination Sequence:
#
# PCOD9176909 Si02
#       7
#     8   8   8   2   8   8   8
#     4  10  21  40  61  86 119 153 191 236 286 339
#     4  10  20  34  52  77 107 136 183 236 276 332
#     4  10  18  36  61  85 111 147 188 232 286 338
#     4  12  22  40  64  90 112 162 194 236 280 334
#     4   9  19  36  55  72  99 146 184 223 285 339
#     4  10  20  35  53  82 112 149 185 228 283 338
#     4   8  18  36  60  81 112 150 185 229 285 340
#
# _framework density 21.647051000000001
#
# number of rings (size 3 to 8) (size 9 to 14) (size 15 to 20)
#    0.000    2.400    0.800    2.640    0.000    2.240 
#    2.880    7.200    0.000    0.000    0.000    0.000 
#    0.000    0.000    0.000    0.000    0.000    0.000 
#
# Total GULP energy -139386.043316 kJ/mol
# GULP energy per Si atom -5575.441733 kJ/mol
# Density = 2.159778 g / cm^3
# Si number density = 21.647051 Si / 1000 Ang^3
#
#
#
# Elastic Constant Matrix: (Units=GPa)
#
#
# Indices 1 2 3 4 5 6 
#
# 1 165.7669 12.9976 48.2910 0.0000 -15.9208 0.0000
# 2 12.9976 87.4019 15.5371 0.0000 -7.3813 0.0000
# 3 48.2910 15.5371 114.7270 0.0000 -11.5789 0.0000
# 4 0.0000 0.0000 0.0000 10.4766 0.0000 -13.7616
# 5 -15.9208 -7.3813 -11.5789 0.0000 9.9348 0.0000
# 6 0.0000 0.0000 0.0000 -13.7616 0.0000 12.1395
#
#
#
# Elastic Compliance Matrix: (Units=1/GPa)
#
#
# Indices 1 2 3 4 5 6 
#
# 1 0.007604 0.000081 -0.002239 0.000000 0.009636 0.000000
# 2 0.000081 0.012279 -0.000865 0.000000 0.008245 0.000000
# 3 -0.002239 -0.000865 0.010595 0.000000 0.008118 0.000000
# 4 0.000000 0.000000 0.000000 -0.195163 0.000000 -0.221243
# 5 0.009636 0.008245 0.008118 0.000000 0.131686 0.000000
# 6 0.000000 0.000000 0.000000 -0.221243 0.000000 -0.168431
#
#
# Mechanical properties :
#
#
# Convention : Reuss Voigt Hill
#
# Bulk Modulus (GPa) = 40.92876 57.94970 49.43923
# Shear Modulus (GPa) = -26.70383 25.91485 -0.39449
#
# Velocity S-wave (km/s) = -3.51608 3.46374 -0.42736
# Velocity P-wave (km/s) = 1.56991 6.54409 4.75866
#
# Compressibility (1/GPa) = 0.02443270
#
# Stress axis : x y z
#
# Youngs Moduli (GPa) = 131.50974 81.43702 94.38174
#
# Poissons Ratio (x) = -0.00660 0.21133
# Poissons Ratio (y) = -0.01066 0.08163
# Poissons Ratio (z) = 0.29447 0.07044
#
# Static dielectric constant tensor:
#      x y z
#    x 1.816670 0.000000 -0.032320 
#    y 0.000000 2.146620 0.000000 
#    z -0.032320 0.000000 1.768180 
# 
# From -- ./inp_files/338250.got.cif
#   From: 2010.05.17/outbox.cif.g08.bks.cpg/sg12_170_cif.got.tgz:338250.got - 2010.06.03 13:09:07.
