data_PCOD9176182
_publ_section_title
;
Structure prediction by ZEFSAII (Michael W. Deem and Ramdas Pophale) SiO2 
 PCOD9176182
Probable space group: C 2/M
;
_chemical_formula_sum "Si O2"
_cell_formula_units_Z 32
_cell_length_a 11.638483
_cell_length_b 20.898568
_cell_length_c 10.298497
_cell_angle_alpha 90.000000
_cell_angle_beta 35.675875
_cell_angle_gamma 90.000000
_cell_volume 1460.843488
_symmetry_space_group_name_H-M "C 2/M"
_symmetry_group_IT_number 12
_symmetry_cell_setting 'monoclinic'
loop_
_space_group_symop_operation_xyz
x,y,z
-x,y,-z
-x,-y,-z
x,-y,z
1/2+x,1/2+y,z
1/2-x,1/2+y,-z
1/2-x,1/2-y,-z
1/2+x,1/2-y,z
loop_
_atom_site_type_symbol
_atom_site_label
_atom_site_fract_x
_atom_site_fract_y
_atom_site_fract_z
Si Si1 0.006565 0.428182 0.149141
Si Si2 0.345984 0.344747 0.524305
Si Si3 0.828982 0.687698 0.852158
Si Si4 0.723489 0.292578 0.671801
O O1 0.053400 0.500000 0.149119
O O2 0.783838 0.406790 0.384525
O O3 0.149585 0.374885 0.078412
O O4 0.000000 0.425859 0.000000
O O5 0.500000 0.353314 0.500000
O O6 0.447840 0.198920 0.410365
O O7 0.209221 0.284596 0.697196
O O8 0.711361 0.679131 0.825671
O O9 0.750000 0.750000 0.000000
O O10 0.407693 0.677547 0.322560
#
# Coordination Sequence:
#
# PCOD9176182 Si02
#       4
#     8   8   8   8
#     4  10  22  36  54  82 116 152 193 233 282 349
#     4  10  18  34  57  76 116 147 179 242 289 326
#     4  10  18  34  59  82 113 150 189 239 291 331
#     4   9  19  33  54  88 112 136 194 246 280 338
#
# _framework density 21.905152000000001
#
# number of rings (size 3 to 8) (size 9 to 14) (size 15 to 20)
#    0.000    2.250    2.500    1.500    0.000    0.500 
#    0.000   10.000    0.000    0.000    0.000    3.500 
#    0.000    0.000    0.000    0.000    0.000    0.000 
#
# Total GULP energy -89235.493737 kJ/mol
# GULP energy per Si atom -5577.218359 kJ/mol
# Density = 2.185530 g / cm^3
# Si number density = 21.905152 Si / 1000 Ang^3
#
#
#
# Elastic Constant Matrix: (Units=GPa)
#
#
# Indices 1 2 3 4 5 6 
#
# 1 212.9222 77.4808 41.4878 0.0000 2.3388 0.0000
# 2 77.4808 167.9102 34.8267 0.0000 3.9266 0.0000
# 3 41.4878 34.8267 65.8657 0.0001 0.8148 0.0000
# 4 0.0000 0.0000 0.0001 21.1073 0.0000 -7.0083
# 5 2.3388 3.9266 0.8148 0.0000 38.7992 0.0000
# 6 0.0000 0.0000 0.0000 -7.0083 0.0000 35.8616
#
#
#
# Elastic Compliance Matrix: (Units=1/GPa)
#
#
# Indices 1 2 3 4 5 6 
#
# 1 0.006019 -0.002234 -0.002609 0.000000 -0.000082 0.000000
# 2 -0.002234 0.007533 -0.002568 0.000000 -0.000574 0.000000
# 3 -0.002609 -0.002568 0.018183 0.000000 0.000035 0.000000
# 4 0.000000 0.000000 0.000000 0.050665 0.000000 0.009901
# 5 -0.000082 -0.000574 0.000035 0.000000 0.025836 0.000000
# 6 0.000000 0.000000 0.000000 0.009901 0.000000 0.029820
#
#
# Mechanical properties :
#
#
# Convention : Reuss Voigt Hill
#
# Bulk Modulus (GPa) = 59.13065 83.80986 71.47026
# Shear Modulus (GPa) = 31.54261 38.68045 35.11153
#
# Velocity S-wave (km/s) = 3.79880 4.20672 4.00795
# Velocity P-wave (km/s) = 6.80395 7.87012 7.35637
#
# Compressibility (1/GPa) = 0.01691170
#
# Stress axis : x y z
#
# Youngs Moduli (GPa) = 166.14549 132.75390 54.99565
#
# Poissons Ratio (x) = 0.29662 0.14347
# Poissons Ratio (y) = 0.37123 0.14126
# Poissons Ratio (z) = 0.43343 0.34098
#
# Static dielectric constant tensor:
#      x y z
#    x 1.873930 0.000000 -0.046270 
#    y 0.000000 1.781650 0.000000 
#    z -0.046270 0.000000 2.062710 
# 
# From -- ./inp_files/204127.got.cif
#   From: 2010.05.17/outbox.cif.g08.bks.cpg/sg12_103_cif.got.tgz:204127.got - 2010.06.03 13:09:07.
