data_PCOD9176720
_publ_section_title
;
Structure prediction by ZEFSAII (Michael W. Deem and Ramdas Pophale) SiO2 
 PCOD9176720
Probable space group: C 2/M
;
_chemical_formula_sum "Si O2"
_cell_formula_units_Z 64
_cell_length_a 30.785351
_cell_length_b 14.807844
_cell_length_c 10.236588
_cell_angle_alpha 90.000000
_cell_angle_beta 143.253599
_cell_angle_gamma 90.000000
_cell_volume 2791.846196
_symmetry_space_group_name_H-M "C 2/M"
_symmetry_group_IT_number 12
_symmetry_cell_setting 'monoclinic'
loop_
_space_group_symop_operation_xyz
x,y,z
-x,y,-z
-x,-y,-z
x,-y,z
1/2+x,1/2+y,z
1/2-x,1/2+y,-z
1/2-x,1/2-y,-z
1/2+x,1/2-y,z
loop_
_atom_site_type_symbol
_atom_site_label
_atom_site_fract_x
_atom_site_fract_y
_atom_site_fract_z
Si Si1 0.381858 0.608878 0.945947
Si Si2 0.783260 0.109958 0.475141
Si Si3 0.003961 0.349834 0.364840
Si Si4 0.190853 0.895973 0.749280
Si Si5 0.115575 0.391000 0.113603
Si Si6 0.528786 0.644470 0.430511
Si Si7 0.608771 0.105387 0.381749
Si Si8 0.738695 0.388824 0.139281
O O1 0.378383 0.500000 0.935235
O O2 0.343437 0.643287 0.722090
O O3 0.330893 0.638848 0.943409
O O4 0.465043 0.632199 0.171821
O O5 0.794604 0.145139 0.356573
O O6 0.701293 0.128012 0.321853
O O7 0.790323 0.000000 0.490136
O O8 0.053067 0.390407 0.367335
O O9 0.000000 0.392807 0.500000
O O10 0.037853 0.251386 0.468861
O O11 0.925073 0.346452 0.106696
O O12 0.105123 0.895332 0.572234
O O13 0.215857 0.000000 0.800739
O O14 0.230248 0.856915 0.970708
O O15 0.105292 0.500000 0.071795
O O16 0.085803 0.359797 0.183470
O O17 0.500000 0.607427 0.500000
O O18 0.686325 0.141657 0.615901
O O19 0.621681 0.000000 0.385421
O O20 0.738517 0.500000 0.137360
#
# Coordination Sequence:
#
# PCOD9176720 Si02
#       8
#     8   8   8   8   8   8   8   8
#     4  10  18  35  62  87 112 147 192 235 278 335
#     4   9  19  35  58  91 120 138 177 243 296 329
#     4  11  26  41  54  82 119 153 191 234 281 336
#     4  10  20  35  59  90 117 147 190 236 280 330
#     4  10  20  40  66  86 112 147 183 234 290 342
#     4  11  23  40  56  78 119 160 192 233 278 329
#     4  10  20  39  65  89 112 143 186 236 286 340
#     4   9  17  31  60  92 110 138 188 238 282 331
#
# _framework density 22.9239
#
# number of rings (size 3 to 8) (size 9 to 14) (size 15 to 20)
#    0.000    2.000    2.500    1.125    1.750    3.000 
#    4.500    4.375    0.000    0.000    0.000    0.000 
#    0.000    0.000    0.000    0.000    0.000    0.000 
#
# Total GULP energy -178773.954011 kJ/mol
# GULP energy per Si atom -5586.686063 kJ/mol
# Density = 2.287172 g / cm^3
# Si number density = 22.923900 Si / 1000 Ang^3
#
#
#
# Elastic Constant Matrix: (Units=GPa)
#
#
# Indices 1 2 3 4 5 6 
#
# 1 95.1691 -4.1300 32.5950 0.0000 -34.3291 0.0000
# 2 -4.1300 50.4620 -8.7324 0.0000 -7.5387 0.0000
# 3 32.5950 -8.7324 123.1748 0.0000 -32.5491 0.0000
# 4 0.0000 0.0000 0.0000 -15.6366 0.0000 -22.7672
# 5 -34.3291 -7.5387 -32.5491 0.0000 44.8275 0.0000
# 6 0.0000 0.0000 0.0000 -22.7672 0.0000 -7.7888
#
#
#
# Elastic Compliance Matrix: (Units=1/GPa)
#
#
# Indices 1 2 3 4 5 6 
#
# 1 0.015005 0.002802 -0.000756 0.000000 0.011413 0.000000
# 2 0.002802 0.021725 0.002885 0.000000 0.007894 0.000000
# 3 -0.000756 0.002885 0.010516 0.000000 0.007542 0.000000
# 4 0.000000 0.000000 0.000000 0.019641 0.000000 -0.057412
# 5 0.011413 0.007894 0.007542 0.000000 0.037852 0.000000
# 6 0.000000 0.000000 0.000000 -0.057412 0.000000 0.039431
#
#
# Mechanical properties :
#
#
# Convention : Reuss Voigt Hill
#
# Bulk Modulus (GPa) = 17.51081 34.25234 25.88157
# Shear Modulus (GPa) = 32.60649 20.88532 26.74590
#
# Velocity S-wave (km/s) = 3.77554 3.02167 3.41944
# Velocity P-wave (km/s) = 5.16348 5.21039 5.18699
#
# Compressibility (1/GPa) = 0.05710759
#
# Stress axis : x y z
#
# Youngs Moduli (GPa) = 66.64383 46.03051 95.09285
#
# Poissons Ratio (x) = -0.12899 0.07190
# Poissons Ratio (y) = -0.18676 -0.27430
# Poissons Ratio (z) = 0.05039 -0.13278
#
# Static dielectric constant tensor:
#      x y z
#    x 1.843960 0.000000 -0.036360 
#    y 0.000000 1.879670 0.000000 
#    z -0.036360 0.000000 1.850760 
# 
# From -- ./inp_files/112868.got.cif
#   From: 2010.05.17/outbox.cif.g08.bks.cpg/sg12_57_cif.got.tgz:112868.got - 2010.06.03 13:09:07.
