data_PCOD9176876
_publ_section_title
;
Structure prediction by ZEFSAII (Michael W. Deem and Ramdas Pophale) SiO2 
 PCOD9176876
Probable space group: C 2/M
;
_chemical_formula_sum "Si O2"
_cell_formula_units_Z 56
_cell_length_a 22.199935
_cell_length_b 15.216646
_cell_length_c 8.686921
_cell_angle_alpha 90.000000
_cell_angle_beta 96.899077
_cell_angle_gamma 90.000000
_cell_volume 2913.268187
_symmetry_space_group_name_H-M "C 2/M"
_symmetry_group_IT_number 12
_symmetry_cell_setting 'monoclinic'
loop_
_space_group_symop_operation_xyz
x,y,z
-x,y,-z
-x,-y,-z
x,-y,z
1/2+x,1/2+y,z
1/2-x,1/2+y,-z
1/2-x,1/2-y,-z
1/2+x,1/2-y,z
loop_
_atom_site_type_symbol
_atom_site_label
_atom_site_fract_x
_atom_site_fract_y
_atom_site_fract_z
Si Si1 0.610786 0.196833 0.667394
Si Si2 0.302381 0.903451 0.091846
Si Si3 0.817941 0.236590 0.585944
Si Si4 0.118657 0.363185 0.171100
Si Si5 0.936907 0.788017 0.054324
Si Si6 0.332888 0.603029 0.874370
Si Si7 0.019831 0.500000 0.179953
Si Si8 0.066382 0.500000 0.597959
O O1 0.666951 0.170203 0.794282
O O2 0.634813 0.261146 0.541786
O O3 0.592645 0.100016 0.591023
O O4 0.564927 0.246827 0.772536
O O5 0.231344 0.885469 0.058508
O O6 0.308794 0.000000 0.169736
O O7 0.337862 0.906464 0.942488
O O8 0.750000 0.250000 0.500000
O O9 0.837639 0.321130 0.690769
O O10 0.826465 0.156968 0.710982
O O11 0.082620 0.291313 0.062584
O O12 0.065187 0.420421 0.227243
O O13 0.885143 0.859449 0.001361
O O14 0.000000 0.819844 0.000000
O O15 0.342044 0.500000 0.846197
O O16 0.954046 0.500000 0.232272
O O17 0.000000 0.500000 0.000000
O O18 0.000000 0.500000 0.500000
#
# Coordination Sequence:
#
# PCOD9176876 Si02
#       8
#     8   8   8   8   8   8   4   4
#     4  11  22  37  62  89 126 168 203 242 308 363
#     4  10  18  36  59  88 118 155 200 251 299 354
#     4  11  23  39  58  87 127 163 199 255 310 370
#     4  10  21  34  58  89 124 160 205 240 302 363
#     4  10  22  39  63  87 115 157 209 260 306 360
#     4  10  23  42  64  86 116 156 208 265 321 363
#     4  12  20  36  58  90 130 164 198 244 288 365
#     4  12  24  36  56  88 138 174 202 226 283 382
#
# _framework density 19.222397999999998
#
# number of rings (size 3 to 8) (size 9 to 14) (size 15 to 20)
#    0.000    1.429    2.857    3.857    2.000    3.143 
#    1.286    0.714    0.000    0.857    0.000    0.000 
#    0.000    0.000    0.000    0.000    0.000    0.000 
#
# Total GULP energy -155893.087176 kJ/mol
# GULP energy per Si atom -5567.610256 kJ/mol
# Density = 1.917865 g / cm^3
# Si number density = 19.222398 Si / 1000 Ang^3
#
#
#
# Elastic Constant Matrix: (Units=GPa)
#
#
# Indices 1 2 3 4 5 6 
#
# 1 92.1522 26.6995 9.0788 0.0000 -6.2785 0.0000
# 2 26.6995 73.2174 6.2126 0.0000 2.1451 0.0000
# 3 9.0788 6.2126 63.4410 0.0000 -2.8113 0.0000
# 4 0.0000 0.0000 0.0000 -4.7335 0.0000 -6.0299
# 5 -6.2785 2.1451 -2.8113 0.0000 31.7334 0.0000
# 6 0.0000 0.0000 0.0000 -6.0299 0.0000 24.2321
#
#
#
# Elastic Compliance Matrix: (Units=1/GPa)
#
#
# Indices 1 2 3 4 5 6 
#
# 1 0.012463 -0.004519 -0.001223 0.000000 0.002663 0.000000
# 2 -0.004519 0.015446 -0.000956 0.000000 -0.002023 0.000000
# 3 -0.001223 -0.000956 0.016087 0.000000 0.001248 0.000000
# 4 0.000000 0.000000 0.000000 -0.160411 0.000000 -0.039917
# 5 0.002663 -0.002023 0.001248 0.000000 0.032287 0.000000
# 6 0.000000 0.000000 0.000000 -0.039917 0.000000 0.031335
#
#
# Mechanical properties :
#
#
# Convention : Reuss Voigt Hill
#
# Bulk Modulus (GPa) = 32.67910 34.75472 33.71691
# Shear Modulus (GPa) = -171.23806 22.70104 -74.26851
#
# Velocity S-wave (km/s) = -9.44860 3.44025 -6.22257
# Velocity P-wave (km/s) = 10.09937 5.82237 5.83512
#
# Compressibility (1/GPa) = 0.03060060
#
# Stress axis : x y z
#
# Youngs Moduli (GPa) = 80.23865 64.74083 62.16373
#
# Poissons Ratio (x) = 0.29256 0.07602
# Poissons Ratio (y) = 0.36260 0.05940
# Poissons Ratio (z) = 0.09813 0.06186
#
# Static dielectric constant tensor:
#      x y z
#    x 18.645160 0.000000 -39.809380 
#    y 0.000000 1.734810 0.000000 
#    z -39.809380 0.000000 95.196470 
# 
# From -- ./inp_files/86408.got.cif
#   From: 2010.05.17/outbox.cif.g08.bks.cpg/sg12_44_cif.got.tgz:86408.got - 2010.06.03 13:09:07.
