data_PCOD9176954
_publ_section_title
;
Structure prediction by ZEFSAII (Michael W. Deem and Ramdas Pophale) SiO2 
 PCOD9176954
Probable space group: C 2/M
;
_chemical_formula_sum "Si O2"
_cell_formula_units_Z 48
_cell_length_a 26.367214
_cell_length_b 15.301130
_cell_length_c 8.806113
_cell_angle_alpha 90.000000
_cell_angle_beta 137.290141
_cell_angle_gamma 90.000000
_cell_volume 2409.821817
_symmetry_space_group_name_H-M "C 2/M"
_symmetry_group_IT_number 12
_symmetry_cell_setting 'monoclinic'
loop_
_space_group_symop_operation_xyz
x,y,z
-x,y,-z
-x,-y,-z
x,-y,z
1/2+x,1/2+y,z
1/2-x,1/2+y,-z
1/2-x,1/2-y,-z
1/2+x,1/2-y,z
loop_
_atom_site_type_symbol
_atom_site_label
_atom_site_fract_x
_atom_site_fract_y
_atom_site_fract_z
Si Si1 0.288848 0.330652 0.995881
Si Si2 0.833339 0.703821 0.852830
Si Si3 0.681022 0.397435 0.615130
Si Si4 0.359639 0.902572 0.423078
Si Si5 0.082735 0.754135 0.255686
Si Si6 0.067692 0.598426 0.733978
O O1 0.341598 0.282972 0.991603
O O2 0.227260 0.378824 0.757557
O O3 0.250000 0.250000 0.000000
O O4 0.318520 0.388149 0.199840
O O5 0.755347 0.652827 0.712948
O O6 0.853392 0.735606 0.730658
O O7 0.898967 0.638427 0.044232
O O8 0.682586 0.500000 0.578128
O O9 0.610094 0.342782 0.397827
O O10 0.408331 0.827604 0.608948
O O11 0.371577 0.903426 0.266786
O O12 0.376173 0.000000 0.516484
O O13 0.000000 0.758970 0.000000
O O14 0.043192 0.500000 0.716536
O O15 0.000000 0.645572 0.500000
#
# Coordination Sequence:
#
# PCOD9176954 Si02
#       6
#     8   8   8   8   8   8
#     4  10  18  36  64  87 113 147 206 264 304 346
#     4  11  21  38  62  89 122 159 209 249 305 363
#     4  11  22  41  68  92 121 162 210 259 301 359
#     4  11  21  37  59  87 122 157 198 253 308 361
#     4  12  26  42  59  89 133 171 202 247 308 372
#     4  10  19  32  54  85 119 157 200 246 302 364
#
# _framework density 19.918485
#
# number of rings (size 3 to 8) (size 9 to 14) (size 15 to 20)
#    0.000    1.167    6.667    2.500    0.000    2.000 
#    0.000    0.833    0.000    1.000    0.000    0.000 
#    0.000    0.000    0.000    0.000    0.000    0.000 
#
# Total GULP energy -133776.734849 kJ/mol
# GULP energy per Si atom -5574.030619 kJ/mol
# Density = 1.987315 g / cm^3
# Si number density = 19.918485 Si / 1000 Ang^3
#
#
#
# Elastic Constant Matrix: (Units=GPa)
#
#
# Indices 1 2 3 4 5 6 
#
# 1 44.3423 20.8490 0.1643 0.0000 -10.1368 0.0000
# 2 20.8490 117.2447 61.3133 0.0000 2.0420 0.0000
# 3 0.1643 61.3133 123.9331 0.0000 6.7906 0.0000
# 4 0.0000 0.0000 0.0000 12.8727 0.0000 -0.1632
# 5 -10.1368 2.0420 6.7906 0.0000 23.8585 0.0000
# 6 0.0000 0.0000 0.0000 -0.1632 0.0000 7.7893
#
#
#
# Elastic Compliance Matrix: (Units=1/GPa)
#
#
# Indices 1 2 3 4 5 6 
#
# 1 0.028360 -0.006597 0.002575 0.000000 0.011881 0.000000
# 2 -0.006597 0.013050 -0.006332 0.000000 -0.002118 0.000000
# 3 0.002575 -0.006332 0.011284 0.000000 -0.001576 0.000000
# 4 0.000000 0.000000 0.000000 0.077705 0.000000 0.001628
# 5 0.011881 -0.002118 -0.001576 0.000000 0.047591 0.000000
# 6 0.000000 0.000000 0.000000 0.001628 0.000000 0.128415
#
#
# Mechanical properties :
#
#
# Convention : Reuss Voigt Hill
#
# Bulk Modulus (GPa) = 31.26180 50.01924 40.64052
# Shear Modulus (GPa) = 14.80279 22.45034 18.62657
#
# Velocity S-wave (km/s) = 2.72907 3.36089 3.06132
# Velocity P-wave (km/s) = 5.06551 6.34250 5.73963
#
# Compressibility (1/GPa) = 0.03198792
#
# Stress axis : x y z
#
# Youngs Moduli (GPa) = 35.26105 76.62743 88.61967
#
# Poissons Ratio (x) = 0.50548 -0.22819
# Poissons Ratio (y) = 0.23260 0.56110
# Poissons Ratio (z) = -0.09079 0.48517
#
# Static dielectric constant tensor:
#      x y z
#    x 1.747650 0.000000 0.020120 
#    y 0.000000 1.729690 0.000000 
#    z 0.020120 0.000000 1.746500 
# 
# From -- ./inp_files/85658.got.cif
#   From: 2010.05.17/outbox.cif.g08.bks.cpg/sg12_43_cif.got.tgz:85658.got - 2010.06.03 13:09:07.
