data_PCOD9176069
_publ_section_title
;
Structure prediction by ZEFSAII (Michael W. Deem and Ramdas Pophale) SiO2 
 PCOD9176069
Probable space group: C 2/M
;
_chemical_formula_sum "Si O2"
_cell_formula_units_Z 64
_cell_length_a 9.271236
_cell_length_b 22.586230
_cell_length_c 17.998794
_cell_angle_alpha 90.000000
_cell_angle_beta 61.519435
_cell_angle_gamma 90.000000
_cell_volume 3312.861250
_symmetry_space_group_name_H-M "C 2/M"
_symmetry_group_IT_number 12
_symmetry_cell_setting 'monoclinic'
loop_
_space_group_symop_operation_xyz
x,y,z
-x,y,-z
-x,-y,-z
x,-y,z
1/2+x,1/2+y,z
1/2-x,1/2+y,-z
1/2-x,1/2-y,-z
1/2+x,1/2-y,z
loop_
_atom_site_type_symbol
_atom_site_label
_atom_site_fract_x
_atom_site_fract_y
_atom_site_fract_z
Si Si1 0.869478 0.832189 0.096155
Si Si2 0.663569 0.305444 0.420538
Si Si3 0.005640 0.141991 0.225556
Si Si4 0.800853 0.567590 0.661008
Si Si5 0.874157 0.564847 0.819253
Si Si6 0.976949 0.684276 0.610744
Si Si7 0.565263 0.227050 0.216661
Si Si8 0.311923 0.862335 0.237421
O O1 0.962019 0.848634 0.150101
O O2 0.745703 0.887251 0.114413
O O3 0.743310 0.777306 0.136424
O O4 0.000000 0.823484 0.000000
O O5 0.500000 0.329055 0.500000
O O6 0.826499 0.306991 0.432018
O O7 0.614525 0.238376 0.407748
O O8 0.710196 0.344080 0.336387
O O9 0.879108 0.097709 0.295641
O O10 0.999266 0.209447 0.256710
O O11 0.189785 0.124416 0.200694
O O12 0.809190 0.500000 0.629180
O O13 0.839228 0.563180 0.739660
O O14 0.920709 0.618892 0.599866
O O15 0.844828 0.500000 0.857619
O O16 0.061577 0.584899 0.781398
O O17 0.920534 0.689928 0.710798
O O18 0.430349 0.194835 0.199361
#
# Coordination Sequence:
#
# PCOD9176069 Si02
#       8
#     8   8   8   8   8   8   8   8
#     4  10  21  35  52  82 114 146 186 231 285 340
#     4  11  22  34  56  93 117 142 177 233 296 332
#     4  11  19  33  56  81 108 144 189 233 275 328
#     4  10  19  34  57  81 104 144 197 231 264 325
#     4   9  18  36  57  76 104 152 197 229 275 335
#     4  11  19  36  56  82 114 150 182 229 271 340
#     4  10  18  34  54  79 108 148 183 218 285 339
#     4  10  19  32  56  80 110 139 185 238 271 335
#
# _framework density 19.318648
#
# number of rings (size 3 to 8) (size 9 to 14) (size 15 to 20)
#    0.000    1.750    6.250    2.625    0.000    1.250 
#    0.000    2.500    0.000    2.625    0.000    0.000 
#    0.000    0.000    0.000    0.000    0.000    0.000 
#
# Total GULP energy -178366.804057 kJ/mol
# GULP energy per Si atom -5573.962627 kJ/mol
# Density = 1.927468 g / cm^3
# Si number density = 19.318648 Si / 1000 Ang^3
#
#
#
# Elastic Constant Matrix: (Units=GPa)
#
#
# Indices 1 2 3 4 5 6 
#
# 1 130.9827 32.0166 36.2135 0.0000 -22.4329 0.0000
# 2 32.0166 102.1857 5.1688 0.0000 -8.5889 0.0000
# 3 36.2135 5.1688 85.2888 0.0000 -27.0663 0.0000
# 4 0.0000 0.0000 0.0000 5.7685 0.0000 1.7003
# 5 -22.4329 -8.5889 -27.0663 0.0000 22.4915 0.0000
# 6 0.0000 0.0000 0.0000 1.7003 0.0000 12.5019
#
#
#
# Elastic Compliance Matrix: (Units=1/GPa)
#
#
# Indices 1 2 3 4 5 6 
#
# 1 0.009904 -0.002451 -0.001972 0.000000 0.006569 0.000000
# 2 -0.002451 0.010769 0.001484 0.000000 0.003454 0.000000
# 3 -0.001972 0.001484 0.019459 0.000000 0.022017 0.000000
# 4 0.000000 0.000000 0.000000 0.180597 0.000000 -0.024562
# 5 0.006569 0.003454 0.022017 0.000000 0.078828 0.000000
# 6 0.000000 0.000000 0.000000 -0.024562 0.000000 0.083329
#
#
# Mechanical properties :
#
#
# Convention : Reuss Voigt Hill
#
# Bulk Modulus (GPa) = 29.19310 51.69499 40.44405
# Shear Modulus (GPa) = 12.49430 24.48958 18.49194
#
# Velocity S-wave (km/s) = 2.54588 3.56429 3.09723
# Velocity P-wave (km/s) = 4.87711 6.61484 5.81129
#
# Compressibility (1/GPa) = 0.03425467
#
# Stress axis : x y z
#
# Youngs Moduli (GPa) = 100.96911 92.85625 51.38896
#
# Poissons Ratio (x) = 0.22761 0.10134
# Poissons Ratio (y) = 0.24750 -0.07627
# Poissons Ratio (z) = 0.19911 -0.13781
#
# Static dielectric constant tensor:
#      x y z
#    x 1.722770 0.000000 0.007460 
#    y 0.000000 1.715700 0.000000 
#    z 0.007460 0.000000 1.678830 
# 
# From -- ./inp_files/302108.got.cif
#   From: 2010.05.17/outbox.cif.g08.bks.cpg/sg12_152_cif.got.tgz:302108.got - 2010.06.03 13:09:07.
