data_PCOD9176838
_publ_section_title
;
Structure prediction by ZEFSAII (Michael W. Deem and Ramdas Pophale) SiO2 
 PCOD9176838
Probable space group: C 2/M
;
_chemical_formula_sum "Si O2"
_cell_formula_units_Z 64
_cell_length_a 9.672846
_cell_length_b 26.122084
_cell_length_c 19.773009
_cell_angle_alpha 90.000000
_cell_angle_beta 125.932164
_cell_angle_gamma 90.000000
_cell_volume 4045.438641
_symmetry_space_group_name_H-M "C 2/M"
_symmetry_group_IT_number 12
_symmetry_cell_setting 'monoclinic'
loop_
_space_group_symop_operation_xyz
x,y,z
-x,y,-z
-x,-y,-z
x,-y,z
1/2+x,1/2+y,z
1/2-x,1/2+y,-z
1/2-x,1/2-y,-z
1/2+x,1/2-y,z
loop_
_atom_site_type_symbol
_atom_site_label
_atom_site_fract_x
_atom_site_fract_y
_atom_site_fract_z
Si Si1 0.913306 0.375147 0.158756
Si Si2 0.987830 0.800928 0.726152
Si Si3 0.310875 0.797668 0.718779
Si Si4 0.589818 0.941809 0.098713
Si Si5 0.098343 0.880299 0.860153
Si Si6 0.604618 0.559308 0.099148
Si Si7 0.672274 0.697363 0.004839
Si Si8 0.195448 0.738356 0.559943
O O1 0.765479 0.403839 0.157636
O O2 0.074836 0.348749 0.241671
O O3 0.969302 0.418281 0.121157
O O4 0.814655 0.330467 0.090840
O O5 0.943458 0.750376 0.758044
O O6 0.829808 0.801998 0.628910
O O7 0.165373 0.795438 0.735277
O O8 0.988503 0.849521 0.774492
O O9 0.219399 0.785948 0.619965
O O10 0.738805 0.900885 0.132586
O O11 0.641870 0.000000 0.130338
O O12 0.500000 0.943342 0.000000
O O13 0.137516 0.840168 0.931440
O O14 0.019078 0.929332 0.874155
O O15 0.652226 0.500000 0.107186
O O16 0.500000 0.572891 0.000000
O O17 0.500000 0.704380 0.000000
O O18 0.750000 0.750000 0.000000
O O19 0.250000 0.750000 0.500000
O O20 0.000000 0.722007 0.500000
#
# Coordination Sequence:
#
# PCOD9176838 Si02
#       8
#     8   8   8   8   8   8   8   8
#     4  12  21  37  54  77 109 144 187 231 278 314
#     4  10  22  34  54  83 114 147 175 224 261 328
#     4  10  22  34  54  83 114 147 175 225 260 328
#     4  11  22  35  54  77 102 144 196 237 272 314
#     4  12  21  37  54  77 109 144 187 231 278 313
#     4  11  22  39  58  75 102 148 201 247 280 312
#     4  12  26  38  51  72 106 152 193 227 262 327
#     4  10  18  36  58  79 112 149 178 211 263 328
#
# _framework density 15.820287
#
# number of rings (size 3 to 8) (size 9 to 14) (size 15 to 20)
#    0.750    0.250    6.250    1.500    3.500    4.000 
#    0.000    0.000    0.000    0.000    0.000    0.000 
#    0.000   20.000    0.000    0.000    0.000    0.000 
#
# Total GULP energy -178234.599260 kJ/mol
# GULP energy per Si atom -5569.831227 kJ/mol
# Density = 1.578428 g / cm^3
# Si number density = 15.820287 Si / 1000 Ang^3
#
#
#
# Elastic Constant Matrix: (Units=GPa)
#
#
# Indices 1 2 3 4 5 6 
#
# 1 61.1534 6.8691 11.4650 0.0000 5.0324 0.0000
# 2 6.8691 72.6958 23.5994 0.0000 4.5247 0.0000
# 3 11.4650 23.5994 72.6853 0.0000 5.7394 0.0000
# 4 0.0000 0.0000 0.0000 -2.5747 0.0000 -76.8126
# 5 5.0324 4.5247 5.7394 0.0000 22.9676 0.0000
# 6 0.0000 0.0000 0.0000 -76.8126 0.0000 -357.9632
#
#
#
# Elastic Compliance Matrix: (Units=1/GPa)
#
#
# Indices 1 2 3 4 5 6 
#
# 1 0.017100 -0.000703 -0.002228 0.000000 -0.003052 0.000000
# 2 -0.000703 0.015480 -0.004781 0.000000 -0.001701 0.000000
# 3 -0.002228 -0.004781 0.015862 0.000000 -0.002534 0.000000
# 4 0.000000 0.000000 0.000000 0.071902 0.000000 -0.015429
# 5 -0.003052 -0.001701 -0.002534 0.000000 0.045176 0.000000
# 6 0.000000 0.000000 0.000000 -0.015429 0.000000 0.000517
#
#
# Mechanical properties :
#
#
# Convention : Reuss Voigt Hill
#
# Bulk Modulus (GPa) = 30.28594 32.26685 31.27639
# Shear Modulus (GPa) = 25.97846 -56.54067 -15.28110
#
# Velocity S-wave (km/s) = 4.05668 -5.98473 -3.11129
# Velocity P-wave (km/s) = 6.41307 5.22645 2.62790
#
# Compressibility (1/GPa) = 0.03301863
#
# Stress axis : x y z
#
# Youngs Moduli (GPa) = 58.47922 64.59831 63.04473
#
# Poissons Ratio (x) = 0.04538 0.14048
# Poissons Ratio (y) = 0.04108 0.30142
# Poissons Ratio (z) = 0.13031 0.30884
#
# Static dielectric constant tensor:
#      x y z
#    x 1.519840 0.000000 -0.005430 
#    y 0.000000 1.527430 0.000000 
#    z -0.005430 0.000000 1.507780 
# 
# From -- ./inp_files/302663.got.cif
#   From: 2010.05.17/outbox.cif.g08.bks.cpg/sg12_152_cif.got.tgz:302663.got - 2010.06.03 13:09:07.
