data_PCOD9176340
_publ_section_title
;
Structure prediction by ZEFSAII (Michael W. Deem and Ramdas Pophale) SiO2 
 PCOD9176340
Probable space group: C 2/M
;
_chemical_formula_sum "Si O2"
_cell_formula_units_Z 48
_cell_length_a 20.016149
_cell_length_b 13.737913
_cell_length_c 14.840227
_cell_angle_alpha 90.000000
_cell_angle_beta 146.121697
_cell_angle_gamma 90.000000
_cell_volume 2274.745207
_symmetry_space_group_name_H-M "C 2/M"
_symmetry_group_IT_number 12
_symmetry_cell_setting 'monoclinic'
loop_
_space_group_symop_operation_xyz
x,y,z
-x,y,-z
-x,-y,-z
x,-y,z
1/2+x,1/2+y,z
1/2-x,1/2+y,-z
1/2-x,1/2-y,-z
1/2+x,1/2-y,z
loop_
_atom_site_type_symbol
_atom_site_label
_atom_site_fract_x
_atom_site_fract_y
_atom_site_fract_z
Si Si1 0.786468 0.000000 0.565423
Si Si2 0.025025 0.500000 0.341838
Si Si3 0.375461 0.713537 0.683308
Si Si4 0.728879 0.298228 0.879961
Si Si5 0.740194 0.778044 0.276587
Si Si6 0.487106 0.787012 0.633650
Si Si7 0.355800 0.000000 0.992548
Si Si8 0.723795 0.000000 0.285697
O O1 0.864639 0.902981 0.667528
O O2 0.669592 0.000000 0.498793
O O3 0.729738 0.000000 0.400962
O O4 0.978946 0.400331 0.333770
O O5 0.975976 0.500000 0.184654
O O6 0.250000 0.750000 0.500000
O O7 0.367677 0.755619 0.775173
O O8 0.471343 0.757543 0.721656
O O9 0.789225 0.251571 0.858849
O O10 0.587050 0.283317 0.705064
O O11 0.778317 0.406813 0.934564
O O12 0.750000 0.250000 0.000000
O O13 0.858436 0.723272 0.443094
O O14 0.775987 0.892485 0.323315
O O15 0.375642 0.000000 0.906735
#
# Coordination Sequence:
#
# PCOD9176340 Si02
#       8
#     4   4   8   8   8   8   4   4
#     4  12  18  34  60  88 125 148 192 251 302 356
#     4  12  20  35  60  88 119 150 207 236 296 362
#     4  10  19  33  56  88 120 148 187 245 306 344
#     4  11  23  41  59  82 125 162 199 244 297 355
#     4  10  20  37  59  92 118 154 195 251 299 348
#     4  11  21  37  62  89 116 158 198 247 295 354
#     4  10  24  39  56  85 118 164 200 244 297 356
#     4  10  18  34  59  86 123 146 195 246 301 352
#
# _framework density 21.101264
#
# number of rings (size 3 to 8) (size 9 to 14) (size 15 to 20)
#    0.000    1.333    8.333    0.500    0.000    1.667 
#    0.000    7.500    0.000    0.000    0.000    2.333 
#    0.000    0.000    0.000    0.000    0.000    0.000 
#
# Total GULP energy -133735.503066 kJ/mol
# GULP energy per Si atom -5572.312628 kJ/mol
# Density = 2.105324 g / cm^3
# Si number density = 21.101264 Si / 1000 Ang^3
#
#
#
# Elastic Constant Matrix: (Units=GPa)
#
#
# Indices 1 2 3 4 5 6 
#
# 1 107.9077 32.2678 11.7928 0.0000 -25.7153 0.0000
# 2 32.2678 136.1087 24.9261 0.0000 -1.9968 0.0000
# 3 11.7928 24.9261 40.0321 0.0000 -21.4651 0.0000
# 4 0.0000 0.0000 0.0000 18.6646 0.0000 -3.0066
# 5 -25.7153 -1.9968 -21.4651 0.0000 41.9058 0.0000
# 6 0.0000 0.0000 0.0000 -3.0066 0.0000 8.6037
#
#
#
# Elastic Compliance Matrix: (Units=1/GPa)
#
#
# Indices 1 2 3 4 5 6 
#
# 1 0.012025 -0.003326 0.003309 0.000000 0.008915 0.000000
# 2 -0.003326 0.009516 -0.007991 0.000000 -0.005681 0.000000
# 3 0.003309 -0.007991 0.041174 0.000000 0.022740 0.000000
# 4 0.000000 0.000000 0.000000 0.056773 0.000000 0.019839
# 5 0.008915 -0.005681 0.022740 0.000000 0.040711 0.000000
# 6 0.000000 0.000000 0.000000 0.019839 0.000000 0.123162
#
#
# Mechanical properties :
#
#
# Convention : Reuss Voigt Hill
#
# Bulk Modulus (GPa) = 21.41410 46.89133 34.15272
# Shear Modulus (GPa) = 15.87587 28.17228 22.02407
#
# Velocity S-wave (km/s) = 2.74590 3.65786 3.23419
# Velocity P-wave (km/s) = 4.49707 6.33327 5.49244
#
# Compressibility (1/GPa) = 0.04669821
#
# Stress axis : x y z
#
# Youngs Moduli (GPa) = 83.16208 105.08956 24.28708
#
# Poissons Ratio (x) = 0.34952 -0.08037
# Poissons Ratio (y) = 0.27659 0.19408
# Poissons Ratio (z) = -0.27519 0.83980
#
# Static dielectric constant tensor:
#      x y z
#    x 1.816280 0.000000 -0.047160 
#    y 0.000000 1.753030 0.000000 
#    z -0.047160 0.000000 1.795490 
# 
# From -- ./inp_files/232899.got.cif
#   From: 2010.05.17/outbox.cif.g08.bks.cpg/sg12_117_cif.got.tgz:232899.got - 2010.06.03 13:09:07.
