data_PCOD9176050
_publ_section_title
;
Structure prediction by ZEFSAII (Michael W. Deem and Ramdas Pophale) SiO2 
 PCOD9176050
Probable space group: C 2/M
;
_chemical_formula_sum "Si O2"
_cell_formula_units_Z 56
_cell_length_a 16.338817
_cell_length_b 17.510570
_cell_length_c 14.014840
_cell_angle_alpha 90.000000
_cell_angle_beta 130.026566
_cell_angle_gamma 90.000000
_cell_volume 3070.392921
_symmetry_space_group_name_H-M "C 2/M"
_symmetry_group_IT_number 12
_symmetry_cell_setting 'monoclinic'
loop_
_space_group_symop_operation_xyz
x,y,z
-x,y,-z
-x,-y,-z
x,-y,z
1/2+x,1/2+y,z
1/2-x,1/2+y,-z
1/2-x,1/2-y,-z
1/2+x,1/2-y,z
loop_
_atom_site_type_symbol
_atom_site_label
_atom_site_fract_x
_atom_site_fract_y
_atom_site_fract_z
Si Si1 0.811190 0.589022 0.536428
Si Si2 0.157508 0.796207 0.372977
Si Si3 0.750663 0.091715 0.150271
Si Si4 0.041578 0.815105 0.633848
Si Si5 0.531811 0.859617 0.625344
Si Si6 0.621801 0.844946 0.226145
Si Si7 0.899362 0.588739 0.128268
O O1 0.830149 0.500000 0.536069
O O2 0.712939 0.621651 0.402711
O O3 0.803171 0.607180 0.643069
O O4 0.915513 0.637478 0.586883
O O5 0.250000 0.750000 0.500000
O O6 0.136347 0.743936 0.265088
O O7 0.053469 0.809088 0.360079
O O8 0.861253 0.134154 0.255928
O O9 0.661994 0.128512 0.153951
O O10 0.757842 0.000000 0.170487
O O11 0.707442 0.105420 0.010700
O O12 0.073495 0.726172 0.640097
O O13 0.000000 0.843969 0.500000
O O14 0.500000 0.896069 0.500000
O O15 0.604989 0.896831 0.761393
O O16 0.499466 0.866264 0.157745
O O17 0.925718 0.500000 0.133755
#
# Coordination Sequence:
#
# PCOD9176050 Si02
#       7
#     8   8   8   8   8   8   8
#     4  10  19  31  53  81 108 142 188 239 287 331
#     4  10  18  34  53  78 110 151 190 231 282 336
#     4  11  24  36  56  87 119 153 186 231 292 345
#     4  11  21  35  57  82 117 149 187 235 280 337
#     4  10  20  34  57  84 108 145 186 236 283 331
#     4  10  18  34  56  79 111 152 189 232 276 338
#     4  10  20  37  57  83 115 149 191 236 282 338
#
# _framework density 18.238707999999999
#
# number of rings (size 3 to 8) (size 9 to 14) (size 15 to 20)
#    0.000    1.714    4.286    4.714    2.000    3.714 
#    0.000    0.000    0.000    0.000    0.000    0.000 
#    0.000    5.714    0.000    0.000    0.000    0.000 
#
# Total GULP energy -155921.306914 kJ/mol
# GULP energy per Si atom -5568.618104 kJ/mol
# Density = 1.819720 g / cm^3
# Si number density = 18.238708 Si / 1000 Ang^3
#
#
#
# Elastic Constant Matrix: (Units=GPa)
#
#
# Indices 1 2 3 4 5 6 
#
# 1 44.4820 9.6134 34.3294 0.0000 -8.0230 0.0000
# 2 9.6134 73.4351 53.4699 0.0000 4.2749 0.0000
# 3 34.3294 53.4699 128.8605 0.0000 -9.1743 0.0000
# 4 0.0000 0.0000 0.0000 28.2876 0.0000 0.4981
# 5 -8.0230 4.2749 -9.1743 0.0000 25.3207 0.0000
# 6 0.0000 0.0000 0.0000 0.4981 0.0000 12.2256
#
#
#
# Elastic Compliance Matrix: (Units=1/GPa)
#
#
# Indices 1 2 3 4 5 6 
#
# 1 0.029487 0.001701 -0.008126 0.000000 0.006112 0.000000
# 2 0.001701 0.020674 -0.009487 0.000000 -0.006389 0.000000
# 3 -0.008126 -0.009487 0.014158 0.000000 0.004156 0.000000
# 4 0.000000 0.000000 0.000000 0.035377 0.000000 -0.001441
# 5 0.006112 -0.006389 0.004156 0.000000 0.044014 0.000000
# 6 0.000000 0.000000 0.000000 -0.001441 0.000000 0.081855
#
#
# Mechanical properties :
#
#
# Convention : Reuss Voigt Hill
#
# Bulk Modulus (GPa) = 30.77384 49.06699 39.92042
# Shear Modulus (GPa) = 18.64140 23.12443 20.88291
#
# Velocity S-wave (km/s) = 3.20047 3.56459 3.38742
# Velocity P-wave (km/s) = 5.52872 6.62592 6.10203
#
# Compressibility (1/GPa) = 0.03249513
#
# Stress axis : x y z
#
# Youngs Moduli (GPa) = 33.91293 48.36960 70.63354
#
# Poissons Ratio (x) = -0.08228 0.57399
# Poissons Ratio (y) = -0.05769 0.67007
# Poissons Ratio (z) = 0.27559 0.45886
#
# Static dielectric constant tensor:
#      x y z
#    x 1.688930 0.000000 -0.054340 
#    y 0.000000 1.651580 0.000000 
#    z -0.054340 0.000000 1.684370 
# 
# From -- ./inp_files/226580.got.cif
#   From: 2010.05.17/outbox.cif.g08.bks.cpg/sg12_114_cif.got.tgz:226580.got - 2010.06.03 13:09:07.
