data_PCOD9176343
_publ_section_title
;
Structure prediction by ZEFSAII (Michael W. Deem and Ramdas Pophale) SiO2 
 PCOD9176343
Probable space group: C 2/M
;
_chemical_formula_sum "Si O2"
_cell_formula_units_Z 40
_cell_length_a 13.682398
_cell_length_b 15.329880
_cell_length_c 12.195806
_cell_angle_alpha 90.000000
_cell_angle_beta 59.127425
_cell_angle_gamma 90.000000
_cell_volume 2195.613875
_symmetry_space_group_name_H-M "C 2/M"
_symmetry_group_IT_number 12
_symmetry_cell_setting 'monoclinic'
loop_
_space_group_symop_operation_xyz
x,y,z
-x,y,-z
-x,-y,-z
x,-y,z
1/2+x,1/2+y,z
1/2-x,1/2+y,-z
1/2-x,1/2-y,-z
1/2+x,1/2-y,z
loop_
_atom_site_type_symbol
_atom_site_label
_atom_site_fract_x
_atom_site_fract_y
_atom_site_fract_z
Si Si1 0.868240 0.500000 0.106700
Si Si2 0.183549 0.500000 0.602928
Si Si3 0.780247 0.684410 0.155653
Si Si4 0.500000 0.306645 0.000000
Si Si5 0.166329 0.306905 0.622240
Si Si6 0.546453 0.500000 0.595732
Si Si7 0.530170 0.330581 0.224386
O O1 0.847755 0.500000 0.249550
O O2 0.812647 0.588033 0.095906
O O3 0.000000 0.500000 0.000000
O O4 0.142169 0.403937 0.589430
O O5 0.317155 0.500000 0.495713
O O6 0.775541 0.682404 0.291226
O O7 0.657557 0.702407 0.175645
O O8 0.885811 0.747335 0.068180
O O9 0.490466 0.356328 0.890598
O O10 0.250000 0.250000 0.500000
O O11 0.053440 0.250164 0.703548
O O12 0.500000 0.500000 0.500000
O O13 0.501847 0.413394 0.682530
#
# Coordination Sequence:
#
# PCOD9176343 Si02
#       7
#     4   4   8   4   8   4   8
#     4  10  18  34  59  87 123 151 194 258 302 353
#     4  10  20  36  55  84 125 153 200 242 306 363
#     4  10  20  36  58  89 119 157 206 254 305 361
#     4  10  22  40  56  84 124 168 202 247 308 369
#     4  10  20  36  59  89 121 162 194 254 311 358
#     4  12  22  37  62  94 116 151 205 263 311 364
#     4  11  23  37  63  88 122 161 207 256 305 370
#
# _framework density 18.218139000000001
#
# number of rings (size 3 to 8) (size 9 to 14) (size 15 to 20)
#    0.000    1.600    3.000    3.600    0.000    0.400 
#    0.000    0.000    0.000    7.200    0.000    0.000 
#    0.000    0.000    0.000    0.000    0.000    0.000 
#
# Total GULP energy -111514.859150 kJ/mol
# GULP energy per Si atom -5575.742957 kJ/mol
# Density = 1.817667 g / cm^3
# Si number density = 18.218139 Si / 1000 Ang^3
#
#
#
# Elastic Constant Matrix: (Units=GPa)
#
#
# Indices 1 2 3 4 5 6 
#
# 1 125.7813 34.4402 45.6449 0.0000 -9.7413 0.0000
# 2 34.4402 103.9113 37.7138 0.0000 11.9857 0.0000
# 3 45.6449 37.7138 100.3880 0.0000 0.4139 0.0000
# 4 0.0000 0.0000 0.0000 23.9835 0.0000 2.0186
# 5 -9.7413 11.9857 0.4139 0.0000 29.9300 0.0000
# 6 0.0000 0.0000 0.0000 2.0186 0.0000 21.1569
#
#
#
# Elastic Compliance Matrix: (Units=1/GPa)
#
#
# Indices 1 2 3 4 5 6 
#
# 1 0.010369 -0.002586 -0.003761 0.000000 0.004463 0.000000
# 2 -0.002586 0.012401 -0.003459 0.000000 -0.005760 0.000000
# 3 -0.003761 -0.003459 0.012971 0.000000 -0.000018 0.000000
# 4 0.000000 0.000000 0.000000 0.042033 0.000000 -0.004010
# 5 0.004463 -0.005760 -0.000018 0.000000 0.037171 0.000000
# 6 0.000000 0.000000 0.000000 -0.004010 0.000000 0.047648
#
#
# Mechanical properties :
#
#
# Convention : Reuss Voigt Hill
#
# Bulk Modulus (GPa) = 62.00612 62.85316 62.42964
# Shear Modulus (GPa) = 26.65504 29.16620 27.91062
#
# Velocity S-wave (km/s) = 3.82920 4.00552 3.91835
# Velocity P-wave (km/s) = 7.32528 7.48114 7.40362
#
# Compressibility (1/GPa) = 0.01612744
#
# Stress axis : x y z
#
# Youngs Moduli (GPa) = 96.44088 80.64157 77.09413
#
# Poissons Ratio (x) = 0.20856 0.28998
# Poissons Ratio (y) = 0.24942 0.26667
# Poissons Ratio (z) = 0.36276 0.27894
#
# Static dielectric constant tensor:
#      x y z
#    x 1.846380 0.000000 -0.351770 
#    y 0.000000 1.662210 0.000000 
#    z -0.351770 0.000000 2.155750 
# 
# From -- ./inp_files/129653.got.cif
#   From: 2010.05.17/outbox.cif.g08.bks.cpg/sg12_65_cif.got.tgz:129653.got - 2010.06.03 13:09:07.
