data_PCOD9176118
_publ_section_title
;
Structure prediction by ZEFSAII (Michael W. Deem and Ramdas Pophale) SiO2 
 PCOD9176118
Probable space group: C 2/M
;
_chemical_formula_sum "Si O2"
_cell_formula_units_Z 64
_cell_length_a 9.012572
_cell_length_b 19.317731
_cell_length_c 31.355128
_cell_angle_alpha 90.000000
_cell_angle_beta 138.373829
_cell_angle_gamma 90.000000
_cell_volume 3626.240339
_symmetry_space_group_name_H-M "C 2/M"
_symmetry_group_IT_number 12
_symmetry_cell_setting 'monoclinic'
loop_
_space_group_symop_operation_xyz
x,y,z
-x,y,-z
-x,-y,-z
x,-y,z
1/2+x,1/2+y,z
1/2-x,1/2+y,-z
1/2-x,1/2-y,-z
1/2+x,1/2-y,z
loop_
_atom_site_type_symbol
_atom_site_label
_atom_site_fract_x
_atom_site_fract_y
_atom_site_fract_z
Si Si1 0.482852 0.333194 0.308686
Si Si2 0.039996 0.579482 0.704174
Si Si3 0.240531 0.780194 0.045812
Si Si4 0.468056 0.421767 0.223694
Si Si5 0.111310 0.417957 0.570280
Si Si6 0.028524 0.708561 0.256087
Si Si7 0.269639 0.197423 0.869415
Si Si8 0.252361 0.583926 0.436726
O O1 0.414222 0.387992 0.257417
O O2 0.671894 0.370431 0.377186
O O3 0.265289 0.309535 0.286864
O O4 0.564463 0.265511 0.300672
O O5 0.005183 0.500000 0.711616
O O6 0.264173 0.579172 0.724048
O O7 0.067157 0.637318 0.745723
O O8 0.838527 0.601265 0.629653
O O9 0.485894 0.814354 0.099329
O O10 0.228769 0.723726 0.081464
O O11 0.250000 0.750000 0.000000
O O12 0.000000 0.818538 0.000000
O O13 0.389969 0.500000 0.203652
O O14 0.366118 0.372902 0.165708
O O15 0.166758 0.500000 0.588776
O O16 0.000000 0.411795 0.500000
O O17 0.928873 0.396616 0.566590
O O18 0.861660 0.744301 0.186329
O O19 0.500000 0.610173 0.500000
O O20 0.260168 0.500000 0.439544
#
# Coordination Sequence:
#
# PCOD9176118 Si02
#       8
#     8   8   8   8   8   8   8   8
#     4  11  22  37  54  78 110 145 186 233 287 336
#     4  10  20  35  55  81 110 141 184 233 283 337
#     4   9  18  32  56  84 110 141 180 225 260 305
#     4  10  19  34  57  82 112 149 183 227 282 331
#     4  10  21  37  57  79 104 139 187 236 282 338
#     4  11  23  36  56  82 112 148 179 227 283 334
#     4  10  18  34  55  83 113 142 183 222 267 322
#     4   9  18  33  54  76 101 137 179 230 281 329
#
# _framework density 17.649134
#
# number of rings (size 3 to 8) (size 9 to 14) (size 15 to 20)
#    0.000    2.000    1.250    4.125    1.750    1.000 
#    0.000    1.250    0.000    3.750    0.000    3.500 
#    0.000    0.000    0.000    0.000    0.000    0.000 
#
# Total GULP energy -178338.890058 kJ/mol
# GULP energy per Si atom -5573.090314 kJ/mol
# Density = 1.760896 g / cm^3
# Si number density = 17.649134 Si / 1000 Ang^3
#
#
#
# Elastic Constant Matrix: (Units=GPa)
#
#
# Indices 1 2 3 4 5 6 
#
# 1 87.9103 30.4302 24.2862 0.0001 10.6288 -0.0001
# 2 30.4302 89.1435 34.1861 0.0000 -6.9093 -0.0001
# 3 24.2862 34.1861 70.1317 0.0001 12.5865 -0.0002
# 4 0.0001 0.0000 0.0001 6.0283 0.0001 -0.0094
# 5 10.6288 -6.9093 12.5865 0.0001 32.8415 0.0000
# 6 -0.0001 -0.0001 -0.0002 -0.0094 0.0000 12.0132
#
#
#
# Elastic Compliance Matrix: (Units=1/GPa)
#
#
# Indices 1 2 3 4 5 6 
#
# 1 0.013995 -0.004448 -0.001823 0.000000 -0.004766 0.000000
# 2 -0.004448 0.016358 -0.007849 0.000000 0.007889 0.000000
# 3 -0.001823 -0.007849 0.020303 0.000000 -0.008843 0.000000
# 4 0.000000 0.000000 0.000000 0.165885 -0.000001 0.000129
# 5 -0.004766 0.007889 -0.008843 -0.000001 0.037041 0.000000
# 6 0.000000 0.000000 0.000000 0.000129 0.000000 0.083242
#
#
# Mechanical properties :
#
#
# Convention : Reuss Voigt Hill
#
# Bulk Modulus (GPa) = 44.61077 47.22117 45.91597
# Shear Modulus (GPa) = 13.42157 20.72879 17.07518
#
# Velocity S-wave (km/s) = 2.76065 3.43081 3.11381
# Velocity P-wave (km/s) = 5.95759 6.51978 6.24501
#
# Compressibility (1/GPa) = 0.02241611
#
# Stress axis : x y z
#
# Youngs Moduli (GPa) = 71.45598 61.13298 49.25300
#
# Poissons Ratio (x) = 0.27190 0.08978
# Poissons Ratio (y) = 0.31781 0.38660
# Poissons Ratio (z) = 0.13025 0.47985
#
# Static dielectric constant tensor:
#      x y z
#    x 1.624390 0.000000 0.013190 
#    y 0.000000 1.590300 0.000000 
#    z 0.013190 0.000000 1.647010 
# 
# From -- ./inp_files/300799.got.cif
#   From: 2010.05.17/outbox.cif.g08.bks.cpg/sg12_151_cif.got.tgz:300799.got - 2010.06.03 13:09:07.
