data_PCOD9176403
_publ_section_title
;
Structure prediction by ZEFSAII (Michael W. Deem and Ramdas Pophale) SiO2 
 PCOD9176403
Probable space group: C 2/M
;
_chemical_formula_sum "Si O2"
_cell_formula_units_Z 48
_cell_length_a 21.691392
_cell_length_b 17.372153
_cell_length_c 10.040240
_cell_angle_alpha 90.000000
_cell_angle_beta 134.816551
_cell_angle_gamma 90.000000
_cell_volume 2683.837653
_symmetry_space_group_name_H-M "C 2/M"
_symmetry_group_IT_number 12
_symmetry_cell_setting 'monoclinic'
loop_
_space_group_symop_operation_xyz
x,y,z
-x,y,-z
-x,-y,-z
x,-y,z
1/2+x,1/2+y,z
1/2-x,1/2+y,-z
1/2-x,1/2-y,-z
1/2+x,1/2-y,z
loop_
_atom_site_type_symbol
_atom_site_label
_atom_site_fract_x
_atom_site_fract_y
_atom_site_fract_z
Si Si1 0.740210 0.183307 0.375742
Si Si2 0.575146 0.908965 0.224327
Si Si3 0.398372 0.412279 0.184514
Si Si4 0.005187 0.689230 0.361277
Si Si5 0.678993 0.258791 0.007501
Si Si6 0.588690 0.642148 0.492433
O O1 0.750000 0.250000 0.500000
O O2 0.664332 0.126354 0.305464
O O3 0.714036 0.223769 0.197094
O O4 0.830482 0.139664 0.483490
O O5 0.547886 0.864860 0.316750
O O6 0.582159 0.000000 0.256833
O O7 0.500000 0.895272 0.000000
O O8 0.372087 0.500000 0.123405
O O9 0.387859 0.389210 0.324895
O O10 0.501437 0.401614 0.314991
O O11 0.346356 0.348758 0.022338
O O12 0.000000 0.653304 0.500000
O O13 0.060410 0.768241 0.460641
O O14 0.909393 0.714988 0.168498
O O15 0.750000 0.250000 0.000000
#
# Coordination Sequence:
#
# PCOD9176403 Si02
#       6
#     8   8   8   8   8   8
#     4  12  23  38  65  88 120 165 206 247 299 362
#     4  11  25  42  59  88 125 163 206 254 304 359
#     4  10  20  36  62  93 123 151 195 258 306 346
#     4  11  19  38  65  89 120 159 205 248 299 362
#     4  11  21  38  61  92 119 158 205 247 290 370
#     4  10  18  34  60  92 118 156 201 238 296 367
#
# _framework density 17.884837999999998
#
# number of rings (size 3 to 8) (size 9 to 14) (size 15 to 20)
#    0.000    1.167    8.333    1.000    0.000    1.667 
#    0.000    1.667    0.000    1.000    0.000    0.000 
#    0.000    0.000    0.000    0.000    0.000    0.000 
#
# Total GULP energy -134052.372559 kJ/mol
# GULP energy per Si atom -5585.515523 kJ/mol
# Density = 1.784413 g / cm^3
# Si number density = 17.884838 Si / 1000 Ang^3
#
#
#
# Elastic Constant Matrix: (Units=GPa)
#
#
# Indices 1 2 3 4 5 6 
#
# 1 164.7134 52.9726 36.0941 0.0000 3.3514 0.0000
# 2 52.9726 98.1600 26.1182 0.0000 -7.1906 0.0000
# 3 36.0941 26.1182 50.5403 0.0000 -12.8398 0.0000
# 4 0.0000 0.0000 0.0000 16.7042 0.0000 -6.2429
# 5 3.3514 -7.1906 -12.8398 0.0000 31.7661 0.0000
# 6 0.0000 0.0000 0.0000 -6.2429 0.0000 23.5218
#
#
#
# Elastic Compliance Matrix: (Units=1/GPa)
#
#
# Indices 1 2 3 4 5 6 
#
# 1 0.008381 -0.003422 -0.005169 0.000000 -0.003748 0.000000
# 2 -0.003422 0.013210 -0.003936 0.000000 0.001760 0.000000
# 3 -0.005169 -0.003936 0.028333 0.000000 0.011107 0.000000
# 4 0.000000 0.000000 0.000000 0.066457 0.000000 0.017638
# 5 -0.003748 0.001760 0.011107 0.000000 0.036763 0.000000
# 6 0.000000 0.000000 0.000000 0.017638 0.000000 0.047195
#
#
# Mechanical properties :
#
#
# Convention : Reuss Voigt Hill
#
# Bulk Modulus (GPa) = 40.20751 60.42038 50.31394
# Shear Modulus (GPa) = 21.39649 27.61368 24.50508
#
# Velocity S-wave (km/s) = 3.46258 3.93360 3.70558
# Velocity P-wave (km/s) = 6.20613 7.38155 6.81922
#
# Compressibility (1/GPa) = 0.02487097
#
# Stress axis : x y z
#
# Youngs Moduli (GPa) = 119.32341 75.69883 35.29410
#
# Poissons Ratio (x) = 0.25903 0.18244
# Poissons Ratio (y) = 0.40831 0.13891
# Poissons Ratio (z) = 0.61678 0.29793
#
# Static dielectric constant tensor:
#      x y z
#    x 1.611710 0.000000 0.017170 
#    y 0.000000 1.592210 0.000000 
#    z 0.017170 0.000000 1.613380 
# 
# From -- ./inp_files/88171.got.cif
#   From: 2010.05.17/outbox.cif.g08.bks.cpg/sg12_45_cif.got.tgz:88171.got - 2010.06.03 13:09:07.
