data_PCOD9176107
_publ_section_title
;
Structure prediction by ZEFSAII (Michael W. Deem and Ramdas Pophale) SiO2 
 PCOD9176107
Probable space group: C 2/M
;
_chemical_formula_sum "Si O2"
_cell_formula_units_Z 58
_cell_length_a 21.029497
_cell_length_b 12.783274
_cell_length_c 18.284603
_cell_angle_alpha 90.000000
_cell_angle_beta 33.188006
_cell_angle_gamma 90.000000
_cell_volume 2690.616668
_symmetry_space_group_name_H-M "C 2/M"
_symmetry_group_IT_number 12
_symmetry_cell_setting 'monoclinic'
loop_
_space_group_symop_operation_xyz
x,y,z
-x,y,-z
-x,-y,-z
x,-y,z
1/2+x,1/2+y,z
1/2-x,1/2+y,-z
1/2-x,1/2-y,-z
1/2+x,1/2-y,z
loop_
_atom_site_type_symbol
_atom_site_label
_atom_site_fract_x
_atom_site_fract_y
_atom_site_fract_z
Si Si1 0.854329 0.335208 0.308913
Si Si2 0.010800 0.381035 0.378479
Si Si3 0.135164 0.818271 0.303990
Si Si4 0.634171 0.879273 0.866954
Si Si5 0.753787 0.618521 0.563208
Si Si6 0.599289 0.159900 0.131255
Si Si7 0.000000 0.000000 0.500000
Si Si8 0.138050 0.113157 0.140591
O O1 0.824997 0.372333 0.256559
O O2 0.781924 0.375132 0.448943
O O3 0.835230 0.209922 0.331460
O O4 0.986612 0.370352 0.194740
O O5 0.019926 0.500000 0.396375
O O6 0.074211 0.293961 0.365950
O O7 0.075407 0.373357 0.237767
O O8 0.875816 0.358687 0.488139
O O9 0.274255 0.811779 0.174956
O O10 0.095312 0.866507 0.264241
O O11 0.097272 0.906321 0.397384
O O12 0.637466 0.000000 0.889048
O O13 0.500000 0.843798 0.000000
O O14 0.718391 0.500000 0.614522
O O15 0.605465 0.286157 0.125146
O O16 0.722222 0.115438 0.989822
O O17 0.097544 0.000000 0.153647
#
# Coordination Sequence:
#
# PCOD9176107 Si02
#       8
#     8   8   8   8   8   8   2   8
#     4  10  20  35  55  81 114 148 184 230 288 338
#     4   9  19  37  60  85 113 149 190 238 286 342
#     4  11  23  38  58  85 118 152 191 239 286 334
#     4  11  23  39  59  84 114 153 195 234 284 345
#     4   9  19  36  57  84 113 146 187 234 283 344
#     4   9  19  32  55  84 112 141 185 238 287 343
#     4  12  24  40  56  84 124 152 188 248 278 336
#     4  10  18  34  55  81 110 146 186 234 292 340
#
# _framework density 21.556395999999999
#
# number of rings (size 3 to 8) (size 9 to 14) (size 15 to 20)
#    0.000    2.069    1.379    1.655    1.931    3.310 
#    0.000    1.034    0.000    3.310    0.000    0.000 
#    0.000    0.000    0.000    0.000    0.000    0.000 
#
# Total GULP energy -161695.074680 kJ/mol
# GULP energy per Si atom -5575.692230 kJ/mol
# Density = 2.150733 g / cm^3
# Si number density = 21.556396 Si / 1000 Ang^3
#
#
#
# Elastic Constant Matrix: (Units=GPa)
#
#
# Indices 1 2 3 4 5 6 
#
# 1 59.8214 31.7311 14.2910 0.0000 1.9405 -0.0001
# 2 31.7311 153.9538 12.0216 0.0000 -14.3135 0.0000
# 3 14.2910 12.0216 51.3051 0.0000 -10.8874 -0.0001
# 4 0.0000 0.0000 0.0000 16.0934 0.0000 -34.2842
# 5 1.9405 -14.3135 -10.8874 0.0000 18.8937 0.0001
# 6 -0.0001 0.0000 -0.0001 -34.2842 0.0001 227.1603
#
#
#
# Elastic Compliance Matrix: (Units=1/GPa)
#
#
# Indices 1 2 3 4 5 6 
#
# 1 0.021178 -0.004733 -0.006850 0.000000 -0.009708 0.000000
# 2 -0.004733 0.008061 0.000944 0.000000 0.007137 0.000000
# 3 -0.006850 0.000944 0.024472 0.000000 0.015521 0.000000
# 4 0.000000 0.000000 0.000000 0.091583 0.000000 0.013822
# 5 -0.009708 0.007137 0.015521 0.000000 0.068275 0.000000
# 6 0.000000 0.000000 0.000000 0.013822 0.000000 0.006488
#
#
# Mechanical properties :
#
#
# Convention : Reuss Voigt Hill
#
# Bulk Modulus (GPa) = 30.83314 42.35197 36.59256
# Shear Modulus (GPa) = 19.82978 66.23192 43.03085
#
# Velocity S-wave (km/s) = 3.03628 5.54902 4.47273
# Velocity P-wave (km/s) = 5.16009 7.79392 6.60953
#
# Compressibility (1/GPa) = 0.03243264
#
# Stress axis : x y z
#
# Youngs Moduli (GPa) = 47.21839 124.05880 40.86337
#
# Poissons Ratio (x) = 0.58713 0.27993
# Poissons Ratio (y) = 0.22347 -0.03857
# Poissons Ratio (z) = 0.32346 -0.11711
#
# Static dielectric constant tensor:
#      x y z
#    x 1.817130 0.000000 0.009900 
#    y 0.000000 1.780770 0.000000 
#    z 0.009900 0.000000 1.823960 
# 
# From -- ./inp_files/283528.got.cif
#   From: 2010.05.17/outbox.cif.g08.bks.cpg/sg12_142_cif.got.tgz:283528.got - 2010.06.03 13:09:07.
