data_PCOD9176250
_publ_section_title
;
Structure prediction by ZEFSAII (Michael W. Deem and Ramdas Pophale) SiO2 
 PCOD9176250
Probable space group: C 2/M
;
_chemical_formula_sum "Si O2"
_cell_formula_units_Z 48
_cell_length_a 14.739944
_cell_length_b 17.963982
_cell_length_c 8.395920
_cell_angle_alpha 90.000000
_cell_angle_beta 93.947019
_cell_angle_gamma 90.000000
_cell_volume 2217.866605
_symmetry_space_group_name_H-M "C 2/M"
_symmetry_group_IT_number 12
_symmetry_cell_setting 'monoclinic'
loop_
_space_group_symop_operation_xyz
x,y,z
-x,y,-z
-x,-y,-z
x,-y,z
1/2+x,1/2+y,z
1/2-x,1/2+y,-z
1/2-x,1/2-y,-z
1/2+x,1/2-y,z
loop_
_atom_site_type_symbol
_atom_site_label
_atom_site_fract_x
_atom_site_fract_y
_atom_site_fract_z
Si Si1 0.219318 0.369988 0.065987
Si Si2 0.721652 0.081683 0.421577
Si Si3 0.592726 0.648609 0.453603
Si Si4 0.060601 0.417552 0.850211
Si Si5 0.672503 0.290119 0.158357
Si Si6 0.133485 0.698023 0.630760
O O1 0.229676 0.410543 0.233491
O O2 0.162664 0.294035 0.096924
O O3 0.162855 0.416937 0.932256
O O4 0.311197 0.341953 0.992959
O O5 0.820518 0.096862 0.507341
O O6 0.658181 0.146037 0.483974
O O7 0.688071 0.000000 0.462073
O O8 0.500000 0.612136 0.500000
O O9 0.599839 0.678866 0.273786
O O10 0.603482 0.721961 0.566175
O O11 0.038218 0.500000 0.781799
O O12 0.062467 0.349194 0.727578
O O13 0.000000 0.406342 0.000000
O O14 0.770694 0.290929 0.263191
#
# Coordination Sequence:
#
# PCOD9176250 Si02
#       6
#     8   8   8   8   8   8
#     4  10  18  34  58  80 107 146 186 232 266 332
#     4  11  21  37  61  84 110 148 194 232 275 334
#     4  11  22  37  57  86 116 145 185 238 283 330
#     4  10  22  35  50  82 122 151 178 223 288 340
#     4   9  18  35  57  79 108 139 189 229 274 321
#     4  10  19  37  57  80 109 149 193 229 270 328
#
# _framework density 21.642419
#
# number of rings (size 3 to 8) (size 9 to 14) (size 15 to 20)
#    0.000    1.833    3.333    2.000    2.333    0.333 
#    0.000    1.667    0.000    5.000    0.000    0.000 
#    0.000    0.000    0.000    0.000    0.000    0.000 
#
# Total GULP energy -134054.880988 kJ/mol
# GULP energy per Si atom -5585.620041 kJ/mol
# Density = 2.159316 g / cm^3
# Si number density = 21.642419 Si / 1000 Ang^3
#
#
#
# Elastic Constant Matrix: (Units=GPa)
#
#
# Indices 1 2 3 4 5 6 
#
# 1 36.6690 -9.9293 -6.7020 0.0000 -16.2732 0.0000
# 2 -9.9293 65.4573 1.1728 0.0000 3.4139 0.0000
# 3 -6.7020 1.1728 66.8878 0.0000 -18.3355 0.0000
# 4 0.0000 0.0000 0.0000 8.0445 0.0000 -2.3401
# 5 -16.2732 3.4139 -18.3355 0.0000 27.2855 0.0000
# 6 0.0000 0.0000 0.0000 -2.3401 0.0000 12.1418
#
#
#
# Elastic Compliance Matrix: (Units=1/GPa)
#
#
# Indices 1 2 3 4 5 6 
#
# 1 0.048650 0.005084 0.015402 0.000000 0.038729 0.000000
# 2 0.005084 0.015961 0.000629 0.000000 0.001458 0.000000
# 3 0.015402 0.000629 0.023265 0.000000 0.024740 0.000000
# 4 0.000000 0.000000 0.000000 0.131691 0.000000 0.025381
# 5 0.038729 0.001458 0.024740 0.000000 0.076190 0.000000
# 6 0.000000 0.000000 0.000000 0.025381 0.000000 0.087252
#
#
# Mechanical properties :
#
#
# Convention : Reuss Voigt Hill
#
# Bulk Modulus (GPa) = 7.68607 15.34411 11.51509
# Shear Modulus (GPa) = 13.01584 21.79254 17.40419
#
# Velocity S-wave (km/s) = 2.45501 3.17667 2.83887
# Velocity P-wave (km/s) = 3.40518 4.53433 4.00970
#
# Compressibility (1/GPa) = 0.13010549
#
# Stress axis : x y z
#
# Youngs Moduli (GPa) = 20.55502 62.65262 42.98382
#
# Poissons Ratio (x) = -0.31852 -0.66203
# Poissons Ratio (y) = -0.10450 -0.02704
# Poissons Ratio (z) = -0.31659 -0.03942
#
# Static dielectric constant tensor:
#      x y z
#    x 1.818740 0.000000 -0.002930 
#    y 0.000000 1.778600 0.000000 
#    z -0.002930 0.000000 1.814690 
# 
# From -- ./inp_files/61715.got.cif
#   From: 2010.05.17/outbox.cif.g08.bks.cpg/sg12_31_cif.got.tgz:61715.got - 2010.06.03 13:09:07.
