data_PCOD9176574
_publ_section_title
;
Structure prediction by ZEFSAII (Michael W. Deem and Ramdas Pophale) SiO2 
 PCOD9176574
Probable space group: C 2/M
;
_chemical_formula_sum "Si O2"
_cell_formula_units_Z 40
_cell_length_a 14.116187
_cell_length_b 19.442263
_cell_length_c 10.262475
_cell_angle_alpha 90.000000
_cell_angle_beta 134.399099
_cell_angle_gamma 90.000000
_cell_volume 2012.373748
_symmetry_space_group_name_H-M "C 2/M"
_symmetry_group_IT_number 12
_symmetry_cell_setting 'monoclinic'
loop_
_space_group_symop_operation_xyz
x,y,z
-x,y,-z
-x,-y,-z
x,-y,z
1/2+x,1/2+y,z
1/2-x,1/2+y,-z
1/2-x,1/2-y,-z
1/2+x,1/2-y,z
loop_
_atom_site_type_symbol
_atom_site_label
_atom_site_fract_x
_atom_site_fract_y
_atom_site_fract_z
Si Si1 0.383964 0.345169 0.296744
Si Si2 0.627214 0.073833 0.715539
Si Si3 0.597662 0.115756 0.977009
Si Si4 0.210321 0.292967 0.651500
Si Si5 0.972325 0.751660 0.758526
O O1 0.500000 0.374739 0.500000
O O2 0.334703 0.275000 0.317054
O O3 0.447504 0.315302 0.225688
O O4 0.253151 0.390693 0.159535
O O5 0.500000 0.072415 0.500000
O O6 0.581705 0.080999 0.821185
O O7 0.703232 0.141204 0.737882
O O8 0.698012 0.000000 0.768934
O O9 0.564231 0.196437 0.918453
O O10 0.500000 0.093332 0.000000
O O11 0.105269 0.291940 0.429757
O O12 0.355614 0.281417 0.734545
#
# Coordination Sequence:
#
# PCOD9176574 Si02
#       5
#     8   8   8   8   8
#     4  10  20  33  55  90 125 155 190 254 319 357
#     4  11  23  40  61  85 123 169 205 245 293 363
#     4  12  22  36  60  94 123 154 204 250 312 358
#     4  10  18  35  57  87 126 150 196 242 307 361
#     4  10  19  31  56  91 122 153 184 253 310 357
#
# _framework density 19.877025
#
# number of rings (size 3 to 8) (size 9 to 14) (size 15 to 20)
#    0.000    1.400    6.000    1.200    0.000    0.400 
#    0.000    0.000    0.000    3.000    0.000    0.000 
#    0.000    0.000    0.000    0.000    0.000    0.000 
#
# Total GULP energy -111614.176672 kJ/mol
# GULP energy per Si atom -5580.708834 kJ/mol
# Density = 1.983178 g / cm^3
# Si number density = 19.877025 Si / 1000 Ang^3
#
#
#
# Elastic Constant Matrix: (Units=GPa)
#
#
# Indices 1 2 3 4 5 6 
#
# 1 138.2856 18.4417 45.1325 0.0000 -0.8396 0.0000
# 2 18.4417 29.6402 20.1289 0.0000 -14.2772 0.0000
# 3 45.1325 20.1289 112.8296 0.0000 5.4062 0.0000
# 4 0.0000 0.0000 0.0000 -11.0932 0.0000 5.3480
# 5 -0.8396 -14.2772 5.4062 0.0000 33.4697 0.0000
# 6 0.0000 0.0000 0.0000 5.3480 0.0000 6.5498
#
#
#
# Elastic Compliance Matrix: (Units=1/GPa)
#
#
# Indices 1 2 3 4 5 6 
#
# 1 0.008643 -0.004088 -0.002676 0.000000 -0.001095 0.000000
# 2 -0.004088 0.054415 -0.009251 0.000000 0.024604 0.000000
# 3 -0.002676 -0.009251 0.011868 0.000000 -0.005930 0.000000
# 4 0.000000 0.000000 0.000000 -0.064683 0.000000 0.052815
# 5 -0.001095 0.024604 -0.005930 0.000000 0.041303 0.000000
# 6 0.000000 0.000000 0.000000 0.052815 0.000000 0.109552
#
#
# Mechanical properties :
#
#
# Convention : Reuss Voigt Hill
#
# Bulk Modulus (GPa) = 23.31198 49.79573 36.55385
# Shear Modulus (GPa) = 24.10480 18.92207 21.51344
#
# Velocity S-wave (km/s) = 3.48616 3.08873 3.29344
# Velocity P-wave (km/s) = 5.28753 6.15033 5.73518
#
# Compressibility (1/GPa) = 0.04289641
#
# Stress axis : x y z
#
# Youngs Moduli (GPa) = 115.69832 18.37712 84.26185
#
# Poissons Ratio (x) = 0.07513 0.22545
# Poissons Ratio (y) = 0.47298 0.77954
# Poissons Ratio (z) = 0.30956 0.17001
#
# Static dielectric constant tensor:
#      x y z
#    x 1.721970 0.000000 -0.044130 
#    y 0.000000 1.693380 0.000000 
#    z -0.044130 0.000000 1.786810 
# 
# From -- ./inp_files/147312.got.cif
#   From: 2010.05.17/outbox.cif.g08.bks.cpg/sg12_74_cif.got.tgz:147312.got - 2010.06.03 13:09:07.
