data_PCOD9176175
_publ_section_title
;
Structure prediction by ZEFSAII (Michael W. Deem and Ramdas Pophale) SiO2 
 PCOD9176175
Probable space group: C 2/M
;
_chemical_formula_sum "Si O2"
_cell_formula_units_Z 36
_cell_length_a 14.769559
_cell_length_b 11.531213
_cell_length_c 9.991773
_cell_angle_alpha 90.000000
_cell_angle_beta 72.030660
_cell_angle_gamma 90.000000
_cell_volume 1618.701798
_symmetry_space_group_name_H-M "C 2/M"
_symmetry_group_IT_number 12
_symmetry_cell_setting 'monoclinic'
loop_
_space_group_symop_operation_xyz
x,y,z
-x,y,-z
-x,-y,-z
x,-y,z
1/2+x,1/2+y,z
1/2-x,1/2+y,-z
1/2-x,1/2-y,-z
1/2+x,1/2-y,z
loop_
_atom_site_type_symbol
_atom_site_label
_atom_site_fract_x
_atom_site_fract_y
_atom_site_fract_z
Si Si1 0.664614 0.130151 0.929789
Si Si2 0.783171 0.871935 0.422029
Si Si3 0.010752 0.126148 0.288172
Si Si4 0.000000 0.801402 0.000000
Si Si5 0.330596 0.208152 0.772840
O O1 0.657408 0.139823 0.093986
O O2 0.648797 0.000000 0.892320
O O3 0.584955 0.217955 0.914602
O O4 0.765133 0.180613 0.838599
O O5 0.750000 0.750000 0.500000
O O6 0.897470 0.866131 0.358388
O O7 0.727790 0.866515 0.306008
O O8 0.761104 0.000000 0.493667
O O9 0.029404 0.130077 0.118748
O O10 0.070276 0.234130 0.318479
O O11 0.042229 0.000000 0.326103
#
# Coordination Sequence:
#
# PCOD9176175 Si02
#       5
#     8   8   8   4   8
#     4  10  19  32  55  89 129 162 196 251 314 374
#     4  11  25  46  66  90 124 169 215 262 310 368
#     4  10  21  38  63  91 124 162 210 257 308 375
#     4  10  18  34  56  92 124 160 204 244 320 366
#     4  10  21  38  59  90 122 162 208 254 311 370
#
# _framework density 22.240043
#
# number of rings (size 3 to 8) (size 9 to 14) (size 15 to 20)
#    0.000    1.778    2.222    2.000    0.000    2.667 
#    0.000    5.556    0.000    0.000    0.000    0.000 
#    0.000    0.000    0.000    0.000    0.000    0.000 
#
# Total GULP energy -100502.474019 kJ/mol
# GULP energy per Si atom -5583.470779 kJ/mol
# Density = 2.218942 g / cm^3
# Si number density = 22.240043 Si / 1000 Ang^3
#
#
#
# Elastic Constant Matrix: (Units=GPa)
#
#
# Indices 1 2 3 4 5 6 
#
# 1 95.2817 28.1091 1.5915 0.0000 -11.5666 0.0000
# 2 28.1091 153.6222 27.4540 0.0000 -18.2502 0.0000
# 3 1.5915 27.4540 28.8880 0.0000 0.1982 0.0000
# 4 0.0000 0.0000 0.0000 6.2387 0.0000 -5.9669
# 5 -11.5666 -18.2502 0.1982 0.0000 27.4224 0.0000
# 6 0.0000 0.0000 0.0000 -5.9669 0.0000 14.3139
#
#
#
# Elastic Compliance Matrix: (Units=1/GPa)
#
#
# Indices 1 2 3 4 5 6 
#
# 1 0.011464 -0.001873 0.001124 0.000000 0.003581 0.000000
# 2 -0.001873 0.008992 -0.008478 0.000000 0.005255 0.000000
# 3 0.001124 -0.008478 0.042649 0.000000 -0.005477 0.000000
# 4 0.000000 0.000000 0.000000 0.266570 0.000000 0.111122
# 5 0.003581 0.005255 -0.005477 0.000000 0.041514 0.000000
# 6 0.000000 0.000000 0.000000 0.111122 0.000000 0.116184
#
#
# Mechanical properties :
#
#
# Convention : Reuss Voigt Hill
#
# Bulk Modulus (GPa) = 22.39631 43.56679 32.98155
# Shear Modulus (GPa) = 9.60226 24.30416 16.95321
#
# Velocity S-wave (km/s) = 2.08013 3.30936 2.76394
# Velocity P-wave (km/s) = 3.98263 5.85101 5.00478
#
# Compressibility (1/GPa) = 0.04465020
#
# Stress axis : x y z
#
# Youngs Moduli (GPa) = 87.23220 111.21384 23.44694
#
# Poissons Ratio (x) = 0.20831 -0.02635
# Poissons Ratio (y) = 0.16339 0.19879
# Poissons Ratio (z) = -0.09805 0.94289
#
# Static dielectric constant tensor:
#      x y z
#    x 1.847550 0.000000 0.016810 
#    y 0.000000 1.800760 0.000000 
#    z 0.016810 0.000000 1.860060 
# 
# From -- ./inp_files/140134.got.cif
#   From: 2010.05.17/outbox.cif.g08.bks.cpg/sg12_71_cif.got.tgz:140134.got - 2010.06.03 13:09:07.
