data_PCOD9176192
_publ_section_title
;
Structure prediction by ZEFSAII (Michael W. Deem and Ramdas Pophale) SiO2 
 PCOD9176192
Probable space group: C 2/M
;
_chemical_formula_sum "Si O2"
_cell_formula_units_Z 56
_cell_length_a 25.648208
_cell_length_b 8.654274
_cell_length_c 15.492605
_cell_angle_alpha 90.000000
_cell_angle_beta 105.737257
_cell_angle_gamma 90.000000
_cell_volume 3309.938205
_symmetry_space_group_name_H-M "C 2/M"
_symmetry_group_IT_number 12
_symmetry_cell_setting 'monoclinic'
loop_
_space_group_symop_operation_xyz
x,y,z
-x,y,-z
-x,-y,-z
x,-y,z
1/2+x,1/2+y,z
1/2-x,1/2+y,-z
1/2-x,1/2-y,-z
1/2+x,1/2-y,z
loop_
_atom_site_type_symbol
_atom_site_label
_atom_site_fract_x
_atom_site_fract_y
_atom_site_fract_z
Si Si1 0.402884 0.313471 0.783081
Si Si2 0.988347 0.315254 0.093941
Si Si3 0.315919 0.312273 0.890204
Si Si4 0.871945 0.185240 0.091537
Si Si5 0.322883 0.313794 0.599324
Si Si6 0.707288 0.684443 0.603484
Si Si7 0.804576 0.685041 0.217327
O O1 0.408422 0.500000 0.789467
O O2 0.460418 0.237958 0.827081
O O3 0.360511 0.265949 0.839256
O O4 0.374683 0.272125 0.679814
O O5 0.983278 0.500000 0.093457
O O6 0.932722 0.241048 0.101129
O O7 0.000000 0.266887 0.000000
O O8 0.315060 0.500000 0.889115
O O9 0.255832 0.259972 0.837801
O O10 0.335251 0.262002 0.993464
O O11 0.847169 0.250790 0.168057
O O12 0.870847 0.000000 0.093311
O O13 0.316294 0.500000 0.602195
O O14 0.323909 0.271689 0.498842
O O15 0.269055 0.239514 0.615905
O O16 0.706107 0.500000 0.611067
O O17 0.685665 0.759389 0.680984
O O18 0.804859 0.500000 0.215094
#
# Coordination Sequence:
#
# PCOD9176192 Si02
#       7
#     8   8   8   8   8   8   8
#     4  10  18  34  57  79 105 141 180 218 263 313
#     4  11  23  37  53  78 108 140 178 223 268 310
#     4   9  18  32  53  78 107 142 178 213 260 314
#     4  11  22  37  55  77 104 143 187 222 259 314
#     4   9  18  33  53  78 109 141 175 218 268 313
#     4  10  19  31  51  80 110 141 177 216 261 319
#     4  11  21  36  54  77 111 147 177 218 268 316
#
# _framework density 16.918745999999999
#
# number of rings (size 3 to 8) (size 9 to 14) (size 15 to 20)
#    0.000    1.857    2.857    2.143    0.000    1.714 
#    0.000    2.143    0.000    0.857    0.000    6.000 
#    0.000    0.000    0.000    0.000    0.000    0.000 
#
# Total GULP energy -156319.935359 kJ/mol
# GULP energy per Si atom -5582.854834 kJ/mol
# Density = 1.688024 g / cm^3
# Si number density = 16.918746 Si / 1000 Ang^3
#
#
#
# Elastic Constant Matrix: (Units=GPa)
#
#
# Indices 1 2 3 4 5 6 
#
# 1 93.2562 29.3276 69.1762 0.0000 -16.9044 0.0000
# 2 29.3276 35.3456 42.9194 0.0000 -5.0452 0.0000
# 3 69.1762 42.9194 153.1163 0.0000 -8.8736 0.0000
# 4 0.0000 0.0000 0.0000 22.8491 0.0000 -1.2740
# 5 -16.9044 -5.0452 -8.8736 0.0000 25.7739 0.0000
# 6 0.0000 0.0000 0.0000 -1.2740 0.0000 22.1769
#
#
#
# Elastic Compliance Matrix: (Units=1/GPa)
#
#
# Indices 1 2 3 4 5 6 
#
# 1 0.019161 -0.007173 -0.006121 0.000000 0.009056 0.000000
# 2 -0.007173 0.046058 -0.009611 0.000000 0.001002 0.000000
# 3 -0.006121 -0.009611 0.011886 0.000000 -0.001804 0.000000
# 4 0.000000 0.000000 0.000000 0.043906 0.000000 0.002522
# 5 0.009056 0.001002 -0.001804 0.000000 0.044313 0.000000
# 6 0.000000 0.000000 0.000000 0.002522 0.000000 0.045237
#
#
# Mechanical properties :
#
#
# Convention : Reuss Voigt Hill
#
# Bulk Modulus (GPa) = 31.95575 62.72941 47.34258
# Shear Modulus (GPa) = 18.74028 23.51294 21.12661
#
# Velocity S-wave (km/s) = 3.33177 3.73199 3.53754
# Velocity P-wave (km/s) = 5.80773 7.46510 6.68795
#
# Compressibility (1/GPa) = 0.03129327
#
# Stress axis : x y z
#
# Youngs Moduli (GPa) = 52.18866 21.71179 84.13161
#
# Poissons Ratio (x) = 0.15574 0.51500
# Poissons Ratio (y) = 0.37436 0.80863
# Poissons Ratio (z) = 0.31946 0.20868
#
# Static dielectric constant tensor:
#      x y z
#    x 1.531110 0.000000 0.003410 
#    y 0.000000 1.569900 0.000000 
#    z 0.003410 0.000000 1.583870 
# 
# From -- ./inp_files/237459.got.cif
#   From: 2010.05.17/outbox.cif.g08.bks.cpg/sg12_119_cif.got.tgz:237459.got - 2010.06.03 13:09:07.
