data_PCOD9176461
_publ_section_title
;
Structure prediction by ZEFSAII (Michael W. Deem and Ramdas Pophale) SiO2 
 PCOD9176461
Probable space group: C 2/M
;
_chemical_formula_sum "Si O2"
_cell_formula_units_Z 58
_cell_length_a 13.810937
_cell_length_b 28.888633
_cell_length_c 19.472937
_cell_angle_alpha 90.000000
_cell_angle_beta 159.149012
_cell_angle_gamma 90.000000
_cell_volume 2765.392893
_symmetry_space_group_name_H-M "C 2/M"
_symmetry_group_IT_number 12
_symmetry_cell_setting 'monoclinic'
loop_
_space_group_symop_operation_xyz
x,y,z
-x,y,-z
-x,-y,-z
x,-y,z
1/2+x,1/2+y,z
1/2-x,1/2+y,-z
1/2-x,1/2-y,-z
1/2+x,1/2-y,z
loop_
_atom_site_type_symbol
_atom_site_label
_atom_site_fract_x
_atom_site_fract_y
_atom_site_fract_z
Si Si1 0.154882 0.295015 0.980642
Si Si2 0.240033 0.050389 0.102829
Si Si3 0.000000 0.000000 0.500000
Si Si4 0.936092 0.147860 0.652508
Si Si5 0.614539 0.822050 0.688074
Si Si6 0.441121 0.281700 0.380088
Si Si7 0.684377 0.649469 0.027310
Si Si8 0.871470 0.049998 0.554933
O O1 0.367373 0.321082 0.170256
O O2 0.250000 0.250000 0.000000
O O3 0.104588 0.331322 0.886927
O O4 0.884514 0.285224 0.843006
O O5 0.176745 0.094623 0.015646
O O6 0.542393 0.056647 0.334563
O O7 0.242978 0.000000 0.070163
O O8 0.000000 0.050376 0.000000
O O9 0.041292 0.039783 0.466096
O O10 0.644576 0.146153 0.496775
O O11 0.006045 0.095275 0.677654
O O12 0.918954 0.178327 0.571310
O O13 0.501117 0.770076 0.607720
O O14 0.718695 0.835203 0.833078
O O15 0.880223 0.829743 0.817255
O O16 0.500000 0.283990 0.500000
O O17 0.926281 0.000000 0.626954
#
# Coordination Sequence:
#
# PCOD9176461 Si02
#       8
#     8   8   2   8   8   8   8   8
#     4  12  25  42  62  91 135 171 215 269 328 390
#     4  10  18  34  62  96 123 159 211 264 317 377
#     4   8  20  36  66  92 130 170 214 282 328 390
#     4  12  24  40  66  96 124 172 221 266 333 394
#     4  11  22  40  61  90 128 168 215 264 324 391
#     4  12  26  41  63  89 124 172 220 269 321 398
#     4  11  21  38  64  88 130 171 206 267 315 386
#     4   9  20  39  63  94 128 165 215 272 326 387
#
# _framework density 20.973510999999998
#
# number of rings (size 3 to 8) (size 9 to 14) (size 15 to 20)
#    0.414    0.690    4.138    3.310    2.897    0.000 
#    0.000    0.690    0.000    1.655    0.000    4.828 
#    0.000    0.000    0.000    0.000    0.000    0.000 
#
# Total GULP energy -161446.520854 kJ/mol
# GULP energy per Si atom -5567.121409 kJ/mol
# Density = 2.092577 g / cm^3
# Si number density = 20.973511 Si / 1000 Ang^3
#
#
#
# Elastic Constant Matrix: (Units=GPa)
#
#
# Indices 1 2 3 4 5 6 
#
# 1 56.8685 23.9652 19.4151 0.0014 -4.3442 0.0061
# 2 23.9652 167.9665 10.8962 0.0040 -5.7270 0.0002
# 3 19.4151 10.8962 71.0443 -0.0373 -5.2231 0.0265
# 4 0.0014 0.0040 -0.0373 24.6971 -0.0078 6.0057
# 5 -4.3442 -5.7270 -5.2231 -0.0078 23.5150 0.0182
# 6 0.0061 0.0002 0.0265 6.0057 0.0182 18.9476
#
#
#
# Elastic Compliance Matrix: (Units=1/GPa)
#
#
# Indices 1 2 3 4 5 6 
#
# 1 0.020540 -0.002532 -0.005074 -0.000008 0.002051 0.000001
# 2 -0.002532 0.006364 -0.000208 -0.000001 0.001036 0.000000
# 3 -0.005074 -0.000208 0.015678 0.000033 0.002494 -0.000033
# 4 -0.000008 -0.000001 0.000033 0.043872 0.000031 -0.013906
# 5 0.002051 0.001036 0.002494 0.000031 0.043711 -0.000056
# 6 0.000001 0.000000 -0.000033 -0.013906 -0.000056 0.057185
#
#
# Mechanical properties :
#
#
# Convention : Reuss Voigt Hill
#
# Bulk Modulus (GPa) = 37.10020 44.93693 41.01857
# Shear Modulus (GPa) = 23.58908 29.53878 26.56393
#
# Velocity S-wave (km/s) = 3.35730 3.75692 3.56272
# Velocity P-wave (km/s) = 5.72330 6.34754 6.04349
#
# Compressibility (1/GPa) = 0.02695403
#
# Stress axis : x y z
#
# Youngs Moduli (GPa) = 48.68475 157.14422 63.78472
#
# Poissons Ratio (x) = 0.39782 0.32366
# Poissons Ratio (y) = 0.12325 0.01327
# Poissons Ratio (z) = 0.24704 0.03269
#
# Static dielectric constant tensor:
#      x y z
#    x 1.722800 -0.000040 0.035720 
#    y -0.000040 1.817860 0.000030 
#    z 0.035720 0.000030 1.753740 
# 
# From -- ./inp_files/312868.got.cif
#   From: 2010.05.17/outbox.cif.g08.bks.cpg/sg12_157_cif.got.tgz:312868.got - 2010.06.03 13:09:07.
