data_PCOD9176212
_publ_section_title
;
Structure prediction by ZEFSAII (Michael W. Deem and Ramdas Pophale) SiO2 
 PCOD9176212
Probable space group: C 2/M
;
_chemical_formula_sum "Si O2"
_cell_formula_units_Z 50
_cell_length_a 25.495855
_cell_length_b 7.330666
_cell_length_c 14.735291
_cell_angle_alpha 90.000000
_cell_angle_beta 125.117044
_cell_angle_gamma 90.000000
_cell_volume 2252.753582
_symmetry_space_group_name_H-M "C 2/M"
_symmetry_group_IT_number 12
_symmetry_cell_setting 'monoclinic'
loop_
_space_group_symop_operation_xyz
x,y,z
-x,y,-z
-x,-y,-z
x,-y,z
1/2+x,1/2+y,z
1/2-x,1/2+y,-z
1/2-x,1/2-y,-z
1/2+x,1/2-y,z
loop_
_atom_site_type_symbol
_atom_site_label
_atom_site_fract_x
_atom_site_fract_y
_atom_site_fract_z
Si Si1 0.436483 0.719364 0.989783
Si Si2 0.390109 0.718713 0.333246
Si Si3 0.000000 0.500000 0.500000
Si Si4 0.553490 0.278730 0.794559
Si Si5 0.652972 0.213178 0.260789
Si Si6 0.413488 0.293490 0.626586
Si Si7 0.203655 0.779676 0.609133
O O1 0.440268 0.500000 0.996434
O O2 0.434269 0.784983 0.091184
O O3 0.500000 0.785109 0.000000
O O4 0.375702 0.766981 0.867859
O O5 0.402488 0.500000 0.354959
O O6 0.395125 0.764283 0.231569
O O7 0.323314 0.756895 0.317343
O O8 0.444243 0.839710 0.434537
O O9 0.548624 0.500000 0.794305
O O10 0.483966 0.209000 0.690336
O O11 0.605153 0.299685 0.286139
O O12 0.725027 0.287964 0.338984
O O13 0.653830 0.000000 0.284585
O O14 0.419626 0.500000 0.597175
O O15 0.352085 0.213181 0.514202
O O16 0.207474 0.000000 0.602678
#
# Coordination Sequence:
#
# PCOD9176212 Si02
#       7
#     8   8   2   8   8   8   8
#     4  10  19  37  59  81 108 147 197 244 288 349
#     4  10  21  41  60  84 125 160 192 249 294 340
#     4  12  22  36  60  98 118 156 208 232 288 366
#     4   9  18  35  63  84 107 150 198 235 297 350
#     4  11  22  36  53  85 117 152 192 236 297 352
#     4  10  18  34  57  83 109 150 192 232 284 354
#     4   9  20  38  59  78 116 162 194 224 291 365
#
# _framework density 22.195058
#
# number of rings (size 3 to 8) (size 9 to 14) (size 15 to 20)
#    0.000    2.080    1.600    2.160    0.000    2.880 
#   10.080    0.800    0.000    0.000    0.000    0.000 
#    0.000    0.000    0.000    0.000    0.000    0.000 
#
# Total GULP energy -139409.931989 kJ/mol
# GULP energy per Si atom -5576.397280 kJ/mol
# Density = 2.214454 g / cm^3
# Si number density = 22.195058 Si / 1000 Ang^3
#
#
#
# Elastic Constant Matrix: (Units=GPa)
#
#
# Indices 1 2 3 4 5 6 
#
# 1 57.8313 -3.6016 10.2977 0.0000 -15.4599 0.0000
# 2 -3.6016 100.6571 -15.4461 0.0000 -1.1789 0.0000
# 3 10.2977 -15.4461 91.0441 0.0000 -14.4901 0.0000
# 4 0.0000 0.0000 0.0000 7.2779 0.0000 8.2425
# 5 -15.4599 -1.1789 -14.4901 0.0000 29.8864 0.0000
# 6 0.0000 0.0000 0.0000 8.2425 0.0000 -6.1782
#
#
#
# Elastic Compliance Matrix: (Units=1/GPa)
#
#
# Indices 1 2 3 4 5 6 
#
# 1 0.020160 0.000760 -0.000527 0.000000 0.010203 0.000000
# 2 0.000760 0.010279 0.001934 0.000000 0.001736 0.000000
# 3 -0.000527 0.001934 0.012288 0.000000 0.005761 0.000000
# 4 0.000000 0.000000 0.000000 0.054721 0.000000 0.073005
# 5 0.010203 0.001736 0.005761 0.000000 0.041600 0.000000
# 6 0.000000 0.000000 0.000000 0.073005 0.000000 -0.064461
#
#
# Mechanical properties :
#
#
# Convention : Reuss Voigt Hill
#
# Bulk Modulus (GPa) = 21.24884 25.78139 23.51512
# Shear Modulus (GPa) = 58.17930 23.41607 40.79768
#
# Velocity S-wave (km/s) = 5.12539 3.25162 4.29201
# Velocity P-wave (km/s) = 6.67987 5.07330 5.93123
#
# Compressibility (1/GPa) = 0.04706139
#
# Stress axis : x y z
#
# Youngs Moduli (GPa) = 49.60209 97.28513 81.37713
#
# Poissons Ratio (x) = -0.07393 0.04293
# Poissons Ratio (y) = -0.03769 -0.15741
# Poissons Ratio (z) = 0.02617 -0.18818
#
# Static dielectric constant tensor:
#      x y z
#    x 1.806920 0.000000 -0.041200 
#    y 0.000000 1.883120 0.000000 
#    z -0.041200 0.000000 1.814310 
# 
# From -- ./inp_files/237262.got.cif
#   From: 2010.05.17/outbox.cif.g08.bks.cpg/sg12_119_cif.got.tgz:237262.got - 2010.06.03 13:09:07.
