data_PCOD9176815
_publ_section_title
;
Structure prediction by ZEFSAII (Michael W. Deem and Ramdas Pophale) SiO2 
 PCOD9176815
Probable space group: C 2/M
;
_chemical_formula_sum "Si O2"
_cell_formula_units_Z 56
_cell_length_a 32.807758
_cell_length_b 17.217134
_cell_length_c 9.212437
_cell_angle_alpha 90.000000
_cell_angle_beta 41.866475
_cell_angle_gamma 90.000000
_cell_volume 3472.930936
_symmetry_space_group_name_H-M "C 2/M"
_symmetry_group_IT_number 12
_symmetry_cell_setting 'monoclinic'
loop_
_space_group_symop_operation_xyz
x,y,z
-x,y,-z
-x,-y,-z
x,-y,z
1/2+x,1/2+y,z
1/2-x,1/2+y,-z
1/2-x,1/2-y,-z
1/2+x,1/2-y,z
loop_
_atom_site_type_symbol
_atom_site_label
_atom_site_fract_x
_atom_site_fract_y
_atom_site_fract_z
Si Si1 0.842742 0.759383 0.146013
Si Si2 0.669232 0.816143 0.274916
Si Si3 0.293878 0.412012 0.409917
Si Si4 0.834141 0.373988 0.399079
Si Si5 0.437120 0.000000 0.081661
Si Si6 0.259194 0.679607 0.779729
Si Si7 0.936515 0.500000 0.750310
Si Si8 0.426776 0.171565 0.701136
O O1 0.834686 0.848101 0.217106
O O2 0.844093 0.707113 0.287791
O O3 0.782283 0.735298 0.214137
O O4 0.897676 0.730860 0.895885
O O5 0.673986 0.865446 0.407779
O O6 0.690815 0.731137 0.270206
O O7 0.603289 0.812845 0.375386
O O8 0.714094 0.846312 0.028553
O O9 0.316595 0.500000 0.341932
O O10 0.226366 0.408441 0.515941
O O11 0.285126 0.383703 0.599909
O O12 0.893626 0.426457 0.221951
O O13 0.500000 0.000000 0.000000
O O14 0.453403 0.000000 0.871627
O O15 0.906142 0.583055 0.796951
O O16 0.000000 0.500000 0.500000
O O17 0.500000 0.175284 0.500000
#
# Coordination Sequence:
#
# PCOD9176815 Si02
#       8
#     8   8   8   8   4   8   4   8
#     4  10  18  36  57  75 109 146 186 226 276 339
#     4  10  19  32  55  76 107 143 181 223 269 320
#     4  11  20  35  55  82 110 143 185 230 287 331
#     4  11  20  34  53  78 113 151 183 224 269 322
#     4  12  26  36  52  82 120 152 193 227 258 322
#     4   9  18  34  54  78 107 142 177 226 279 334
#     4  10  22  40  50  74 114 156 190 222 266 319
#     4  10  22  36  56  76 109 150 187 220 276 336
#
# _framework density 16.124708999999999
#
# number of rings (size 3 to 8) (size 9 to 14) (size 15 to 20)
#    0.000    1.714    5.000    0.857    4.000    0.000 
#    1.286    0.000    0.000    0.429    0.000    1.000 
#    0.000    0.000    0.000    0.000    0.000    0.000 
#
# Total GULP energy -156007.466127 kJ/mol
# GULP energy per Si atom -5571.695219 kJ/mol
# Density = 1.608801 g / cm^3
# Si number density = 16.124709 Si / 1000 Ang^3
#
#
#
# Elastic Constant Matrix: (Units=GPa)
#
#
# Indices 1 2 3 4 5 6 
#
# 1 111.2094 36.1782 39.0440 0.0000 6.5681 0.0000
# 2 36.1782 118.4407 47.1244 0.0000 1.8764 0.0000
# 3 39.0440 47.1244 77.8662 0.0000 16.9506 0.0000
# 4 0.0000 0.0000 0.0000 15.5420 0.0000 -1.6503
# 5 6.5681 1.8764 16.9506 0.0000 34.2929 0.0000
# 6 0.0000 0.0000 0.0000 -1.6503 0.0000 10.0476
#
#
#
# Elastic Compliance Matrix: (Units=1/GPa)
#
#
# Indices 1 2 3 4 5 6 
#
# 1 0.011128 -0.001527 -0.004718 0.000000 0.000284 0.000000
# 2 -0.001527 0.011622 -0.006940 0.000000 0.003087 0.000000
# 3 -0.004718 -0.006940 0.021435 0.000000 -0.009312 0.000000
# 4 0.000000 0.000000 0.000000 0.065484 0.000000 0.010755
# 5 0.000284 0.003087 -0.009312 0.000000 0.033540 0.000000
# 6 0.000000 0.000000 0.000000 0.010755 0.000000 0.101293
#
#
# Mechanical properties :
#
#
# Convention : Reuss Voigt Hill
#
# Bulk Modulus (GPa) = 56.12800 61.35660 58.74230
# Shear Modulus (GPa) = 18.06295 24.32114 21.19205
#
# Velocity S-wave (km/s) = 3.35058 3.88792 3.62920
# Velocity P-wave (km/s) = 7.06065 7.63469 7.35327
#
# Compressibility (1/GPa) = 0.01781642
#
# Stress axis : x y z
#
# Youngs Moduli (GPa) = 89.86109 86.04641 46.65185
#
# Poissons Ratio (x) = 0.13135 0.22010
# Poissons Ratio (y) = 0.13717 0.32376
# Poissons Ratio (z) = 0.42397 0.59715
#
# Static dielectric constant tensor:
#      x y z
#    x 1.527860 0.000000 0.005640 
#    y 0.000000 1.346210 0.000000 
#    z 0.005640 0.000000 1.551440 
# 
# From -- ./inp_files/111596.got.cif
#   From: 2010.05.17/outbox.cif.g08.bks.cpg/sg12_56_cif.got.tgz:111596.got - 2010.06.03 13:09:07.
