data_PCOD9176278
_publ_section_title
;
Structure prediction by ZEFSAII (Michael W. Deem and Ramdas Pophale) SiO2 
 PCOD9176278
Probable space group: C 2/M
;
_chemical_formula_sum "Si O2"
_cell_formula_units_Z 64
_cell_length_a 18.523332
_cell_length_b 16.458167
_cell_length_c 14.729181
_cell_angle_alpha 90.000000
_cell_angle_beta 133.477212
_cell_angle_gamma 90.000000
_cell_volume 3258.406257
_symmetry_space_group_name_H-M "C 2/M"
_symmetry_group_IT_number 12
_symmetry_cell_setting 'monoclinic'
loop_
_space_group_symop_operation_xyz
x,y,z
-x,y,-z
-x,-y,-z
x,-y,z
1/2+x,1/2+y,z
1/2-x,1/2+y,-z
1/2-x,1/2-y,-z
1/2+x,1/2-y,z
loop_
_atom_site_type_symbol
_atom_site_label
_atom_site_fract_x
_atom_site_fract_y
_atom_site_fract_z
Si Si1 0.404265 0.906453 0.768500
Si Si2 0.435997 0.260825 0.267796
Si Si3 0.154163 0.699294 0.447856
Si Si4 0.158456 0.912206 0.909758
Si Si5 0.388969 0.150415 0.388097
Si Si6 0.191860 0.909491 0.151706
Si Si7 0.369785 0.856087 0.052180
Si Si8 0.882011 0.737652 0.885860
O O1 0.367837 0.876415 0.638296
O O2 0.525023 0.898757 0.879045
O O3 0.363067 0.836041 0.799727
O O4 0.376881 0.000000 0.764454
O O5 0.554465 0.254174 0.357488
O O6 0.395634 0.345005 0.196293
O O7 0.406119 0.231861 0.342614
O O8 0.389195 0.194152 0.159949
O O9 0.250000 0.750000 0.500000
O O10 0.157045 0.669369 0.553759
O O11 0.113981 0.000000 0.853177
O O12 0.157292 0.898658 0.017433
O O13 0.274557 0.910950 0.983873
O O14 0.500000 0.115818 0.500000
O O15 0.311145 0.095575 0.266123
O O16 0.154556 0.827802 0.169410
O O17 0.159045 0.000000 0.153359
O O18 0.342651 0.792895 0.948755
O O19 0.000000 0.744062 0.000000
#
# Coordination Sequence:
#
# PCOD9176278 Si02
#       8
#     8   8   8   8   8   8   8   8
#     4  10  22  38  59  87 117 153 203 253 304 365
#     4  10  19  37  61  84 120 159 200 250 310 369
#     4  10  22  40  62  83 112 160 212 257 302 360
#     4  11  21  33  57  92 124 154 194 242 309 377
#     4  10  21  38  60  86 113 158 208 254 305 360
#     4  11  22  36  57  89 124 160 202 247 299 369
#     4  10  18  34  58  85 120 155 189 239 310 364
#     4  10  21  36  59  84 121 163 196 241 303 373
#
# _framework density 19.641504000000001
#
# number of rings (size 3 to 8) (size 9 to 14) (size 15 to 20)
#    0.000    1.750    2.500    2.250    0.000    3.750 
#    0.000    0.625    0.000    3.375    0.000    0.000 
#    0.000    0.000    0.000    0.000    0.000    0.000 
#
# Total GULP energy -178511.216331 kJ/mol
# GULP energy per Si atom -5578.475510 kJ/mol
# Density = 1.959680 g / cm^3
# Si number density = 19.641504 Si / 1000 Ang^3
#
#
#
# Elastic Constant Matrix: (Units=GPa)
#
#
# Indices 1 2 3 4 5 6 
#
# 1 55.7242 33.6799 18.0410 0.0000 -12.6126 0.0000
# 2 33.6799 153.9583 43.3302 0.0000 -0.7726 0.0000
# 3 18.0410 43.3302 82.2599 0.0000 -9.6400 0.0000
# 4 0.0000 0.0000 0.0000 12.9535 0.0000 -1.3680
# 5 -12.6126 -0.7726 -9.6400 0.0000 23.5815 0.0000
# 6 0.0000 0.0000 0.0000 -1.3680 0.0000 16.0136
#
#
#
# Elastic Compliance Matrix: (Units=1/GPa)
#
#
# Indices 1 2 3 4 5 6 
#
# 1 0.024042 -0.004832 -0.001301 0.000000 0.012168 0.000000
# 2 -0.004832 0.008645 -0.003953 0.000000 -0.003917 0.000000
# 3 -0.001301 -0.003953 0.015154 0.000000 0.005369 0.000000
# 4 0.000000 0.000000 0.000000 0.077902 0.000000 0.006655
# 5 0.012168 -0.003917 0.005369 0.000000 0.050981 0.000000
# 6 0.000000 0.000000 0.000000 0.006655 0.000000 0.063016
#
#
# Mechanical properties :
#
#
# Convention : Reuss Voigt Hill
#
# Bulk Modulus (GPa) = 36.14406 53.56048 44.85227
# Shear Modulus (GPa) = 18.57806 23.63580 21.10693
#
# Velocity S-wave (km/s) = 3.07882 3.47271 3.28168
# Velocity P-wave (km/s) = 5.57500 6.58846 6.10281
#
# Compressibility (1/GPa) = 0.02766706
#
# Stress axis : x y z
#
# Youngs Moduli (GPa) = 41.59471 115.67064 65.99107
#
# Poissons Ratio (x) = 0.55892 0.08589
# Poissons Ratio (y) = 0.20098 0.26087
# Poissons Ratio (z) = 0.05413 0.45727
#
# Static dielectric constant tensor:
#      x y z
#    x 1.733220 0.000000 -0.002800 
#    y 0.000000 1.690260 0.000000 
#    z -0.002800 0.000000 1.710960 
# 
# From -- ./inp_files/225773.got.cif
#   From: 2010.05.17/outbox.cif.g08.bks.cpg/sg12_113_cif.got.tgz:225773.got - 2010.06.03 13:09:07.
