data_PCOD9176762
_publ_section_title
;
Structure prediction by ZEFSAII (Michael W. Deem and Ramdas Pophale) SiO2 
 PCOD9176762
Probable space group: C 2/M
;
_chemical_formula_sum "Si O2"
_cell_formula_units_Z 48
_cell_length_a 8.287009
_cell_length_b 22.424092
_cell_length_c 11.823120
_cell_angle_alpha 90.000000
_cell_angle_beta 87.901245
_cell_angle_gamma 90.000000
_cell_volume 2195.600635
_symmetry_space_group_name_H-M "C 2/M"
_symmetry_group_IT_number 12
_symmetry_cell_setting 'monoclinic'
loop_
_space_group_symop_operation_xyz
x,y,z
-x,y,-z
-x,-y,-z
x,-y,z
1/2+x,1/2+y,z
1/2-x,1/2+y,-z
1/2-x,1/2-y,-z
1/2+x,1/2-y,z
loop_
_atom_site_type_symbol
_atom_site_label
_atom_site_fract_x
_atom_site_fract_y
_atom_site_fract_z
Si Si1 0.843502 0.662898 0.296812
Si Si2 0.077705 0.831737 0.883815
Si Si3 0.314155 0.566483 0.262028
Si Si4 0.192420 0.433401 0.517361
Si Si5 0.472392 0.932392 0.133868
Si Si6 0.868466 0.730492 0.784292
O O1 0.782493 0.620841 0.398165
O O2 0.737738 0.721614 0.280688
O O3 0.859571 0.619034 0.188081
O O4 0.026031 0.689101 0.301154
O O5 0.071688 0.882443 0.789065
O O6 0.262204 0.809397 0.871871
O O7 0.982654 0.772087 0.855360
O O8 0.000000 0.855384 0.000000
O O9 0.379828 0.500000 0.242773
O O10 0.278213 0.574879 0.395015
O O11 0.142656 0.568687 0.198413
O O12 0.236213 0.500000 0.560038
O O13 0.000000 0.434694 0.500000
O O14 0.407734 0.000000 0.151474
O O15 0.500000 0.923572 0.000000
#
# Coordination Sequence:
#
# PCOD9176762 Si02
#       6
#     8   8   8   8   8   8
#     4  11  21  40  62  90 121 162 201 248 302 355
#     4  11  22  40  61  85 119 164 202 243 298 361
#     4  10  21  39  61  91 122 155 197 247 304 361
#     4  10  18  35  66  92 116 155 203 249 297 362
#     4  10  20  34  60  91 121 151 197 253 298 349
#     4  10  24  39  58  89 122 158 207 248 293 351
#
# _framework density 21.861899999999999
#
# number of rings (size 3 to 8) (size 9 to 14) (size 15 to 20)
#    0.000    1.667    3.333    1.000    2.333    3.000 
#    0.000   11.667    0.000    2.000    0.000    0.000 
#    0.000    0.000    0.000    0.000    0.000    0.000 
#
# Total GULP energy -134028.089466 kJ/mol
# GULP energy per Si atom -5584.503728 kJ/mol
# Density = 2.181214 g / cm^3
# Si number density = 21.861900 Si / 1000 Ang^3
#
#
#
# Elastic Constant Matrix: (Units=GPa)
#
#
# Indices 1 2 3 4 5 6 
#
# 1 29.3917 18.6517 16.4324 0.0000 -12.0800 0.0000
# 2 18.6517 157.3200 73.3799 0.0000 -25.1657 0.0000
# 3 16.4324 73.3799 128.9954 0.0000 -17.4811 0.0000
# 4 0.0000 0.0000 0.0000 5.3765 0.0000 35.9585
# 5 -12.0800 -25.1657 -17.4811 0.0000 18.9291 0.0000
# 6 0.0000 0.0000 0.0000 35.9585 0.0000 -0.2976
#
#
#
# Elastic Compliance Matrix: (Units=1/GPa)
#
#
# Indices 1 2 3 4 5 6 
#
# 1 0.046652 -0.000114 -0.002131 0.000000 0.027653 0.000000
# 2 -0.000114 0.009844 -0.004368 0.000000 0.008981 0.000000
# 3 -0.002131 -0.004368 0.010902 0.000000 0.002900 0.000000
# 4 0.000000 0.000000 0.000000 0.000230 0.000000 0.027775
# 5 0.027653 0.008981 0.002900 0.000000 0.085094 0.000000
# 6 0.000000 0.000000 0.000000 0.027775 0.000000 -0.004153
#
#
# Mechanical properties :
#
#
# Convention : Reuss Voigt Hill
#
# Bulk Modulus (GPa) = 18.45971 59.18167 38.82069
# Shear Modulus (GPa) = 27.80076 18.61783 23.20929
#
# Velocity S-wave (km/s) = 3.56989 2.92140 3.26180
# Velocity P-wave (km/s) = 5.04523 6.20556 5.65523
#
# Compressibility (1/GPa) = 0.05417204
#
# Stress axis : x y z
#
# Youngs Moduli (GPa) = 21.43539 101.58351 91.72907
#
# Poissons Ratio (x) = 0.01154 0.19545
# Poissons Ratio (y) = 0.00244 0.40071
# Poissons Ratio (z) = 0.04567 0.44375
#
# Static dielectric constant tensor:
#      x y z
#    x 1.872980 0.000000 -0.001380 
#    y 0.000000 1.789400 0.000000 
#    z -0.001380 0.000000 1.770600 
# 
# From -- ./inp_files/122035.got.cif
#   From: 2010.05.17/outbox.cif.g08.bks.cpg/sg12_62_cif.got.tgz:122035.got - 2010.06.03 13:09:07.
