data_PCOD9176300
_publ_section_title
;
Structure prediction by ZEFSAII (Michael W. Deem and Ramdas Pophale) SiO2 
 PCOD9176300
Probable space group: C 2/M
;
_chemical_formula_sum "Si O2"
_cell_formula_units_Z 52
_cell_length_a 21.132029
_cell_length_b 17.753479
_cell_length_c 16.937976
_cell_angle_alpha 90.000000
_cell_angle_beta 152.308371
_cell_angle_gamma 90.000000
_cell_volume 2953.049371
_symmetry_space_group_name_H-M "C 2/M"
_symmetry_group_IT_number 12
_symmetry_cell_setting 'monoclinic'
loop_
_space_group_symop_operation_xyz
x,y,z
-x,y,-z
-x,-y,-z
x,-y,z
1/2+x,1/2+y,z
1/2-x,1/2+y,-z
1/2-x,1/2-y,-z
1/2+x,1/2-y,z
loop_
_atom_site_type_symbol
_atom_site_label
_atom_site_fract_x
_atom_site_fract_y
_atom_site_fract_z
Si Si1 0.798643 0.586960 0.501296
Si Si2 0.340885 0.769080 0.459859
Si Si3 0.500000 0.311091 0.500000
Si Si4 0.525997 0.333148 0.263264
Si Si5 0.973009 0.739897 0.884089
Si Si6 0.142250 0.912908 0.791048
Si Si7 0.044645 0.584607 0.898887
O O1 0.780169 0.500000 0.459191
O O2 0.832062 0.641994 0.465373
O O3 0.660652 0.619437 0.388480
O O4 0.923440 0.591429 0.701190
O O5 0.401628 0.740325 0.444891
O O6 0.428796 0.733357 0.627644
O O7 0.189469 0.737163 0.304850
O O8 0.583514 0.363134 0.653856
O O9 0.471530 0.292978 0.124270
O O10 0.422435 0.383134 0.199120
O O11 0.030035 0.655640 0.940085
O O12 0.000000 0.772234 0.000000
O O13 0.103087 0.000000 0.735287
O O14 0.305592 0.908878 0.973292
O O15 0.034796 0.500000 0.923283
#
# Coordination Sequence:
#
# PCOD9176300 Si02
#       7
#     8   8   4   8   8   8   8
#     4  10  18  34  59  78 102 141 183 221 262 311
#     4  10  19  37  54  79 108 141 184 220 258 326
#     4  10  21  36  55  80 108 146 172 218 273 316
#     4  10  19  36  57  79 104 146 185 214 261 320
#     4  11  20  34  54  81 110 139 179 227 266 311
#     4  10  21  36  55  81 113 139 175 218 267 325
#     4  10  20  34  52  82 110 137 174 222 270 315
#
# _framework density 17.608917000000002
#
# number of rings (size 3 to 8) (size 9 to 14) (size 15 to 20)
#    0.000    1.846    3.077    2.538    0.000    0.923 
#    2.769    1.154    0.000   11.538    0.000    0.000 
#    0.000    0.000    0.000    0.000    0.000    0.000 
#
# Total GULP energy -145005.339468 kJ/mol
# GULP energy per Si atom -5577.128441 kJ/mol
# Density = 1.756884 g / cm^3
# Si number density = 17.608917 Si / 1000 Ang^3
#
#
#
# Elastic Constant Matrix: (Units=GPa)
#
#
# Indices 1 2 3 4 5 6 
#
# 1 112.4065 72.6740 23.8563 0.0001 -14.9980 0.0001
# 2 72.6740 132.4828 20.8304 0.0001 -2.7810 0.0001
# 3 23.8563 20.8304 37.9329 0.0002 -6.7566 0.0002
# 4 0.0001 0.0001 0.0002 6.6051 0.0001 4.2683
# 5 -14.9980 -2.7810 -6.7566 0.0001 27.4347 0.0001
# 6 0.0001 0.0001 0.0002 4.2683 0.0001 16.0443
#
#
#
# Elastic Compliance Matrix: (Units=1/GPa)
#
#
# Indices 1 2 3 4 5 6 
#
# 1 0.015799 -0.007828 -0.004435 0.000000 0.006751 0.000000
# 2 -0.007828 0.012142 -0.002393 0.000000 -0.003638 0.000000
# 3 -0.004435 -0.002393 0.031367 -0.000001 0.005058 0.000000
# 4 0.000000 0.000000 -0.000001 0.182828 -0.000001 -0.048638
# 5 0.006751 -0.003638 0.005058 -0.000001 0.041018 0.000000
# 6 0.000000 0.000000 0.000000 -0.048638 0.000000 0.075267
#
#
# Mechanical properties :
#
#
# Convention : Reuss Voigt Hill
#
# Bulk Modulus (GPa) = 33.33719 57.50483 45.42101
# Shear Modulus (GPa) = 12.57135 21.04759 16.80947
#
# Velocity S-wave (km/s) = 2.67483 3.46103 3.09301
# Velocity P-wave (km/s) = 5.33973 6.97848 6.21337
#
# Compressibility (1/GPa) = 0.02999652
#
# Stress axis : x y z
#
# Youngs Moduli (GPa) = 63.29452 82.35968 31.88113
#
# Poissons Ratio (x) = 0.64468 0.14140
# Poissons Ratio (y) = 0.49545 0.07628
# Poissons Ratio (z) = 0.28073 0.19706
#
# Static dielectric constant tensor:
#      x y z
#    x 1.586180 0.000000 0.002850 
#    y 0.000000 1.606650 0.000000 
#    z 0.002850 0.000000 1.601960 
# 
# From -- ./inp_files/234490.got.cif
#   From: 2010.05.17/outbox.cif.g08.bks.cpg/sg12_118_cif.got.tgz:234490.got - 2010.06.03 13:09:07.
