data_PCOD9176362
_publ_section_title
;
Structure prediction by ZEFSAII (Michael W. Deem and Ramdas Pophale) SiO2 
 PCOD9176362
Probable space group: C 2/M
;
_chemical_formula_sum "Si O2"
_cell_formula_units_Z 64
_cell_length_a 20.169465
_cell_length_b 7.417838
_cell_length_c 24.591198
_cell_angle_alpha 90.000000
_cell_angle_beta 130.218588
_cell_angle_gamma 90.000000
_cell_volume 2809.374921
_symmetry_space_group_name_H-M "C 2/M"
_symmetry_group_IT_number 12
_symmetry_cell_setting 'monoclinic'
loop_
_space_group_symop_operation_xyz
x,y,z
-x,y,-z
-x,-y,-z
x,-y,z
1/2+x,1/2+y,z
1/2-x,1/2+y,-z
1/2-x,1/2-y,-z
1/2+x,1/2-y,z
loop_
_atom_site_type_symbol
_atom_site_label
_atom_site_fract_x
_atom_site_fract_y
_atom_site_fract_z
Si Si1 0.138820 0.705376 0.239152
Si Si2 0.944974 0.720167 0.115346
Si Si3 0.569208 0.782822 0.373182
Si Si4 0.070395 0.789911 0.495564
Si Si5 0.766869 0.720977 0.602628
Si Si6 0.409325 0.219914 0.215796
Si Si7 0.406688 0.781659 0.975609
Si Si8 0.741350 0.293016 0.188304
O O1 0.118358 0.500000 0.244803
O O2 0.188378 0.781309 0.317326
O O3 0.200548 0.704017 0.219679
O O4 0.045513 0.781776 0.172578
O O5 0.944348 0.500000 0.112843
O O6 0.901590 0.776071 0.148980
O O7 0.903627 0.778720 0.036633
O O8 0.540418 0.721776 0.417366
O O9 0.666380 0.721889 0.409233
O O10 0.500853 0.726258 0.290757
O O11 0.569267 0.000000 0.373636
O O12 0.168142 0.713564 0.547902
O O13 0.000000 0.711468 0.500000
O O14 0.079826 0.000000 0.515797
O O15 0.764354 0.500000 0.599960
O O16 0.330400 0.282906 0.211447
O O17 0.407022 0.000000 0.214396
O O18 0.402916 0.000000 0.971814
O O19 0.500000 0.729715 0.000000
O O20 0.329536 0.713776 0.897139
O O21 0.757057 0.500000 0.212173
#
# Coordination Sequence:
#
# PCOD9176362 Si02
#       8
#     8   8   8   8   8   8   8   8
#     4  10  18  34  60  82 100 137 192 231 255 306
#     4   9  16  32  58  80 100 134 184 230 258 300
#     4  10  19  36  61  81 102 141 189 226 256 312
#     4  10  22  37  52  81 120 147 170 216 278 326
#     4   9  18  34  59  83 104 140 187 225 263 314
#     4   9  19  35  54  79 109 140 177 223 272 316
#     4  10  19  34  57  82 103 136 187 229 257 307
#     4  11  23  35  50  79 116 144 167 216 286 331
#
# _framework density 22.780867000000001
#
# number of rings (size 3 to 8) (size 9 to 14) (size 15 to 20)
#    0.000    2.250    2.500    0.750    1.750    1.000 
#    0.000    1.875    0.000    3.000    0.000    0.000 
#    0.000    0.000    0.000    0.000    0.000    0.000 
#
# Total GULP energy -178801.042743 kJ/mol
# GULP energy per Si atom -5587.532586 kJ/mol
# Density = 2.272902 g / cm^3
# Si number density = 22.780867 Si / 1000 Ang^3
#
#
#
# Elastic Constant Matrix: (Units=GPa)
#
#
# Indices 1 2 3 4 5 6 
#
# 1 135.8200 -4.1758 20.5235 0.0000 -11.2355 0.0001
# 2 -4.1758 70.6466 -12.0647 -0.0001 4.6823 0.0003
# 3 20.5235 -12.0647 64.4003 0.0000 -17.7719 0.0001
# 4 0.0000 -0.0001 0.0000 -2.1779 0.0000 2.8397
# 5 -11.2355 4.6823 -17.7719 0.0000 40.4006 0.0000
# 6 0.0001 0.0003 0.0001 2.8397 0.0000 -63.5925
#
#
#
# Elastic Compliance Matrix: (Units=1/GPa)
#
#
# Indices 1 2 3 4 5 6 
#
# 1 0.007788 0.000014 -0.002142 0.000000 0.001222 0.000000
# 2 0.000014 0.014634 0.002584 -0.000001 -0.000556 0.000000
# 3 -0.002142 0.002584 0.018720 0.000000 0.007340 0.000000
# 4 0.000000 -0.000001 0.000000 -0.487540 0.000000 -0.021771
# 5 0.001222 -0.000556 0.007340 0.000000 0.028385 0.000000
# 6 0.000000 0.000000 0.000000 -0.021771 0.000000 -0.016697
#
#
# Mechanical properties :
#
#
# Convention : Reuss Voigt Hill
#
# Bulk Modulus (GPa) = 23.77997 31.04809 27.41403
# Shear Modulus (GPa) = -11.85949 12.69830 0.41941
#
# Velocity S-wave (km/s) = -2.28412 2.36352 0.42954
# Velocity P-wave (km/s) = 1.87216 4.59422 3.50798
#
# Compressibility (1/GPa) = 0.04205219
#
# Stress axis : x y z
#
# Youngs Moduli (GPa) = 128.40462 68.33470 53.41874
#
# Poissons Ratio (x) = -0.00092 0.11443
# Poissons Ratio (y) = -0.00174 -0.13803
# Poissons Ratio (z) = 0.27506 -0.17657
#
# Static dielectric constant tensor:
#      x y z
#    x 1.824270 0.000000 0.005690 
#    y 0.000000 1.931890 0.000000 
#    z 0.005690 0.000000 1.805040 
# 
# From -- ./inp_files/346123.got.cif
#   From: 2010.05.17/outbox.cif.g08.bks.cpg/sg12_174_cif.got.tgz:346123.got - 2010.06.03 13:09:07.
