data_PCOD9176169
_publ_section_title
;
Structure prediction by ZEFSAII (Michael W. Deem and Ramdas Pophale) SiO2 
 PCOD9176169
Probable space group: C 2/M
;
_chemical_formula_sum "Si O2"
_cell_formula_units_Z 40
_cell_length_a 9.656021
_cell_length_b 25.448460
_cell_length_c 9.302910
_cell_angle_alpha 90.000000
_cell_angle_beta 71.555231
_cell_angle_gamma 90.000000
_cell_volume 2168.577578
_symmetry_space_group_name_H-M "C 2/M"
_symmetry_group_IT_number 12
_symmetry_cell_setting 'monoclinic'
loop_
_space_group_symop_operation_xyz
x,y,z
-x,y,-z
-x,-y,-z
x,-y,z
1/2+x,1/2+y,z
1/2-x,1/2+y,-z
1/2-x,1/2-y,-z
1/2+x,1/2-y,z
loop_
_atom_site_type_symbol
_atom_site_label
_atom_site_fract_x
_atom_site_fract_y
_atom_site_fract_z
Si Si1 0.665464 0.592791 0.607468
Si Si2 0.423559 0.941782 0.680059
Si Si3 0.836561 0.938387 0.721130
Si Si4 0.080516 0.363115 0.834539
Si Si5 0.341653 0.803403 0.471267
O O1 0.754058 0.562071 0.699233
O O2 0.690645 0.566247 0.442618
O O3 0.494133 0.588298 0.691704
O O4 0.739990 0.650268 0.572006
O O5 0.500000 0.931181 0.500000
O O6 0.471590 0.899621 0.778753
O O7 0.467379 0.000000 0.711979
O O8 0.712490 0.902474 0.832376
O O9 0.836345 0.000000 0.760451
O O10 0.133108 0.320467 0.702350
O O11 0.000000 0.341548 0.000000
O O12 0.500000 0.800072 0.500000
O O13 0.250000 0.750000 0.500000
#
# Coordination Sequence:
#
# PCOD9176169 Si02
#       5
#     8   8   8   8   8
#     4  10  18  34  56  87 119 149 201 254 287 337
#     4  11  18  32  59  87 118 161 203 239 282 350
#     4  10  19  31  55  90 123 158 195 238 289 342
#     4  11  23  40  58  87 126 158 196 245 304 361
#     4  11  23  41  68  89 109 149 206 258 307 356
#
# _framework density 18.445271000000002
#
# number of rings (size 3 to 8) (size 9 to 14) (size 15 to 20)
#    0.000    1.400    6.000    3.000    5.600    1.600 
#    0.000    2.000    0.000    2.400    0.000    0.000 
#    0.000    0.000    0.000    0.000    0.000    0.000 
#
# Total GULP energy -111595.699368 kJ/mol
# GULP energy per Si atom -5579.784968 kJ/mol
# Density = 1.840329 g / cm^3
# Si number density = 18.445271 Si / 1000 Ang^3
#
#
#
# Elastic Constant Matrix: (Units=GPa)
#
#
# Indices 1 2 3 4 5 6 
#
# 1 129.0140 49.6173 21.3339 0.0000 -6.6443 0.0000
# 2 49.6173 134.5382 35.8497 0.0000 -5.3236 0.0000
# 3 21.3339 35.8497 60.6966 0.0000 -11.8174 0.0000
# 4 0.0000 0.0000 0.0000 5.5047 0.0000 -0.1313
# 5 -6.6443 -5.3236 -11.8174 0.0000 16.8637 0.0000
# 6 0.0000 0.0000 0.0000 -0.1313 0.0000 29.8460
#
#
#
# Elastic Compliance Matrix: (Units=1/GPa)
#
#
# Indices 1 2 3 4 5 6 
#
# 1 0.009191 -0.003029 -0.001068 0.000000 0.001917 0.000000
# 2 -0.003029 0.009834 -0.005062 0.000000 -0.001637 0.000000
# 3 -0.001068 -0.005062 0.022520 0.000000 0.013762 0.000000
# 4 0.000000 0.000000 0.000000 0.181681 0.000000 0.000799
# 5 0.001917 -0.001637 0.013762 0.000000 0.069181 0.000000
# 6 0.000000 0.000000 0.000000 0.000799 0.000000 0.033509
#
#
# Mechanical properties :
#
#
# Convention : Reuss Voigt Hill
#
# Bulk Modulus (GPa) = 43.05489 59.76119 51.40804
# Shear Modulus (GPa) = 14.20537 24.93941 19.57239
#
# Velocity S-wave (km/s) = 2.77814 3.68105 3.26100
# Velocity P-wave (km/s) = 5.80374 7.10889 6.48921
#
# Compressibility (1/GPa) = 0.02322616
#
# Stress axis : x y z
#
# Youngs Moduli (GPa) = 108.79627 101.68585 44.40432
#
# Poissons Ratio (x) = 0.30804 0.04744
# Poissons Ratio (y) = 0.32958 0.22479
# Poissons Ratio (z) = 0.11623 0.51477
#
# Static dielectric constant tensor:
#      x y z
#    x 1.694830 0.000000 -0.016140 
#    y 0.000000 1.642110 0.000000 
#    z -0.016140 0.000000 1.623850 
# 
# From -- ./inp_files/40310.got.cif
#   From: 2010.05.17/outbox.cif.g08.bks.cpg/sg12_21_cif.got.tgz:40310.got - 2010.06.03 13:09:07.
