data_PCOD9176202
_publ_section_title
;
Structure prediction by ZEFSAII (Michael W. Deem and Ramdas Pophale) SiO2 
 PCOD9176202
Probable space group: C 2/M
;
_chemical_formula_sum "Si O2"
_cell_formula_units_Z 56
_cell_length_a 24.274781
_cell_length_b 8.470525
_cell_length_c 15.509654
_cell_angle_alpha 90.000000
_cell_angle_beta 61.434520
_cell_angle_gamma 90.000000
_cell_volume 2800.892309
_symmetry_space_group_name_H-M "C 2/M"
_symmetry_group_IT_number 12
_symmetry_cell_setting 'monoclinic'
loop_
_space_group_symop_operation_xyz
x,y,z
-x,y,-z
-x,-y,-z
x,-y,z
1/2+x,1/2+y,z
1/2-x,1/2+y,-z
1/2-x,1/2-y,-z
1/2+x,1/2-y,z
loop_
_atom_site_type_symbol
_atom_site_label
_atom_site_fract_x
_atom_site_fract_y
_atom_site_fract_z
Si Si1 0.789580 0.686561 0.388735
Si Si2 0.731141 0.184559 0.789596
Si Si3 0.435989 0.692935 0.812405
Si Si4 0.375316 0.684085 0.681775
Si Si5 0.811764 0.187265 0.003477
Si Si6 0.440706 0.181467 0.482267
Si Si7 0.072709 0.183456 0.689692
O O1 0.778239 0.500000 0.396838
O O2 0.750000 0.750000 0.500000
O O3 0.771934 0.746910 0.306056
O O4 0.863385 0.723492 0.342017
O O5 0.803576 0.190609 0.764211
O O6 0.692762 0.271370 0.892279
O O7 0.712275 0.000000 0.802146
O O8 0.436553 0.500000 0.811688
O O9 0.418084 0.742298 0.728367
O O10 0.507174 0.741623 0.780797
O O11 0.377930 0.746304 0.914662
O O12 0.390581 0.500000 0.652010
O O13 0.383706 0.782773 0.589024
O O14 0.811109 0.000000 0.992398
O O15 0.750000 0.250000 0.000000
O O16 0.500000 0.206802 0.500000
O O17 0.439356 0.297730 0.403351
O O18 0.440390 0.000000 0.452428
O O19 0.082437 0.000000 0.704706
#
# Coordination Sequence:
#
# PCOD9176202 Si02
#       7
#     8   8   8   8   8   8   8
#     4  11  24  43  66  92 123 159 204 253 300 359
#     4  10  22  40  61  87 119 156 198 247 303 359
#     4   9  19  35  57  85 117 153 196 242 294 358
#     4  10  18  34  57  81 114 154 196 239 293 365
#     4  11  21  37  61  91 124 158 200 251 302 360
#     4  11  22  33  49  82 121 150 190 245 302 363
#     4  11  22  39  61  83 115 162 205 246 300 359
#
# _framework density 19.993628999999999
#
# number of rings (size 3 to 8) (size 9 to 14) (size 15 to 20)
#    0.000    1.571    2.857    2.571    0.000    3.429 
#    0.000    3.571    0.000    4.286    0.000    0.000 
#    0.000    0.000    0.000    0.000    0.000    0.000 
#
# Total GULP energy -156250.581807 kJ/mol
# GULP energy per Si atom -5580.377922 kJ/mol
# Density = 1.994812 g / cm^3
# Si number density = 19.993629 Si / 1000 Ang^3
#
#
#
# Elastic Constant Matrix: (Units=GPa)
#
#
# Indices 1 2 3 4 5 6 
#
# 1 80.4286 2.8267 42.7445 0.0000 -8.9666 0.0000
# 2 2.8267 12.8207 9.9080 0.0000 0.8262 0.0000
# 3 42.7445 9.9080 125.6291 0.0000 -13.8787 0.0000
# 4 0.0000 0.0000 0.0000 26.7826 0.0000 1.5965
# 5 -8.9666 0.8262 -13.8787 0.0000 29.4762 0.0000
# 6 0.0000 0.0000 0.0000 1.5965 0.0000 22.7862
#
#
#
# Elastic Compliance Matrix: (Units=1/GPa)
#
#
# Indices 1 2 3 4 5 6 
#
# 1 0.015329 0.000325 -0.004987 0.000000 0.002306 0.000000
# 2 0.000325 0.083990 -0.007367 0.000000 -0.005724 0.000000
# 3 -0.004987 -0.007367 0.010647 0.000000 0.003702 0.000000
# 4 0.000000 0.000000 0.000000 0.037494 0.000000 -0.002627
# 5 0.002306 -0.005724 0.003702 0.000000 0.036531 0.000000
# 6 0.000000 0.000000 0.000000 -0.002627 0.000000 0.044070
#
#
# Mechanical properties :
#
#
# Convention : Reuss Voigt Hill
#
# Bulk Modulus (GPa) = 11.64025 36.64853 24.14439
# Shear Modulus (GPa) = 17.80920 26.70228 22.25574
#
# Velocity S-wave (km/s) = 2.98777 3.65847 3.34000
# Velocity P-wave (km/s) = 4.21153 6.01795 5.19388
#
# Compressibility (1/GPa) = 0.08590880
#
# Stress axis : x y z
#
# Youngs Moduli (GPa) = 65.23502 11.90624 93.92653
#
# Poissons Ratio (x) = -0.00387 0.46837
# Poissons Ratio (y) = -0.02122 0.69196
# Poissons Ratio (z) = 0.32530 0.08771
#
# Static dielectric constant tensor:
#      x y z
#    x 1.740430 0.000000 -0.027170 
#    y 0.000000 1.694620 0.000000 
#    z -0.027170 0.000000 1.728940 
# 
# From -- ./inp_files/238384.got.cif
#   From: 2010.05.17/outbox.cif.g08.bks.cpg/sg12_120_cif.got.tgz:238384.got - 2010.06.03 13:09:07.
