data_PCOD9176793
_publ_section_title
;
Structure prediction by ZEFSAII (Michael W. Deem and Ramdas Pophale) SiO2 
 PCOD9176793
Probable space group: C 2/M
;
_chemical_formula_sum "Si O2"
_cell_formula_units_Z 56
_cell_length_a 16.560003
_cell_length_b 14.653065
_cell_length_c 11.818108
_cell_angle_alpha 90.000000
_cell_angle_beta 114.918402
_cell_angle_gamma 90.000000
_cell_volume 2600.760913
_symmetry_space_group_name_H-M "C 2/M"
_symmetry_group_IT_number 12
_symmetry_cell_setting 'monoclinic'
loop_
_space_group_symop_operation_xyz
x,y,z
-x,y,-z
-x,-y,-z
x,-y,z
1/2+x,1/2+y,z
1/2-x,1/2+y,-z
1/2-x,1/2-y,-z
1/2+x,1/2-y,z
loop_
_atom_site_type_symbol
_atom_site_label
_atom_site_fract_x
_atom_site_fract_y
_atom_site_fract_z
Si Si1 0.585632 0.155463 0.984356
Si Si2 0.347051 0.347200 0.879885
Si Si3 0.435891 0.403064 0.713545
Si Si4 0.745871 0.395344 0.536573
Si Si5 0.924921 0.750513 0.251129
Si Si6 0.787285 0.098297 0.089934
Si Si7 0.188568 0.283742 0.624216
O O1 0.606259 0.253917 0.053048
O O2 0.681413 0.107077 0.044424
O O3 0.500000 0.116456 0.000000
O O4 0.565695 0.175061 0.840635
O O5 0.414313 0.396017 0.833846
O O6 0.261183 0.326602 0.752034
O O7 0.313933 0.397036 0.972973
O O8 0.480987 0.500000 0.717356
O O9 0.344402 0.401940 0.590346
O O10 0.492470 0.317611 0.708853
O O11 0.769744 0.500000 0.583764
O O12 0.813453 0.343865 0.491134
O O13 0.722828 0.319106 0.616627
O O14 0.839443 0.814932 0.170258
O O15 0.903322 0.716210 0.362742
O O16 0.814859 0.000000 0.153454
#
# Coordination Sequence:
#
# PCOD9176793 Si02
#       7
#     8   8   8   8   8   8   8
#     4  11  20  36  55  78 112 148 186 225 267 336
#     4  10  18  36  55  78 111 147 187 223 282 339
#     4  10  20  33  54  85 114 143 181 233 290 341
#     4   9  21  38  59  87 112 141 192 245 289 341
#     4  11  20  35  55  83 115 152 184 218 284 349
#     4  11  22  34  53  82 113 147 192 235 270 331
#     4  10  19  37  60  80 113 153 187 233 289 338
#
# _framework density 21.532160999999999
#
# number of rings (size 3 to 8) (size 9 to 14) (size 15 to 20)
#    0.000    1.714    4.286    1.714    0.000    2.571 
#    0.000    3.571    0.000    0.000    0.000   13.000 
#    0.000    0.000    0.000    0.000    0.000    0.000 
#
# Total GULP energy -156314.187156 kJ/mol
# GULP energy per Si atom -5582.649541 kJ/mol
# Density = 2.148315 g / cm^3
# Si number density = 21.532161 Si / 1000 Ang^3
#
#
#
# Elastic Constant Matrix: (Units=GPa)
#
#
# Indices 1 2 3 4 5 6 
#
# 1 135.1390 16.2589 14.4642 0.0000 -17.9811 0.0000
# 2 16.2589 71.2263 -3.9295 0.0000 -4.9304 0.0000
# 3 14.4642 -3.9295 27.7962 0.0000 -16.3433 0.0000
# 4 0.0000 0.0000 0.0000 12.3582 0.0000 0.8768
# 5 -17.9811 -4.9304 -16.3433 0.0000 29.9016 0.0000
# 6 0.0000 0.0000 0.0000 0.8768 0.0000 -12.7731
#
#
#
# Elastic Compliance Matrix: (Units=1/GPa)
#
#
# Indices 1 2 3 4 5 6 
#
# 1 0.008339 -0.001828 -0.002691 0.000000 0.003242 0.000000
# 2 -0.001828 0.015088 0.005748 0.000000 0.004530 0.000000
# 3 -0.002691 0.005748 0.055692 0.000000 0.029769 0.000000
# 4 0.000000 0.000000 0.000000 0.080526 0.000000 0.005527
# 5 0.003242 0.004530 0.029769 0.000000 0.052411 0.000000
# 6 0.000000 0.000000 0.000000 0.005527 0.000000 -0.077910
#
#
# Mechanical properties :
#
#
# Convention : Reuss Voigt Hill
#
# Bulk Modulus (GPa) = 12.25848 31.97207 22.11527
# Shear Modulus (GPa) = 31.47028 19.72188 25.59608
#
# Velocity S-wave (km/s) = 3.82717 3.02971 3.45155
# Velocity P-wave (km/s) = 5.02345 5.20765 5.11638
#
# Compressibility (1/GPa) = 0.08157621
#
# Stress axis : x y z
#
# Youngs Moduli (GPa) = 119.91626 66.27948 17.95579
#
# Poissons Ratio (x) = 0.12113 0.04833
# Poissons Ratio (y) = 0.21916 -0.10320
# Poissons Ratio (z) = 0.32274 -0.38095
#
# Static dielectric constant tensor:
#      x y z
#    x 1.816970 0.000000 -0.005300 
#    y 0.000000 1.785640 0.000000 
#    z -0.005300 0.000000 1.784530 
# 
# From -- ./inp_files/143764.got.cif
#   From: 2010.05.17/outbox.cif.g08.bks.cpg/sg12_72_cif.got.tgz:143764.got - 2010.06.03 13:09:07.
