data_PCOD9176997
_publ_section_title
;
Structure prediction by ZEFSAII (Michael W. Deem and Ramdas Pophale) SiO2 
 PCOD9176997
Probable space group: C 2/M
;
_chemical_formula_sum "Si O2"
_cell_formula_units_Z 40
_cell_length_a 16.233559
_cell_length_b 18.311959
_cell_length_c 8.405639
_cell_angle_alpha 90.000000
_cell_angle_beta 45.232870
_cell_angle_gamma 90.000000
_cell_volume 1774.035298
_symmetry_space_group_name_H-M "C 2/M"
_symmetry_group_IT_number 12
_symmetry_cell_setting 'monoclinic'
loop_
_space_group_symop_operation_xyz
x,y,z
-x,y,-z
-x,-y,-z
x,-y,z
1/2+x,1/2+y,z
1/2-x,1/2+y,-z
1/2-x,1/2-y,-z
1/2+x,1/2-y,z
loop_
_atom_site_type_symbol
_atom_site_label
_atom_site_fract_x
_atom_site_fract_y
_atom_site_fract_z
Si Si1 0.000000 0.870984 0.000000
Si Si2 0.699535 0.500000 0.192180
Si Si3 0.264312 0.292538 0.235253
Si Si4 0.575134 0.881563 0.655242
Si Si5 0.683861 0.153795 0.996473
Si Si6 0.000000 0.500000 0.000000
Si Si7 0.500000 0.000000 0.500000
Si Si8 0.476296 0.500000 0.277098
O O1 0.891988 0.821560 0.098464
O O2 0.965559 0.927091 0.187430
O O3 0.605389 0.500000 0.178401
O O4 0.620755 0.500000 0.455357
O O5 0.783185 0.569404 0.068696
O O6 0.178452 0.326118 0.482097
O O7 0.228031 0.323343 0.110627
O O8 0.260469 0.205814 0.212212
O O9 0.453959 0.838060 0.824491
O O10 0.575203 0.935375 0.805366
O O11 0.563274 0.936385 0.521697
#
# Coordination Sequence:
#
# PCOD9176997 Si02
#       8
#     4   4   8   8   8   2   2   4
#     4  11  24  45  70 102 144 188 238 299 370 445
#     4  11  22  45  72 103 138 184 245 307 354 436
#     4  11  25  44  70 105 145 190 240 299 370 435
#     4  11  23  44  71 105 139 187 239 305 359 424
#     4  11  24  44  73 104 137 188 250 301 354 445
#     4  10  26  40  72 112 146 170 240 308 370 420
#     4  10  18  36  74 100 122 184 236 290 358 414
#     4  10  24  42  68 103 141 191 235 292 365 440
#
# _framework density 22.547466
#
# number of rings (size 3 to 8) (size 9 to 14) (size 15 to 20)
#    0.000    1.200    4.000    1.200    0.000    8.800 
#    3.600    3.000    0.000    0.000    0.000    0.000 
#    0.000    0.000    0.000    0.000    0.000    0.000 
#
# Total GULP energy -111429.463750 kJ/mol
# GULP energy per Si atom -5571.473187 kJ/mol
# Density = 2.249615 g / cm^3
# Si number density = 22.547466 Si / 1000 Ang^3
#
#
#
# Elastic Constant Matrix: (Units=GPa)
#
#
# Indices 1 2 3 4 5 6 
#
# 1 69.8240 24.0240 23.8836 0.0000 -3.0713 0.0000
# 2 24.0240 160.3490 56.5197 0.0000 -2.1378 0.0000
# 3 23.8836 56.5197 86.1515 0.0000 -12.0847 0.0000
# 4 0.0000 0.0000 0.0000 -26.6938 0.0000 75.3546
# 5 -3.0713 -2.1378 -12.0847 0.0000 35.3817 0.0000
# 6 0.0000 0.0000 0.0000 75.3546 0.0000 -84.8700
#
#
#
# Elastic Compliance Matrix: (Units=1/GPa)
#
#
# Indices 1 2 3 4 5 6 
#
# 1 0.015965 -0.001085 -0.003707 0.000000 0.000054 0.000000
# 2 -0.001085 0.008252 -0.005311 0.000000 -0.001409 0.000000
# 3 -0.003707 -0.005311 0.016836 0.000000 0.005108 0.000000
# 4 0.000000 0.000000 0.000000 0.024868 0.000000 0.022080
# 5 0.000054 -0.001409 0.005108 0.000000 0.029927 0.000000
# 6 0.000000 0.000000 0.000000 0.022080 0.000000 0.007822
#
#
# Mechanical properties :
#
#
# Convention : Reuss Voigt Hill
#
# Bulk Modulus (GPa) = 47.96508 58.35323 53.15916
# Shear Modulus (GPa) = 38.21931 -1.10995 18.55468
#
# Velocity S-wave (km/s) = 4.12158 -0.70238 2.87176
# Velocity P-wave (km/s) = 6.63091 5.02778 5.88420
#
# Compressibility (1/GPa) = 0.02084850
#
# Stress axis : x y z
#
# Youngs Moduli (GPa) = 62.63608 121.18202 59.39770
#
# Poissons Ratio (x) = 0.13144 0.22017
# Poissons Ratio (y) = 0.06794 0.31545
# Poissons Ratio (z) = 0.23218 0.64357
#
# Static dielectric constant tensor:
#      x y z
#    x 1.869520 0.000000 0.024600 
#    y 0.000000 1.795080 0.000000 
#    z 0.024600 0.000000 1.841730 
# 
# From -- ./inp_files/77246.got.cif
#   From: 2010.05.17/outbox.cif.g08.bks.cpg/sg12_39_cif.got.tgz:77246.got - 2010.06.03 13:09:07.
