data_PCOD9176374
_publ_section_title
;
Structure prediction by ZEFSAII (Michael W. Deem and Ramdas Pophale) SiO2 
 PCOD9176374
Probable space group: C 2/M
;
_chemical_formula_sum "Si O2"
_cell_formula_units_Z 64
_cell_length_a 14.982812
_cell_length_b 7.582687
_cell_length_c 21.821897
_cell_angle_alpha 90.000000
_cell_angle_beta 96.153651
_cell_angle_gamma 90.000000
_cell_volume 2464.900091
_symmetry_space_group_name_H-M "C 2/M"
_symmetry_group_IT_number 12
_symmetry_cell_setting 'monoclinic'
loop_
_space_group_symop_operation_xyz
x,y,z
-x,y,-z
-x,-y,-z
x,-y,z
1/2+x,1/2+y,z
1/2-x,1/2+y,-z
1/2-x,1/2-y,-z
1/2+x,1/2-y,z
loop_
_atom_site_type_symbol
_atom_site_label
_atom_site_fract_x
_atom_site_fract_y
_atom_site_fract_z
Si Si1 0.025504 0.287795 0.762541
Si Si2 0.765897 0.783963 0.599960
Si Si3 0.038587 0.793270 0.369293
Si Si4 0.161479 0.304944 0.957023
Si Si5 0.785507 0.293875 0.867447
Si Si6 0.914901 0.701563 0.459323
Si Si7 0.777211 0.712737 0.265021
Si Si8 0.518368 0.217049 0.103190
O O1 0.026440 0.500000 0.764191
O O2 0.123895 0.225843 0.748361
O O3 0.001151 0.225961 0.828446
O O4 0.959032 0.232699 0.703278
O O5 0.867868 0.730939 0.593940
O O6 0.684120 0.718509 0.551767
O O7 0.746492 0.727785 0.668515
O O8 0.763477 0.000000 0.598330
O O9 0.953129 0.698975 0.392481
O O10 0.028583 0.000000 0.380120
O O11 0.142054 0.500000 0.978066
O O12 0.200747 0.303890 0.890495
O O13 0.063991 0.217687 0.944552
O O14 0.250000 0.250000 0.000000
O O15 0.773215 0.500000 0.880317
O O16 0.787630 0.272188 0.794621
O O17 0.879589 0.230786 0.903237
O O18 0.907129 0.500000 0.479996
O O19 0.000000 0.786531 0.500000
O O20 0.776329 0.500000 0.265648
O O21 0.517507 0.000000 0.102496
#
# Coordination Sequence:
#
# PCOD9176374 Si02
#       8
#     8   8   8   8   8   8   8   8
#     4  10  18  35  61  84 112 154 193 222 270 342
#     4   9  19  36  56  82 115 150 183 227 287 339
#     4  11  22  35  55  85 119 146 178 234 294 332
#     4  11  23  43  63  83 113 152 195 234 282 333
#     4  11  22  37  59  89 118 147 188 235 281 333
#     4  10  21  40  62  79 103 149 200 233 269 338
#     4  10  18  34  60  83 114 154 186 224 280 338
#     4   9  20  38  60  84 116 154 187 227 281 337
#
# _framework density 25.964542000000002
#
# number of rings (size 3 to 8) (size 9 to 14) (size 15 to 20)
#    0.000    1.875    2.500    1.875    0.000    1.750 
#    0.000    7.500    0.000    0.000    0.000    0.000 
#    0.000    0.000    0.000    0.000    0.000    0.000 
#
# Total GULP energy -179021.449573 kJ/mol
# GULP energy per Si atom -5594.420299 kJ/mol
# Density = 2.590545 g / cm^3
# Si number density = 25.964542 Si / 1000 Ang^3
#
#
#
# Elastic Constant Matrix: (Units=GPa)
#
#
# Indices 1 2 3 4 5 6 
#
# 1 154.3330 6.6854 30.3260 0.0000 31.9025 0.0000
# 2 6.6854 72.1937 2.5825 0.0000 -0.8142 0.0000
# 3 30.3260 2.5825 107.7092 0.0000 27.9671 0.0000
# 4 0.0000 0.0000 0.0000 25.0901 0.0000 -0.1840
# 5 31.9025 -0.8142 27.9671 0.0000 61.5904 0.0000
# 6 0.0000 0.0000 0.0000 -0.1840 0.0000 10.3582
#
#
#
# Elastic Compliance Matrix: (Units=1/GPa)
#
#
# Indices 1 2 3 4 5 6 
#
# 1 0.007432 -0.000682 -0.001218 0.000000 -0.003305 0.000000
# 2 -0.000682 0.013934 -0.000319 0.000000 0.000682 0.000000
# 3 -0.001218 -0.000319 0.010738 0.000000 -0.004249 0.000000
# 4 0.000000 0.000000 0.000000 0.039862 0.000000 0.000708
# 5 -0.003305 0.000682 -0.004249 0.000000 0.019887 0.000000
# 6 0.000000 0.000000 0.000000 0.000708 0.000000 0.096554
#
#
# Mechanical properties :
#
#
# Convention : Reuss Voigt Hill
#
# Bulk Modulus (GPa) = 36.14580 45.93596 41.04088
# Shear Modulus (GPa) = 24.74432 39.05053 31.89743
#
# Velocity S-wave (km/s) = 3.09043 3.88234 3.50880
# Velocity P-wave (km/s) = 5.16582 6.15037 5.67947
#
# Compressibility (1/GPa) = 0.02766573
#
# Stress axis : x y z
#
# Youngs Moduli (GPa) = 134.56050 71.76749 93.12574
#
# Poissons Ratio (x) = 0.04894 0.11341
# Poissons Ratio (y) = 0.09176 0.02973
# Poissons Ratio (z) = 0.16386 0.02291
#
# Static dielectric constant tensor:
#      x y z
#    x 2.016880 0.000000 0.015770 
#    y 0.000000 1.973750 0.000000 
#    z 0.015770 0.000000 2.115340 
# 
# From -- ./inp_files/359688.got.cif
#   From: 2010.05.17/outbox.cif.g08.bks.cpg/sg12_180_cif.got.tgz:359688.got - 2010.06.03 13:09:07.
