data_PCOD9176080
_publ_section_title
;
Structure prediction by ZEFSAII (Michael W. Deem and Ramdas Pophale) SiO2 
 PCOD9176080
Probable space group: C 2/M
;
_chemical_formula_sum "Si O2"
_cell_formula_units_Z 56
_cell_length_a 17.048755
_cell_length_b 16.511997
_cell_length_c 11.028795
_cell_angle_alpha 90.000000
_cell_angle_beta 62.876472
_cell_angle_gamma 90.000000
_cell_volume 2763.267091
_symmetry_space_group_name_H-M "C 2/M"
_symmetry_group_IT_number 12
_symmetry_cell_setting 'monoclinic'
loop_
_space_group_symop_operation_xyz
x,y,z
-x,y,-z
-x,-y,-z
x,-y,z
1/2+x,1/2+y,z
1/2-x,1/2+y,-z
1/2-x,1/2-y,-z
1/2+x,1/2-y,z
loop_
_atom_site_type_symbol
_atom_site_label
_atom_site_fract_x
_atom_site_fract_y
_atom_site_fract_z
Si Si1 0.584395 0.726280 0.168846
Si Si2 0.399335 0.817584 0.591354
Si Si3 0.297201 0.410418 0.010133
Si Si4 0.892487 0.381739 0.964070
Si Si5 0.591047 0.911771 0.766085
Si Si6 0.225610 0.906474 0.691203
Si Si7 0.617445 0.265194 0.641515
O O1 0.608392 0.778120 0.271052
O O2 0.601334 0.784628 0.042762
O O3 0.481222 0.707959 0.251515
O O4 0.647881 0.651617 0.107815
O O5 0.500000 0.844213 0.500000
O O6 0.329908 0.888702 0.621607
O O7 0.380100 0.748594 0.504424
O O8 0.330806 0.500000 0.962510
O O9 0.194801 0.406728 0.044770
O O10 0.305761 0.394860 0.147486
O O11 0.983946 0.408111 0.836266
O O12 0.889476 0.410297 0.103996
O O13 0.627551 0.827535 0.685447
O O14 0.620317 0.000000 0.696314
O O15 0.182530 0.834513 0.642584
O O16 0.207355 0.000000 0.668410
#
# Coordination Sequence:
#
# PCOD9176080 Si02
#       7
#     8   8   8   8   8   8   8
#     4  10  21  38  63  86 119 164 200 246 308 355
#     4  10  22  43  64  88 116 158 209 256 299 355
#     4  11  22  35  58  91 123 156 200 252 303 364
#     4  10  18  34  54  84 123 153 197 247 307 360
#     4  10  20  33  56  87 122 160 195 248 310 357
#     4  11  24  41  63  91 124 164 201 246 305 361
#     4  10  23  41  61  88 123 161 206 248 292 362
#
# _framework density 20.265865000000002
#
# number of rings (size 3 to 8) (size 9 to 14) (size 15 to 20)
#    0.000    1.714    1.429    3.429    2.000    3.143 
#    0.000    2.143    0.000    2.571    0.000    0.000 
#    0.000    0.000    0.000    0.000    0.000    0.000 
#
# Total GULP energy -156337.544696 kJ/mol
# GULP energy per Si atom -5583.483739 kJ/mol
# Density = 2.021974 g / cm^3
# Si number density = 20.265865 Si / 1000 Ang^3
#
#
#
# Elastic Constant Matrix: (Units=GPa)
#
#
# Indices 1 2 3 4 5 6 
#
# 1 79.6078 54.2577 18.7430 0.0000 2.6587 0.0000
# 2 54.2577 122.9277 40.1714 0.0000 -11.5935 0.0000
# 3 18.7430 40.1714 54.8264 0.0000 -0.3138 0.0000
# 4 0.0000 0.0000 0.0000 9.4543 0.0000 -0.2916
# 5 2.6587 -11.5935 -0.3138 0.0000 17.6267 0.0000
# 6 0.0000 0.0000 0.0000 -0.2916 0.0000 7.7556
#
#
#
# Elastic Compliance Matrix: (Units=1/GPa)
#
#
# Indices 1 2 3 4 5 6 
#
# 1 0.019233 -0.009443 0.000292 0.000000 -0.009107 0.000000
# 2 -0.009443 0.016242 -0.008604 0.000000 0.011954 0.000000
# 3 0.000292 -0.008604 0.024413 0.000000 -0.005268 0.000000
# 4 0.000000 0.000000 0.000000 0.105894 0.000000 0.003982
# 5 -0.009107 0.011954 -0.005268 0.000000 0.065874 0.000000
# 6 0.000000 0.000000 0.000000 0.003982 0.000000 0.129088
#
#
# Mechanical properties :
#
#
# Convention : Reuss Voigt Hill
#
# Bulk Modulus (GPa) = 41.02015 53.74512 47.38264
# Shear Modulus (GPa) = 12.36454 16.57999 14.47227
#
# Velocity S-wave (km/s) = 2.47273 2.86339 2.67520
# Velocity P-wave (km/s) = 5.33268 6.12451 5.74226
#
# Compressibility (1/GPa) = 0.02437826
#
# Stress axis : x y z
#
# Youngs Moduli (GPa) = 51.99317 61.56856 40.96101
#
# Poissons Ratio (x) = 0.58142 -0.01196
# Poissons Ratio (y) = 0.49100 0.35242
# Poissons Ratio (z) = -0.01518 0.52973
#
# Static dielectric constant tensor:
#      x y z
#    x 1.730040 0.000000 0.005650 
#    y 0.000000 1.735220 0.000000 
#    z 0.005650 0.000000 1.717490 
# 
# From -- ./inp_files/156540.got.cif
#   From: 2010.05.17/outbox.cif.g08.bks.cpg/sg12_79_cif.got.tgz:156540.got - 2010.06.03 13:09:07.
