data_PCOD9176458
_publ_section_title
;
Structure prediction by ZEFSAII (Michael W. Deem and Ramdas Pophale) SiO2 
 PCOD9176458
Probable space group: C 2/M
;
_chemical_formula_sum "Si O2"
_cell_formula_units_Z 36
_cell_length_a 14.389122
_cell_length_b 23.119709
_cell_length_c 7.481152
_cell_angle_alpha 90.000000
_cell_angle_beta 138.794155
_cell_angle_gamma 90.000000
_cell_volume 1639.519002
_symmetry_space_group_name_H-M "C 2/M"
_symmetry_group_IT_number 12
_symmetry_cell_setting 'monoclinic'
loop_
_space_group_symop_operation_xyz
x,y,z
-x,y,-z
-x,-y,-z
x,-y,z
1/2+x,1/2+y,z
1/2-x,1/2+y,-z
1/2-x,1/2-y,-z
1/2+x,1/2-y,z
loop_
_atom_site_type_symbol
_atom_site_label
_atom_site_fract_x
_atom_site_fract_y
_atom_site_fract_z
Si Si1 0.245997 0.373249 0.844495
Si Si2 0.153428 0.874270 0.622010
Si Si3 0.345258 0.500000 0.371604
Si Si4 0.000000 0.707996 0.500000
Si Si5 0.830815 0.500000 0.243157
Si Si6 0.000636 0.208981 0.812488
O O1 0.227193 0.439689 0.763457
O O2 0.120612 0.332901 0.596895
O O3 0.242393 0.369915 0.058259
O O4 0.391834 0.344120 0.000662
O O5 0.000000 0.874150 0.500000
O O6 0.141952 0.820746 0.470450
O O7 0.168135 0.937635 0.554737
O O8 0.500000 0.500000 0.500000
O O9 0.229003 0.500000 0.046036
O O10 0.055642 0.749735 0.736084
O O11 0.000000 0.500000 0.500000
O O12 0.000000 0.240610 0.000000
#
# Coordination Sequence:
#
# PCOD9176458 Si02
#       6
#     8   8   4   4   4   8
#     4  10  20  38  61  87 121 156 198 250 301 359
#     4   8  15  32  52  79 112 146 193 238 287 343
#     4   8  14  26  54  81 110 151 189 242 293 342
#     4  12  22  39  60  85 126 158 202 242 298 358
#     4  10  18  34  62  95 116 155 207 247 307 372
#     4  11  23  37  58  91 120 158 203 247 298 353
#
# _framework density 21.957660000000001
#
# number of rings (size 3 to 8) (size 9 to 14) (size 15 to 20)
#    0.000    2.222    4.444    2.000    0.000    0.889 
#    0.000    2.222    0.000    0.000    0.000    4.667 
#    0.000    0.000    0.000    0.000    0.000    0.000 
#
# Total GULP energy -100291.870816 kJ/mol
# GULP energy per Si atom -5571.770601 kJ/mol
# Density = 2.190768 g / cm^3
# Si number density = 21.957660 Si / 1000 Ang^3
#
#
#
# Elastic Constant Matrix: (Units=GPa)
#
#
# Indices 1 2 3 4 5 6 
#
# 1 27.7401 7.5540 17.4513 0.0000 -11.1178 0.0000
# 2 7.5540 120.1125 9.0383 0.0000 2.4117 0.0000
# 3 17.4513 9.0383 64.5138 0.0000 8.8226 0.0000
# 4 0.0000 0.0000 0.0000 6.3632 0.0000 29.9927
# 5 -11.1178 2.4117 8.8226 0.0000 33.2965 0.0000
# 6 0.0000 0.0000 0.0000 29.9927 0.0000 -7.6768
#
#
#
# Elastic Compliance Matrix: (Units=1/GPa)
#
#
# Indices 1 2 3 4 5 6 
#
# 1 0.058575 -0.002763 -0.018843 0.000000 0.024751 0.000000
# 2 -0.002763 0.008548 -0.000248 0.000000 -0.001476 0.000000
# 3 -0.018843 -0.000248 0.022298 0.000000 -0.012182 0.000000
# 4 0.000000 0.000000 0.000000 0.008094 0.000000 0.031624
# 5 0.024751 -0.001476 -0.012182 0.000000 0.041632 0.000000
# 6 0.000000 0.000000 0.000000 0.031624 0.000000 -0.006709
#
#
# Mechanical properties :
#
#
# Convention : Reuss Voigt Hill
#
# Bulk Modulus (GPa) = 21.87544 31.16151 26.51847
# Shear Modulus (GPa) = 26.12546 18.28476 22.20511
#
# Velocity S-wave (km/s) = 3.45311 2.88883 3.18350
# Velocity P-wave (km/s) = 5.08751 5.03484 5.06124
#
# Compressibility (1/GPa) = 0.04571337
#
# Stress axis : x y z
#
# Youngs Moduli (GPa) = 17.07207 116.99181 44.84644
#
# Poissons Ratio (x) = 0.32324 0.84503
# Poissons Ratio (y) = 0.04717 0.01113
# Poissons Ratio (z) = 0.32168 0.02905
#
# Static dielectric constant tensor:
#      x y z
#    x 1.771100 0.000000 -0.015510 
#    y 0.000000 1.850140 0.000000 
#    z -0.015510 0.000000 1.869430 
# 
# From -- ./inp_files/90526.got.cif
#   From: 2010.05.17/outbox.cif.g08.bks.cpg/sg12_46_cif.got.tgz:90526.got - 2010.06.03 13:09:07.
