data_PCOD9176599
_publ_section_title
;
Structure prediction by ZEFSAII (Michael W. Deem and Ramdas Pophale) SiO2 
 PCOD9176599
Probable space group: C 2/M
;
_chemical_formula_sum "Si O2"
_cell_formula_units_Z 40
_cell_length_a 7.845760
_cell_length_b 17.124210
_cell_length_c 18.454737
_cell_angle_alpha 90.000000
_cell_angle_beta 49.075525
_cell_angle_gamma 90.000000
_cell_volume 1873.398921
_symmetry_space_group_name_H-M "C 2/M"
_symmetry_group_IT_number 12
_symmetry_cell_setting 'monoclinic'
loop_
_space_group_symop_operation_xyz
x,y,z
-x,y,-z
-x,-y,-z
x,-y,z
1/2+x,1/2+y,z
1/2-x,1/2+y,-z
1/2-x,1/2-y,-z
1/2+x,1/2-y,z
loop_
_atom_site_type_symbol
_atom_site_label
_atom_site_fract_x
_atom_site_fract_y
_atom_site_fract_z
Si Si1 0.340391 0.362513 0.601616
Si Si2 0.096667 0.353899 0.203095
Si Si3 0.400412 0.713023 0.337890
Si Si4 0.392257 0.411389 0.235197
Si Si5 0.570036 0.091951 0.901283
O O1 0.500000 0.404597 0.500000
O O2 0.474396 0.334540 0.635285
O O3 0.257198 0.281315 0.587889
O O4 0.109457 0.398401 0.696985
O O5 0.324901 0.388168 0.172394
O O6 0.063324 0.264810 0.239856
O O7 0.047614 0.364299 0.132586
O O8 0.276336 0.651513 0.320393
O O9 0.324697 0.500000 0.268548
O O10 0.658317 0.404841 0.177020
O O11 0.505883 0.000000 0.913796
O O12 0.500000 0.121082 0.000000
#
# Coordination Sequence:
#
# PCOD9176599 Si02
#       5
#     8   8   8   8   8
#     4  10  19  33  62  88 117 158 204 242 286 350
#     4  10  20  36  62  88 117 151 198 246 288 345
#     4  10  18  35  58  86 119 152 201 243 287 346
#     4  11  21  37  62  88 119 156 194 245 303 352
#     4  10  22  40  62  87 118 158 198 241 301 364
#
# _framework density 21.351566999999999
#
# number of rings (size 3 to 8) (size 9 to 14) (size 15 to 20)
#    1.200    0.600    4.000    1.200    0.000    0.800 
#    0.000    4.000    0.000    9.600    0.000    0.000 
#    0.000    0.000    0.000    0.000    0.000    0.000 
#
# Total GULP energy -111418.695672 kJ/mol
# GULP energy per Si atom -5570.934784 kJ/mol
# Density = 2.130297 g / cm^3
# Si number density = 21.351567 Si / 1000 Ang^3
#
#
#
# Elastic Constant Matrix: (Units=GPa)
#
#
# Indices 1 2 3 4 5 6 
#
# 1 95.3978 10.1820 7.7172 0.0001 43.9865 -0.0001
# 2 10.1820 72.3143 8.0215 0.0000 12.5827 0.0000
# 3 7.7172 8.0215 64.7850 0.0000 26.4233 0.0001
# 4 0.0001 0.0000 0.0000 9.7382 0.0000 3.3903
# 5 43.9865 12.5827 26.4233 0.0000 32.8872 0.0000
# 6 -0.0001 0.0000 0.0001 3.3903 0.0000 8.7580
#
#
#
# Elastic Compliance Matrix: (Units=1/GPa)
#
#
# Indices 1 2 3 4 5 6 
#
# 1 0.055239 0.006533 0.035347 -0.000001 -0.104781 0.000002
# 2 0.006533 0.015610 0.004892 0.000000 -0.018641 0.000000
# 3 0.035347 0.004892 0.045612 -0.000001 -0.085795 0.000001
# 4 -0.000001 0.000000 -0.000001 0.118683 0.000003 -0.045943
# 5 -0.104781 -0.018641 -0.085795 0.000003 0.246616 -0.000003
# 6 0.000002 0.000000 0.000001 -0.045943 -0.000003 0.131967
#
#
# Mechanical properties :
#
#
# Convention : Reuss Voigt Hill
#
# Bulk Modulus (GPa) = 4.76180 31.59317 18.17749
# Shear Modulus (GPa) = 8.47196 24.04845 16.26020
#
# Velocity S-wave (km/s) = 1.99410 3.35969 2.76261
# Velocity P-wave (km/s) = 2.74535 5.46615 4.32526
#
# Compressibility (1/GPa) = 0.21000442
#
# Stress axis : x y z
#
# Youngs Moduli (GPa) = 18.10328 64.06352 21.92412
#
# Poissons Ratio (x) = -0.41855 -0.77495
# Poissons Ratio (y) = -0.11827 -0.10725
# Poissons Ratio (z) = -0.63990 -0.31339
#
# Static dielectric constant tensor:
#      x y z
#    x 1.821460 0.000000 -0.019330 
#    y 0.000000 1.805910 0.000000 
#    z -0.019330 0.000000 1.799040 
# 
# From -- ./inp_files/196396.got.cif
#   From: 2010.05.17/outbox.cif.g08.bks.cpg/sg12_99_cif.got.tgz:196396.got - 2010.06.03 13:09:07.
