data_PCOD9176074
_publ_section_title
;
Structure prediction by ZEFSAII (Michael W. Deem and Ramdas Pophale) SiO2 
 PCOD9176074
Probable space group: C 2/M
;
_chemical_formula_sum "Si O2"
_cell_formula_units_Z 48
_cell_length_a 11.720606
_cell_length_b 20.759913
_cell_length_c 10.720846
_cell_angle_alpha 90.000000
_cell_angle_beta 113.941690
_cell_angle_gamma 90.000000
_cell_volume 2384.137671
_symmetry_space_group_name_H-M "C 2/M"
_symmetry_group_IT_number 12
_symmetry_cell_setting 'monoclinic'
loop_
_space_group_symop_operation_xyz
x,y,z
-x,y,-z
-x,-y,-z
x,-y,z
1/2+x,1/2+y,z
1/2-x,1/2+y,-z
1/2-x,1/2-y,-z
1/2+x,1/2-y,z
loop_
_atom_site_type_symbol
_atom_site_label
_atom_site_fract_x
_atom_site_fract_y
_atom_site_fract_z
Si Si1 0.371012 0.691602 0.883020
Si Si2 0.101557 0.925969 0.276047
Si Si3 0.849515 0.686694 0.705754
Si Si4 0.864635 0.624579 0.447334
Si Si5 0.922596 0.833352 0.341358
Si Si6 0.387595 0.198818 0.196238
O O1 0.393526 0.620258 0.841885
O O2 0.338080 0.741103 0.755624
O O3 0.250915 0.692558 0.920956
O O4 0.500000 0.714403 0.000000
O O5 0.240181 0.917892 0.396678
O O6 0.997643 0.892792 0.316763
O O7 0.075582 0.000000 0.239202
O O8 0.856434 0.674305 0.560112
O O9 0.722446 0.652733 0.693141
O O10 0.989863 0.667744 0.811622
O O11 0.867404 0.662609 0.318770
O O12 0.000000 0.590261 0.500000
O O13 0.920648 0.772313 0.247165
O O14 0.000000 0.814322 0.500000
#
# Coordination Sequence:
#
# PCOD9176074 Si02
#       6
#     8   8   8   8   8   8
#     4  10  22  37  56  81 106 144 189 230 274 316
#     4  11  23  37  53  79 115 149 186 218 259 328
#     4  10  18  34  54  81 115 139 167 230 282 328
#     4   9  18  34  57  83 107 143 179 220 283 326
#     4  11  19  30  53  80 113 143 169 219 274 335
#     4   9  19  31  56  84 109 137 175 228 287 329
#
# _framework density 20.133064999999998
#
# number of rings (size 3 to 8) (size 9 to 14) (size 15 to 20)
#    0.000    2.000    3.333    1.500    0.000    4.333 
#    0.000    0.000    0.000    1.000    0.000    1.167 
#    0.000    0.000    0.000    0.000    0.000    0.000 
#
# Total GULP energy -133642.196554 kJ/mol
# GULP energy per Si atom -5568.424856 kJ/mol
# Density = 2.008724 g / cm^3
# Si number density = 20.133065 Si / 1000 Ang^3
#
#
#
# Elastic Constant Matrix: (Units=GPa)
#
#
# Indices 1 2 3 4 5 6 
#
# 1 210.7462 30.8749 27.4214 0.0000 46.6137 0.0000
# 2 30.8749 95.7304 21.3691 0.0000 -1.9005 0.0000
# 3 27.4214 21.3691 54.8409 0.0000 17.4031 0.0000
# 4 0.0000 0.0000 0.0000 12.8184 0.0000 0.9553
# 5 46.6137 -1.9005 17.4031 0.0000 31.4622 0.0000
# 6 0.0000 0.0000 0.0000 0.9553 0.0000 12.2713
#
#
#
# Elastic Compliance Matrix: (Units=1/GPa)
#
#
# Indices 1 2 3 4 5 6 
#
# 1 0.007762 -0.003020 0.001217 0.000000 -0.012355 0.000000
# 2 -0.003020 0.013010 -0.006342 0.000000 0.008769 0.000000
# 3 0.001217 -0.006342 0.025217 0.000000 -0.016134 0.000000
# 4 0.000000 0.000000 0.000000 0.078468 0.000000 -0.006108
# 5 -0.012355 0.008769 -0.016134 0.000000 0.059544 0.000000
# 6 0.000000 0.000000 0.000000 -0.006108 0.000000 0.081966
#
#
# Mechanical properties :
#
#
# Convention : Reuss Voigt Hill
#
# Bulk Modulus (GPa) = 33.67186 57.84981 45.76083
# Shear Modulus (GPa) = 17.11402 30.08719 23.60060
#
# Velocity S-wave (km/s) = 2.91872 3.86996 3.42750
# Velocity P-wave (km/s) = 5.30278 6.98319 6.20018
#
# Compressibility (1/GPa) = 0.02969839
#
# Stress axis : x y z
#
# Youngs Moduli (GPa) = 128.83182 76.86517 39.65508
#
# Poissons Ratio (x) = 0.23215 -0.04824
# Poissons Ratio (y) = 0.38911 0.25148
# Poissons Ratio (z) = -0.15673 0.48746
#
# Static dielectric constant tensor:
#      x y z
#    x 1.853100 0.000000 0.055290 
#    y 0.000000 1.649530 0.000000 
#    z 0.055290 0.000000 1.819320 
# 
# From -- ./inp_files/133402.got.cif
#   From: 2010.05.17/outbox.cif.g08.bks.cpg/sg12_67_cif.got.tgz:133402.got - 2010.06.03 13:09:07.
