data_PCOD9176383
_publ_section_title
;
Structure prediction by ZEFSAII (Michael W. Deem and Ramdas Pophale) SiO2 
 PCOD9176383
Probable space group: C 2/M
;
_chemical_formula_sum "Si O2"
_cell_formula_units_Z 56
_cell_length_a 23.933383
_cell_length_b 7.494697
_cell_length_c 16.376125
_cell_angle_alpha 90.000000
_cell_angle_beta 127.738230
_cell_angle_gamma 90.000000
_cell_volume 2322.974221
_symmetry_space_group_name_H-M "C 2/M"
_symmetry_group_IT_number 12
_symmetry_cell_setting 'monoclinic'
loop_
_space_group_symop_operation_xyz
x,y,z
-x,y,-z
-x,-y,-z
x,-y,z
1/2+x,1/2+y,z
1/2-x,1/2+y,-z
1/2-x,1/2-y,-z
1/2+x,1/2-y,z
loop_
_atom_site_type_symbol
_atom_site_label
_atom_site_fract_x
_atom_site_fract_y
_atom_site_fract_z
Si Si1 0.861577 0.792754 0.260019
Si Si2 0.569671 0.202551 0.517269
Si Si3 0.183297 0.714657 0.239870
Si Si4 0.197339 0.299064 0.528126
Si Si5 0.027574 0.282023 0.114079
Si Si6 0.585719 0.784130 0.855136
Si Si7 0.789236 0.715739 0.921746
O O1 0.879569 0.694878 0.358468
O O2 0.920431 0.778857 0.242941
O O3 0.790919 0.720174 0.153822
O O4 0.849744 0.000000 0.270851
O O5 0.500000 0.286723 0.500000
O O6 0.621691 0.282042 0.492863
O O7 0.548742 0.000000 0.473828
O O8 0.188819 0.500000 0.252194
O O9 0.249205 0.789500 0.347558
O O10 0.107304 0.773875 0.203945
O O11 0.182300 0.756051 0.143032
O O12 0.176528 0.500000 0.490213
O O13 0.250000 0.250000 0.500000
O O14 0.027427 0.500000 0.111393
O O15 0.975794 0.226189 0.139407
O O16 0.000000 0.224964 0.000000
O O17 0.586312 0.000000 0.854567
O O18 0.658018 0.716678 0.962445
O O19 0.788195 0.500000 0.929336
#
# Coordination Sequence:
#
# PCOD9176383 Si02
#       7
#     8   8   8   8   8   8   8
#     4  11  22  36  55  84 118 152 189 233 291 347
#     4  10  23  44  67  88 112 148 198 249 295 347
#     4  10  18  34  60  86 113 147 189 235 281 333
#     4  11  24  42  65  91 117 148 190 242 299 358
#     4   9  16  29  54  83 110 148 197 238 272 321
#     4  10  19  33  54  83 117 155 198 237 274 327
#     4   9  17  31  55  82 111 148 190 231 273 326
#
# _framework density 24.107025
#
# number of rings (size 3 to 8) (size 9 to 14) (size 15 to 20)
#    0.000    2.000    2.857    1.286    0.000    2.000 
#    0.000    7.857    0.000    0.857    0.000    0.000 
#    0.000    0.000    0.000    0.000    0.000    0.000 
#
# Total GULP energy -156231.667825 kJ/mol
# GULP energy per Si atom -5579.702422 kJ/mol
# Density = 2.405216 g / cm^3
# Si number density = 24.107025 Si / 1000 Ang^3
#
#
#
# Elastic Constant Matrix: (Units=GPa)
#
#
# Indices 1 2 3 4 5 6 
#
# 1 171.2426 7.3846 37.9733 0.0000 12.0112 0.0000
# 2 7.3846 69.8024 -6.6568 0.0000 -0.9027 0.0000
# 3 37.9733 -6.6568 30.7417 0.0000 0.3472 0.0000
# 4 0.0000 0.0000 0.0000 19.7202 0.0000 2.7530
# 5 12.0112 -0.9027 0.3472 0.0000 38.1039 0.0000
# 6 0.0000 0.0000 0.0000 2.7530 0.0000 14.6038
#
#
#
# Elastic Compliance Matrix: (Units=1/GPa)
#
#
# Indices 1 2 3 4 5 6 
#
# 1 0.008537 -0.001981 -0.010945 0.000000 -0.002638 0.000000
# 2 -0.001981 0.015092 0.005705 0.000000 0.000930 0.000000
# 3 -0.010945 0.005705 0.047248 0.000000 0.003155 0.000000
# 4 0.000000 0.000000 0.000000 0.052080 0.000000 -0.009818
# 5 -0.002638 0.000930 0.003155 0.000000 0.027069 0.000000
# 6 0.000000 0.000000 0.000000 -0.009818 0.000000 0.070326
#
#
# Mechanical properties :
#
#
# Convention : Reuss Voigt Hill
#
# Bulk Modulus (GPa) = 17.71960 38.79876 28.25918
# Shear Modulus (GPa) = 19.71566 30.02463 24.87014
#
# Velocity S-wave (km/s) = 2.86289 3.53295 3.21542
# Velocity P-wave (km/s) = 4.27721 5.72465 5.05303
#
# Compressibility (1/GPa) = 0.05643468
#
# Stress axis : x y z
#
# Youngs Moduli (GPa) = 117.13542 66.26120 21.16496
#
# Poissons Ratio (x) = 0.13127 0.23164
# Poissons Ratio (y) = 0.23205 -0.12074
# Poissons Ratio (z) = 1.28200 -0.37799
#
# Static dielectric constant tensor:
#      x y z
#    x 2.019090 0.000000 0.038590 
#    y 0.000000 1.955280 0.000000 
#    z 0.038590 0.000000 1.865290 
# 
# From -- ./inp_files/288429.got.cif
#   From: 2010.05.17/outbox.cif.g08.bks.cpg/sg12_145_cif.got.tgz:288429.got - 2010.06.03 13:09:07.
