data_PCOD9176562
_publ_section_title
;
Structure prediction by ZEFSAII (Michael W. Deem and Ramdas Pophale) SiO2 
 PCOD9176562
Probable space group: C 2/M
;
_chemical_formula_sum "Si O2"
_cell_formula_units_Z 44
_cell_length_a 15.998084
_cell_length_b 7.790688
_cell_length_c 20.423025
_cell_angle_alpha 90.000000
_cell_angle_beta 136.308580
_cell_angle_gamma 90.000000
_cell_volume 1758.328132
_symmetry_space_group_name_H-M "C 2/M"
_symmetry_group_IT_number 12
_symmetry_cell_setting 'monoclinic'
loop_
_space_group_symop_operation_xyz
x,y,z
-x,y,-z
-x,-y,-z
x,-y,z
1/2+x,1/2+y,z
1/2-x,1/2+y,-z
1/2-x,1/2-y,-z
1/2+x,1/2-y,z
loop_
_atom_site_type_symbol
_atom_site_label
_atom_site_fract_x
_atom_site_fract_y
_atom_site_fract_z
Si Si1 0.127134 0.681232 0.000375
Si Si2 0.193820 0.199655 0.174921
Si Si3 0.961100 0.799813 0.291242
Si Si4 0.650740 0.289023 0.296753
Si Si5 0.094702 0.707457 0.496298
Si Si6 0.646044 0.500000 0.925157
O O1 0.069932 0.500000 0.947622
O O2 0.127085 0.708535 0.077910
O O3 0.087774 0.847699 0.938486
O O4 0.270369 0.646917 0.065537
O O5 0.337571 0.212589 0.242532
O O6 0.169276 0.269174 0.233300
O O7 0.163522 0.000000 0.154789
O O8 0.031829 0.730449 0.267981
O O9 0.052309 0.785881 0.404084
O O10 0.935583 0.000000 0.263265
O O11 0.644086 0.500000 0.291628
O O12 0.770850 0.243246 0.405473
O O13 0.090711 0.500000 0.487735
O O14 0.000000 0.754803 0.500000
#
# Coordination Sequence:
#
# PCOD9176562 Si02
#       6
#     8   8   8   8   8   4
#     4   9  16  30  52  84 116 144 184 226 269 333
#     4  11  20  35  56  80 108 149 185 222 278 333
#     4  11  22  35  51  78 109 140 183 236 281 327
#     4   9  20  36  53  74 107 147 185 225 282 336
#     4  10  18  35  57  72  97 144 189 226 275 336
#     4   8  16  30  52  84 116 144 182 222 272 332
#
# _framework density 25.023771
#
# number of rings (size 3 to 8) (size 9 to 14) (size 15 to 20)
#    0.545    1.636    2.727    1.636    0.000    0.364 
#    0.000    4.545    0.000    0.000    0.000    7.636 
#    0.000    0.000    0.000    0.000    0.000    0.000 
#
# Total GULP energy -122679.152782 kJ/mol
# GULP energy per Si atom -5576.325126 kJ/mol
# Density = 2.496682 g / cm^3
# Si number density = 25.023771 Si / 1000 Ang^3
#
#
#
# Elastic Constant Matrix: (Units=GPa)
#
#
# Indices 1 2 3 4 5 6 
#
# 1 191.9055 31.3788 79.1792 0.0000 -6.4630 0.0000
# 2 31.3788 99.5158 21.6452 0.0000 4.4845 0.0000
# 3 79.1792 21.6452 96.8842 0.0000 10.3230 0.0000
# 4 0.0000 0.0000 0.0000 34.7439 0.0000 -6.1956
# 5 -6.4630 4.4845 10.3230 0.0000 31.8098 0.0000
# 6 0.0000 0.0000 0.0000 -6.1956 0.0000 27.5921
#
#
#
# Elastic Compliance Matrix: (Units=1/GPa)
#
#
# Indices 1 2 3 4 5 6 
#
# 1 0.008499 -0.001326 -0.007099 0.000000 0.004217 0.000000
# 2 -0.001326 0.010786 -0.001176 0.000000 -0.001408 0.000000
# 3 -0.007099 -0.001176 0.017114 0.000000 -0.006830 0.000000
# 4 0.000000 0.000000 0.000000 0.029983 0.000000 0.006732
# 5 0.004217 -0.001408 -0.006830 0.000000 0.034709 0.000000
# 6 0.000000 0.000000 0.000000 0.006732 0.000000 0.037754
#
#
# Mechanical properties :
#
#
# Convention : Reuss Voigt Hill
#
# Bulk Modulus (GPa) = 58.15015 72.52354 65.33685
# Shear Modulus (GPa) = 30.52934 35.90264 33.21599
#
# Velocity S-wave (km/s) = 3.49666 3.79191 3.64727
# Velocity P-wave (km/s) = 6.29210 6.94379 6.62596
#
# Compressibility (1/GPa) = 0.01719686
#
# Stress axis : x y z
#
# Youngs Moduli (GPa) = 117.66670 92.71295 58.43320
#
# Poissons Ratio (x) = 0.12292 0.41480
# Poissons Ratio (y) = 0.15600 0.06873
# Poissons Ratio (z) = 0.83528 0.10905
#
# Static dielectric constant tensor:
#      x y z
#    x 2.002280 0.000000 0.027680 
#    y 0.000000 1.935540 0.000000 
#    z 0.027680 0.000000 2.008180 
# 
# From -- ./inp_files/267315.got.cif
#   From: 2010.05.17/outbox.cif.g08.bks.cpg/sg12_134_cif.got.tgz:267315.got - 2010.06.03 13:09:07.
