data_PCOD9176028
_publ_section_title
;
Structure prediction by ZEFSAII (Michael W. Deem and Ramdas Pophale) SiO2 
 PCOD9176028
Probable space group: C 2/M
;
_chemical_formula_sum "Si O2"
_cell_formula_units_Z 48
_cell_length_a 16.077614
_cell_length_b 20.683465
_cell_length_c 21.371292
_cell_angle_alpha 90.000000
_cell_angle_beta 158.448029
_cell_angle_gamma 90.000000
_cell_volume 2610.657110
_symmetry_space_group_name_H-M "C 2/M"
_symmetry_group_IT_number 12
_symmetry_cell_setting 'monoclinic'
loop_
_space_group_symop_operation_xyz
x,y,z
-x,y,-z
-x,-y,-z
x,-y,z
1/2+x,1/2+y,z
1/2-x,1/2+y,-z
1/2-x,1/2-y,-z
1/2+x,1/2-y,z
loop_
_atom_site_type_symbol
_atom_site_label
_atom_site_fract_x
_atom_site_fract_y
_atom_site_fract_z
Si Si1 0.201319 0.279215 0.535860
Si Si2 0.760224 0.272696 0.168351
Si Si3 0.567912 0.927379 0.930530
Si Si4 0.065623 0.924449 0.614924
Si Si5 0.076277 0.697373 0.849194
Si Si6 0.952473 0.133801 0.271578
O O1 0.250000 0.250000 0.500000
O O2 0.330123 0.231941 0.673324
O O3 0.344825 0.345184 0.632465
O O4 0.931750 0.284846 0.346335
O O5 0.842240 0.312644 0.165205
O O6 0.799476 0.197874 0.175607
O O7 0.500000 0.284071 0.000000
O O8 0.337630 0.919081 0.809077
O O9 0.574069 0.868924 0.885498
O O10 0.556882 0.000000 0.895782
O O11 0.789299 0.919239 0.127920
O O12 0.960363 0.887468 0.599573
O O13 0.000000 0.900679 0.500000
O O14 0.002756 0.000000 0.574095
O O15 0.250000 0.750000 0.000000
#
# Coordination Sequence:
#
# PCOD9176028 Si02
#       6
#     8   8   8   8   8   8
#     4   8  18  32  53  74 104 137 174 219 274 311
#     4  10  20  34  55  81 103 137 178 228 278 321
#     4  11  21  33  52  77 108 150 182 215 266 320
#     4  10  22  32  45  75 112 146 180 211 253 322
#     4  10  18  35  54  78 111 138 177 225 265 318
#     4  10  18  34  52  73 109 145 176 212 267 322
#
# _framework density 18.386175999999999
#
# number of rings (size 3 to 8) (size 9 to 14) (size 15 to 20)
#    0.000    2.500    3.333    2.000    7.000    1.333 
#    0.000    0.833    0.000    0.500    0.000    1.167 
#    0.000    0.000    0.000    0.000    0.000    0.000 
#
# Total GULP energy -133776.321463 kJ/mol
# GULP energy per Si atom -5574.013394 kJ/mol
# Density = 1.834433 g / cm^3
# Si number density = 18.386176 Si / 1000 Ang^3
#
#
#
# Elastic Constant Matrix: (Units=GPa)
#
#
# Indices 1 2 3 4 5 6 
#
# 1 45.1420 33.9503 17.2812 0.0232 -4.9297 0.0120
# 2 33.9503 88.8563 19.8061 0.0708 -3.5072 0.0012
# 3 17.2812 19.8061 129.8015 0.1240 5.9898 0.0050
# 4 0.0232 0.0708 0.1240 22.8144 0.0147 -6.0462
# 5 -4.9297 -3.5072 5.9898 0.0147 30.0367 0.0048
# 6 0.0120 0.0012 0.0050 -6.0462 0.0048 20.0381
#
#
#
# Elastic Compliance Matrix: (Units=1/GPa)
#
#
# Indices 1 2 3 4 5 6 
#
# 1 0.032421 -0.011595 -0.002756 0.000011 0.004517 -0.000016
# 2 -0.011595 0.015887 -0.000886 -0.000034 0.000129 -0.000004
# 3 -0.002756 -0.000886 0.008308 -0.000041 -0.002213 -0.000012
# 4 0.000011 -0.000034 -0.000041 0.047642 -0.000020 0.014375
# 5 0.004517 0.000129 -0.002213 -0.000020 0.034490 -0.000016
# 6 -0.000016 -0.000004 -0.000012 0.014375 -0.000016 0.054242
#
#
# Mechanical properties :
#
#
# Convention : Reuss Voigt Hill
#
# Bulk Modulus (GPa) = 38.25201 45.09720 41.67461
# Shear Modulus (GPa) = 21.53520 27.42866 24.48193
#
# Velocity S-wave (km/s) = 3.42610 3.86658 3.65299
# Velocity P-wave (km/s) = 6.04159 6.67196 6.36458
#
# Compressibility (1/GPa) = 0.02614242
#
# Stress axis : x y z
#
# Youngs Moduli (GPa) = 30.84456 62.94461 120.36123
#
# Poissons Ratio (x) = 0.72983 0.33166
# Poissons Ratio (y) = 0.35764 0.10669
# Poissons Ratio (z) = 0.08499 0.05579
#
# Static dielectric constant tensor:
#      x y z
#    x 1.657640 0.000000 -0.016270 
#    y 0.000000 1.647820 -0.000040 
#    z -0.016270 -0.000040 1.742700 
# 
# From -- ./inp_files/344497.got.cif
#   From: 2010.05.17/outbox.cif.g08.bks.cpg/sg12_173_cif.got.tgz:344497.got - 2010.06.03 13:09:07.
