data_PCOD9176445
_publ_section_title
;
Structure prediction by ZEFSAII (Michael W. Deem and Ramdas Pophale) SiO2 
 PCOD9176445
Probable space group: C 2/M
;
_chemical_formula_sum "Si O2"
_cell_formula_units_Z 48
_cell_length_a 13.841710
_cell_length_b 13.918382
_cell_length_c 14.764546
_cell_angle_alpha 90.000000
_cell_angle_beta 135.427794
_cell_angle_gamma 90.000000
_cell_volume 1996.257877
_symmetry_space_group_name_H-M "C 2/M"
_symmetry_group_IT_number 12
_symmetry_cell_setting 'monoclinic'
loop_
_space_group_symop_operation_xyz
x,y,z
-x,y,-z
-x,-y,-z
x,-y,z
1/2+x,1/2+y,z
1/2-x,1/2+y,-z
1/2-x,1/2-y,-z
1/2+x,1/2-y,z
loop_
_atom_site_type_symbol
_atom_site_label
_atom_site_fract_x
_atom_site_fract_y
_atom_site_fract_z
Si Si1 0.558241 0.282533 0.806128
Si Si2 0.632262 0.115479 0.301165
Si Si3 0.130950 0.109940 0.026795
Si Si4 0.282300 0.394471 0.591406
Si Si5 0.883231 0.604297 0.333678
Si Si6 0.888541 0.180675 0.354113
O O1 0.514958 0.169879 0.790699
O O2 0.636442 0.319731 0.946495
O O3 0.403639 0.325004 0.699570
O O4 0.622499 0.336619 0.760852
O O5 0.705000 0.130559 0.447538
O O6 0.740723 0.160562 0.301111
O O7 0.619180 0.000000 0.277561
O O8 0.110166 0.000000 0.981553
O O9 0.259657 0.111848 0.179622
O O10 0.000000 0.136606 0.000000
O O11 0.343689 0.500000 0.617986
O O12 0.181846 0.400080 0.609778
O O13 0.952118 0.500000 0.361936
O O14 0.946177 0.709986 0.377428
O O15 0.000000 0.136276 0.500000
#
# Coordination Sequence:
#
# PCOD9176445 Si02
#       6
#     8   8   8   8   8   8
#     4  12  22  37  63  89 123 158 207 246 301 361
#     4  11  24  41  59  89 131 165 198 249 306 363
#     4  10  19  35  62  90 116 151 200 255 304 352
#     4  10  18  34  62  87 115 150 192 248 302 351
#     4  10  21  38  61  91 121 150 196 257 309 355
#     4  12  24  38  63  90 124 162 206 245 299 369
#
# _framework density 24.044989999999999
#
# number of rings (size 3 to 8) (size 9 to 14) (size 15 to 20)
#    0.000    1.167    5.000    2.000    0.000    3.333 
#    0.000    0.000    0.000    4.500    0.000    0.000 
#    0.000    0.000    0.000    0.000    0.000    0.000 
#
# Total GULP energy -133962.665509 kJ/mol
# GULP energy per Si atom -5581.777730 kJ/mol
# Density = 2.399026 g / cm^3
# Si number density = 24.044990 Si / 1000 Ang^3
#
#
#
# Elastic Constant Matrix: (Units=GPa)
#
#
# Indices 1 2 3 4 5 6 
#
# 1 103.0028 20.0434 25.4489 0.0000 -13.4055 0.0000
# 2 20.0434 76.1636 37.4708 0.0000 -7.3236 0.0000
# 3 25.4489 37.4708 143.1698 0.0000 -10.7114 0.0000
# 4 0.0000 0.0000 0.0000 33.6351 0.0000 5.5167
# 5 -13.4055 -7.3236 -10.7114 0.0000 19.4430 0.0000
# 6 0.0000 0.0000 0.0000 5.5167 0.0000 22.1472
#
#
#
# Elastic Compliance Matrix: (Units=1/GPa)
#
#
# Indices 1 2 3 4 5 6 
#
# 1 0.011153 -0.001810 -0.001027 0.000000 0.006442 0.000000
# 2 -0.001810 0.015617 -0.003566 0.000000 0.002670 0.000000
# 3 -0.001027 -0.003566 0.008289 0.000000 0.002515 0.000000
# 4 0.000000 0.000000 0.000000 0.030997 0.000000 -0.007721
# 5 0.006442 0.002670 0.002515 0.000000 0.058265 0.000000
# 6 0.000000 0.000000 0.000000 -0.007721 0.000000 0.047076
#
#
# Mechanical properties :
#
#
# Convention : Reuss Voigt Hill
#
# Bulk Modulus (GPa) = 44.93829 54.25138 49.59484
# Shear Modulus (GPa) = 26.09326 31.00328 28.54827
#
# Velocity S-wave (km/s) = 3.29779 3.59470 3.44944
# Velocity P-wave (km/s) = 5.76458 6.31194 6.04446
#
# Compressibility (1/GPa) = 0.02225274
#
# Stress axis : x y z
#
# Youngs Moduli (GPa) = 89.66326 64.03244 120.64707
#
# Poissons Ratio (x) = 0.11593 0.12386
# Poissons Ratio (y) = 0.16233 0.43020
# Poissons Ratio (z) = 0.09205 0.22833
#
# Static dielectric constant tensor:
#      x y z
#    x 1.965140 0.000000 -0.032570 
#    y 0.000000 2.028220 0.000000 
#    z -0.032570 0.000000 1.938250 
# 
# From -- ./inp_files/143559.got.cif
#   From: 2010.05.17/outbox.cif.g08.bks.cpg/sg12_72_cif.got.tgz:143559.got - 2010.06.03 13:09:07.
