data_PCOD9176927
_publ_section_title
;
Structure prediction by ZEFSAII (Michael W. Deem and Ramdas Pophale) SiO2 
 PCOD9176927
Probable space group: C 2/M
;
_chemical_formula_sum "Si O2"
_cell_formula_units_Z 56
_cell_length_a 20.684017
_cell_length_b 8.867064
_cell_length_c 22.686901
_cell_angle_alpha 90.000000
_cell_angle_beta 131.376826
_cell_angle_gamma 90.000000
_cell_volume 3122.268718
_symmetry_space_group_name_H-M "C 2/M"
_symmetry_group_IT_number 12
_symmetry_cell_setting 'monoclinic'
loop_
_space_group_symop_operation_xyz
x,y,z
-x,y,-z
-x,-y,-z
x,-y,z
1/2+x,1/2+y,z
1/2-x,1/2+y,-z
1/2-x,1/2-y,-z
1/2+x,1/2-y,z
loop_
_atom_site_type_symbol
_atom_site_label
_atom_site_fract_x
_atom_site_fract_y
_atom_site_fract_z
Si Si1 0.318729 0.181319 0.736021
Si Si2 0.921968 0.321043 0.242666
Si Si3 0.637974 0.682771 0.579770
Si Si4 0.931196 0.680334 0.009259
Si Si5 0.000245 0.817611 0.403246
Si Si6 0.259477 0.821007 0.834363
Si Si7 0.995011 0.820705 0.168492
O O1 0.235818 0.231757 0.648135
O O2 0.294639 0.209631 0.789869
O O3 0.406692 0.262374 0.772820
O O4 0.329921 0.000000 0.736451
O O5 0.928155 0.500000 0.243390
O O6 0.825903 0.270488 0.202733
O O7 0.946825 0.249640 0.195299
O O8 0.984555 0.257480 0.331312
O O9 0.638857 0.500000 0.580198
O O10 0.578670 0.723888 0.600259
O O11 0.586828 0.728641 0.490246
O O12 0.940303 0.500000 0.024533
O O13 0.952059 0.764497 0.081949
O O14 0.836367 0.709381 0.926451
O O15 0.000000 0.721759 0.000000
O O16 0.999590 0.000000 0.396925
O O17 0.238657 0.000000 0.823803
O O18 0.992554 0.000000 0.170307
#
# Coordination Sequence:
#
# PCOD9176927 Si02
#       7
#     8   8   8   8   8   8   8
#     4  10  18  36  62  90 118 152 194 236 288 348
#     4  12  25  40  58  84 120 159 197 241 293 346
#     4   8  15  29  59  91 116 149 191 236 284 344
#     4  10  20  39  64  90 117 151 191 236 290 346
#     4   9  16  33  58  87 118 152 193 235 286 344
#     4  10  20  37  65  90 116 152 192 237 287 347
#     4  12  26  41  59  84 118 158 197 242 292 345
#
# _framework density 17.935675
#
# number of rings (size 3 to 8) (size 9 to 14) (size 15 to 20)
#    0.000    1.857    2.857    3.429    0.000    2.000 
#    0.000    2.857    0.000    0.000    0.000    0.000 
#    0.000    0.000    0.000    0.000    0.000    0.000 
#
# Total GULP energy -156362.984625 kJ/mol
# GULP energy per Si atom -5584.392308 kJ/mol
# Density = 1.789485 g / cm^3
# Si number density = 17.935675 Si / 1000 Ang^3
#
#
#
# Elastic Constant Matrix: (Units=GPa)
#
#
# Indices 1 2 3 4 5 6 
#
# 1 55.4265 39.6165 25.9679 0.0000 -9.9981 0.0000
# 2 39.6165 66.4823 47.2385 0.0000 -4.5697 0.0000
# 3 25.9679 47.2385 93.3470 0.0000 -5.6166 0.0000
# 4 0.0000 0.0000 0.0000 22.8781 0.0000 -2.4050
# 5 -9.9981 -4.5697 -5.6166 0.0000 27.5845 0.0000
# 6 0.0000 0.0000 0.0000 -2.4050 0.0000 27.0352
#
#
#
# Elastic Compliance Matrix: (Units=1/GPa)
#
#
# Indices 1 2 3 4 5 6 
#
# 1 0.033618 -0.020535 0.001588 0.000000 0.009106 0.000000
# 2 -0.020535 0.036091 -0.012796 0.000000 -0.004070 0.000000
# 3 0.001588 -0.012796 0.016860 0.000000 0.001889 0.000000
# 4 0.000000 0.000000 0.000000 0.044122 0.000000 0.003925
# 5 0.009106 -0.004070 0.001889 0.000000 0.039263 0.000000
# 6 0.000000 0.000000 0.000000 0.003925 0.000000 0.037338
#
#
# Mechanical properties :
#
#
# Convention : Reuss Voigt Hill
#
# Bulk Modulus (GPa) = 43.32362 48.98906 46.15634
# Shear Modulus (GPa) = 17.95497 22.32845 20.14171
#
# Velocity S-wave (km/s) = 3.16741 3.53217 3.35475
# Velocity P-wave (km/s) = 6.13059 6.63385 6.38718
#
# Compressibility (1/GPa) = 0.02308210
#
# Stress axis : x y z
#
# Youngs Moduli (GPa) = 29.74566 27.70781 59.31115
#
# Poissons Ratio (x) = 0.56898 -0.09416
# Poissons Ratio (y) = 0.61083 0.75896
# Poissons Ratio (z) = -0.04722 0.35455
#
# Static dielectric constant tensor:
#      x y z
#    x 1.584170 0.000000 0.013020 
#    y 0.000000 1.597790 0.000000 
#    z 0.013020 0.000000 1.621060 
# 
# From -- ./inp_files/320221.got.cif
#   From: 2010.05.17/outbox.cif.g08.bks.cpg/sg12_161_cif.got.tgz:320221.got - 2010.06.03 13:09:07.
