data_PCOD9176911
_publ_section_title
;
Structure prediction by ZEFSAII (Michael W. Deem and Ramdas Pophale) SiO2 
 PCOD9176911
Probable space group: C 2/M
;
_chemical_formula_sum "Si O2"
_cell_formula_units_Z 58
_cell_length_a 8.895029
_cell_length_b 13.514141
_cell_length_c 21.603790
_cell_angle_alpha 90.000000
_cell_angle_beta 93.643839
_cell_angle_gamma 90.000000
_cell_volume 2591.712956
_symmetry_space_group_name_H-M "C 2/M"
_symmetry_group_IT_number 12
_symmetry_cell_setting 'monoclinic'
loop_
_space_group_symop_operation_xyz
x,y,z
-x,y,-z
-x,-y,-z
x,-y,z
1/2+x,1/2+y,z
1/2-x,1/2+y,-z
1/2-x,1/2-y,-z
1/2+x,1/2-y,z
loop_
_atom_site_type_symbol
_atom_site_label
_atom_site_fract_x
_atom_site_fract_y
_atom_site_fract_z
Si Si1 0.310060 0.890666 0.013803
Si Si2 0.873660 0.211301 0.454974
Si Si3 0.000000 0.000000 0.000000
Si Si4 0.939026 0.393350 0.252933
Si Si5 0.096321 0.311296 0.374147
Si Si6 0.395575 0.607823 0.698895
Si Si7 0.442998 0.309117 0.182538
Si Si8 0.319362 0.760850 0.900726
O O1 0.133204 0.915327 0.995026
O O2 0.298909 0.811880 0.068370
O O3 0.369363 0.000000 0.032213
O O4 0.374775 0.837343 0.954390
O O5 0.750000 0.250000 0.500000
O O6 0.762622 0.160438 0.402458
O O7 0.000000 0.156879 0.500000
O O8 0.967011 0.299479 0.423258
O O9 0.966407 0.500000 0.224876
O O10 0.767852 0.389140 0.273160
O O11 0.957736 0.302401 0.208217
O O12 0.042085 0.377165 0.315957
O O13 0.101132 0.198659 0.348122
O O14 0.416572 0.500000 0.670474
O O15 0.513079 0.624492 0.757859
O O16 0.563572 0.311406 0.130425
O O17 0.276278 0.321643 0.152376
#
# Coordination Sequence:
#
# PCOD9176911 Si02
#       8
#     8   8   2   8   8   8   8   8
#     4   9  21  37  59  85 110 150 192 231 279 360
#     4   9  18  32  58  89 120 157 196 232 290 338
#     4   8  16  40  60  82 106 140 200 222 268 348
#     4  10  21  38  59  86 116 153 196 236 295 351
#     4  10  18  36  61  85 115 159 193 239 284 345
#     4  10  21  38  60  86 114 154 200 237 289 350
#     4  11  23  38  59  88 117 150 188 246 292 347
#     4  11  22  39  59  85 117 149 188 240 296 341
#
# _framework density 22.379021999999999
#
# number of rings (size 3 to 8) (size 9 to 14) (size 15 to 20)
#    0.414    1.655    2.759    0.828    0.000    3.862 
#    0.000    2.759    0.000   16.552    0.000    0.000 
#    0.000    0.000    0.000    0.000    0.000    0.000 
#
# Total GULP energy -161520.676908 kJ/mol
# GULP energy per Si atom -5569.678514 kJ/mol
# Density = 2.232809 g / cm^3
# Si number density = 22.379022 Si / 1000 Ang^3
#
#
#
# Elastic Constant Matrix: (Units=GPa)
#
#
# Indices 1 2 3 4 5 6 
#
# 1 80.8612 -12.9700 8.9669 0.0000 11.6273 0.0000
# 2 -12.9700 91.8337 5.5623 0.0000 -7.8850 0.0000
# 3 8.9669 5.5623 72.8903 0.0000 19.3460 0.0000
# 4 0.0000 0.0000 0.0000 -8.2374 0.0000 4.4168
# 5 11.6273 -7.8850 19.3460 0.0000 49.2955 0.0000
# 6 0.0000 0.0000 0.0000 4.4168 0.0000 10.9982
#
#
#
# Elastic Compliance Matrix: (Units=1/GPa)
#
#
# Indices 1 2 3 4 5 6 
#
# 1 0.013107 0.001714 -0.001111 0.000000 -0.002381 0.000000
# 2 0.001714 0.011407 -0.001628 0.000000 0.002059 0.000000
# 3 -0.001111 -0.001628 0.015605 0.000000 -0.006123 0.000000
# 4 0.000000 0.000000 0.000000 -0.099889 0.000000 0.040115
# 5 -0.002381 0.002059 -0.006123 0.000000 0.023580 0.000000
# 6 0.000000 0.000000 0.000000 0.040115 0.000000 0.074814
#
#
# Mechanical properties :
#
#
# Convention : Reuss Voigt Hill
#
# Bulk Modulus (GPa) = 26.26787 27.63375 26.95081
# Shear Modulus (GPa) = 93.69623 26.67966 60.18794
#
# Velocity S-wave (km/s) = 6.47756 3.45653 5.19165
# Velocity P-wave (km/s) = 8.22850 5.32025 6.92868
#
# Compressibility (1/GPa) = 0.03806932
#
# Stress axis : x y z
#
# Youngs Moduli (GPa) = 76.29245 87.66758 64.08130
#
# Poissons Ratio (x) = -0.15027 0.07121
# Poissons Ratio (y) = -0.13077 0.10431
# Poissons Ratio (z) = 0.08478 0.14271
#
# Static dielectric constant tensor:
#      x y z
#    x 1.882580 0.000000 0.016950 
#    y 0.000000 1.772530 0.000000 
#    z 0.016950 0.000000 1.881810 
# 
# From -- ./inp_files/332638.got.cif
#   From: 2010.05.17/outbox.cif.g08.bks.cpg/sg12_167_cif.got.tgz:332638.got - 2010.06.03 13:09:07.
