data_PCOD9176541
_publ_section_title
;
Structure prediction by ZEFSAII (Michael W. Deem and Ramdas Pophale) SiO2 
 PCOD9176541
Probable space group: C 2/M
;
_chemical_formula_sum "Si O2"
_cell_formula_units_Z 48
_cell_length_a 22.276076
_cell_length_b 16.769707
_cell_length_c 9.619502
_cell_angle_alpha 90.000000
_cell_angle_beta 141.507357
_cell_angle_gamma 90.000000
_cell_volume 2236.640612
_symmetry_space_group_name_H-M "C 2/M"
_symmetry_group_IT_number 12
_symmetry_cell_setting 'monoclinic'
loop_
_space_group_symop_operation_xyz
x,y,z
-x,y,-z
-x,-y,-z
x,-y,z
1/2+x,1/2+y,z
1/2-x,1/2+y,-z
1/2-x,1/2-y,-z
1/2+x,1/2-y,z
loop_
_atom_site_type_symbol
_atom_site_label
_atom_site_fract_x
_atom_site_fract_y
_atom_site_fract_z
Si Si1 0.927755 0.666227 0.090095
Si Si2 0.952876 0.191276 0.602973
Si Si3 0.676829 0.000000 0.809861
Si Si4 0.496758 0.000000 0.707095
Si Si5 0.264555 0.660538 0.086602
Si Si6 0.855749 0.226375 0.722829
Si Si7 0.073996 0.913623 0.000297
O O1 0.984666 0.583600 0.182762
O O2 0.983815 0.727655 0.296887
O O3 0.819259 0.653136 0.949078
O O4 0.912769 0.709824 0.917112
O O5 0.872119 0.165501 0.346803
O O6 0.902264 0.207660 0.659565
O O7 0.022611 0.118335 0.769279
O O8 0.586265 0.000000 0.756886
O O9 0.611061 0.000000 0.552041
O O10 0.739379 0.081688 0.947267
O O11 0.250000 0.750000 0.000000
O O12 0.750000 0.250000 0.500000
O O13 0.850518 0.150559 0.814104
O O14 0.114891 0.000000 0.054816
O O15 0.000000 0.915555 0.000000
#
# Coordination Sequence:
#
# PCOD9176541 Si02
#       7
#     8   8   4   4   8   8   8
#     4  10  20  37  59  83 112 149 189 230 286 338
#     4  10  20  34  58  80 114 150 179 232 277 336
#     4   9  20  36  56  85 112 143 200 241 273 333
#     4   9  18  36  57  80 111 150 189 243 273 327
#     4  11  22  36  60  86 109 150 194 234 286 332
#     4  10  18  35  55  82 117 145 183 227 275 340
#     4   8  16  30  50  78 104 140 178 217 272 321
#
# _framework density 21.460756
#
# number of rings (size 3 to 8) (size 9 to 14) (size 15 to 20)
#    0.000    2.333    1.667    2.500    1.167    2.000 
#    1.500    1.667    7.333    1.000    0.000    0.000 
#    0.000    0.000    0.000    0.000    0.000    0.000 
#
# Total GULP energy -133767.277503 kJ/mol
# GULP energy per Si atom -5573.636563 kJ/mol
# Density = 2.141191 g / cm^3
# Si number density = 21.460756 Si / 1000 Ang^3
#
#
#
# Elastic Constant Matrix: (Units=GPa)
#
#
# Indices 1 2 3 4 5 6 
#
# 1 29.0616 4.9284 6.7158 0.0000 -3.8876 0.0000
# 2 4.9284 195.5982 103.5264 0.0000 -8.6753 0.0000
# 3 6.7158 103.5264 189.9445 0.0000 5.4757 0.0000
# 4 0.0000 0.0000 0.0000 -10.5097 0.0000 19.0127
# 5 -3.8876 -8.6753 5.4757 0.0000 22.8494 0.0000
# 6 0.0000 0.0000 0.0000 19.0127 0.0000 16.9514
#
#
#
# Elastic Compliance Matrix: (Units=1/GPa)
#
#
# Indices 1 2 3 4 5 6 
#
# 1 0.035606 0.000222 -0.001568 0.000000 0.006518 0.000000
# 2 0.000222 0.007510 -0.004213 0.000000 0.003899 0.000000
# 3 -0.001568 -0.004213 0.007724 0.000000 -0.003717 0.000000
# 4 0.000000 0.000000 0.000000 -0.031413 0.000000 0.035232
# 5 0.006518 0.003899 -0.003717 0.000000 0.047245 0.000000
# 6 0.000000 0.000000 0.000000 0.035232 0.000000 0.019475
#
#
# Mechanical properties :
#
#
# Convention : Reuss Voigt Hill
#
# Bulk Modulus (GPa) = 25.17554 71.66062 48.41808
# Shear Modulus (GPa) = 45.24612 25.82047 35.53330
#
# Velocity S-wave (km/s) = 4.59663 3.47241 4.07349
# Velocity P-wave (km/s) = 6.31889 7.03852 6.68839
#
# Compressibility (1/GPa) = 0.03972109
#
# Stress axis : x y z
#
# Youngs Moduli (GPa) = 28.08501 133.15702 129.47095
#
# Poissons Ratio (x) = -0.02951 0.20296
# Poissons Ratio (y) = -0.00622 0.54551
# Poissons Ratio (z) = 0.04403 0.56104
#
# Static dielectric constant tensor:
#      x y z
#    x 1.868580 0.000000 0.003120 
#    y 0.000000 1.805100 0.000000 
#    z 0.003120 0.000000 1.740970 
# 
# From -- ./inp_files/142914.got.cif
#   From: 2010.05.17/outbox.cif.g08.bks.cpg/sg12_72_cif.got.tgz:142914.got - 2010.06.03 13:09:07.
