data_PCOD9176462
_publ_section_title
;
Structure prediction by ZEFSAII (Michael W. Deem and Ramdas Pophale) SiO2 
 PCOD9176462
Probable space group: C 2/M
;
_chemical_formula_sum "Si O2"
_cell_formula_units_Z 52
_cell_length_a 8.721368
_cell_length_b 28.814517
_cell_length_c 15.802976
_cell_angle_alpha 90.000000
_cell_angle_beta 141.431657
_cell_angle_gamma 90.000000
_cell_volume 2475.910043
_symmetry_space_group_name_H-M "C 2/M"
_symmetry_group_IT_number 12
_symmetry_cell_setting 'monoclinic'
loop_
_space_group_symop_operation_xyz
x,y,z
-x,y,-z
-x,-y,-z
x,-y,z
1/2+x,1/2+y,z
1/2-x,1/2+y,-z
1/2-x,1/2-y,-z
1/2+x,1/2-y,z
loop_
_atom_site_type_symbol
_atom_site_label
_atom_site_fract_x
_atom_site_fract_y
_atom_site_fract_z
Si Si1 0.174723 0.500000 0.156161
Si Si2 0.080779 0.807134 0.713451
Si Si3 0.067300 0.603460 0.770614
Si Si4 0.597719 0.734147 0.198772
Si Si5 0.290321 0.000000 0.147506
Si Si6 0.000000 0.824731 0.000000
Si Si7 0.431656 0.831441 0.566255
Si Si8 0.699321 0.901014 0.162444
O O1 0.319244 0.451981 0.213638
O O2 0.980663 0.500000 0.149998
O O3 0.000000 0.500000 0.000000
O O4 0.324922 0.787562 0.775687
O O5 0.118135 0.858374 0.766120
O O6 0.047101 0.773526 0.778116
O O7 0.836748 0.808019 0.552238
O O8 0.154546 0.550668 0.787930
O O9 0.928599 0.626827 0.631895
O O10 0.921216 0.602238 0.796399
O O11 0.286040 0.639587 0.883023
O O12 0.458727 0.709497 0.061617
O O13 0.855716 0.705834 0.320504
O O14 0.000000 0.000000 0.000000
O O15 0.500000 0.846858 0.500000
O O16 0.500000 0.898104 0.000000
#
# Coordination Sequence:
#
# PCOD9176462 Si02
#       8
#     4   8   8   8   4   4   8   8
#     4   8  18  38  57  84 123 155 190 237 292 370
#     4  11  23  39  59  84 119 162 204 250 302 353
#     4  10  20  37  61  89 121 158 195 249 308 359
#     4  10  23  37  58  84 118 157 202 251 296 364
#     4  10  18  34  62  98 118 148 197 250 305 372
#     4  10  20  35  56  84 124 153 194 244 314 352
#     4   9  21  42  57  79 118 165 206 245 286 357
#     4  10  21  37  61  89 121 153 200 249 305 363
#
# _framework density 21.002378
#
# number of rings (size 3 to 8) (size 9 to 14) (size 15 to 20)
#    0.000    2.154    0.769    1.385    5.385    1.231 
#    2.769    1.154    0.000    2.769    0.000    0.000 
#    0.000    0.000    0.000    0.000    0.000    0.000 
#
# Total GULP energy -145075.920513 kJ/mol
# GULP energy per Si atom -5579.843097 kJ/mol
# Density = 2.095458 g / cm^3
# Si number density = 21.002378 Si / 1000 Ang^3
#
#
#
# Elastic Constant Matrix: (Units=GPa)
#
#
# Indices 1 2 3 4 5 6 
#
# 1 37.6034 21.9318 14.5516 0.0000 -14.4693 0.0000
# 2 21.9318 120.3907 32.6854 0.0000 -9.3590 0.0000
# 3 14.5516 32.6854 71.2624 0.0000 -17.9487 0.0000
# 4 0.0000 0.0000 0.0000 -20.1252 0.0000 -13.5808
# 5 -14.4693 -9.3590 -17.9487 0.0000 30.7135 0.0000
# 6 0.0000 0.0000 0.0000 -13.5808 0.0000 20.7353
#
#
#
# Elastic Compliance Matrix: (Units=1/GPa)
#
#
# Indices 1 2 3 4 5 6 
#
# 1 0.035589 -0.004997 -0.001332 0.000000 0.014465 0.000000
# 2 -0.004997 0.010194 -0.004064 0.000000 -0.001623 0.000000
# 3 -0.001332 -0.004064 0.018408 0.000000 0.008892 0.000000
# 4 0.000000 0.000000 0.000000 -0.034459 0.000000 -0.022569
# 5 0.014465 -0.001623 0.008892 0.000000 0.044075 0.000000
# 6 0.000000 0.000000 0.000000 -0.022569 0.000000 0.033445
#
#
# Mechanical properties :
#
#
# Convention : Reuss Voigt Hill
#
# Bulk Modulus (GPa) = 23.03864 40.84382 31.94123
# Shear Modulus (GPa) = 35.08593 16.93723 26.01158
#
# Velocity S-wave (km/s) = 4.09169 2.84288 3.52306
# Velocity P-wave (km/s) = 5.77200 5.50140 5.63832
#
# Compressibility (1/GPa) = 0.04340533
#
# Stress axis : x y z
#
# Youngs Moduli (GPa) = 28.09821 98.09880 54.32399
#
# Poissons Ratio (x) = 0.49023 0.07235
# Poissons Ratio (y) = 0.14042 0.22076
# Poissons Ratio (z) = 0.03742 0.39866
#
# Static dielectric constant tensor:
#      x y z
#    x 1.761170 0.000000 -0.004570 
#    y 0.000000 1.789020 0.000000 
#    z -0.004570 0.000000 1.753450 
# 
# From -- ./inp_files/201406.got.cif
#   From: 2010.05.17/outbox.cif.g08.bks.cpg/sg12_101_cif.got.tgz:201406.got - 2010.06.03 13:09:07.
