data_PCOD9176970
_publ_section_title
;
Structure prediction by ZEFSAII (Michael W. Deem and Ramdas Pophale) SiO2 
 PCOD9176970
Probable space group: C 2/M
;
_chemical_formula_sum "Si O2"
_cell_formula_units_Z 64
_cell_length_a 11.399471
_cell_length_b 28.191418
_cell_length_c 16.707382
_cell_angle_alpha 90.000000
_cell_angle_beta 146.368460
_cell_angle_gamma 90.000000
_cell_volume 2973.734268
_symmetry_space_group_name_H-M "C 2/M"
_symmetry_group_IT_number 12
_symmetry_cell_setting 'monoclinic'
loop_
_space_group_symop_operation_xyz
x,y,z
-x,y,-z
-x,-y,-z
x,-y,z
1/2+x,1/2+y,z
1/2-x,1/2+y,-z
1/2-x,1/2-y,-z
1/2+x,1/2-y,z
loop_
_atom_site_type_symbol
_atom_site_label
_atom_site_fract_x
_atom_site_fract_y
_atom_site_fract_z
Si Si1 0.702158 0.077140 0.866113
Si Si2 0.359516 0.170321 0.088690
Si Si3 0.732206 0.446153 0.636776
Si Si4 0.091882 0.185899 0.776272
Si Si5 0.731993 0.848310 0.663817
Si Si6 0.577516 0.552391 0.175808
Si Si7 0.255173 0.280460 0.831388
Si Si8 0.167897 0.606234 0.164231
O O1 0.755483 0.131308 0.919775
O O2 0.448689 0.071909 0.718770
O O3 0.800750 0.058613 0.840145
O O4 0.827899 0.052316 0.010504
O O5 0.390107 0.210107 0.172151
O O6 0.556575 0.142610 0.163438
O O7 0.224477 0.186511 0.935610
O O8 0.500000 0.422133 0.500000
O O9 0.709944 0.500000 0.596797
O O10 0.779944 0.440498 0.757791
O O11 0.180893 0.227025 0.769792
O O12 0.140641 0.135275 0.763948
O O13 0.851480 0.184752 0.667420
O O14 0.500000 0.858763 0.500000
O O15 0.855016 0.898898 0.742176
O O16 0.729707 0.818382 0.745679
O O17 0.629948 0.500000 0.239676
O O18 0.500000 0.279079 0.000000
O O19 0.000000 0.597267 0.000000
#
# Coordination Sequence:
#
# PCOD9176970 Si02
#       8
#     8   8   8   8   8   8   8   8
#     4  10  18  36  64  97 126 159 215 276 318 369
#     4  10  18  36  66  96 123 156 211 271 305 370
#     4  10  21  37  59  90 127 167 211 261 318 380
#     4  11  23  40  65  92 130 162 212 264 316 378
#     4  12  28  45  62  96 138 169 212 273 334 391
#     4  11  21  38  66  97 127 168 220 270 324 383
#     4  12  22  40  73  96 119 167 219 264 318 380
#     4   9  21  38  58  90 124 164 208 257 314 372
#
# _framework density 21.521761999999999
#
# number of rings (size 3 to 8) (size 9 to 14) (size 15 to 20)
#    0.000    1.375    3.750    3.000    1.750    2.000 
#    0.000    1.250    0.000    0.000    0.000    0.000 
#    0.000    0.000    0.000    0.000    0.000    0.000 
#
# Total GULP energy -178237.651447 kJ/mol
# GULP energy per Si atom -5569.926608 kJ/mol
# Density = 2.147278 g / cm^3
# Si number density = 21.521762 Si / 1000 Ang^3
#
#
#
# Elastic Constant Matrix: (Units=GPa)
#
#
# Indices 1 2 3 4 5 6 
#
# 1 57.9134 -9.6131 17.8066 0.0000 10.5657 0.0000
# 2 -9.6131 80.2297 8.4616 0.0000 2.9413 0.0000
# 3 17.8066 8.4616 70.5929 0.0000 30.0583 0.0000
# 4 0.0000 0.0000 0.0000 10.1923 0.0000 4.2858
# 5 10.5657 2.9413 30.0583 0.0000 21.7519 0.0000
# 6 0.0000 0.0000 0.0000 4.2858 0.0000 17.3893
#
#
#
# Elastic Compliance Matrix: (Units=1/GPa)
#
#
# Indices 1 2 3 4 5 6 
#
# 1 0.019705 0.002869 -0.002608 0.000000 -0.006355 0.000000
# 2 0.002869 0.013049 -0.002291 0.000000 0.000008 0.000000
# 3 -0.002608 -0.002291 0.035051 0.000000 -0.046858 0.000000
# 4 0.000000 0.000000 0.000000 0.109457 0.000000 -0.026977
# 5 -0.006355 0.000008 -0.046858 0.000000 0.113811 0.000000
# 6 0.000000 0.000000 0.000000 -0.026977 0.000000 0.064155
#
#
# Mechanical properties :
#
#
# Convention : Reuss Voigt Hill
#
# Bulk Modulus (GPa) = 15.68794 26.89405 21.29100
# Shear Modulus (GPa) = 13.13933 22.67211 17.90572
#
# Velocity S-wave (km/s) = 2.47354 3.24921 2.88754
# Velocity P-wave (km/s) = 3.93230 5.15750 4.58600
#
# Compressibility (1/GPa) = 0.06374323
#
# Stress axis : x y z
#
# Youngs Moduli (GPa) = 50.74906 76.63220 28.53018
#
# Poissons Ratio (x) = -0.21987 0.07442
# Poissons Ratio (y) = -0.14560 0.06537
# Poissons Ratio (z) = 0.13238 0.17559
#
# Static dielectric constant tensor:
#      x y z
#    x 1.815650 0.000000 0.036780 
#    y 0.000000 1.872520 0.000000 
#    z 0.036780 0.000000 1.800200 
# 
# From -- ./inp_files/266297.got.cif
#   From: 2010.05.17/outbox.cif.g08.bks.cpg/sg12_134_cif.got.tgz:266297.got - 2010.06.03 13:09:07.
