data_PCOD9176273
_publ_section_title
;
Structure prediction by ZEFSAII (Michael W. Deem and Ramdas Pophale) SiO2 
 PCOD9176273
Probable space group: C 2/M
;
_chemical_formula_sum "Si O2"
_cell_formula_units_Z 56
_cell_length_a 10.274844
_cell_length_b 15.505380
_cell_length_c 25.930205
_cell_angle_alpha 90.000000
_cell_angle_beta 141.954599
_cell_angle_gamma 90.000000
_cell_volume 2545.925503
_symmetry_space_group_name_H-M "C 2/M"
_symmetry_group_IT_number 12
_symmetry_cell_setting 'monoclinic'
loop_
_space_group_symop_operation_xyz
x,y,z
-x,y,-z
-x,-y,-z
x,-y,z
1/2+x,1/2+y,z
1/2-x,1/2+y,-z
1/2-x,1/2-y,-z
1/2+x,1/2-y,z
loop_
_atom_site_type_symbol
_atom_site_label
_atom_site_fract_x
_atom_site_fract_y
_atom_site_fract_z
Si Si1 0.027805 0.402465 0.671047
Si Si2 0.887434 0.901666 0.293093
Si Si3 0.054221 0.698456 0.253976
Si Si4 0.506298 0.635446 0.167118
Si Si5 0.069961 0.793983 0.078347
Si Si6 0.142570 0.604599 0.592475
Si Si7 0.110458 0.592661 0.103359
O O1 0.931873 0.500000 0.645038
O O2 0.273418 0.412833 0.762937
O O3 0.037222 0.371698 0.614373
O O4 0.944002 0.330971 0.685370
O O5 0.759739 0.847718 0.294887
O O6 0.727654 0.903118 0.194995
O O7 0.115367 0.869289 0.344395
O O8 0.917709 0.000000 0.320744
O O9 0.052353 0.790426 0.224286
O O10 0.814095 0.675354 0.161183
O O11 0.464078 0.670374 0.096907
O O12 0.300395 0.588097 0.121864
O O13 0.030860 0.690170 0.069666
O O14 0.000000 0.822614 0.000000
O O15 0.149286 0.500000 0.596770
O O16 0.000000 0.631879 0.500000
O O17 0.991872 0.500000 0.064493
#
# Coordination Sequence:
#
# PCOD9176273 Si02
#       7
#     8   8   8   8   8   8   8
#     4  10  19  34  58  85 115 149 195 239 279 343
#     4  10  18  34  58  85 116 147 191 242 282 339
#     4  10  21  34  57  87 112 152 192 243 286 340
#     4  10  19  35  57  82 109 154 195 236 279 356
#     4  10  22  38  58  81 115 154 197 239 295 351
#     4   9  18  33  58  89 118 153 192 234 287 346
#     4  10  19  33  56  83 108 146 196 239 285 338
#
# _framework density 21.995930999999999
#
# number of rings (size 3 to 8) (size 9 to 14) (size 15 to 20)
#    0.000    2.143    2.857    0.857    0.000    2.571 
#    0.000    0.714    0.000   21.429    0.000    0.000 
#    0.000    0.000    0.000    0.000    0.000    1.714 
#
# Total GULP energy -155868.451740 kJ/mol
# GULP energy per Si atom -5566.730419 kJ/mol
# Density = 2.194587 g / cm^3
# Si number density = 21.995931 Si / 1000 Ang^3
#
#
#
# Elastic Constant Matrix: (Units=GPa)
#
#
# Indices 1 2 3 4 5 6 
#
# 1 135.9304 48.0463 50.6389 0.0000 -35.7291 0.0000
# 2 48.0463 67.4918 24.6531 0.0000 -26.8257 0.0000
# 3 50.6389 24.6531 86.1386 0.0000 -37.0416 0.0000
# 4 0.0000 0.0000 0.0000 9.5703 0.0000 -0.1770
# 5 -35.7291 -26.8257 -37.0416 0.0000 36.2320 0.0000
# 6 0.0000 0.0000 0.0000 -0.1770 0.0000 20.8072
#
#
#
# Elastic Compliance Matrix: (Units=1/GPa)
#
#
# Indices 1 2 3 4 5 6 
#
# 1 0.011628 -0.005488 -0.003715 0.000000 0.003606 0.000000
# 2 -0.005488 0.023655 0.002963 0.000000 0.015132 0.000000
# 3 -0.003715 0.002963 0.021973 0.000000 0.020995 0.000000
# 4 0.000000 0.000000 0.000000 0.104507 0.000000 0.000889
# 5 0.003606 0.015132 0.020995 0.000000 0.063823 0.000000
# 6 0.000000 0.000000 0.000000 0.000889 0.000000 0.048068
#
#
# Mechanical properties :
#
#
# Convention : Reuss Voigt Hill
#
# Bulk Modulus (GPa) = 22.33265 59.58194 40.95729
# Shear Modulus (GPa) = 16.60804 24.40339 20.50572
#
# Velocity S-wave (km/s) = 2.75080 3.33445 3.05659
# Velocity P-wave (km/s) = 4.50159 6.47853 5.57833
#
# Compressibility (1/GPa) = 0.04477750
#
# Stress axis : x y z
#
# Youngs Moduli (GPa) = 85.99886 42.27394 45.51000
#
# Poissons Ratio (x) = 0.23199 0.16905
# Poissons Ratio (y) = 0.47194 -0.13484
# Poissons Ratio (z) = 0.31945 -0.12525
#
# Static dielectric constant tensor:
#      x y z
#    x 1.814460 0.000000 -0.007350 
#    y 0.000000 1.935320 0.000000 
#    z -0.007350 0.000000 1.826910 
# 
# From -- ./inp_files/358237.got.cif
#   From: 2010.05.17/outbox.cif.g08.bks.cpg/sg12_180_cif.got.tgz:358237.got - 2010.06.03 13:09:07.
