data_PCOD9176012
_publ_section_title
;
Structure prediction by ZEFSAII (Michael W. Deem and Ramdas Pophale) SiO2 
 PCOD9176012
Probable space group: C 2/M
;
_chemical_formula_sum "Si O2"
_cell_formula_units_Z 48
_cell_length_a 35.664045
_cell_length_b 15.873464
_cell_length_c 5.232778
_cell_angle_alpha 90.000000
_cell_angle_beta 96.187914
_cell_angle_gamma 90.000000
_cell_volume 2945.078675
_symmetry_space_group_name_H-M "C 2/M"
_symmetry_group_IT_number 12
_symmetry_cell_setting 'monoclinic'
loop_
_space_group_symop_operation_xyz
x,y,z
-x,y,-z
-x,-y,-z
x,-y,z
1/2+x,1/2+y,z
1/2-x,1/2+y,-z
1/2-x,1/2-y,-z
1/2+x,1/2-y,z
loop_
_atom_site_type_symbol
_atom_site_label
_atom_site_fract_x
_atom_site_fract_y
_atom_site_fract_z
Si Si1 0.778472 0.500000 0.342336
Si Si2 0.253005 0.655431 0.399155
Si Si3 0.674147 0.819200 0.107337
Si Si4 0.957235 0.897842 0.930107
Si Si5 0.665730 0.705003 0.606357
Si Si6 0.671054 0.000000 0.123171
Si Si7 0.410638 0.398272 0.395542
O O1 0.755199 0.584068 0.395638
O O2 0.811030 0.500000 0.581435
O O3 0.798122 0.500000 0.083960
O O4 0.250000 0.750000 0.500000
O O5 0.218467 0.654521 0.173370
O O6 0.296054 0.649373 0.342049
O O7 0.665675 0.758786 0.342615
O O8 0.652049 0.908210 0.089267
O O9 0.667641 0.770020 0.842150
O O10 0.938556 0.874758 0.647780
O O11 0.958909 0.000000 0.935289
O O12 0.930271 0.873422 0.144104
O O13 0.000000 0.867299 0.000000
O O14 0.629083 0.647247 0.597494
O O15 0.405881 0.500000 0.394823
#
# Coordination Sequence:
#
# PCOD9176012 Si02
#       7
#     4   8   8   8   8   4   8
#     4  10  20  30  48  68  82 116 161 216 247 288
#     4   9  19  33  48  64  90 124 169 206 248 296
#     4  10  20  34  50  68  87 129 165 212 247 294
#     4   9  17  32  52  71  94 131 171 199 226 278
#     4  11  21  32  49  68 101 128 157 198 257 290
#     4  10  18  34  50  66  86 108 169 212 249 274
#     4  10  20  32  48  73 104 132 164 198 240 289
#
# _framework density 16.298378
#
# number of rings (size 3 to 8) (size 9 to 14) (size 15 to 20)
#    0.000    2.167    0.000    5.000    1.167    6.000 
#    0.000    0.000    1.833    0.000    0.000    0.000 
#    0.000    0.000    0.000   52.500    0.000    1.667 
#
# Total GULP energy -133714.731388 kJ/mol
# GULP energy per Si atom -5571.447141 kJ/mol
# Density = 1.626128 g / cm^3
# Si number density = 16.298378 Si / 1000 Ang^3
#
#
#
# Elastic Constant Matrix: (Units=GPa)
#
#
# Indices 1 2 3 4 5 6 
#
# 1 45.5984 4.2989 -16.2032 0.0000 1.4824 0.0000
# 2 4.2989 54.2044 6.5477 0.0000 -5.4433 0.0000
# 3 -16.2032 6.5477 53.0715 0.0000 -9.1400 0.0000
# 4 0.0000 0.0000 0.0000 22.7327 0.0000 -3.2853
# 5 1.4824 -5.4433 -9.1400 0.0000 19.5711 0.0000
# 6 0.0000 0.0000 0.0000 -3.2853 0.0000 17.3446
#
#
#
# Elastic Compliance Matrix: (Units=1/GPa)
#
#
# Indices 1 2 3 4 5 6 
#
# 1 0.025080 -0.002866 0.008206 0.000000 0.001136 0.000000
# 2 -0.002866 0.019425 -0.002505 0.000000 0.004450 0.000000
# 3 0.008206 -0.002505 0.023304 0.000000 0.009565 0.000000
# 4 0.000000 0.000000 0.000000 0.045228 0.000000 0.008567
# 5 0.001136 0.004450 0.009565 0.000000 0.056714 0.000000
# 6 0.000000 0.000000 0.000000 0.008567 0.000000 0.059277
#
#
# Mechanical properties :
#
#
# Convention : Reuss Voigt Hill
#
# Bulk Modulus (GPa) = 13.60929 15.79569 14.70249
# Shear Modulus (GPa) = 20.17324 22.47841 21.32583
#
# Velocity S-wave (km/s) = 3.52198 3.71776 3.62119
# Velocity P-wave (km/s) = 4.99072 5.30487 5.15019
#
# Compressibility (1/GPa) = 0.07347921
#
# Stress axis : x y z
#
# Youngs Moduli (GPa) = 39.87241 51.47873 42.91035
#
# Poissons Ratio (x) = 0.14756 -0.35214
# Poissons Ratio (y) = 0.11429 0.10751
# Poissons Ratio (z) = -0.32721 0.12897
#
# Static dielectric constant tensor:
#      x y z
#    x 1.547100 0.000000 -0.006940 
#    y 0.000000 1.660820 0.000000 
#    z -0.006940 0.000000 1.555780 
# 
# From -- ./inp_files/31283.got.cif
#   From: 2010.05.17/outbox.cif.g08.bks.cpg/sg12_16_cif.got.tgz:31283.got - 2010.06.03 13:09:07.
