data_PCOD9176492
_publ_section_title
;
Structure prediction by ZEFSAII (Michael W. Deem and Ramdas Pophale) SiO2 
 PCOD9176492
Probable space group: C 2/M
;
_chemical_formula_sum "Si O2"
_cell_formula_units_Z 64
_cell_length_a 23.880158
_cell_length_b 22.842627
_cell_length_c 10.088229
_cell_angle_alpha 90.000000
_cell_angle_beta 132.217471
_cell_angle_gamma 90.000000
_cell_volume 4075.507806
_symmetry_space_group_name_H-M "C 2/M"
_symmetry_group_IT_number 12
_symmetry_cell_setting 'monoclinic'
loop_
_space_group_symop_operation_xyz
x,y,z
-x,y,-z
-x,-y,-z
x,-y,z
1/2+x,1/2+y,z
1/2-x,1/2+y,-z
1/2-x,1/2-y,-z
1/2+x,1/2-y,z
loop_
_atom_site_type_symbol
_atom_site_label
_atom_site_fract_x
_atom_site_fract_y
_atom_site_fract_z
Si Si1 0.494170 0.755852 0.147781
Si Si2 0.990530 0.368849 0.330322
Si Si3 0.669655 0.068495 0.903327
Si Si4 0.275231 0.331278 0.163097
Si Si5 0.740377 0.828362 0.610240
Si Si6 0.653151 0.706294 0.450114
Si Si7 0.332766 0.279684 0.995196
Si Si8 0.353923 0.066716 0.448103
O O1 0.498748 0.814206 0.244928
O O2 0.563776 0.713301 0.294049
O O3 0.413920 0.727497 0.057622
O O4 0.500000 0.769052 0.000000
O O5 0.058725 0.413768 0.412757
O O6 0.000000 0.349572 0.500000
O O7 0.910087 0.400833 0.186804
O O8 0.672692 0.071489 0.747661
O O9 0.670405 0.000000 0.941707
O O10 0.737311 0.106350 0.073554
O O11 0.318056 0.323288 0.369396
O O12 0.330671 0.310593 0.133830
O O13 0.206147 0.284133 0.051989
O O14 0.685359 0.773044 0.497319
O O15 0.805862 0.826260 0.605412
O O16 0.693373 0.887560 0.541118
O O17 0.778272 0.815964 0.812025
O O18 0.345402 0.000000 0.477578
#
# Coordination Sequence:
#
# PCOD9176492 Si02
#       8
#     8   8   8   8   8   8   8   8
#     4  12  22  34  52  81 109 149 171 212 276 331
#     4  10  21  32  51  79 112 143 184 214 247 315
#     4  10  19  34  54  78 108 145 182 219 263 309
#     4  10  20  33  52  79 103 138 176 226 260 312
#     4  10  18  35  50  76 104 137 177 221 258 314
#     4  10  22  32  52  76 107 137 172 221 272 313
#     4  10  20  32  53  75 107 136 178 215 270 313
#     4  10  19  33  55  79 107 146 186 218 255 307
#
# _framework density 15.703564
#
# number of rings (size 3 to 8) (size 9 to 14) (size 15 to 20)
#    0.000    1.750    5.000    0.375    1.750    1.500 
#    0.000    0.625    0.000    0.750    0.000    5.250 
#    0.000    0.000    0.000    0.000    0.000    0.000 
#
# Total GULP energy -178494.473823 kJ/mol
# GULP energy per Si atom -5577.952307 kJ/mol
# Density = 1.566782 g / cm^3
# Si number density = 15.703564 Si / 1000 Ang^3
#
#
#
# Elastic Constant Matrix: (Units=GPa)
#
#
# Indices 1 2 3 4 5 6 
#
# 1 95.5079 40.3636 19.5439 0.0000 1.7808 0.0000
# 2 40.3636 86.8964 34.0665 0.0000 -1.1245 0.0000
# 3 19.5439 34.0665 40.1224 0.0000 -2.5026 0.0000
# 4 0.0000 0.0000 0.0000 17.6856 0.0000 -0.2839
# 5 1.7808 -1.1245 -2.5026 0.0000 24.0002 0.0000
# 6 0.0000 0.0000 0.0000 -0.2839 0.0000 15.1046
#
#
#
# Elastic Compliance Matrix: (Units=1/GPa)
#
#
# Indices 1 2 3 4 5 6 
#
# 1 0.013165 -0.005373 -0.001940 0.000000 -0.001431 0.000000
# 2 -0.005373 0.019455 -0.013910 0.000000 -0.000140 0.000000
# 3 -0.001940 -0.013910 0.037894 0.000000 0.003444 0.000000
# 4 0.000000 0.000000 0.000000 0.056560 0.000000 0.001063
# 5 -0.001431 -0.000140 0.003444 0.000000 0.042125 0.000000
# 6 0.000000 0.000000 0.000000 0.001063 0.000000 0.066225
#
#
# Mechanical properties :
#
#
# Convention : Reuss Voigt Hill
#
# Bulk Modulus (GPa) = 35.62797 45.60832 40.61814
# Shear Modulus (GPa) = 17.40785 19.92824 18.66804
#
# Velocity S-wave (km/s) = 3.33307 3.56620 3.45161
# Velocity P-wave (km/s) = 6.12777 6.78700 6.46579
#
# Compressibility (1/GPa) = 0.02806784
#
# Stress axis : x y z
#
# Youngs Moduli (GPa) = 75.96049 51.39988 26.38933
#
# Poissons Ratio (x) = 0.27618 0.05119
# Poissons Ratio (y) = 0.40814 0.36708
# Poissons Ratio (z) = 0.14735 0.71499
#
# Static dielectric constant tensor:
#      x y z
#    x 1.521160 0.000000 -0.006080 
#    y 0.000000 1.501210 0.000000 
#    z -0.006080 0.000000 1.525320 
# 
# From -- ./inp_files/89627.got.cif
#   From: 2010.05.17/outbox.cif.g08.bks.cpg/sg12_45_cif.got.tgz:89627.got - 2010.06.03 13:09:07.
