data_PCOD9176105
_publ_section_title
;
Structure prediction by ZEFSAII (Michael W. Deem and Ramdas Pophale) SiO2 
 PCOD9176105
Probable space group: C 2/M
;
_chemical_formula_sum "Si O2"
_cell_formula_units_Z 64
_cell_length_a 11.415408
_cell_length_b 33.455172
_cell_length_c 9.411241
_cell_angle_alpha 90.000000
_cell_angle_beta 98.128067
_cell_angle_gamma 90.000000
_cell_volume 3558.089283
_symmetry_space_group_name_H-M "C 2/M"
_symmetry_group_IT_number 12
_symmetry_cell_setting 'monoclinic'
loop_
_space_group_symop_operation_xyz
x,y,z
-x,y,-z
-x,-y,-z
x,-y,z
1/2+x,1/2+y,z
1/2-x,1/2+y,-z
1/2-x,1/2-y,-z
1/2+x,1/2-y,z
loop_
_atom_site_type_symbol
_atom_site_label
_atom_site_fract_x
_atom_site_fract_y
_atom_site_fract_z
Si Si1 0.201572 0.605623 0.193808
Si Si2 0.634029 0.723753 0.020369
Si Si3 0.655462 0.882290 0.853164
Si Si4 0.514943 0.044515 0.172995
Si Si5 0.030005 0.660864 0.343031
Si Si6 0.330455 0.664701 0.719688
Si Si7 0.601704 0.664018 0.754348
Si Si8 0.768352 0.706448 0.561552
O O1 0.147478 0.562072 0.215480
O O2 0.129713 0.632769 0.291829
O O3 0.334658 0.620816 0.231475
O O4 0.165735 0.616237 0.024793
O O5 0.663752 0.702828 0.174738
O O6 0.500000 0.742834 0.000000
O O7 0.750000 0.750000 0.000000
O O8 0.618013 0.686855 0.907066
O O9 0.581675 0.922101 0.796034
O O10 0.577978 0.845033 0.782434
O O11 0.778892 0.873321 0.796765
O O12 0.498647 0.000000 0.229107
O O13 0.500000 0.042288 0.000000
O O14 0.097399 0.702873 0.358777
O O15 0.000000 0.649642 0.500000
O O16 0.465126 0.658923 0.694867
O O17 0.249753 0.675857 0.572232
O O18 0.671925 0.692995 0.659312
O O19 0.750000 0.750000 0.500000
#
# Coordination Sequence:
#
# PCOD9176105 Si02
#       8
#     8   8   8   8   8   8   8   8
#     4   9  18  33  55  79 107 137 173 211 261 319
#     4  10  21  39  52  75 103 137 178 235 281 323
#     4  10  18  34  55  81 105 139 175 210 270 320
#     4   8  15  29  53  85 114 136 164 213 270 322
#     4  10  19  33  52  76 100 131 176 222 256 323
#     4  11  21  36  54  72 104 140 182 223 267 321
#     4  10  21  37  53  73 101 140 187 219 265 325
#     4  11  23  38  52  71 101 135 180 230 283 314
#
# _framework density 17.987181
#
# number of rings (size 3 to 8) (size 9 to 14) (size 15 to 20)
#    0.000    2.125    2.500    2.250    0.000    1.000 
#   11.250    0.000    0.000    6.750    0.000    3.500 
#    0.000    6.500    0.000    0.000    0.000    0.000 
#
# Total GULP energy -178142.436738 kJ/mol
# GULP energy per Si atom -5566.951148 kJ/mol
# Density = 1.794624 g / cm^3
# Si number density = 17.987181 Si / 1000 Ang^3
#
#
#
# Elastic Constant Matrix: (Units=GPa)
#
#
# Indices 1 2 3 4 5 6 
#
# 1 101.3478 37.5097 13.8464 0.0000 -6.0473 0.0000
# 2 37.5097 71.1726 4.2607 0.0000 0.4073 0.0000
# 3 13.8464 4.2607 58.2920 0.0000 -11.6060 0.0000
# 4 0.0000 0.0000 0.0000 11.9275 0.0000 2.9277
# 5 -6.0473 0.4073 -11.6060 0.0000 25.0952 0.0000
# 6 0.0000 0.0000 0.0000 2.9277 0.0000 14.8340
#
#
#
# Elastic Compliance Matrix: (Units=1/GPa)
#
#
# Indices 1 2 3 4 5 6 
#
# 1 0.012726 -0.006594 -0.002103 0.000000 0.002201 0.000000
# 2 -0.006594 0.017542 -0.000098 0.000000 -0.001919 0.000000
# 3 -0.002103 -0.000098 0.019342 0.000000 0.008440 0.000000
# 4 0.000000 0.000000 0.000000 0.088108 0.000000 -0.017389
# 5 0.002201 -0.001919 0.008440 0.000000 0.044313 0.000000
# 6 0.000000 0.000000 0.000000 -0.017389 0.000000 0.070845
#
#
# Mechanical properties :
#
#
# Convention : Reuss Voigt Hill
#
# Bulk Modulus (GPa) = 31.22896 38.00513 34.61705
# Shear Modulus (GPa) = 17.78479 22.05105 19.91792
#
# Velocity S-wave (km/s) = 3.14785 3.50513 3.33128
# Velocity P-wave (km/s) = 5.53276 6.12830 5.83813
#
# Compressibility (1/GPa) = 0.03202156
#
# Stress axis : x y z
#
# Youngs Moduli (GPa) = 78.57940 57.00542 51.70075
#
# Poissons Ratio (x) = 0.37587 0.10871
# Poissons Ratio (y) = 0.51812 0.00507
# Poissons Ratio (z) = 0.16523 0.00559
#
# Static dielectric constant tensor:
#      x y z
#    x 1.694290 0.000000 0.003900 
#    y 0.000000 1.633910 0.000000 
#    z 0.003900 0.000000 1.647000 
# 
# From -- ./inp_files/54737.got.cif
#   From: 2010.05.17/outbox.cif.g08.bks.cpg/sg12_28_cif.got.tgz:54737.got - 2010.06.03 13:09:07.
