data_PCOD9176493
_publ_section_title
;
Structure prediction by ZEFSAII (Michael W. Deem and Ramdas Pophale) SiO2 
 PCOD9176493
Probable space group: C 2/M
;
_chemical_formula_sum "Si O2"
_cell_formula_units_Z 56
_cell_length_a 8.146864
_cell_length_b 30.413261
_cell_length_c 18.303122
_cell_angle_alpha 90.000000
_cell_angle_beta 39.292492
_cell_angle_gamma 90.000000
_cell_volume 2871.931220
_symmetry_space_group_name_H-M "C 2/M"
_symmetry_group_IT_number 12
_symmetry_cell_setting 'monoclinic'
loop_
_space_group_symop_operation_xyz
x,y,z
-x,y,-z
-x,-y,-z
x,-y,z
1/2+x,1/2+y,z
1/2-x,1/2+y,-z
1/2-x,1/2-y,-z
1/2+x,1/2-y,z
loop_
_atom_site_type_symbol
_atom_site_label
_atom_site_fract_x
_atom_site_fract_y
_atom_site_fract_z
Si Si1 0.652518 0.230703 0.709796
Si Si2 0.896541 0.865907 0.873599
Si Si3 0.160337 0.611537 0.798003
Si Si4 0.395019 0.183005 0.658909
Si Si5 0.443758 0.345628 0.435036
Si Si6 0.216279 0.311957 0.064740
Si Si7 0.674707 0.951547 0.013234
O O1 0.503306 0.209812 0.692166
O O2 0.740944 0.280253 0.666518
O O3 0.470234 0.227133 0.844591
O O4 0.904319 0.199952 0.633387
O O5 0.747502 0.873438 0.849145
O O6 0.866581 0.910726 0.931055
O O7 0.189573 0.852934 0.755651
O O8 0.766612 0.826356 0.964356
O O9 0.413887 0.617737 0.662145
O O10 0.941449 0.646203 0.847671
O O11 0.019996 0.565083 0.856428
O O12 0.639176 0.162165 0.533941
O O13 0.500000 0.356002 0.500000
O O14 0.500000 0.306361 0.000000
O O15 0.785171 0.000000 0.988648
O O16 0.500000 0.954220 0.000000
#
# Coordination Sequence:
#
# PCOD9176493 Si02
#       7
#     8   8   8   8   8   8   8
#     4  10  22  36  51  75 101 147 196 236 271 304
#     4  10  20  34  54  83 111 143 180 225 276 331
#     4   9  19  34  57  83 105 139 183 226 272 329
#     4  11  22  36  52  77 108 149 193 234 268 312
#     4   9  20  38  56  74 101 147 196 230 276 314
#     4  10  18  35  51  72 106 144 176 222 279 326
#     4   8  15  32  59  88 112 136 170 217 274 338
#
# _framework density 19.499074
#
# number of rings (size 3 to 8) (size 9 to 14) (size 15 to 20)
#    0.000    2.429    1.429    1.714    4.000    1.143 
#    0.000    0.000    0.000    8.143    0.000    4.000 
#    0.000    0.000    0.000    0.000    0.000    0.000 
#
# Total GULP energy -156213.290061 kJ/mol
# GULP energy per Si atom -5579.046074 kJ/mol
# Density = 1.945469 g / cm^3
# Si number density = 19.499074 Si / 1000 Ang^3
#
#
#
# Elastic Constant Matrix: (Units=GPa)
#
#
# Indices 1 2 3 4 5 6 
#
# 1 47.5765 9.4783 22.3485 0.0000 -1.3586 0.0000
# 2 9.4783 83.6533 49.3733 0.0000 -7.4389 0.0000
# 3 22.3485 49.3733 159.7661 0.0000 -11.7031 0.0000
# 4 0.0000 0.0000 0.0000 18.3996 0.0000 1.0983
# 5 -1.3586 -7.4389 -11.7031 0.0000 32.5777 0.0000
# 6 0.0000 0.0000 0.0000 1.0983 0.0000 8.9717
#
#
#
# Elastic Compliance Matrix: (Units=1/GPa)
#
#
# Indices 1 2 3 4 5 6 
#
# 1 0.022549 -0.000865 -0.002909 0.000000 -0.000302 0.000000
# 2 -0.000865 0.014753 -0.004308 0.000000 0.001785 0.000000
# 3 -0.002909 -0.004308 0.008130 0.000000 0.001816 0.000000
# 4 0.000000 0.000000 0.000000 0.054749 0.000000 -0.006702
# 5 -0.000302 0.001785 0.001816 0.000000 0.031743 0.000000
# 6 0.000000 0.000000 0.000000 -0.006702 0.000000 0.112282
#
#
# Mechanical properties :
#
#
# Convention : Reuss Voigt Hill
#
# Bulk Modulus (GPa) = 34.16508 50.37736 42.27122
# Shear Modulus (GPa) = 18.50986 25.97618 22.24302
#
# Velocity S-wave (km/s) = 3.08436 3.65386 3.38112
# Velocity P-wave (km/s) = 5.49944 6.61005 6.08015
#
# Compressibility (1/GPa) = 0.02926966
#
# Stress axis : x y z
#
# Youngs Moduli (GPa) = 44.34793 67.78196 122.99726
#
# Poissons Ratio (x) = 0.05862 0.35781
# Poissons Ratio (y) = 0.03835 0.52981
# Poissons Ratio (z) = 0.12901 0.29197
#
# Static dielectric constant tensor:
#      x y z
#    x 1.740540 0.000000 0.022390 
#    y 0.000000 1.675900 0.000000 
#    z 0.022390 0.000000 1.718760 
# 
# From -- ./inp_files/302988.got.cif
#   From: 2010.05.17/outbox.cif.g08.bks.cpg/sg12_152_cif.got.tgz:302988.got - 2010.06.03 13:09:07.
