data_PCOD9176478
_publ_section_title
;
Structure prediction by ZEFSAII (Michael W. Deem and Ramdas Pophale) SiO2 
 PCOD9176478
Probable space group: C 2/M
;
_chemical_formula_sum "Si O2"
_cell_formula_units_Z 64
_cell_length_a 11.673486
_cell_length_b 14.950027
_cell_length_c 17.309528
_cell_angle_alpha 90.000000
_cell_angle_beta 84.112997
_cell_angle_gamma 90.000000
_cell_volume 3004.908738
_symmetry_space_group_name_H-M "C 2/M"
_symmetry_group_IT_number 12
_symmetry_cell_setting 'monoclinic'
loop_
_space_group_symop_operation_xyz
x,y,z
-x,y,-z
-x,-y,-z
x,-y,z
1/2+x,1/2+y,z
1/2-x,1/2+y,-z
1/2-x,1/2-y,-z
1/2+x,1/2-y,z
loop_
_atom_site_type_symbol
_atom_site_label
_atom_site_fract_x
_atom_site_fract_y
_atom_site_fract_z
Si Si1 0.527129 0.797653 0.409096
Si Si2 0.834351 0.098945 0.797976
Si Si3 0.000359 0.100190 0.652307
Si Si4 0.633111 0.161462 0.716071
Si Si5 0.803239 0.723619 0.077814
Si Si6 0.996458 0.394616 0.124813
Si Si7 0.757345 0.097203 0.141035
Si Si8 0.741780 0.355095 0.686286
O O1 0.500000 0.811364 0.500000
O O2 0.533167 0.690059 0.391492
O O3 0.428566 0.841741 0.361969
O O4 0.646363 0.840243 0.372797
O O5 0.951493 0.115443 0.742970
O O6 0.738001 0.099599 0.736346
O O7 0.791608 0.172343 0.862085
O O8 0.837869 0.000000 0.833239
O O9 0.138012 0.099474 0.647882
O O10 0.961186 0.000000 0.630437
O O11 0.538495 0.145328 0.788957
O O12 0.691118 0.258483 0.712965
O O13 0.913828 0.659272 0.072793
O O14 0.834557 0.818560 0.114274
O O15 0.750000 0.750000 0.000000
O O16 0.966805 0.500000 0.124191
O O17 0.133533 0.388533 0.108530
O O18 0.733439 0.098281 0.234151
O O19 0.803956 0.000000 0.115872
#
# Coordination Sequence:
#
# PCOD9176478 Si02
#       8
#     8   8   8   8   8   8   8   8
#     4  11  23  38  63  92 128 168 209 260 330 385
#     4  10  20  40  67  94 121 168 226 267 306 379
#     4  10  22  39  62  89 124 165 214 269 315 373
#     4  10  18  34  64  88 119 158 210 259 304 364
#     4  11  23  38  59  92 131 161 198 259 321 370
#     4  10  21  39  65  91 118 161 211 259 302 367
#     4  11  22  37  63  91 121 160 209 256 309 372
#     4  11  20  38  62  92 121 162 213 260 311 376
#
# _framework density 21.298484999999999
#
# number of rings (size 3 to 8) (size 9 to 14) (size 15 to 20)
#    0.000    1.500    5.000    1.875    1.750    3.750 
#    0.000    1.250    0.000    6.000    0.000    7.000 
#    0.000    0.000    0.000    0.000    0.000    0.000 
#
# Total GULP energy -178602.467215 kJ/mol
# GULP energy per Si atom -5581.327100 kJ/mol
# Density = 2.125001 g / cm^3
# Si number density = 21.298485 Si / 1000 Ang^3
#
#
#
# Elastic Constant Matrix: (Units=GPa)
#
#
# Indices 1 2 3 4 5 6 
#
# 1 63.6555 17.8591 26.8639 0.0000 0.8510 0.0000
# 2 17.8591 114.2114 35.6956 0.0000 -10.4269 0.0000
# 3 26.8639 35.6956 113.8267 0.0000 8.0117 0.0000
# 4 0.0000 0.0000 0.0000 53.7453 0.0000 11.1887
# 5 0.8510 -10.4269 8.0117 0.0000 17.3448 0.0000
# 6 0.0000 0.0000 0.0000 11.1887 0.0000 23.8867
#
#
#
# Elastic Compliance Matrix: (Units=1/GPa)
#
#
# Indices 1 2 3 4 5 6 
#
# 1 0.017715 -0.001644 -0.003653 0.000000 -0.000170 0.000000
# 2 -0.001644 0.010901 -0.003615 0.000000 0.008303 0.000000
# 3 -0.003653 -0.003615 0.011288 0.000000 -0.007208 0.000000
# 4 0.000000 0.000000 0.000000 0.020617 0.000000 -0.009657
# 5 -0.000170 0.008303 -0.007208 0.000000 0.065984 0.000000
# 6 0.000000 0.000000 0.000000 -0.009657 0.000000 0.046388
#
#
# Mechanical properties :
#
#
# Convention : Reuss Voigt Hill
#
# Bulk Modulus (GPa) = 45.29017 50.28119 47.78568
# Shear Modulus (GPa) = 25.24287 33.08035 29.16161
#
# Velocity S-wave (km/s) = 3.44640 3.94531 3.70427
# Velocity P-wave (km/s) = 6.09488 6.66432 6.38595
#
# Compressibility (1/GPa) = 0.02207985
#
# Stress axis : x y z
#
# Youngs Moduli (GPa) = 56.45001 91.73841 88.58588
#
# Poissons Ratio (x) = 0.15079 0.32364
# Poissons Ratio (y) = 0.09279 0.32023
# Poissons Ratio (z) = 0.20624 0.33162
#
# Static dielectric constant tensor:
#      x y z
#    x 1.802450 0.000000 0.015640 
#    y 0.000000 1.974310 0.000000 
#    z 0.015640 0.000000 1.764660 
# 
# From -- ./inp_files/263347.got.cif
#   From: 2010.05.17/outbox.cif.g08.bks.cpg/sg12_132_cif.got.tgz:263347.got - 2010.06.03 13:09:07.
