data_PCOD9176586
_publ_section_title
;
Structure prediction by ZEFSAII (Michael W. Deem and Ramdas Pophale) SiO2 
 PCOD9176586
Probable space group: C 2/M
;
_chemical_formula_sum "Si O2"
_cell_formula_units_Z 44
_cell_length_a 8.631805
_cell_length_b 13.404842
_cell_length_c 20.376208
_cell_angle_alpha 90.000000
_cell_angle_beta 62.017126
_cell_angle_gamma 90.000000
_cell_volume 2082.047389
_symmetry_space_group_name_H-M "C 2/M"
_symmetry_group_IT_number 12
_symmetry_cell_setting 'monoclinic'
loop_
_space_group_symop_operation_xyz
x,y,z
-x,y,-z
-x,-y,-z
x,-y,z
1/2+x,1/2+y,z
1/2-x,1/2+y,-z
1/2-x,1/2-y,-z
1/2+x,1/2-y,z
loop_
_atom_site_type_symbol
_atom_site_label
_atom_site_fract_x
_atom_site_fract_y
_atom_site_fract_z
Si Si1 0.500000 0.253407 0.500000
Si Si2 0.941291 0.112211 0.301531
Si Si3 0.560239 0.708322 0.055343
Si Si4 0.710532 0.309596 0.157218
Si Si5 0.149825 0.611090 0.245129
Si Si6 0.365384 0.189118 0.393518
O O1 0.439395 0.184502 0.452029
O O2 0.341583 0.320000 0.558606
O O3 0.802064 0.128869 0.269481
O O4 0.902840 0.197818 0.361225
O O5 0.136734 0.127735 0.232761
O O6 0.918344 0.000000 0.330062
O O7 0.601118 0.654000 0.115522
O O8 0.415352 0.794526 0.099759
O O9 0.500000 0.655282 0.000000
O O10 0.750000 0.750000 0.000000
O O11 0.658175 0.196144 0.188396
O O12 0.170453 0.500000 0.214417
O O13 0.969084 0.622256 0.321424
#
# Coordination Sequence:
#
# PCOD9176586 Si02
#       6
#     4   8   8   8   8   8
#     4  10  20  36  58  74 114 146 182 212 286 320
#     4  10  20  35  58  83 109 141 183 226 270 322
#     4   9  18  32  56  81 109 147 182 210 269 328
#     4  10  18  35  58  82 107 144 178 227 269 313
#     4  10  20  35  58  83 108 141 185 224 269 326
#     4  10  20  38  56  83 106 148 175 233 265 329
#
# _framework density 21.133044000000002
#
# number of rings (size 3 to 8) (size 9 to 14) (size 15 to 20)
#    0.000    2.182    3.636    0.000    0.000    0.000 
#    0.000    9.091    0.000   21.818    0.000    0.000 
#    0.000    0.000    0.000    0.000    0.000    0.000 
#
# Total GULP energy -122583.521230 kJ/mol
# GULP energy per Si atom -5571.978238 kJ/mol
# Density = 2.108494 g / cm^3
# Si number density = 21.133044 Si / 1000 Ang^3
#
#
#
# Elastic Constant Matrix: (Units=GPa)
#
#
# Indices 1 2 3 4 5 6 
#
# 1 76.4410 -2.1125 31.9019 0.0000 -16.5435 0.0000
# 2 -2.1125 71.5776 12.0236 0.0000 14.0378 0.0000
# 3 31.9019 12.0236 100.8862 0.0000 -24.7263 0.0000
# 4 0.0000 0.0000 0.0000 0.4789 0.0000 1.1832
# 5 -16.5435 14.0378 -24.7263 0.0000 46.5952 0.0000
# 6 0.0000 0.0000 0.0000 1.1832 0.0000 8.4540
#
#
#
# Elastic Compliance Matrix: (Units=1/GPa)
#
#
# Indices 1 2 3 4 5 6 
#
# 1 0.015529 0.000557 -0.004215 0.000000 0.003109 0.000000
# 2 0.000557 0.015886 -0.003671 0.000000 -0.006537 0.000000
# 3 -0.004215 -0.003671 0.013319 0.000000 0.006678 0.000000
# 4 0.000000 0.000000 0.000000 3.191401 0.000000 -0.446655
# 5 0.003109 -0.006537 0.006678 0.000000 0.028078 0.000000
# 6 0.000000 0.000000 0.000000 -0.446655 0.000000 0.180799
#
#
# Mechanical properties :
#
#
# Convention : Reuss Voigt Hill
#
# Bulk Modulus (GPa) = 33.25017 36.94785 35.09901
# Shear Modulus (GPa) = 1.44105 24.91173 13.17639
#
# Velocity S-wave (km/s) = 0.82666 3.43710 2.49970
# Velocity P-wave (km/s) = 4.08400 5.76827 4.99760
#
# Compressibility (1/GPa) = 0.03007503
#
# Stress axis : x y z
#
# Youngs Moduli (GPa) = 64.39424 62.94875 75.07999
#
# Poissons Ratio (x) = -0.03503 0.31645
# Poissons Ratio (y) = -0.03584 0.27564
# Poissons Ratio (z) = 0.27142 0.23111
#
# Static dielectric constant tensor:
#      x y z
#    x 1.830430 0.000000 -0.004750 
#    y 0.000000 1.696220 0.000000 
#    z -0.004750 0.000000 1.800660 
# 
# From -- ./inp_files/255346.got.cif
#   From: 2010.05.17/outbox.cif.g08.bks.cpg/sg12_128_cif.got.tgz:255346.got - 2010.06.03 13:09:07.
