data_PCOD9176816
_publ_section_title
;
Structure prediction by ZEFSAII (Michael W. Deem and Ramdas Pophale) SiO2 
 PCOD9176816
Probable space group: C 2/M
;
_chemical_formula_sum "Si O2"
_cell_formula_units_Z 56
_cell_length_a 16.860256
_cell_length_b 16.962944
_cell_length_c 21.540112
_cell_angle_alpha 90.000000
_cell_angle_beta 148.198409
_cell_angle_gamma 90.000000
_cell_volume 3246.437040
_symmetry_space_group_name_H-M "C 2/M"
_symmetry_group_IT_number 12
_symmetry_cell_setting 'monoclinic'
loop_
_space_group_symop_operation_xyz
x,y,z
-x,y,-z
-x,-y,-z
x,-y,z
1/2+x,1/2+y,z
1/2-x,1/2+y,-z
1/2-x,1/2-y,-z
1/2+x,1/2-y,z
loop_
_atom_site_type_symbol
_atom_site_label
_atom_site_fract_x
_atom_site_fract_y
_atom_site_fract_z
Si Si1 0.848737 0.910274 0.025037
Si Si2 0.363587 0.732387 0.449484
Si Si3 0.426890 0.315256 0.302549
Si Si4 0.075459 0.656626 0.912185
Si Si5 0.753223 0.907816 0.286996
Si Si6 0.959182 0.804202 0.759458
Si Si7 0.337603 0.724228 0.923166
O O1 0.699048 0.901864 0.967335
O O2 0.817217 0.858740 0.943194
O O3 0.883737 0.000000 0.035022
O O4 0.981832 0.867013 0.151343
O O5 0.500000 0.767990 0.500000
O O6 0.433622 0.711305 0.562421
O O7 0.317883 0.651759 0.382478
O O8 0.218290 0.787370 0.356854
O O9 0.342311 0.385415 0.283150
O O10 0.485097 0.328502 0.271672
O O11 0.297989 0.247886 0.212019
O O12 0.923391 0.615055 0.834457
O O13 0.032147 0.720804 0.830322
O O14 0.151205 0.707927 0.016864
O O15 0.770835 0.000000 0.313334
O O16 0.500000 0.724425 0.000000
#
# Coordination Sequence:
#
# PCOD9176816 Si02
#       7
#     8   8   8   8   8   8   8
#     4  11  22  35  56  82 113 144 176 227 280 319
#     4   9  21  35  57  81 103 145 189 223 266 314
#     4  11  19  34  56  82 107 148 181 218 262 317
#     4  10  18  36  57  81 111 147 175 217 269 326
#     4  10  21  35  54  84 118 143 172 219 277 328
#     4  10  19  36  57  79 108 143 188 224 260 320
#     4  11  20  36  58  81 109 140 187 226 260 325
#
# _framework density 17.249679
#
# number of rings (size 3 to 8) (size 9 to 14) (size 15 to 20)
#    0.000    1.714    4.286    1.714    2.000    3.429 
#    0.000    0.714    0.000    1.286    0.000    0.000 
#    0.000    0.000    0.000    0.000    0.000    0.000 
#
# Total GULP energy -156186.585814 kJ/mol
# GULP energy per Si atom -5578.092351 kJ/mol
# Density = 1.721042 g / cm^3
# Si number density = 17.249679 Si / 1000 Ang^3
#
#
#
# Elastic Constant Matrix: (Units=GPa)
#
#
# Indices 1 2 3 4 5 6 
#
# 1 59.5380 21.2848 25.5753 -0.0004 6.9669 -0.0001
# 2 21.2848 82.8732 36.0909 -0.0005 3.6081 -0.0001
# 3 25.5753 36.0909 93.4584 -0.0012 19.9684 -0.0005
# 4 -0.0004 -0.0005 -0.0012 6.8867 0.0000 -0.7376
# 5 6.9669 3.6081 19.9684 0.0000 28.7593 0.0002
# 6 -0.0001 -0.0001 -0.0005 -0.7376 0.0002 18.1616
#
#
#
# Elastic Compliance Matrix: (Units=1/GPa)
#
#
# Indices 1 2 3 4 5 6 
#
# 1 0.019820 -0.003386 -0.003735 0.000000 -0.001783 0.000000
# 2 -0.003386 0.015231 -0.005545 0.000000 0.002759 0.000000
# 3 -0.003735 -0.005545 0.015877 0.000002 -0.009423 0.000001
# 4 0.000000 0.000000 0.000002 0.145842 -0.000002 0.005923
# 5 -0.001783 0.002759 -0.009423 -0.000002 0.041400 -0.000001
# 6 0.000000 0.000000 0.000001 0.005923 -0.000001 0.055302
#
#
# Mechanical properties :
#
#
# Convention : Reuss Voigt Hill
#
# Bulk Modulus (GPa) = 39.06960 44.64128 41.85544
# Shear Modulus (GPa) = 15.27490 20.95609 18.11549
#
# Velocity S-wave (km/s) = 2.97899 3.48928 3.24418
# Velocity P-wave (km/s) = 5.87632 6.49377 6.19275
#
# Compressibility (1/GPa) = 0.02559535
#
# Stress axis : x y z
#
# Youngs Moduli (GPa) = 50.45494 65.65637 62.98574
#
# Poissons Ratio (x) = 0.22232 0.23526
# Poissons Ratio (y) = 0.17085 0.34923
# Poissons Ratio (z) = 0.18846 0.36404
#
# Static dielectric constant tensor:
#      x y z
#    x 1.620460 0.000000 0.009930 
#    y 0.000000 1.547450 0.000000 
#    z 0.009930 0.000000 1.604400 
# 
# From -- ./inp_files/183560.got.cif
#   From: 2010.05.17/outbox.cif.g08.bks.cpg/sg12_92_cif.got.tgz:183560.got - 2010.06.03 13:09:07.
