data_PCOD9176883
_publ_section_title
;
Structure prediction by ZEFSAII (Michael W. Deem and Ramdas Pophale) SiO2 
 PCOD9176883
Probable space group: C 2/M
;
_chemical_formula_sum "Si O2"
_cell_formula_units_Z 36
_cell_length_a 17.980300
_cell_length_b 13.980031
_cell_length_c 12.693510
_cell_angle_alpha 90.000000
_cell_angle_beta 152.132590
_cell_angle_gamma 90.000000
_cell_volume 1491.422323
_symmetry_space_group_name_H-M "C 2/M"
_symmetry_group_IT_number 12
_symmetry_cell_setting 'monoclinic'
loop_
_space_group_symop_operation_xyz
x,y,z
-x,y,-z
-x,-y,-z
x,-y,z
1/2+x,1/2+y,z
1/2-x,1/2+y,-z
1/2-x,1/2-y,-z
1/2+x,1/2-y,z
loop_
_atom_site_type_symbol
_atom_site_label
_atom_site_fract_x
_atom_site_fract_y
_atom_site_fract_z
Si Si1 0.426347 0.389043 0.228649
Si Si2 0.931946 0.393091 0.138650
Si Si3 0.000000 0.747160 0.500000
Si Si4 0.210435 0.609661 0.665180
Si Si5 0.416437 0.283516 0.762289
O O1 0.465389 0.500000 0.296598
O O2 0.511666 0.316206 0.415081
O O3 0.489538 0.358470 0.193758
O O4 0.240297 0.376433 0.024715
O O5 0.931811 0.500000 0.092508
O O6 0.064517 0.391902 0.397435
O O7 0.977773 0.312668 0.111180
O O8 0.148260 0.675386 0.681440
O O9 0.243279 0.500000 0.736159
O O10 0.351758 0.663891 0.784400
O O11 0.250000 0.250000 0.500000
#
# Coordination Sequence:
#
# PCOD9176883 Si02
#       5
#     8   8   4   8   8
#     4  11  22  37  59  85 114 148 189 232 276 331
#     4   9  19  36  61  86 108 145 194 233 270 326
#     4  12  22  36  56  84 120 150 176 228 294 340
#     4  10  21  38  61  85 110 147 191 233 279 327
#     4  10  18  36  60  84 108 145 193 234 269 325
#
# _framework density 24.138031999999999
#
# number of rings (size 3 to 8) (size 9 to 14) (size 15 to 20)
#    0.000    1.778    4.444    2.000    0.000    0.889 
#    0.000    1.111    0.000    4.000    0.000    0.000 
#    0.000    0.000    0.000    0.000    0.000    0.000 
#
# Total GULP energy -100731.576284 kJ/mol
# GULP energy per Si atom -5596.198682 kJ/mol
# Density = 2.408309 g / cm^3
# Si number density = 24.138032 Si / 1000 Ang^3
#
#
#
# Elastic Constant Matrix: (Units=GPa)
#
#
# Indices 1 2 3 4 5 6 
#
# 1 142.5684 97.2604 4.0958 0.0000 38.4148 0.0000
# 2 97.2604 243.7854 32.5008 0.0000 33.5166 0.0000
# 3 4.0958 32.5008 74.4547 0.0000 29.1002 0.0000
# 4 0.0000 0.0000 0.0000 25.6219 0.0000 14.4567
# 5 38.4148 33.5166 29.1002 0.0000 40.9260 0.0000
# 6 0.0000 0.0000 0.0000 14.4567 0.0000 34.6831
#
#
#
# Elastic Compliance Matrix: (Units=1/GPa)
#
#
# Indices 1 2 3 4 5 6 
#
# 1 0.013517 -0.004373 0.006543 0.000000 -0.013758 0.000000
# 2 -0.004373 0.006068 -0.002867 0.000000 0.001175 0.000000
# 3 0.006543 -0.002867 0.021888 0.000000 -0.019357 0.000000
# 4 0.000000 0.000000 0.000000 0.051031 0.000000 -0.021271
# 5 -0.013758 0.001175 -0.019357 0.000000 0.050150 0.000000
# 6 0.000000 0.000000 0.000000 -0.021271 0.000000 0.037699
#
#
# Mechanical properties :
#
#
# Convention : Reuss Voigt Hill
#
# Bulk Modulus (GPa) = 24.95208 80.94696 52.94952
# Shear Modulus (GPa) = 25.62710 42.04295 33.83503
#
# Velocity S-wave (km/s) = 3.26189 4.17798 3.74803
# Velocity P-wave (km/s) = 4.95442 7.54201 6.38076
#
# Compressibility (1/GPa) = 0.04007683
#
# Stress axis : x y z
#
# Youngs Moduli (GPa) = 73.98182 164.81191 45.68701
#
# Poissons Ratio (x) = 0.72079 -0.29892
# Poissons Ratio (y) = 0.32355 0.13099
# Poissons Ratio (z) = -0.48404 0.47254
#
# Static dielectric constant tensor:
#      x y z
#    x 1.911520 0.000000 -0.059600 
#    y 0.000000 1.880190 0.000000 
#    z -0.059600 0.000000 1.975350 
# 
# From -- ./inp_files/59232.got.cif
#   From: 2010.05.17/outbox.cif.g08.bks.cpg/sg12_30_cif.got.tgz:59232.got - 2010.06.03 13:09:07.
