data_PCOD9176509
_publ_section_title
;
Structure prediction by ZEFSAII (Michael W. Deem and Ramdas Pophale) SiO2 
 PCOD9176509
Probable space group: C 2/M
;
_chemical_formula_sum "Si O2"
_cell_formula_units_Z 56
_cell_length_a 19.661696
_cell_length_b 17.390456
_cell_length_c 13.407622
_cell_angle_alpha 90.000000
_cell_angle_beta 133.233755
_cell_angle_gamma 90.000000
_cell_volume 3340.043579
_symmetry_space_group_name_H-M "C 2/M"
_symmetry_group_IT_number 12
_symmetry_cell_setting 'monoclinic'
loop_
_space_group_symop_operation_xyz
x,y,z
-x,y,-z
-x,-y,-z
x,-y,z
1/2+x,1/2+y,z
1/2-x,1/2+y,-z
1/2-x,1/2-y,-z
1/2+x,1/2-y,z
loop_
_atom_site_type_symbol
_atom_site_label
_atom_site_fract_x
_atom_site_fract_y
_atom_site_fract_z
Si Si1 0.105014 0.778574 0.817484
Si Si2 0.199173 0.088348 0.025928
Si Si3 0.236278 0.276982 0.773736
Si Si4 0.609346 0.836011 0.132672
Si Si5 0.579389 0.085349 0.309287
Si Si6 0.439427 0.202272 0.534352
Si Si7 0.130522 0.616709 0.947197
O O1 0.188578 0.766540 0.820919
O O2 0.115890 0.707232 0.904777
O O3 0.007599 0.762518 0.661065
O O4 0.121410 0.857660 0.893381
O O5 0.237950 0.138307 0.158535
O O6 0.285359 0.087283 0.034754
O O7 0.172248 0.000000 0.020621
O O8 0.328126 0.238551 0.821319
O O9 0.156253 0.270019 0.610292
O O10 0.618193 0.871809 0.250591
O O11 0.500000 0.821946 0.000000
O O12 0.643698 0.891993 0.078298
O O13 0.587570 0.136152 0.415762
O O14 0.467996 0.080662 0.180199
O O15 0.618465 0.000000 0.358417
O O16 0.500000 0.173719 0.500000
#
# Coordination Sequence:
#
# PCOD9176509 Si02
#       7
#     8   8   8   8   8   8   8
#     4   9  16  33  53  78 105 134 175 213 254 314
#     4  11  19  28  55  86 107 131 168 224 274 300
#     4  10  18  35  53  77 103 136 181 213 249 309
#     4  10  19  31  52  75 100 142 172 210 248 302
#     4  10  21  32  46  77 110 132 164 206 263 321
#     4   9  20  34  57  75  99 139 173 211 259 307
#     4   9  16  31  50  75 105 135 164 210 259 311
#
# _framework density 16.766248000000001
#
# number of rings (size 3 to 8) (size 9 to 14) (size 15 to 20)
#    0.000    2.286    2.857    2.143    0.000    4.571 
#    0.000    0.000    0.000    5.143    0.000    0.000 
#    0.000    0.000    0.000    0.000    0.000    0.000 
#
# Total GULP energy -155880.092806 kJ/mol
# GULP energy per Si atom -5567.146172 kJ/mol
# Density = 1.672809 g / cm^3
# Si number density = 16.766248 Si / 1000 Ang^3
#
#
#
# Elastic Constant Matrix: (Units=GPa)
#
#
# Indices 1 2 3 4 5 6 
#
# 1 47.7127 -1.6043 12.6090 0.0000 6.5397 0.0000
# 2 -1.6043 80.6439 29.0841 0.0000 14.1423 0.0000
# 3 12.6090 29.0841 80.5822 0.0000 -6.1975 0.0000
# 4 0.0000 0.0000 0.0000 -10.9934 0.0000 26.6430
# 5 6.5397 14.1423 -6.1975 0.0000 15.6806 0.0000
# 6 0.0000 0.0000 0.0000 26.6430 0.0000 -23.4281
#
#
#
# Elastic Compliance Matrix: (Units=1/GPa)
#
#
# Indices 1 2 3 4 5 6 
#
# 1 0.026202 0.007109 -0.008250 0.000000 -0.020600 0.000000
# 2 0.007109 0.020976 -0.010691 0.000000 -0.026109 0.000000
# 3 -0.008250 -0.010691 0.019148 0.000000 0.020651 0.000000
# 4 0.000000 0.000000 0.000000 0.051799 0.000000 0.058906
# 5 -0.020600 -0.026109 0.020651 0.000000 0.104074 0.000000
# 6 0.000000 0.000000 0.000000 0.058906 0.000000 0.024306
#
#
# Mechanical properties :
#
#
# Convention : Reuss Voigt Hill
#
# Bulk Modulus (GPa) = 23.44054 32.12403 27.78229
# Shear Modulus (GPa) = 17.58158 7.50848 12.54503
#
# Velocity S-wave (km/s) = 3.24177 2.11850 2.73835
# Velocity P-wave (km/s) = 5.29370 5.01853 5.15795
#
# Compressibility (1/GPa) = 0.04266114
#
# Stress axis : x y z
#
# Youngs Moduli (GPa) = 38.16553 47.67345 52.22584
#
# Poissons Ratio (x) = -0.33892 0.43087
# Poissons Ratio (y) = -0.27133 0.55836
# Poissons Ratio (z) = 0.31487 0.50969
#
# Static dielectric constant tensor:
#      x y z
#    x 1.566540 0.000000 -0.012000 
#    y 0.000000 1.593030 0.000000 
#    z -0.012000 0.000000 1.597730 
# 
# From -- ./inp_files/226591.got.cif
#   From: 2010.05.17/outbox.cif.g08.bks.cpg/sg12_114_cif.got.tgz:226591.got - 2010.06.03 13:09:07.
