data_PCOD9176565
_publ_section_title
;
Structure prediction by ZEFSAII (Michael W. Deem and Ramdas Pophale) SiO2 
 PCOD9176565
Probable space group: C 2/M
;
_chemical_formula_sum "Si O2"
_cell_formula_units_Z 40
_cell_length_a 8.932461
_cell_length_b 16.610207
_cell_length_c 24.660975
_cell_angle_alpha 90.000000
_cell_angle_beta 39.419877
_cell_angle_gamma 90.000000
_cell_volume 2323.427636
_symmetry_space_group_name_H-M "C 2/M"
_symmetry_group_IT_number 12
_symmetry_cell_setting 'monoclinic'
loop_
_space_group_symop_operation_xyz
x,y,z
-x,y,-z
-x,-y,-z
x,-y,z
1/2+x,1/2+y,z
1/2-x,1/2+y,-z
1/2-x,1/2-y,-z
1/2+x,1/2-y,z
loop_
_atom_site_type_symbol
_atom_site_label
_atom_site_fract_x
_atom_site_fract_y
_atom_site_fract_z
Si Si1 0.679177 0.000000 0.245447
Si Si2 0.989797 0.752459 0.723859
Si Si3 0.131299 0.500000 0.521375
Si Si4 0.169129 0.000000 0.339680
Si Si5 0.889280 0.637760 0.658050
Si Si6 0.749868 0.500000 0.901571
Si Si7 0.100651 0.361999 0.791032
O O1 0.742133 0.078330 0.262548
O O2 0.771350 0.000000 0.158356
O O3 0.391784 0.000000 0.318632
O O4 0.203200 0.813593 0.674333
O O5 0.988244 0.690636 0.774279
O O6 0.019861 0.702189 0.659922
O O7 0.747534 0.802203 0.787458
O O8 0.411996 0.500000 0.436313
O O9 0.000000 0.500000 0.500000
O O10 0.047872 0.578999 0.577613
O O11 0.212452 0.921892 0.290291
O O12 0.906323 0.420933 0.870890
O O13 0.500000 0.500000 0.000000
#
# Coordination Sequence:
#
# PCOD9176565 Si02
#       7
#     4   8   4   4   8   4   8
#     4   9  18  37  56  79  96 153 177 214 264 328
#     4  10  18  35  57  82 104 144 180 226 267 324
#     4  11  23  36  52  78 109 149 188 231 266 313
#     4  10  18  36  53  71 107 142 192 211 267 322
#     4  10  20  35  58  76 109 142 188 222 269 312
#     4  10  19  36  60  85 111 138 178 214 262 332
#     4   9  19  35  58  78 107 142 182 214 274 319
#
# _framework density 17.215944
#
# number of rings (size 3 to 8) (size 9 to 14) (size 15 to 20)
#    0.000    2.400    4.000    1.200    0.000    4.000 
#    0.000   12.000    0.000    1.200    0.000    0.000 
#    0.000    0.000    0.000    0.000    0.000    0.000 
#
# Total GULP energy -111487.514967 kJ/mol
# GULP energy per Si atom -5574.375748 kJ/mol
# Density = 1.717676 g / cm^3
# Si number density = 17.215944 Si / 1000 Ang^3
#
#
#
# Elastic Constant Matrix: (Units=GPa)
#
#
# Indices 1 2 3 4 5 6 
#
# 1 103.3924 61.3094 47.2267 -0.0013 -3.5805 0.0018
# 2 61.3094 126.9842 55.7444 -0.0002 -11.3134 0.0001
# 3 47.2267 55.7444 113.7433 -0.0003 -18.3480 0.0033
# 4 -0.0013 -0.0002 -0.0003 9.5197 0.0008 -0.5716
# 5 -3.5805 -11.3134 -18.3480 0.0008 16.4628 -0.0022
# 6 0.0018 0.0001 0.0033 -0.5716 -0.0022 23.2666
#
#
#
# Elastic Compliance Matrix: (Units=1/GPa)
#
#
# Indices 1 2 3 4 5 6 
#
# 1 0.014845 -0.005811 -0.004193 0.000002 -0.005438 -0.000001
# 2 -0.005811 0.012349 -0.003017 -0.000001 0.003860 0.000001
# 3 -0.004193 -0.003017 0.014057 -0.000001 0.012681 -0.000001
# 4 0.000002 -0.000001 -0.000001 0.105200 -0.000007 0.002584
# 5 -0.005438 0.003860 0.012681 -0.000007 0.076347 0.000006
# 6 -0.000001 0.000001 -0.000001 0.002584 0.000006 0.043044
#
#
# Mechanical properties :
#
#
# Convention : Reuss Voigt Hill
#
# Bulk Modulus (GPa) = 65.74924 74.74230 70.24577
# Shear Modulus (GPa) = 16.83780 21.83911 19.33846
#
# Velocity S-wave (km/s) = 3.13075 3.56552 3.35518
# Velocity P-wave (km/s) = 7.16537 7.77557 7.47670
#
# Compressibility (1/GPa) = 0.01520930
#
# Stress axis : x y z
#
# Youngs Moduli (GPa) = 67.36496 80.97976 71.14107
#
# Poissons Ratio (x) = 0.47057 0.29828
# Poissons Ratio (y) = 0.39146 0.21460
# Poissons Ratio (z) = 0.28244 0.24428
#
# Static dielectric constant tensor:
#      x y z
#    x 1.604950 0.000000 0.010820 
#    y 0.000000 1.621620 0.000000 
#    z 0.010820 0.000000 1.544770 
# 
# From -- ./inp_files/333133.got.cif
#   From: 2010.05.17/outbox.cif.g08.bks.cpg/sg12_167_cif.got.tgz:333133.got - 2010.06.03 13:09:07.
