data_PCOD9176424
_publ_section_title
;
Structure prediction by ZEFSAII (Michael W. Deem and Ramdas Pophale) SiO2 
 PCOD9176424
Probable space group: C 2/M
;
_chemical_formula_sum "Si O2"
_cell_formula_units_Z 56
_cell_length_a 8.475266
_cell_length_b 29.671703
_cell_length_c 11.908948
_cell_angle_alpha 90.000000
_cell_angle_beta 58.580860
_cell_angle_gamma 90.000000
_cell_volume 2555.700703
_symmetry_space_group_name_H-M "C 2/M"
_symmetry_group_IT_number 12
_symmetry_cell_setting 'monoclinic'
loop_
_space_group_symop_operation_xyz
x,y,z
-x,y,-z
-x,-y,-z
x,-y,z
1/2+x,1/2+y,z
1/2-x,1/2+y,-z
1/2-x,1/2-y,-z
1/2+x,1/2-y,z
loop_
_atom_site_type_symbol
_atom_site_label
_atom_site_fract_x
_atom_site_fract_y
_atom_site_fract_z
Si Si1 0.413607 0.446481 0.415157
Si Si2 0.436330 0.895769 0.405601
Si Si3 0.282557 0.688048 0.547416
Si Si4 0.599345 0.277353 0.715860
Si Si5 0.213520 0.054094 0.140530
Si Si6 0.193708 0.268917 0.901153
Si Si7 0.584398 0.946067 0.151694
O O1 0.500000 0.430056 0.500000
O O2 0.438127 0.500000 0.403043
O O3 0.201143 0.434929 0.502028
O O4 0.529763 0.427538 0.267562
O O5 0.500000 0.875951 0.500000
O O6 0.314730 0.858477 0.386252
O O7 0.581336 0.917611 0.266444
O O8 0.500000 0.692936 0.500000
O O9 0.288943 0.691312 0.409400
O O10 0.153532 0.727923 0.644589
O O11 0.383371 0.290770 0.787559
O O12 0.652356 0.270617 0.825949
O O13 0.384697 0.059517 0.163760
O O14 0.195514 0.000000 0.132874
O O15 0.269929 0.070349 0.996167
O O16 0.250000 0.250000 0.000000
O O17 0.000000 0.294074 0.000000
O O18 0.606964 0.000000 0.164622
#
# Coordination Sequence:
#
# PCOD9176424 Si02
#       7
#     8   8   8   8   8   8   8
#     4  10  18  34  61  88 115 152 199 249 300 360
#     4  12  26  37  54  84 125 157 200 252 306 356
#     4  11  24  39  63  86 115 158 198 258 294 357
#     4  10  20  39  66  90 115 153 206 239 302 355
#     4   8  15  30  60  88 107 149 202 245 293 359
#     4   9  18  34  64  96 123 150 188 242 292 364
#     4   9  17  34  59  85 115 151 197 248 300 357
#
# _framework density 21.911799999999999
#
# number of rings (size 3 to 8) (size 9 to 14) (size 15 to 20)
#    0.000    2.143    2.857    1.714    2.000    1.143 
#    0.000    0.714   18.857    2.571    0.000    0.000 
#    0.000    0.000    0.000    0.000    0.000    0.000 
#
# Total GULP energy -155973.972897 kJ/mol
# GULP energy per Si atom -5570.499032 kJ/mol
# Density = 2.186193 g / cm^3
# Si number density = 21.911800 Si / 1000 Ang^3
#
#
#
# Elastic Constant Matrix: (Units=GPa)
#
#
# Indices 1 2 3 4 5 6 
#
# 1 51.0012 4.8320 35.1033 0.0000 -1.4420 0.0000
# 2 4.8320 32.7290 29.6892 0.0000 -3.3079 0.0000
# 3 35.1033 29.6892 168.9560 0.0000 -6.8565 0.0000
# 4 0.0000 0.0000 0.0000 0.9326 0.0000 -1.1669
# 5 -1.4420 -3.3079 -6.8565 0.0000 24.8188 0.0000
# 6 0.0000 0.0000 0.0000 -1.1669 0.0000 8.8405
#
#
#
# Elastic Compliance Matrix: (Units=1/GPa)
#
#
# Indices 1 2 3 4 5 6 
#
# 1 0.022913 0.001122 -0.004953 0.000000 0.000112 0.000000
# 2 0.001122 0.036642 -0.006544 0.000000 0.003141 0.000000
# 3 -0.004953 -0.006544 0.008142 0.000000 0.001089 0.000000
# 4 0.000000 0.000000 0.000000 1.284473 0.000000 0.169545
# 5 0.000112 0.003141 0.001089 0.000000 0.041018 0.000000
# 6 0.000000 0.000000 0.000000 0.169545 0.000000 0.135495
#
#
# Mechanical properties :
#
#
# Convention : Reuss Voigt Hill
#
# Bulk Modulus (GPa) = 21.30110 43.54834 32.42472
# Shear Modulus (GPa) = 3.19472 19.12249 11.15860
#
# Velocity S-wave (km/s) = 1.20878 2.95736 2.25911
# Velocity P-wave (km/s) = 3.41915 5.61950 4.65131
#
# Compressibility (1/GPa) = 0.04694594
#
# Stress axis : x y z
#
# Youngs Moduli (GPa) = 43.64246 27.29080 122.81994
#
# Poissons Ratio (x) = -0.03061 0.60835
# Poissons Ratio (y) = -0.04895 0.80379
# Poissons Ratio (z) = 0.21617 0.17860
#
# Static dielectric constant tensor:
#      x y z
#    x 1.909070 0.000000 -0.013220 
#    y 0.000000 1.761570 0.000000 
#    z -0.013220 0.000000 1.850410 
# 
# From -- ./inp_files/125597.got.cif
#   From: 2010.05.17/outbox.cif.g08.bks.cpg/sg12_63_cif.got.tgz:125597.got - 2010.06.03 13:09:07.
