data_PCOD9176644
_publ_section_title
;
Structure prediction by ZEFSAII (Michael W. Deem and Ramdas Pophale) SiO2 
 PCOD9176644
Probable space group: C 2/M
;
_chemical_formula_sum "Si O2"
_cell_formula_units_Z 56
_cell_length_a 8.564535
_cell_length_b 13.709006
_cell_length_c 25.581247
_cell_angle_alpha 90.000000
_cell_angle_beta 60.127983
_cell_angle_gamma 90.000000
_cell_volume 2604.478272
_symmetry_space_group_name_H-M "C 2/M"
_symmetry_group_IT_number 12
_symmetry_cell_setting 'monoclinic'
loop_
_space_group_symop_operation_xyz
x,y,z
-x,y,-z
-x,-y,-z
x,-y,z
1/2+x,1/2+y,z
1/2-x,1/2+y,-z
1/2-x,1/2-y,-z
1/2+x,1/2-y,z
loop_
_atom_site_type_symbol
_atom_site_label
_atom_site_fract_x
_atom_site_fract_y
_atom_site_fract_z
Si Si1 0.656858 0.709671 0.830610
Si Si2 0.548875 0.708855 0.740882
Si Si3 0.082487 0.796047 0.342291
Si Si4 0.995136 0.383905 0.415253
Si Si5 0.311733 0.811241 0.909238
Si Si6 0.786173 0.606234 0.026761
Si Si7 0.205838 0.116181 0.544674
O O1 0.595657 0.656293 0.787683
O O2 0.523948 0.803631 0.860147
O O3 0.684281 0.659890 0.882337
O O4 0.857719 0.743174 0.784234
O O5 0.514036 0.655780 0.691807
O O6 0.705487 0.788169 0.702983
O O7 0.029754 0.681964 0.359102
O O8 0.990027 0.842925 0.408369
O O9 0.995891 0.500000 0.405525
O O10 0.806848 0.354971 0.474431
O O11 0.152361 0.362311 0.431809
O O12 0.280860 0.696863 0.928216
O O13 0.263695 0.869551 0.969223
O O14 0.711129 0.500000 0.052650
O O15 0.000000 0.604048 0.000000
O O16 0.192100 0.000000 0.544720
#
# Coordination Sequence:
#
# PCOD9176644 Si02
#       7
#     8   8   8   8   8   8   8
#     4   9  18  35  55  77 106 145 188 212 262 312
#     4   9  20  31  55  79 100 139 187 226 258 308
#     4  11  17  34  55  79 103 136 176 223 275 307
#     4   9  18  32  52  78 107 138 171 212 268 336
#     4  10  18  35  60  80 110 154 170 212 269 313
#     4  10  20  33  56  91 117 139 177 213 260 323
#     4   9  18  32  52  78 106 139 173 208 268 342
#
# _framework density 21.501427
#
# number of rings (size 3 to 8) (size 9 to 14) (size 15 to 20)
#    0.000    2.429    2.857    1.286    0.000    0.000 
#    0.000    2.143    0.000   36.000    0.000    0.000 
#    0.000    0.000    0.000    0.000    0.000    0.000 
#
# Total GULP energy -155882.247815 kJ/mol
# GULP energy per Si atom -5567.223136 kJ/mol
# Density = 2.145249 g / cm^3
# Si number density = 21.501427 Si / 1000 Ang^3
#
#
#
# Elastic Constant Matrix: (Units=GPa)
#
#
# Indices 1 2 3 4 5 6 
#
# 1 78.1836 5.3280 25.2223 0.0000 5.3847 0.0000
# 2 5.3280 54.4167 12.5951 0.0000 0.4799 0.0000
# 3 25.2223 12.5951 76.8732 -0.0001 -1.8691 0.0001
# 4 0.0000 0.0000 -0.0001 20.3013 0.0000 -24.8644
# 5 5.3847 0.4799 -1.8691 0.0000 44.0504 0.0000
# 6 0.0000 0.0000 0.0001 -24.8644 0.0000 39.3358
#
#
#
# Elastic Compliance Matrix: (Units=1/GPa)
#
#
# Indices 1 2 3 4 5 6 
#
# 1 0.014478 -0.000301 -0.004749 0.000000 -0.001968 0.000000
# 2 -0.000301 0.019112 -0.003040 0.000000 -0.000300 0.000000
# 3 -0.004749 -0.003040 0.015095 0.000000 0.001254 0.000000
# 4 0.000000 0.000000 0.000000 0.218128 0.000000 0.137880
# 5 -0.001968 -0.000300 0.001254 0.000000 0.022998 0.000000
# 6 0.000000 0.000000 0.000000 0.137880 0.000000 0.112577
#
#
# Mechanical properties :
#
#
# Convention : Reuss Voigt Hill
#
# Bulk Modulus (GPa) = 30.76342 32.86270 31.81306
# Shear Modulus (GPa) = 11.64402 31.82605 21.73504
#
# Velocity S-wave (km/s) = 2.32964 3.85149 3.18286
# Velocity P-wave (km/s) = 4.64489 5.92417 5.32310
#
# Compressibility (1/GPa) = 0.03250614
#
# Stress axis : x y z
#
# Youngs Moduli (GPa) = 69.06799 52.32189 66.24651
#
# Poissons Ratio (x) = 0.01575 0.31460
# Poissons Ratio (y) = 0.02079 0.20139
# Poissons Ratio (z) = 0.32800 0.15906
#
# Static dielectric constant tensor:
#      x y z
#    x 1.857730 0.000000 0.018710 
#    y 0.000000 1.746860 0.000000 
#    z 0.018710 0.000000 1.872090 
# 
# From -- ./inp_files/356127.got.cif
#   From: 2010.05.17/outbox.cif.g08.bks.cpg/sg12_179_cif.got.tgz:356127.got - 2010.06.03 13:09:07.
