data_PCOD9176009
_publ_section_title
;
Structure prediction by ZEFSAII (Michael W. Deem and Ramdas Pophale) SiO2 
 PCOD9176009
Probable space group: C 2/M
;
_chemical_formula_sum "Si O2"
_cell_formula_units_Z 52
_cell_length_a 20.095446
_cell_length_b 18.685361
_cell_length_c 12.058654
_cell_angle_alpha 90.000000
_cell_angle_beta 143.106649
_cell_angle_gamma 90.000000
_cell_volume 2718.229721
_symmetry_space_group_name_H-M "C 2/M"
_symmetry_group_IT_number 12
_symmetry_cell_setting 'monoclinic'
loop_
_space_group_symop_operation_xyz
x,y,z
-x,y,-z
-x,-y,-z
x,-y,z
1/2+x,1/2+y,z
1/2-x,1/2+y,-z
1/2-x,1/2-y,-z
1/2+x,1/2-y,z
loop_
_atom_site_type_symbol
_atom_site_label
_atom_site_fract_x
_atom_site_fract_y
_atom_site_fract_z
Si Si1 0.340155 0.612304 0.973361
Si Si2 0.991259 0.698324 0.718355
Si Si3 0.394507 0.077753 0.440436
Si Si4 0.651938 0.243550 0.280661
Si Si5 0.067917 0.837242 0.693159
Si Si6 0.706301 0.217578 0.107311
Si Si7 0.000000 0.871631 0.000000
O O1 0.220295 0.583344 0.779762
O O2 0.324149 0.698721 0.946028
O O3 0.433696 0.589517 0.009356
O O4 0.387763 0.604832 0.160099
O O5 0.997212 0.774836 0.662495
O O6 0.914946 0.644016 0.549054
O O7 0.943706 0.704221 0.778632
O O8 0.118701 0.676666 0.911094
O O9 0.500000 0.080561 0.500000
O O10 0.395502 0.000000 0.498954
O O11 0.750000 0.250000 0.500000
O O12 0.691048 0.206642 0.218846
O O13 0.595165 0.319852 0.177786
O O14 0.173109 0.797659 0.778352
O O15 0.000000 0.867797 0.500000
#
# Coordination Sequence:
#
# PCOD9176009 Si02
#       7
#     8   8   8   8   8   8   4
#     4  10  19  34  52  77 113 142 181 221 273 328
#     4  11  18  33  50  75 110 140 174 220 271 325
#     4  11  23  38  56  77 103 145 192 231 267 312
#     4  11  18  29  48  76 113 145 173 206 271 333
#     4  11  19  29  50  81 113 138 170 217 278 330
#     4  10  19  29  50  80 111 141 169 218 278 328
#     4  10  18  34  49  86 111 146 176 218 280 332
#
# _framework density 19.130096999999999
#
# number of rings (size 3 to 8) (size 9 to 14) (size 15 to 20)
#    0.000    1.385    4.615    7.846    0.000    0.000 
#    0.000    0.385    0.000    2.308    0.000    0.000 
#    0.000    0.000    0.000    0.000    0.000    0.000 
#
# Total GULP energy -144938.352604 kJ/mol
# GULP energy per Si atom -5574.552023 kJ/mol
# Density = 1.908656 g / cm^3
# Si number density = 19.130097 Si / 1000 Ang^3
#
#
#
# Elastic Constant Matrix: (Units=GPa)
#
#
# Indices 1 2 3 4 5 6 
#
# 1 113.2002 4.7974 26.8504 0.0000 -6.3522 0.0000
# 2 4.7974 35.8852 14.1903 0.0000 -3.7550 0.0000
# 3 26.8504 14.1903 132.3403 0.0000 -8.4132 0.0000
# 4 0.0000 0.0000 0.0000 0.2505 0.0000 -5.3327
# 5 -6.3522 -3.7550 -8.4132 0.0000 32.6151 0.0000
# 6 0.0000 0.0000 0.0000 -5.3327 0.0000 -7.1938
#
#
#
# Elastic Compliance Matrix: (Units=1/GPa)
#
#
# Indices 1 2 3 4 5 6 
#
# 1 0.009345 -0.000412 -0.001768 0.000000 0.001316 0.000000
# 2 -0.000412 0.029335 -0.002900 0.000000 0.002549 0.000000
# 3 -0.001768 -0.002900 0.008319 0.000000 0.001468 0.000000
# 4 0.000000 0.000000 0.000000 0.237891 0.000000 -0.176347
# 5 0.001316 0.002549 0.001468 0.000000 0.031589 0.000000
# 6 0.000000 0.000000 0.000000 -0.176347 0.000000 -0.008284
#
#
# Mechanical properties :
#
#
# Convention : Reuss Voigt Hill
#
# Bulk Modulus (GPa) = 27.14535 41.45576 34.30055
# Shear Modulus (GPa) = 15.12239 20.84018 17.98129
#
# Velocity S-wave (km/s) = 2.81464 3.30418 3.06918
# Velocity P-wave (km/s) = 4.97831 6.02281 5.52530
#
# Compressibility (1/GPa) = 0.03683873
#
# Stress axis : x y z
#
# Youngs Moduli (GPa) = 107.01352 34.08873 120.20342
#
# Poissons Ratio (x) = 0.01406 0.21252
# Poissons Ratio (y) = 0.04413 0.34856
# Poissons Ratio (z) = 0.18920 0.09885
#
# Static dielectric constant tensor:
#      x y z
#    x 1.732300 0.000000 0.005610 
#    y 0.000000 1.656280 0.000000 
#    z 0.005610 0.000000 1.799260 
# 
# From -- ./inp_files/168845.got.cif
#   From: 2010.05.17/outbox.cif.g08.bks.cpg/sg12_85_cif.got.tgz:168845.got - 2010.06.03 13:09:07.
