data_PCOD9176081
_publ_section_title
;
Structure prediction by ZEFSAII (Michael W. Deem and Ramdas Pophale) SiO2 
 PCOD9176081
Probable space group: C 2/M
;
_chemical_formula_sum "Si O2"
_cell_formula_units_Z 44
_cell_length_a 22.645058
_cell_length_b 14.720925
_cell_length_c 13.998096
_cell_angle_alpha 90.000000
_cell_angle_beta 30.896238
_cell_angle_gamma 90.000000
_cell_volume 2396.101391
_symmetry_space_group_name_H-M "C 2/M"
_symmetry_group_IT_number 12
_symmetry_cell_setting 'monoclinic'
loop_
_space_group_symop_operation_xyz
x,y,z
-x,y,-z
-x,-y,-z
x,-y,z
1/2+x,1/2+y,z
1/2-x,1/2+y,-z
1/2-x,1/2-y,-z
1/2+x,1/2-y,z
loop_
_atom_site_type_symbol
_atom_site_label
_atom_site_fract_x
_atom_site_fract_y
_atom_site_fract_z
Si Si1 0.512891 0.000000 0.369289
Si Si2 0.113392 0.000000 0.410069
Si Si3 0.432853 0.815338 0.386058
Si Si4 0.700530 0.317762 0.318070
Si Si5 0.041264 0.391172 0.051398
Si Si6 0.220724 0.000000 0.064854
Si Si7 0.137526 0.803125 0.187397
O O1 0.500000 0.000000 0.500000
O O2 0.453278 0.089853 0.411430
O O3 0.648125 0.000000 0.152097
O O4 0.133872 0.090203 0.441644
O O5 0.000000 0.000000 0.500000
O O6 0.213181 0.000000 0.190584
O O7 0.319144 0.763494 0.580251
O O8 0.456930 0.840280 0.242691
O O9 0.531572 0.747305 0.287143
O O10 0.640532 0.297804 0.298685
O O11 0.832987 0.344519 0.116822
O O12 0.044384 0.500000 0.069437
O O13 0.000000 0.383073 0.000000
O O14 0.155533 0.907201 0.129444
O O15 0.250000 0.750000 0.000000
#
# Coordination Sequence:
#
# PCOD9176081 Si02
#       7
#     4   4   8   8   8   4   8
#     4  12  22  32  50  83 128 161 188 228 295 369
#     4  10  18  34  54  85 122 155 190 236 291 355
#     4  12  23  37  59  92 121 158 201 248 307 368
#     4  11  21  36  61  91 120 155 201 248 302 365
#     4  11  24  45  67  84 112 162 218 262 297 346
#     4  10  20  32  50  76 122 168 202 226 272 358
#     4  11  19  33  57  86 128 163 192 237 306 379
#
# _framework density 18.363161999999999
#
# number of rings (size 3 to 8) (size 9 to 14) (size 15 to 20)
#    0.000    0.909    5.455    4.909    0.000    0.727 
#    0.000    0.000    0.000    0.000    0.000    3.182 
#    0.000    0.000    0.000    0.000    0.000    0.000 
#
# Total GULP energy -122757.059486 kJ/mol
# GULP energy per Si atom -5579.866340 kJ/mol
# Density = 1.832137 g / cm^3
# Si number density = 18.363162 Si / 1000 Ang^3
#
#
#
# Elastic Constant Matrix: (Units=GPa)
#
#
# Indices 1 2 3 4 5 6 
#
# 1 55.9551 15.6399 12.9213 0.0000 24.2522 0.0000
# 2 15.6399 143.0782 35.0729 0.0000 21.0127 0.0000
# 3 12.9213 35.0729 87.0445 0.0000 21.8075 0.0000
# 4 0.0000 0.0000 0.0000 37.1250 0.0000 5.0837
# 5 24.2522 21.0127 21.8075 0.0000 25.3226 0.0000
# 6 0.0000 0.0000 0.0000 5.0837 0.0000 21.4714
#
#
#
# Elastic Compliance Matrix: (Units=1/GPa)
#
#
# Indices 1 2 3 4 5 6 
#
# 1 0.031499 0.000650 0.003513 0.000000 -0.033732 0.000000
# 2 0.000650 0.008249 -0.001976 0.000000 -0.005766 0.000000
# 3 0.003513 -0.001976 0.015550 0.000000 -0.015117 0.000000
# 4 0.000000 0.000000 0.000000 0.027839 0.000000 -0.006591
# 5 -0.033732 -0.005766 -0.015117 0.000000 0.089600 0.000000
# 6 0.000000 0.000000 0.000000 -0.006591 0.000000 0.048134
#
#
# Mechanical properties :
#
#
# Convention : Reuss Voigt Hill
#
# Bulk Modulus (GPa) = 16.75803 45.92735 31.34269
# Shear Modulus (GPa) = 21.15170 31.61338 26.38254
#
# Velocity S-wave (km/s) = 3.39758 4.15368 3.79451
# Velocity P-wave (km/s) = 4.95350 6.93318 6.02520
#
# Compressibility (1/GPa) = 0.05967288
#
# Stress axis : x y z
#
# Youngs Moduli (GPa) = 31.74714 121.22255 64.30758
#
# Poissons Ratio (x) = -0.07874 -0.22594
# Poissons Ratio (y) = -0.02062 0.12706
# Poissons Ratio (z) = -0.11154 0.23951
#
# Static dielectric constant tensor:
#      x y z
#    x 1.624550 0.000000 -0.007870 
#    y 0.000000 1.699370 0.000000 
#    z -0.007870 0.000000 1.702860 
# 
# From -- ./inp_files/240368.got.cif
#   From: 2010.05.17/outbox.cif.g08.bks.cpg/sg12_121_cif.got.tgz:240368.got - 2010.06.03 13:09:07.
