data_PCOD9176853
_publ_section_title
;
Structure prediction by ZEFSAII (Michael W. Deem and Ramdas Pophale) SiO2 
 PCOD9176853
Probable space group: C 2/M
;
_chemical_formula_sum "Si O2"
_cell_formula_units_Z 56
_cell_length_a 10.872892
_cell_length_b 23.085867
_cell_length_c 12.058172
_cell_angle_alpha 90.000000
_cell_angle_beta 128.437514
_cell_angle_gamma 90.000000
_cell_volume 2370.791893
_symmetry_space_group_name_H-M "C 2/M"
_symmetry_group_IT_number 12
_symmetry_cell_setting 'monoclinic'
loop_
_space_group_symop_operation_xyz
x,y,z
-x,y,-z
-x,-y,-z
x,-y,z
1/2+x,1/2+y,z
1/2-x,1/2+y,-z
1/2-x,1/2-y,-z
1/2+x,1/2-y,z
loop_
_atom_site_type_symbol
_atom_site_label
_atom_site_fract_x
_atom_site_fract_y
_atom_site_fract_z
Si Si1 0.657748 0.125114 0.808515
Si Si2 0.205773 0.832122 0.640771
Si Si3 0.171472 0.296942 0.613732
Si Si4 0.977911 0.172133 0.232927
Si Si5 0.877818 0.064979 0.777731
Si Si6 0.452624 0.791548 0.099715
Si Si7 0.319116 0.932267 0.559692
O O1 0.692509 0.183235 0.753021
O O2 0.791086 0.081579 0.842642
O O3 0.655816 0.153432 0.929608
O O4 0.494186 0.093057 0.681585
O O5 0.150959 0.769364 0.568023
O O6 0.386932 0.815778 0.758083
O O7 0.205445 0.890515 0.568913
O O8 0.115994 0.838169 0.706889
O O9 0.333846 0.314867 0.647651
O O10 0.000000 0.324307 0.500000
O O11 0.991043 0.112558 0.173475
O O12 0.916421 0.229810 0.135933
O O13 0.744918 0.069198 0.603562
O O14 0.937002 0.000000 0.810166
O O15 0.500000 0.782160 0.000000
O O16 0.314666 0.000000 0.590053
#
# Coordination Sequence:
#
# PCOD9176853 Si02
#       7
#     8   8   8   8   8   8   8
#     4  10  18  36  58  86 113 144 199 245 287 335
#     4  10  22  36  55  86 120 151 190 236 291 347
#     4  10  20  33  55  84 118 155 183 232 288 351
#     4  10  21  38  54  87 120 151 193 235 291 345
#     4  10  21  36  56  83 119 162 197 226 271 342
#     4  10  22  40  63  89 112 144 195 251 309 349
#     4  10  21  35  56  85 120 163 198 226 273 342
#
# _framework density 23.620799999999999
#
# number of rings (size 3 to 8) (size 9 to 14) (size 15 to 20)
#    0.000    2.000    1.429    2.571    2.000    2.857 
#    0.000    1.429    0.000   11.143    0.000    0.000 
#    0.000    0.000    0.000    0.000    0.000    0.000 
#
# Total GULP energy -156123.772685 kJ/mol
# GULP energy per Si atom -5575.849024 kJ/mol
# Density = 2.356704 g / cm^3
# Si number density = 23.620800 Si / 1000 Ang^3
#
#
#
# Elastic Constant Matrix: (Units=GPa)
#
#
# Indices 1 2 3 4 5 6 
#
# 1 78.4003 67.3564 10.4453 0.0000 -11.7313 0.0000
# 2 67.3564 207.6124 37.3218 0.0000 -17.9947 0.0000
# 3 10.4453 37.3218 38.2168 0.0000 -5.2063 0.0000
# 4 0.0000 0.0000 0.0000 25.1352 0.0000 1.4606
# 5 -11.7313 -17.9947 -5.2063 0.0000 45.0146 0.0000
# 6 0.0000 0.0000 0.0000 1.4606 0.0000 30.1077
#
#
#
# Elastic Compliance Matrix: (Units=1/GPa)
#
#
# Indices 1 2 3 4 5 6 
#
# 1 0.017976 -0.005815 0.001105 0.000000 0.002488 0.000000
# 2 -0.005815 0.007855 -0.005954 0.000000 0.000936 0.000000
# 3 0.001105 -0.005954 0.031897 0.000000 0.001597 0.000000
# 4 0.000000 0.000000 0.000000 0.039897 0.000000 -0.001936
# 5 0.002488 0.000936 0.001597 0.000000 0.023422 0.000000
# 6 0.000000 0.000000 0.000000 -0.001936 0.000000 0.033308
#
#
# Mechanical properties :
#
#
# Convention : Reuss Voigt Hill
#
# Bulk Modulus (GPa) = 27.47352 61.60851 44.54102
# Shear Modulus (GPa) = 26.62177 33.99191 30.30684
#
# Velocity S-wave (km/s) = 3.36080 3.79762 3.58586
# Velocity P-wave (km/s) = 5.16878 6.73559 6.00352
#
# Compressibility (1/GPa) = 0.03639868
#
# Stress axis : x y z
#
# Youngs Moduli (GPa) = 55.62982 127.31303 31.35124
#
# Poissons Ratio (x) = 0.74032 -0.03463
# Poissons Ratio (y) = 0.32348 0.18666
# Poissons Ratio (z) = -0.06144 0.75801
#
# Static dielectric constant tensor:
#      x y z
#    x 1.935520 0.000000 0.017130 
#    y 0.000000 1.876680 0.000000 
#    z 0.017130 0.000000 2.027730 
# 
# From -- ./inp_files/135460.got.cif
#   From: 2010.05.17/outbox.cif.g08.bks.cpg/sg12_68_cif.got.tgz:135460.got - 2010.06.03 13:09:07.
