data_PCOD9176329
_publ_section_title
;
Structure prediction by ZEFSAII (Michael W. Deem and Ramdas Pophale) SiO2 
 PCOD9176329
Probable space group: C 2/M
;
_chemical_formula_sum "Si O2"
_cell_formula_units_Z 64
_cell_length_a 19.438836
_cell_length_b 10.404994
_cell_length_c 14.560260
_cell_angle_alpha 90.000000
_cell_angle_beta 80.225016
_cell_angle_gamma 90.000000
_cell_volume 2902.217584
_symmetry_space_group_name_H-M "C 2/M"
_symmetry_group_IT_number 12
_symmetry_cell_setting 'monoclinic'
loop_
_space_group_symop_operation_xyz
x,y,z
-x,y,-z
-x,-y,-z
x,-y,z
1/2+x,1/2+y,z
1/2-x,1/2+y,-z
1/2-x,1/2-y,-z
1/2+x,1/2-y,z
loop_
_atom_site_type_symbol
_atom_site_label
_atom_site_fract_x
_atom_site_fract_y
_atom_site_fract_z
Si Si1 0.096084 0.146441 0.584849
Si Si2 0.390440 0.855585 0.084385
Si Si3 0.907191 0.859057 0.720466
Si Si4 0.461369 0.352797 0.194943
Si Si5 0.756120 0.788288 0.791323
Si Si6 0.699703 0.855683 0.054270
Si Si7 0.594120 0.850749 0.438755
Si Si8 0.757776 0.860485 0.382078
O O1 0.076172 0.163725 0.696656
O O2 0.068427 0.264600 0.530598
O O3 0.180537 0.149763 0.558903
O O4 0.075301 0.000000 0.562856
O O5 0.434845 0.748054 0.126093
O O6 0.312229 0.846132 0.145935
O O7 0.417804 0.000000 0.092233
O O8 0.374710 0.836059 0.979213
O O9 0.826875 0.867235 0.767514
O O10 0.916031 0.741092 0.647838
O O11 0.957699 0.839235 0.795579
O O12 0.926512 0.000000 0.675961
O O13 0.447990 0.500000 0.167982
O O14 0.786924 0.666577 0.841478
O O15 0.734170 0.748381 0.695002
O O16 0.720962 0.000000 0.026053
O O17 0.750000 0.750000 0.000000
O O18 0.678222 0.860793 0.431588
O O19 0.569843 0.000000 0.436177
O O20 0.770543 0.000000 0.333741
#
# Coordination Sequence:
#
# PCOD9176329 Si02
#       8
#     8   8   8   8   8   8   8   8
#     4  10  19  34  54  77 106 143 187 231 276 328
#     4  10  20  35  56  86 116 143 180 228 281 330
#     4  10  22  40  59  81 111 147 189 233 277 331
#     4  10  22  39  59  81 108 149 192 230 277 332
#     4  10  18  34  59  85 112 146 185 228 276 328
#     4   9  19  33  55  87 120 150 185 230 280 331
#     4  10  21  35  53  81 111 144 182 227 283 335
#     4   9  17  30  51  80 110 140 181 226 272 327
#
# _framework density 22.052104
#
# number of rings (size 3 to 8) (size 9 to 14) (size 15 to 20)
#    0.000    2.250    1.250    1.500    0.000    4.500 
#    0.000    3.750    0.000    3.000    0.000    0.000 
#    0.000    0.000    0.000    0.000    0.000    0.000 
#
# Total GULP energy -178334.476477 kJ/mol
# GULP energy per Si atom -5572.952390 kJ/mol
# Density = 2.200191 g / cm^3
# Si number density = 22.052104 Si / 1000 Ang^3
#
#
#
# Elastic Constant Matrix: (Units=GPa)
#
#
# Indices 1 2 3 4 5 6 
#
# 1 92.9171 33.5572 4.7465 0.0000 12.2498 0.0000
# 2 33.5572 181.4663 38.4327 0.0000 35.0007 0.0000
# 3 4.7465 38.4327 18.7307 0.0000 13.7213 0.0000
# 4 0.0000 0.0000 0.0000 6.3859 0.0000 9.2348
# 5 12.2498 35.0007 13.7213 0.0000 28.0597 0.0000
# 6 0.0000 0.0000 0.0000 9.2348 0.0000 19.1325
#
#
#
# Elastic Compliance Matrix: (Units=1/GPa)
#
#
# Indices 1 2 3 4 5 6 
#
# 1 0.012013 -0.002460 0.005606 0.000000 -0.004917 0.000000
# 2 -0.002460 0.010503 -0.018881 0.000000 -0.002795 0.000000
# 3 0.005606 -0.018881 0.117250 0.000000 -0.036232 0.000000
# 4 0.000000 0.000000 0.000000 0.518539 0.000000 -0.250287
# 5 -0.004917 -0.002795 -0.036232 0.000000 0.058988 0.000000
# 6 0.000000 0.000000 0.000000 -0.250287 0.000000 0.173075
#
#
# Mechanical properties :
#
#
# Convention : Reuss Voigt Hill
#
# Bulk Modulus (GPa) = 9.23400 49.62078 29.42739
# Shear Modulus (GPa) = 5.21955 25.14080 15.18018
#
# Velocity S-wave (km/s) = 1.54015 3.38015 2.62654
# Velocity P-wave (km/s) = 2.71278 6.14689 4.75097
#
# Compressibility (1/GPa) = 0.10829544
#
# Stress axis : x y z
#
# Youngs Moduli (GPa) = 83.24544 95.20698 8.52881
#
# Poissons Ratio (x) = 0.23425 -0.04781
# Poissons Ratio (y) = 0.20482 0.16103
# Poissons Ratio (z) = -0.46667 1.79757
#
# Static dielectric constant tensor:
#      x y z
#    x 1.852050 0.000000 -0.027130 
#    y 0.000000 1.780720 0.000000 
#    z -0.027130 0.000000 1.841960 
# 
# From -- ./inp_files/281228.got.cif
#   From: 2010.05.17/outbox.cif.g08.bks.cpg/sg12_141_cif.got.tgz:281228.got - 2010.06.03 13:09:07.
