data_PCOD9176180
_publ_section_title
;
Structure prediction by ZEFSAII (Michael W. Deem and Ramdas Pophale) SiO2 
 PCOD9176180
Probable space group: C 2/M
;
_chemical_formula_sum "Si O2"
_cell_formula_units_Z 56
_cell_length_a 16.160307
_cell_length_b 13.846408
_cell_length_c 17.588277
_cell_angle_alpha 90.000000
_cell_angle_beta 44.828514
_cell_angle_gamma 90.000000
_cell_volume 2774.541919
_symmetry_space_group_name_H-M "C 2/M"
_symmetry_group_IT_number 12
_symmetry_cell_setting 'monoclinic'
loop_
_space_group_symop_operation_xyz
x,y,z
-x,y,-z
-x,-y,-z
x,-y,z
1/2+x,1/2+y,z
1/2-x,1/2+y,-z
1/2-x,1/2-y,-z
1/2+x,1/2-y,z
loop_
_atom_site_type_symbol
_atom_site_label
_atom_site_fract_x
_atom_site_fract_y
_atom_site_fract_z
Si Si1 0.930291 0.796857 0.224661
Si Si2 0.608953 0.610740 0.336745
Si Si3 0.697457 0.885358 0.667307
Si Si4 0.819736 0.114044 0.981628
Si Si5 0.128307 0.115945 0.575818
Si Si6 0.693113 0.109148 0.914158
Si Si7 0.629394 0.311822 0.899161
O O1 0.913144 0.681817 0.244146
O O2 0.882710 0.842347 0.333114
O O3 0.853756 0.828220 0.200758
O O4 0.063156 0.829296 0.121079
O O5 0.588169 0.500000 0.374007
O O6 0.699608 0.646704 0.340929
O O7 0.482281 0.654473 0.402135
O O8 0.680936 0.609710 0.210987
O O9 0.752282 0.867664 0.548310
O O10 0.676447 0.000000 0.691709
O O11 0.718581 0.130608 0.985590
O O12 0.846079 0.000000 0.962104
O O13 0.789783 0.144598 0.087401
O O14 0.113409 0.000000 0.590669
O O15 0.627089 0.197183 0.917913
O O16 0.645666 0.000000 0.935769
O O17 0.500000 0.353011 0.000000
#
# Coordination Sequence:
#
# PCOD9176180 Si02
#       7
#     8   8   8   8   8   8   8
#     4  11  20  32  50  76 107 137 170 206 257 306
#     4   9  16  30  53  76  99 131 169 213 260 300
#     4  10  20  33  51  77 109 136 167 214 261 305
#     4  10  21  37  56  76 101 135 175 218 251 292
#     4  10  19  32  52  79 105 135 174 212 254 303
#     4  10  18  34  57  76 101 135 171 212 259 304
#     4  10  22  34  51  79 107 136 167 208 258 311
#
# _framework density 20.183512
#
# number of rings (size 3 to 8) (size 9 to 14) (size 15 to 20)
#    0.000    2.000    2.857    1.714    0.000    5.143 
#    0.000    2.143    0.000    0.857    0.000    2.000 
#    0.000   10.857    0.000    0.000    0.000    0.000 
#
# Total GULP energy -156098.994340 kJ/mol
# GULP energy per Si atom -5574.964084 kJ/mol
# Density = 2.013757 g / cm^3
# Si number density = 20.183512 Si / 1000 Ang^3
#
#
#
# Elastic Constant Matrix: (Units=GPa)
#
#
# Indices 1 2 3 4 5 6 
#
# 1 49.3440 24.2411 22.2425 0.0000 15.7322 0.0000
# 2 24.2411 58.0694 26.0151 0.0000 0.1008 0.0000
# 3 22.2425 26.0151 49.7218 0.0000 13.2517 0.0000
# 4 0.0000 0.0000 0.0000 22.9831 0.0000 0.2955
# 5 15.7322 0.1008 13.2517 0.0000 28.0128 0.0000
# 6 0.0000 0.0000 0.0000 0.2955 0.0000 27.4974
#
#
#
# Elastic Compliance Matrix: (Units=1/GPa)
#
#
# Indices 1 2 3 4 5 6 
#
# 1 0.033403 -0.012042 -0.004181 0.000000 -0.016738 0.000000
# 2 -0.012042 0.027842 -0.012537 0.000000 0.012593 0.000000
# 3 -0.004181 -0.012537 0.031930 0.000000 -0.012711 0.000000
# 4 0.000000 0.000000 0.000000 0.043516 0.000000 -0.000468
# 5 -0.016738 0.012593 -0.012711 0.000000 0.051066 0.000000
# 6 0.000000 0.000000 0.000000 -0.000468 0.000000 0.036372
#
#
# Mechanical properties :
#
#
# Convention : Reuss Voigt Hill
#
# Bulk Modulus (GPa) = 28.04654 33.57030 30.80842
# Shear Modulus (GPa) = 17.03380 21.34111 19.18746
#
# Velocity S-wave (km/s) = 2.90823 3.25523 3.08661
# Velocity P-wave (km/s) = 5.02026 5.54953 5.29152
#
# Compressibility (1/GPa) = 0.03565502
#
# Stress axis : x y z
#
# Youngs Moduli (GPa) = 29.93758 35.91642 31.31895
#
# Poissons Ratio (x) = 0.43250 0.13094
# Poissons Ratio (y) = 0.36051 0.39265
# Poissons Ratio (z) = 0.12517 0.45029
#
# Static dielectric constant tensor:
#      x y z
#    x 1.760470 0.000000 0.017700 
#    y 0.000000 1.736120 0.000000 
#    z 0.017700 0.000000 1.741880 
# 
# From -- ./inp_files/251189.got.cif
#   From: 2010.05.17/outbox.cif.g08.bks.cpg/sg12_126_cif.got.tgz:251189.got - 2010.06.03 13:09:07.
