data_PCOD9176087
_publ_section_title
;
Structure prediction by ZEFSAII (Michael W. Deem and Ramdas Pophale) SiO2 
 PCOD9176087
Probable space group: C 2/M
;
_chemical_formula_sum "Si O2"
_cell_formula_units_Z 32
_cell_length_a 8.179642
_cell_length_b 29.352175
_cell_length_c 6.908647
_cell_angle_alpha 90.000000
_cell_angle_beta 71.705766
_cell_angle_gamma 90.000000
_cell_volume 1574.863511
_symmetry_space_group_name_H-M "C 2/M"
_symmetry_group_IT_number 12
_symmetry_cell_setting 'monoclinic'
loop_
_space_group_symop_operation_xyz
x,y,z
-x,y,-z
-x,-y,-z
x,-y,z
1/2+x,1/2+y,z
1/2-x,1/2+y,-z
1/2-x,1/2-y,-z
1/2+x,1/2-y,z
loop_
_atom_site_type_symbol
_atom_site_label
_atom_site_fract_x
_atom_site_fract_y
_atom_site_fract_z
Si Si1 0.054331 0.874845 0.211926
Si Si2 0.695540 0.947540 0.002642
Si Si3 0.305768 0.801960 0.998512
Si Si4 0.312427 0.874491 0.662024
O O1 0.174690 0.919234 0.182495
O O2 0.173820 0.830281 0.182916
O O3 0.869374 0.874743 0.385538
O O4 0.000000 0.874949 0.000000
O O5 0.747176 0.000000 0.003346
O O6 0.500000 0.945427 0.000000
O O7 0.693904 0.919843 0.203464
O O8 0.500000 0.805055 0.000000
O O9 0.250000 0.750000 0.000000
O O10 0.303998 0.829160 0.797141
O O11 0.500000 0.874297 0.500000
#
# Coordination Sequence:
#
# PCOD9176087 Si02
#       4
#     8   8   8   8
#     4   8  16  30  49  71  96 129 165 197 239 294
#     4   9  17  32  53  74  98 135 174 200 236 297
#     4  10  18  34  55  72  95 130 168 199 240 301
#     4  10  20  33  50  76 104 127 162 212 256 286
#
# _framework density 20.319220999999999
#
# number of rings (size 3 to 8) (size 9 to 14) (size 15 to 20)
#    0.000    3.250    0.000    5.250    0.000    5.000 
#    0.000   10.000    0.000    3.000    0.000    0.000 
#    0.000    0.000    0.000    0.000    0.000    0.000 
#
# Total GULP energy -89144.584455 kJ/mol
# GULP energy per Si atom -5571.536528 kJ/mol
# Density = 2.027297 g / cm^3
# Si number density = 20.319221 Si / 1000 Ang^3
#
#
#
# Elastic Constant Matrix: (Units=GPa)
#
#
# Indices 1 2 3 4 5 6 
#
# 1 141.8116 70.0522 36.8812 0.0000 -52.4612 0.0000
# 2 70.0522 212.8083 53.7419 0.0000 -30.9628 0.0000
# 3 36.8812 53.7419 86.8545 0.0000 -48.9271 0.0000
# 4 0.0000 0.0000 0.0000 8.2820 0.0000 -3.5776
# 5 -52.4612 -30.9628 -48.9271 0.0000 46.3020 0.0000
# 6 0.0000 0.0000 0.0000 -3.5776 0.0000 37.6579
#
#
#
# Elastic Compliance Matrix: (Units=1/GPa)
#
#
# Indices 1 2 3 4 5 6 
#
# 1 0.016459 -0.004223 0.011213 0.000000 0.027672 0.000000
# 2 -0.004223 0.006654 -0.006208 0.000000 -0.006896 0.000000
# 3 0.011213 -0.006208 0.038078 0.000000 0.048789 0.000000
# 4 0.000000 0.000000 0.000000 0.125911 0.000000 0.011962
# 5 0.027672 -0.006896 0.048789 0.000000 0.099894 0.000000
# 6 0.000000 0.000000 0.000000 0.011962 0.000000 0.027691
#
#
# Mechanical properties :
#
#
# Convention : Reuss Voigt Hill
#
# Bulk Modulus (GPa) = 15.93570 84.75834 50.34702
# Shear Modulus (GPa) = 14.96818 37.16831 26.06825
#
# Velocity S-wave (km/s) = 2.71708 4.28158 3.58569
# Velocity P-wave (km/s) = 4.20750 8.13919 6.47879
#
# Compressibility (1/GPa) = 0.06275219
#
# Stress axis : x y z
#
# Youngs Moduli (GPa) = 60.75819 150.29021 26.26215
#
# Poissons Ratio (x) = 0.63472 -0.29447
# Poissons Ratio (y) = 0.25660 0.16305
# Poissons Ratio (z) = -0.68126 0.93306
#
# Static dielectric constant tensor:
#      x y z
#    x 1.825020 0.000000 0.012520 
#    y 0.000000 1.677270 0.000000 
#    z 0.012520 0.000000 1.860780 
# 
# From -- ./inp_files/39738.got.cif
#   From: 2010.05.17/outbox.cif.g08.bks.cpg/sg12_20_cif.got.tgz:39738.got - 2010.06.03 13:09:07.
