data_PCOD9176110
_publ_section_title
;
Structure prediction by ZEFSAII (Michael W. Deem and Ramdas Pophale) SiO2 
 PCOD9176110
Probable space group: C 2/M
;
_chemical_formula_sum "Si O2"
_cell_formula_units_Z 64
_cell_length_a 9.053727
_cell_length_b 18.650564
_cell_length_c 20.573486
_cell_angle_alpha 90.000000
_cell_angle_beta 104.180581
_cell_angle_gamma 90.000000
_cell_volume 3368.121897
_symmetry_space_group_name_H-M "C 2/M"
_symmetry_group_IT_number 12
_symmetry_cell_setting 'monoclinic'
loop_
_space_group_symop_operation_xyz
x,y,z
-x,y,-z
-x,-y,-z
x,-y,z
1/2+x,1/2+y,z
1/2-x,1/2+y,-z
1/2-x,1/2-y,-z
1/2+x,1/2-y,z
loop_
_atom_site_type_symbol
_atom_site_label
_atom_site_fract_x
_atom_site_fract_y
_atom_site_fract_z
Si Si1 0.763037 0.792632 0.773723
Si Si2 0.364725 0.417476 0.030196
Si Si3 0.316209 0.294633 0.363471
Si Si4 0.687731 0.578983 0.722896
Si Si5 0.099427 0.289552 0.454371
Si Si6 0.536816 0.084292 0.790228
Si Si7 0.044461 0.418213 0.936733
Si Si8 0.889571 0.164187 0.164085
O O1 0.748880 0.759363 0.699283
O O2 0.654806 0.862063 0.769761
O O3 0.704594 0.730925 0.816781
O O4 0.934006 0.813750 0.810961
O O5 0.395076 0.500000 0.055827
O O6 0.343841 0.364754 0.088516
O O7 0.500000 0.391135 0.000000
O O8 0.223757 0.422022 0.966027
O O9 0.378704 0.362248 0.331334
O O10 0.181484 0.319394 0.398126
O O11 0.463113 0.261334 0.414568
O O12 0.641210 0.500000 0.699884
O O13 0.639445 0.598329 0.790267
O O14 0.871129 0.585837 0.740100
O O15 0.250000 0.250000 0.500000
O O16 0.000000 0.331098 0.500000
O O17 0.511372 0.110539 0.862135
O O18 0.586196 0.000000 0.798318
O O19 0.977495 0.500000 0.930714
O O20 0.000000 0.381708 0.000000
#
# Coordination Sequence:
#
# PCOD9176110 Si02
#       8
#     8   8   8   8   8   8   8   8
#     4  11  22  36  55  79 109 142 175 223 279 322
#     4  10  20  35  54  74  98 132 177 230 283 334
#     4  10  18  34  55  81 111 140 176 216 259 308
#     4  10  20  34  56  83 112 145 178 220 272 324
#     4   9  18  32  56  84 108 137 175 215 248 294
#     4  10  20  35  54  79 108 139 181 228 278 335
#     4   9  17  30  49  70  94 130 175 221 269 325
#     4  11  22  36  53  76 106 140 184 230 280 331
#
# _framework density 19.001688000000001
#
# number of rings (size 3 to 8) (size 9 to 14) (size 15 to 20)
#    0.000    2.000    0.000    5.625    0.000    4.000 
#    0.000    3.125    0.000    3.750    0.000    3.500 
#    0.000    0.000    0.000    0.000    0.000    0.000 
#
# Total GULP energy -178213.648578 kJ/mol
# GULP energy per Si atom -5569.176518 kJ/mol
# Density = 1.895844 g / cm^3
# Si number density = 19.001688 Si / 1000 Ang^3
#
#
#
# Elastic Constant Matrix: (Units=GPa)
#
#
# Indices 1 2 3 4 5 6 
#
# 1 51.5695 -3.3601 2.6530 0.0000 -5.2699 0.0000
# 2 -3.3601 49.7821 15.8117 0.0000 2.2192 0.0000
# 3 2.6530 15.8117 68.1845 0.0000 -6.1480 0.0000
# 4 0.0000 0.0000 0.0000 -8.8418 0.0000 8.6927
# 5 -5.2699 2.2192 -6.1480 0.0000 33.5442 0.0000
# 6 0.0000 0.0000 0.0000 8.6927 0.0000 10.7262
#
#
#
# Elastic Compliance Matrix: (Units=1/GPa)
#
#
# Indices 1 2 3 4 5 6 
#
# 1 0.019824 0.001483 -0.000857 0.000000 0.002859 0.000000
# 2 0.001483 0.021987 -0.005355 0.000000 -0.002203 0.000000
# 3 -0.000857 -0.005355 0.016229 0.000000 0.003194 0.000000
# 4 0.000000 0.000000 0.000000 -0.062947 0.000000 0.051013
# 5 0.002859 -0.002203 0.003194 0.000000 0.030992 0.000000
# 6 0.000000 0.000000 0.000000 0.051013 0.000000 0.051888
#
#
# Mechanical properties :
#
#
# Convention : Reuss Voigt Hill
#
# Bulk Modulus (GPa) = 20.58408 22.19392 21.38900
# Shear Modulus (GPa) = 48.25067 17.38118 32.81592
#
# Velocity S-wave (km/s) = 5.04460 3.02771 4.16023
# Velocity P-wave (km/s) = 6.69230 4.89163 5.86152
#
# Compressibility (1/GPa) = 0.04858123
#
# Stress axis : x y z
#
# Youngs Moduli (GPa) = 50.44340 45.48205 61.61717
#
# Poissons Ratio (x) = -0.06745 0.05283
# Poissons Ratio (y) = -0.07480 0.32996
# Poissons Ratio (z) = 0.04325 0.24356
#
# Static dielectric constant tensor:
#      x y z
#    x 1.718430 0.000000 -0.029070 
#    y 0.000000 1.678430 0.000000 
#    z -0.029070 0.000000 1.715320 
# 
# From -- ./inp_files/301440.got.cif
#   From: 2010.05.17/outbox.cif.g08.bks.cpg/sg12_151_cif.got.tgz:301440.got - 2010.06.03 13:09:07.
