data_PCOD9176358
_publ_section_title
;
Structure prediction by ZEFSAII (Michael W. Deem and Ramdas Pophale) SiO2 
 PCOD9176358
Probable space group: C 2/M
;
_chemical_formula_sum "Si O2"
_cell_formula_units_Z 52
_cell_length_a 22.190683
_cell_length_b 7.417504
_cell_length_c 11.882479
_cell_angle_alpha 90.000000
_cell_angle_beta 94.248123
_cell_angle_gamma 90.000000
_cell_volume 1950.476386
_symmetry_space_group_name_H-M "C 2/M"
_symmetry_group_IT_number 12
_symmetry_cell_setting 'monoclinic'
loop_
_space_group_symop_operation_xyz
x,y,z
-x,y,-z
-x,-y,-z
x,-y,z
1/2+x,1/2+y,z
1/2-x,1/2+y,-z
1/2-x,1/2-y,-z
1/2+x,1/2-y,z
loop_
_atom_site_type_symbol
_atom_site_label
_atom_site_fract_x
_atom_site_fract_y
_atom_site_fract_z
Si Si1 0.049059 0.212486 0.280711
Si Si2 0.629055 0.778133 0.585995
Si Si3 0.727903 0.292149 0.148681
Si Si4 0.500000 0.245727 0.500000
Si Si5 0.312958 0.785288 0.623312
Si Si6 0.902699 0.786290 0.934031
Si Si7 0.358053 0.783593 0.155767
O O1 0.119922 0.233701 0.321932
O O2 0.048980 0.279349 0.151139
O O3 0.011432 0.315183 0.371020
O O4 0.031595 0.000000 0.286738
O O5 0.568121 0.691125 0.528809
O O6 0.683067 0.728443 0.507181
O O7 0.632303 0.723684 0.715482
O O8 0.622339 0.000000 0.577256
O O9 0.726175 0.500000 0.114369
O O10 0.730013 0.291323 0.285926
O O11 0.664123 0.208028 0.103998
O O12 0.790879 0.213773 0.114642
O O13 0.306534 0.000000 0.625959
O O14 0.901106 0.000000 0.910813
O O15 0.906713 0.765572 0.068204
O O16 0.355424 0.000000 0.158797
#
# Coordination Sequence:
#
# PCOD9176358 Si02
#       7
#     8   8   8   4   8   8   8
#     4   9  18  33  54  79 104 128 163 211 255 301
#     4   9  19  34  51  75 105 132 165 214 261 299
#     4   9  18  32  51  74 104 139 171 208 249 291
#     4  10  18  34  60  78  95 128 169 206 259 318
#     4   9  17  30  50  76 104 134 169 207 250 300
#     4   9  18  33  50  73 105 135 165 205 250 294
#     4  10  20  34  51  73 103 139 175 208 246 295
#
# _framework density 26.660153999999999
#
# number of rings (size 3 to 8) (size 9 to 14) (size 15 to 20)
#    0.000    2.769    0.000    2.308    0.000    4.308 
#    0.000    5.385    0.000    3.692    0.000    0.000 
#    0.000    0.000    0.000    0.000    0.000    0.000 
#
# Total GULP energy -144928.741972 kJ/mol
# GULP energy per Si atom -5574.182384 kJ/mol
# Density = 2.659947 g / cm^3
# Si number density = 26.660154 Si / 1000 Ang^3
#
#
#
# Elastic Constant Matrix: (Units=GPa)
#
#
# Indices 1 2 3 4 5 6 
#
# 1 80.8656 2.1455 48.5870 0.0000 -21.1740 0.0000
# 2 2.1455 127.6671 15.1195 0.0000 -4.8414 0.0000
# 3 48.5870 15.1195 251.6132 0.0000 -63.8665 0.0000
# 4 0.0000 0.0000 0.0000 -17.6862 0.0000 50.5588
# 5 -21.1740 -4.8414 -63.8665 0.0000 53.3367 0.0000
# 6 0.0000 0.0000 0.0000 50.5588 0.0000 -69.0003
#
#
#
# Elastic Compliance Matrix: (Units=1/GPa)
#
#
# Indices 1 2 3 4 5 6 
#
# 1 0.014416 0.000115 -0.001918 0.000000 0.003436 0.000000
# 2 0.000115 0.007892 -0.000435 0.000000 0.000241 0.000000
# 3 -0.001918 -0.000435 0.005987 0.000000 0.006368 0.000000
# 4 0.000000 0.000000 0.000000 0.051653 0.000000 0.037848
# 5 0.003436 0.000241 0.006368 0.000000 0.027760 0.000000
# 6 0.000000 0.000000 0.000000 0.037848 0.000000 0.013240
#
#
# Mechanical properties :
#
#
# Convention : Reuss Voigt Hill
#
# Bulk Modulus (GPa) = 41.98588 65.76110 53.87349
# Shear Modulus (GPa) = 37.49128 19.61629 28.55379
#
# Velocity S-wave (km/s) = 3.75409 2.71549 3.27621
# Velocity P-wave (km/s) = 5.87994 5.87808 5.87901
#
# Compressibility (1/GPa) = 0.02381753
#
# Stress axis : x y z
#
# Youngs Moduli (GPa) = 69.36974 126.71660 167.01650
#
# Poissons Ratio (x) = -0.01460 0.32041
# Poissons Ratio (y) = -0.00799 0.07271
# Poissons Ratio (z) = 0.13308 0.05517
#
# Static dielectric constant tensor:
#      x y z
#    x 2.063980 0.000000 0.049120 
#    y 0.000000 3.127920 0.000000 
#    z 0.049120 0.000000 2.204810 
# 
# From -- ./inp_files/179922.got.cif
#   From: 2010.05.17/outbox.cif.g08.bks.cpg/sg12_90_cif.got.tgz:179922.got - 2010.06.03 13:09:07.
