data_PCOD9176072
_publ_section_title
;
Structure prediction by ZEFSAII (Michael W. Deem and Ramdas Pophale) SiO2 
 PCOD9176072
Probable space group: C 2/M
;
_chemical_formula_sum "Si O2"
_cell_formula_units_Z 56
_cell_length_a 11.076070
_cell_length_b 15.556075
_cell_length_c 22.972370
_cell_angle_alpha 90.000000
_cell_angle_beta 43.904141
_cell_angle_gamma 90.000000
_cell_volume 2744.789982
_symmetry_space_group_name_H-M "C 2/M"
_symmetry_group_IT_number 12
_symmetry_cell_setting 'monoclinic'
loop_
_space_group_symop_operation_xyz
x,y,z
-x,y,-z
-x,-y,-z
x,-y,z
1/2+x,1/2+y,z
1/2-x,1/2+y,-z
1/2-x,1/2-y,-z
1/2+x,1/2-y,z
loop_
_atom_site_type_symbol
_atom_site_label
_atom_site_fract_x
_atom_site_fract_y
_atom_site_fract_z
Si Si1 0.522107 0.096195 0.147830
Si Si2 0.944832 0.405226 0.429400
Si Si3 0.629304 0.681308 0.007799
Si Si4 0.308322 0.756612 0.642416
Si Si5 0.466401 0.402793 0.441581
Si Si6 0.648878 0.273047 0.818002
Si Si7 0.009652 0.656281 0.712363
O O1 0.421312 0.175439 0.152153
O O2 0.473045 0.105479 0.233295
O O3 0.480190 0.000000 0.142416
O O4 0.729036 0.114502 0.066115
O O5 0.984739 0.500000 0.437770
O O6 0.736860 0.392390 0.502740
O O7 0.999021 0.400451 0.342183
O O8 0.059190 0.331233 0.418783
O O9 0.487553 0.660587 0.106804
O O10 0.500000 0.710915 0.000000
O O11 0.750000 0.750000 0.000000
O O12 0.421743 0.674466 0.623639
O O13 0.184000 0.787131 0.737816
O O14 0.173915 0.718342 0.643328
O O15 0.500000 0.397471 0.500000
O O16 0.519348 0.500000 0.405931
O O17 0.836336 0.287926 0.780813
#
# Coordination Sequence:
#
# PCOD9176072 Si02
#       7
#     8   8   8   8   8   8   8
#     4  10  20  33  56  85 110 140 191 247 285 330
#     4  10  20  34  53  79 112 144 183 232 285 335
#     4  10  19  36  58  81 112 154 192 238 294 355
#     4  10  20  33  55  82 110 146 188 230 285 347
#     4  10  19  33  56  84 110 143 185 238 290 336
#     4   9  20  35  52  80 112 149 181 229 293 350
#     4  10  18  34  54  80 108 149 184 229 282 342
#
# _framework density 20.402289
#
# number of rings (size 3 to 8) (size 9 to 14) (size 15 to 20)
#    0.000    2.143    2.857    0.857    0.000    2.571 
#    0.000    1.429    0.000    8.143    0.000    0.000 
#    0.000    0.000    0.000    0.000    0.000    0.000 
#
# Total GULP energy -155937.499806 kJ/mol
# GULP energy per Si atom -5569.196422 kJ/mol
# Density = 2.035585 g / cm^3
# Si number density = 20.402289 Si / 1000 Ang^3
#
#
#
# Elastic Constant Matrix: (Units=GPa)
#
#
# Indices 1 2 3 4 5 6 
#
# 1 42.2870 38.1528 21.4570 0.0000 -19.0859 0.0000
# 2 38.1528 73.9105 33.1420 0.0000 -22.3544 0.0001
# 3 21.4570 33.1420 94.9576 -0.0001 -8.8518 0.0001
# 4 0.0000 0.0000 -0.0001 16.3425 0.0000 3.0892
# 5 -19.0859 -22.3544 -8.8518 0.0000 43.8841 -0.0001
# 6 0.0000 0.0001 0.0001 3.0892 -0.0001 -8.4765
#
#
#
# Elastic Compliance Matrix: (Units=1/GPa)
#
#
# Indices 1 2 3 4 5 6 
#
# 1 0.048087 -0.020604 -0.002755 0.000000 0.009862 0.000000
# 2 -0.020604 0.027442 -0.004540 0.000000 0.004102 0.000000
# 3 -0.002755 -0.004540 0.012649 0.000000 -0.000959 0.000000
# 4 0.000000 0.000000 0.000000 0.057246 0.000000 0.020863
# 5 0.009862 0.004102 -0.000959 0.000000 0.028973 0.000000
# 6 0.000000 0.000000 0.000000 0.020863 0.000000 -0.110370
#
#
# Mechanical properties :
#
#
# Convention : Reuss Voigt Hill
#
# Bulk Modulus (GPa) = 30.88378 44.07318 37.47848
# Shear Modulus (GPa) = 38.27951 18.24360 28.26155
#
# Velocity S-wave (km/s) = 4.33625 2.99355 3.72588
# Velocity P-wave (km/s) = 6.34358 5.79633 6.07612
#
# Compressibility (1/GPa) = 0.03237946
#
# Stress axis : x y z
#
# Youngs Moduli (GPa) = 20.79558 36.44032 79.06023
#
# Poissons Ratio (x) = 0.75083 0.21783
# Poissons Ratio (y) = 0.42848 0.35890
# Poissons Ratio (z) = 0.05730 0.16543
#
# Static dielectric constant tensor:
#      x y z
#    x 1.769260 0.000000 -0.003300 
#    y 0.000000 1.730320 0.000000 
#    z -0.003300 0.000000 1.776800 
# 
# From -- ./inp_files/358188.got.cif
#   From: 2010.05.17/outbox.cif.g08.bks.cpg/sg12_180_cif.got.tgz:358188.got - 2010.06.03 13:09:07.
