data_PCOD9176615
_publ_section_title
;
Structure prediction by ZEFSAII (Michael W. Deem and Ramdas Pophale) SiO2 
 PCOD9176615
Probable space group: C 2/M
;
_chemical_formula_sum "Si O2"
_cell_formula_units_Z 64
_cell_length_a 20.622728
_cell_length_b 15.272573
_cell_length_c 11.479636
_cell_angle_alpha 90.000000
_cell_angle_beta 121.073812
_cell_angle_gamma 90.000000
_cell_volume 3096.815790
_symmetry_space_group_name_H-M "C 2/M"
_symmetry_group_IT_number 12
_symmetry_cell_setting 'monoclinic'
loop_
_space_group_symop_operation_xyz
x,y,z
-x,y,-z
-x,-y,-z
x,-y,z
1/2+x,1/2+y,z
1/2-x,1/2+y,-z
1/2-x,1/2-y,-z
1/2+x,1/2-y,z
loop_
_atom_site_type_symbol
_atom_site_label
_atom_site_fract_x
_atom_site_fract_y
_atom_site_fract_z
Si Si1 0.490616 0.269199 0.719699
Si Si2 0.856696 0.825925 0.047558
Si Si3 0.261847 0.843838 0.719988
Si Si4 0.265511 0.097333 0.463850
Si Si5 0.129346 0.179124 0.204132
Si Si6 0.124428 0.275574 0.571491
Si Si7 0.704931 0.873588 0.006196
Si Si8 0.563673 0.901606 0.718179
O O1 0.571507 0.317203 0.800739
O O2 0.444011 0.303650 0.786617
O O3 0.438900 0.278103 0.557336
O O4 0.507993 0.164297 0.736057
O O5 0.786737 0.884361 0.023504
O O6 0.882949 0.847777 0.940931
O O7 0.819699 0.728830 0.008272
O O8 0.249792 0.890310 0.585942
O O9 0.325944 0.771218 0.756892
O O10 0.185939 0.789765 0.684682
O O11 0.287912 0.900822 0.853176
O O12 0.187903 0.114525 0.322262
O O13 0.325847 0.168630 0.474860
O O14 0.294159 0.000000 0.466399
O O15 0.087873 0.344595 0.627297
O O16 0.638972 0.910346 0.865457
O O17 0.535031 0.000000 0.667451
#
# Coordination Sequence:
#
# PCOD9176615 Si02
#       8
#     8   8   8   8   8   8   8   8
#     4  11  20  34  54  84 117 152 182 225 281 337
#     4   9  18  32  58  83 100 139 196 235 274 319
#     4  10  18  35  59  80 108 148 200 234 277 332
#     4  11  21  34  57  86 114 151 189 236 295 335
#     4  10  18  36  56  80 114 148 192 240 270 331
#     4  11  20  36  57  84 117 150 191 238 279 335
#     4   9  18  35  55  77 105 143 188 240 274 324
#     4  11  24  37  54  85 120 151 188 236 289 341
#
# _framework density 20.66639
#
# number of rings (size 3 to 8) (size 9 to 14) (size 15 to 20)
#    0.000    1.750    2.500    5.625    0.000    2.000 
#    0.000    0.000    0.000    5.250    0.000    2.625 
#    0.000    0.000    0.000    0.000    0.000    0.000 
#
# Total GULP energy -178569.360733 kJ/mol
# GULP energy per Si atom -5580.292523 kJ/mol
# Density = 2.061935 g / cm^3
# Si number density = 20.666390 Si / 1000 Ang^3
#
#
#
# Elastic Constant Matrix: (Units=GPa)
#
#
# Indices 1 2 3 4 5 6 
#
# 1 74.2962 -10.7268 23.8239 0.0000 -1.2409 0.0000
# 2 -10.7268 17.7112 0.5131 0.0000 -4.6005 0.0000
# 3 23.8239 0.5131 101.7515 0.0000 0.9476 0.0000
# 4 0.0000 0.0000 0.0000 1.7093 0.0000 3.0974
# 5 -1.2409 -4.6005 0.9476 0.0000 40.2798 0.0000
# 6 0.0000 0.0000 0.0000 3.0974 0.0000 1.9971
#
#
#
# Elastic Compliance Matrix: (Units=1/GPa)
#
#
# Indices 1 2 3 4 5 6 
#
# 1 0.016233 0.010406 -0.003870 0.000000 0.001780 0.000000
# 2 0.010406 0.064871 -0.002836 0.000000 0.007797 0.000000
# 3 -0.003870 -0.002836 0.010755 0.000000 -0.000696 0.000000
# 4 0.000000 0.000000 0.000000 -0.323144 0.000000 0.501173
# 5 0.001780 0.007797 -0.000696 0.000000 0.025788 0.000000
# 6 0.000000 0.000000 0.000000 0.501173 0.000000 -0.276568
#
#
# Mechanical properties :
#
#
# Convention : Reuss Voigt Hill
#
# Bulk Modulus (GPa) = 10.07476 24.55327 17.31402
# Shear Modulus (GPa) = -10.95581 20.80716 4.92568
#
# Velocity S-wave (km/s) = -2.30495 3.17647 1.54551
# Velocity P-wave (km/s) = 1.48262 5.03586 3.40306
#
# Compressibility (1/GPa) = 0.09925792
#
# Stress axis : x y z
#
# Youngs Moduli (GPa) = 61.60451 15.41520 92.98266
#
# Poissons Ratio (x) = -0.16040 0.35982
# Poissons Ratio (y) = -0.64103 0.26371
# Poissons Ratio (z) = 0.23839 0.04372
#
# Static dielectric constant tensor:
#      x y z
#    x 1.744490 0.000000 -0.015000 
#    y 0.000000 1.733910 0.000000 
#    z -0.015000 0.000000 1.759320 
# 
# From -- ./inp_files/168818.got.cif
#   From: 2010.05.17/outbox.cif.g08.bks.cpg/sg12_85_cif.got.tgz:168818.got - 2010.06.03 13:09:07.
