data_PCOD9176315
_publ_section_title
;
Structure prediction by ZEFSAII (Michael W. Deem and Ramdas Pophale) SiO2 
 PCOD9176315
Probable space group: C 2/M
;
_chemical_formula_sum "Si O2"
_cell_formula_units_Z 52
_cell_length_a 8.178668
_cell_length_b 28.405193
_cell_length_c 11.827156
_cell_angle_alpha 90.000000
_cell_angle_beta 96.657623
_cell_angle_gamma 90.000000
_cell_volume 2729.116899
_symmetry_space_group_name_H-M "C 2/M"
_symmetry_group_IT_number 12
_symmetry_cell_setting 'monoclinic'
loop_
_space_group_symop_operation_xyz
x,y,z
-x,y,-z
-x,-y,-z
x,-y,z
1/2+x,1/2+y,z
1/2-x,1/2+y,-z
1/2-x,1/2-y,-z
1/2+x,1/2-y,z
loop_
_atom_site_type_symbol
_atom_site_label
_atom_site_fract_x
_atom_site_fract_y
_atom_site_fract_z
Si Si1 0.689258 0.164171 0.523584
Si Si2 0.696010 0.051886 0.030281
Si Si3 0.000000 0.096606 0.500000
Si Si4 0.386586 0.408667 0.252473
Si Si5 0.647733 0.209212 0.764145
Si Si6 0.725261 0.192959 0.280808
Si Si7 0.136391 0.866639 0.099078
O O1 0.500000 0.144095 0.500000
O O2 0.691525 0.191893 0.640823
O O3 0.714059 0.197227 0.416205
O O4 0.842444 0.128027 0.528220
O O5 0.766721 0.061229 0.162241
O O6 0.756829 0.000000 0.999170
O O7 0.500000 0.051836 0.000000
O O8 0.760412 0.094272 0.959210
O O9 0.064124 0.071699 0.619930
O O10 0.298175 0.358360 0.265215
O O11 0.547771 0.394505 0.193890
O O12 0.460486 0.196770 0.776316
O O13 0.672308 0.265098 0.766014
O O14 0.762452 0.177954 0.851989
O O15 0.000000 0.849938 0.000000
#
# Coordination Sequence:
#
# PCOD9176315 Si02
#       7
#     8   8   4   8   8   8   8
#     4   9  19  31  50  79 112 160 206 240 282 336
#     4  10  22  42  67  89 111 143 189 244 297 357
#     4  10  18  34  59  82 126 160 192 250 287 354
#     4  10  20  37  57  88 117 153 196 236 296 345
#     4  11  19  34  49  77 116 154 199 240 283 328
#     4  10  21  31  52  78 114 156 194 236 281 341
#     4  10  21  36  58  83 112 147 193 238 286 346
#
# _framework density 19.053782999999999
#
# number of rings (size 3 to 8) (size 9 to 14) (size 15 to 20)
#    0.000    2.000    1.538    2.308    2.154    2.769 
#    1.385    8.077    0.000    0.000    0.000    2.154 
#    0.000    0.000    0.000    0.000    0.000    0.000 
#
# Total GULP energy -144987.335053 kJ/mol
# GULP energy per Si atom -5576.435964 kJ/mol
# Density = 1.901042 g / cm^3
# Si number density = 19.053783 Si / 1000 Ang^3
#
#
#
# Elastic Constant Matrix: (Units=GPa)
#
#
# Indices 1 2 3 4 5 6 
#
# 1 74.1402 15.5518 24.3023 0.0000 9.5860 0.0000
# 2 15.5518 52.7293 15.3664 0.0000 8.3875 0.0000
# 3 24.3023 15.3664 77.9529 0.0000 13.8135 0.0000
# 4 0.0000 0.0000 0.0000 -0.3293 0.0000 18.6034
# 5 9.5860 8.3875 13.8135 0.0000 25.0516 0.0000
# 6 0.0000 0.0000 0.0000 18.6034 0.0000 -106.0878
#
#
#
# Elastic Compliance Matrix: (Units=1/GPa)
#
#
# Indices 1 2 3 4 5 6 
#
# 1 0.015752 -0.003079 -0.003788 0.000000 -0.002907 0.000000
# 2 -0.003079 0.021314 -0.002423 0.000000 -0.004622 0.000000
# 3 -0.003788 -0.002423 0.015612 0.000000 -0.006348 0.000000
# 4 0.000000 0.000000 0.000000 0.340953 0.000000 0.059789
# 5 -0.002907 -0.004622 -0.006348 0.000000 0.046078 0.000000
# 6 0.000000 0.000000 0.000000 0.059789 0.000000 0.001058
#
#
# Mechanical properties :
#
#
# Convention : Reuss Voigt Hill
#
# Bulk Modulus (GPa) = 29.32805 35.02926 32.17865
# Shear Modulus (GPa) = 10.62220 -6.29963 2.16128
#
# Velocity S-wave (km/s) = 2.36367 -1.82028 1.06619
# Velocity P-wave (km/s) = 4.78277 3.74252 4.29426
#
# Compressibility (1/GPa) = 0.03409705
#
# Stress axis : x y z
#
# Youngs Moduli (GPa) = 63.48563 46.91721 64.05458
#
# Poissons Ratio (x) = 0.14447 0.24267
# Poissons Ratio (y) = 0.19548 0.15517
# Poissons Ratio (z) = 0.24051 0.11366
#
# Static dielectric constant tensor:
#      x y z
#    x 1.684360 0.000000 0.005010 
#    y 0.000000 1.637700 0.000000 
#    z 0.005010 0.000000 1.697140 
# 
# From -- ./inp_files/123768.got.cif
#   From: 2010.05.17/outbox.cif.g08.bks.cpg/sg12_62_cif.got.tgz:123768.got - 2010.06.03 13:09:07.
