data_PCOD9176124
_publ_section_title
;
Structure prediction by ZEFSAII (Michael W. Deem and Ramdas Pophale) SiO2 
 PCOD9176124
Probable space group: C 2/M
;
_chemical_formula_sum "Si O2"
_cell_formula_units_Z 58
_cell_length_a 9.688265
_cell_length_b 21.474221
_cell_length_c 18.190841
_cell_angle_alpha 90.000000
_cell_angle_beta 66.026664
_cell_angle_gamma 90.000000
_cell_volume 3458.090038
_symmetry_space_group_name_H-M "C 2/M"
_symmetry_group_IT_number 12
_symmetry_cell_setting 'monoclinic'
loop_
_space_group_symop_operation_xyz
x,y,z
-x,y,-z
-x,-y,-z
x,-y,z
1/2+x,1/2+y,z
1/2-x,1/2+y,-z
1/2-x,1/2-y,-z
1/2+x,1/2-y,z
loop_
_atom_site_type_symbol
_atom_site_label
_atom_site_fract_x
_atom_site_fract_y
_atom_site_fract_z
Si Si1 0.131052 0.171935 0.192451
Si Si2 0.558319 0.176020 0.405842
Si Si3 0.716580 0.212629 0.081505
Si Si4 0.911235 0.114701 0.122422
Si Si5 0.112106 0.425883 0.272603
Si Si6 0.424702 0.150975 0.199663
Si Si7 0.000000 0.000000 0.000000
Si Si8 0.116750 0.241211 0.670379
O O1 0.202009 0.237104 0.149837
O O2 0.271466 0.132837 0.191951
O O3 0.045295 0.142931 0.141859
O O4 0.006504 0.189237 0.280210
O O5 0.500000 0.163523 0.500000
O O6 0.575784 0.113691 0.353338
O O7 0.720144 0.210625 0.373143
O O8 0.443177 0.221429 0.387221
O O9 0.844356 0.164620 0.079138
O O10 0.556898 0.175676 0.116786
O O11 0.750000 0.250000 0.000000
O O12 0.773745 0.097226 0.206910
O O13 0.961231 0.054164 0.068886
O O14 0.109398 0.500000 0.282903
O O15 0.995121 0.402749 0.235119
O O16 0.384221 0.208811 0.262460
#
# Coordination Sequence:
#
# PCOD9176124 Si02
#       8
#     8   8   8   8   8   8   2   8
#     4  11  19  34  57  86 112 145 187 234 291 349
#     4  11  21  34  59  91 121 152 185 231 286 339
#     4  10  20  34  54  83 115 143 181 236 291 345
#     4  11  22  37  60  81 111 151 193 237 283 337
#     4  10  21  41  58  75 109 158 195 232 273 330
#     4   9  20  33  57  80 110 150 187 227 288 344
#     4  12  24  40  56  82 110 148 206 238 282 320
#     4  10  18  34  55  88 124 146 178 231 289 347
#
# _framework density 16.772265000000001
#
# number of rings (size 3 to 8) (size 9 to 14) (size 15 to 20)
#    0.000    1.655    3.448    3.724    0.000    1.931 
#    1.241    0.000    0.000    1.655    0.000    0.966 
#    0.000    0.000    0.000    0.000    0.000    0.000 
#
# Total GULP energy -161623.378479 kJ/mol
# GULP energy per Si atom -5573.219948 kJ/mol
# Density = 1.673409 g / cm^3
# Si number density = 16.772265 Si / 1000 Ang^3
#
#
#
# Elastic Constant Matrix: (Units=GPa)
#
#
# Indices 1 2 3 4 5 6 
#
# 1 116.8040 50.7262 25.2495 0.0000 9.6157 0.0000
# 2 50.7262 114.7135 44.1725 0.0000 6.5247 0.0000
# 3 25.2495 44.1725 87.0647 0.0000 9.4740 0.0000
# 4 0.0000 0.0000 0.0000 17.4288 0.0000 1.0054
# 5 9.6157 6.5247 9.4740 0.0000 17.6422 0.0000
# 6 0.0000 0.0000 0.0000 1.0054 0.0000 1.1168
#
#
#
# Elastic Compliance Matrix: (Units=1/GPa)
#
#
# Indices 1 2 3 4 5 6 
#
# 1 0.010915 -0.004408 -0.000488 0.000000 -0.004057 0.000000
# 2 -0.004408 0.012635 -0.005188 0.000000 0.000516 0.000000
# 3 -0.000488 -0.005188 0.014892 0.000000 -0.005813 0.000000
# 4 0.000000 0.000000 0.000000 0.060520 0.000000 -0.054487
# 5 -0.004057 0.000516 -0.005813 0.000000 0.061824 0.000000
# 6 0.000000 0.000000 0.000000 -0.054487 0.000000 0.944503
#
#
# Mechanical properties :
#
#
# Convention : Reuss Voigt Hill
#
# Bulk Modulus (GPa) = 54.72151 62.09763 58.40957
# Shear Modulus (GPa) = 4.41873 20.46650 12.44261
#
# Velocity S-wave (km/s) = 1.62489 3.49701 2.72666
# Velocity P-wave (km/s) = 6.01809 7.30820 6.69430
#
# Compressibility (1/GPa) = 0.01827435
#
# Stress axis : x y z
#
# Youngs Moduli (GPa) = 91.61590 79.14449 67.15101
#
# Poissons Ratio (x) = 0.34888 0.03274
# Poissons Ratio (y) = 0.40386 0.34839
# Poissons Ratio (z) = 0.04466 0.41062
#
# Static dielectric constant tensor:
#      x y z
#    x 1.586030 0.000000 -0.005910 
#    y 0.000000 1.540080 0.000000 
#    z -0.005910 0.000000 1.565290 
# 
# From -- ./inp_files/198475.got.cif
#   From: 2010.05.17/outbox.cif.g08.bks.cpg/sg12_100_cif.got.tgz:198475.got - 2010.06.03 13:09:07.
