data_PCOD9176617
_publ_section_title
;
Structure prediction by ZEFSAII (Michael W. Deem and Ramdas Pophale) SiO2 
 PCOD9176617
Probable space group: C 2/M
;
_chemical_formula_sum "Si O2"
_cell_formula_units_Z 56
_cell_length_a 32.543748
_cell_length_b 18.000773
_cell_length_c 8.986832
_cell_angle_alpha 90.000000
_cell_angle_beta 142.498507
_cell_angle_gamma 90.000000
_cell_volume 3204.994011
_symmetry_space_group_name_H-M "C 2/M"
_symmetry_group_IT_number 12
_symmetry_cell_setting 'monoclinic'
loop_
_space_group_symop_operation_xyz
x,y,z
-x,y,-z
-x,-y,-z
x,-y,z
1/2+x,1/2+y,z
1/2-x,1/2+y,-z
1/2-x,1/2-y,-z
1/2+x,1/2-y,z
loop_
_atom_site_type_symbol
_atom_site_label
_atom_site_fract_x
_atom_site_fract_y
_atom_site_fract_z
Si Si1 0.304518 0.087638 0.039196
Si Si2 0.200430 0.801822 0.595604
Si Si3 0.475898 0.586871 0.101091
Si Si4 0.852279 0.182809 0.871693
Si Si5 0.577984 0.800834 0.698531
Si Si6 0.599355 0.327650 0.540302
Si Si7 0.766540 0.850476 0.888204
O O1 0.247522 0.128307 0.773592
O O2 0.306662 0.000000 0.019599
O O3 0.373338 0.130100 0.194698
O O4 0.285008 0.103183 0.157411
O O5 0.188615 0.788338 0.388507
O O6 0.126908 0.814380 0.454904
O O7 0.234317 0.731313 0.774486
O O8 0.461819 0.500000 0.073858
O O9 0.540860 0.612514 0.381869
O O10 0.500000 0.600869 0.000000
O O11 0.412608 0.632751 0.980398
O O12 0.799119 0.135669 0.819504
O O13 0.886427 0.248456 0.071033
O O14 0.500000 0.821145 0.500000
O O15 0.576160 0.748185 0.548592
O O16 0.666258 0.350629 0.819720
#
# Coordination Sequence:
#
# PCOD9176617 Si02
#       7
#     8   8   8   8   8   8   8
#     4  11  23  39  59  84 116 153 188 240 297 334
#     4  11  19  37  62  88 115 148 196 234 283 346
#     4  11  23  37  53  86 127 155 186 231 282 342
#     4  11  22  34  64  90 112 153 193 232 284 338
#     4  11  21  38  62  87 110 146 201 242 275 342
#     4  10  18  35  59  80 111 157 193 226 275 338
#     4  10  21  37  59  85 111 147 197 241 274 341
#
# _framework density 17.472732000000001
#
# number of rings (size 3 to 8) (size 9 to 14) (size 15 to 20)
#    0.000    1.286    7.143    1.286    0.000    3.714 
#    0.000    5.000    0.000    0.000    0.000    1.000 
#    0.000    0.000    0.000    0.000    0.000    0.000 
#
# Total GULP energy -155922.914393 kJ/mol
# GULP energy per Si atom -5568.675514 kJ/mol
# Density = 1.743296 g / cm^3
# Si number density = 17.472732 Si / 1000 Ang^3
#
#
#
# Elastic Constant Matrix: (Units=GPa)
#
#
# Indices 1 2 3 4 5 6 
#
# 1 137.4974 68.8384 61.5958 0.0000 36.9207 0.0000
# 2 68.8384 124.7725 58.2679 0.0000 44.1678 0.0000
# 3 61.5958 58.2679 98.9939 0.0000 34.4018 0.0000
# 4 0.0000 0.0000 0.0000 16.1164 0.0000 6.2557
# 5 36.9207 44.1678 34.4018 0.0000 76.3911 0.0000
# 6 0.0000 0.0000 0.0000 6.2557 0.0000 17.3834
#
#
#
# Elastic Compliance Matrix: (Units=1/GPa)
#
#
# Indices 1 2 3 4 5 6 
#
# 1 0.011545 -0.003795 -0.004473 0.000000 -0.001371 0.000000
# 2 -0.003795 0.013503 -0.004162 0.000000 -0.004099 0.000000
# 3 -0.004473 -0.004162 0.016298 0.000000 -0.002771 0.000000
# 4 0.000000 0.000000 0.000000 0.072123 0.000000 -0.025954
# 5 -0.001371 -0.004099 -0.002771 0.000000 0.017371 0.000000
# 6 0.000000 0.000000 0.000000 -0.025954 0.000000 0.066866
#
#
# Mechanical properties :
#
#
# Convention : Reuss Voigt Hill
#
# Bulk Modulus (GPa) = 60.66232 82.07422 71.36827
# Shear Modulus (GPa) = 21.92391 33.48228 27.70310
#
# Velocity S-wave (km/s) = 3.54609 4.38226 3.98616
# Velocity P-wave (km/s) = 7.18053 8.52527 7.88163
#
# Compressibility (1/GPa) = 0.01648470
#
# Stress axis : x y z
#
# Youngs Moduli (GPa) = 86.61758 74.05787 61.35818
#
# Poissons Ratio (x) = 0.28107 0.27447
# Poissons Ratio (y) = 0.32873 0.25538
# Poissons Ratio (z) = 0.38746 0.30824
#
# Static dielectric constant tensor:
#      x y z
#    x 1.679260 0.000000 -0.013630 
#    y 0.000000 1.564330 0.000000 
#    z -0.013630 0.000000 1.604880 
# 
# From -- ./inp_files/112649.got.cif
#   From: 2010.05.17/outbox.cif.g08.bks.cpg/sg12_57_cif.got.tgz:112649.got - 2010.06.03 13:09:07.
