data_PCOD9176042
_publ_section_title
;
Structure prediction by ZEFSAII (Michael W. Deem and Ramdas Pophale) SiO2 
 PCOD9176042
Probable space group: C 2/M
;
_chemical_formula_sum "Si O2"
_cell_formula_units_Z 56
_cell_length_a 10.335385
_cell_length_b 14.887100
_cell_length_c 17.837439
_cell_angle_alpha 90.000000
_cell_angle_beta 104.718582
_cell_angle_gamma 90.000000
_cell_volume 2654.477200
_symmetry_space_group_name_H-M "C 2/M"
_symmetry_group_IT_number 12
_symmetry_cell_setting 'monoclinic'
loop_
_space_group_symop_operation_xyz
x,y,z
-x,y,-z
-x,-y,-z
x,-y,z
1/2+x,1/2+y,z
1/2-x,1/2+y,-z
1/2-x,1/2-y,-z
1/2+x,1/2-y,z
loop_
_atom_site_type_symbol
_atom_site_label
_atom_site_fract_x
_atom_site_fract_y
_atom_site_fract_z
Si Si1 0.330007 0.343394 0.148737
Si Si2 0.855424 0.397354 0.002815
Si Si3 0.144858 0.357528 0.255093
Si Si4 0.352063 0.130795 0.177534
Si Si5 0.114171 0.138061 0.247811
Si Si6 0.686002 0.332142 0.584110
Si Si7 0.883992 0.836456 0.586190
O O1 0.221743 0.382317 0.190642
O O2 0.344715 0.238850 0.170921
O O3 0.474633 0.383937 0.186980
O O4 0.268208 0.351301 0.057310
O O5 0.855231 0.500000 0.975401
O O6 0.841372 0.398216 0.089895
O O7 0.000000 0.356988 0.000000
O O8 0.129718 0.247849 0.252495
O O9 0.234205 0.383536 0.339418
O O10 0.995842 0.394122 0.231608
O O11 0.234653 0.102717 0.215474
O O12 0.116518 0.110818 0.335499
O O13 0.779949 0.245589 0.582542
O O14 0.538827 0.306502 0.594864
O O15 0.660782 0.378595 0.499944
#
# Coordination Sequence:
#
# PCOD9176042 Si02
#       7
#     8   8   8   8   8   8   8
#     4  10  18  34  53  73 101 131 171 206 247 298
#     4  11  23  38  55  76 102 130 166 211 258 307
#     4   9  16  28  46  69  97 134 171 203 241 293
#     4  10  20  34  52  74 101 132 171 210 248 300
#     4   9  18  28  46  71  96 132 167 208 245 290
#     4   9  16  24  38  62  98 139 167 200 246 296
#     4   9  16  25  37  62 100 136 168 199 247 299
#
# _framework density 21.096432
#
# number of rings (size 3 to 8) (size 9 to 14) (size 15 to 20)
#    0.000    2.429    2.857    0.429    6.000    0.571 
#    0.000    1.429    0.000    0.000    0.000    0.000 
#    0.000    6.857    0.000    0.000    0.000    0.000 
#
# Total GULP energy -156128.363880 kJ/mol
# GULP energy per Si atom -5576.012996 kJ/mol
# Density = 2.104842 g / cm^3
# Si number density = 21.096432 Si / 1000 Ang^3
#
#
#
# Elastic Constant Matrix: (Units=GPa)
#
#
# Indices 1 2 3 4 5 6 
#
# 1 177.4777 18.6118 88.3025 0.0000 6.7219 0.0000
# 2 18.6118 44.2557 2.5573 0.0000 1.7882 0.0000
# 3 88.3025 2.5573 177.2488 0.0000 9.8618 0.0000
# 4 0.0000 0.0000 0.0000 -31.9449 0.0000 5.8854
# 5 6.7219 1.7882 9.8618 0.0000 43.4300 0.0000
# 6 0.0000 0.0000 0.0000 5.8854 0.0000 -11.9531
#
#
#
# Elastic Compliance Matrix: (Units=1/GPa)
#
#
# Indices 1 2 3 4 5 6 
#
# 1 0.007895 -0.003088 -0.003877 0.000000 -0.000215 0.000000
# 2 -0.003088 0.023855 0.001238 0.000000 -0.000785 0.000000
# 3 -0.003877 0.001238 0.007621 0.000000 -0.001181 0.000000
# 4 0.000000 0.000000 0.000000 -0.034427 0.000000 -0.016951
# 5 -0.000215 -0.000785 -0.001181 0.000000 0.023359 0.000000
# 6 0.000000 0.000000 0.000000 -0.016951 0.000000 -0.092006
#
#
# Mechanical properties :
#
#
# Convention : Reuss Voigt Hill
#
# Bulk Modulus (GPa) = 35.81979 68.65840 52.23909
# Shear Modulus (GPa) = -116.43203 19.20711 -48.61246
#
# Velocity S-wave (km/s) = -7.43708 3.02063 -4.80552
# Velocity P-wave (km/s) = 7.53200 6.69188 2.44435
#
# Compressibility (1/GPa) = 0.02791753
#
# Stress axis : x y z
#
# Youngs Moduli (GPa) = 126.65724 41.92047 131.21567
#
# Poissons Ratio (x) = 0.12944 0.50870
# Poissons Ratio (y) = 0.39108 -0.16241
# Poissons Ratio (z) = 0.49103 -0.05189
#
# Static dielectric constant tensor:
#      x y z
#    x 1.755450 0.000000 0.003410 
#    y 0.000000 1.791490 0.000000 
#    z 0.003410 0.000000 1.768150 
# 
# From -- ./inp_files/257673.got.cif
#   From: 2010.05.17/outbox.cif.g08.bks.cpg/sg12_129_cif.got.tgz:257673.got - 2010.06.03 13:09:07.
