data_PCOD9176339
_publ_section_title
;
Structure prediction by ZEFSAII (Michael W. Deem and Ramdas Pophale) SiO2 
 PCOD9176339
Probable space group: C 2/M
;
_chemical_formula_sum "Si O2"
_cell_formula_units_Z 40
_cell_length_a 28.279563
_cell_length_b 9.919425
_cell_length_c 9.510245
_cell_angle_alpha 90.000000
_cell_angle_beta 129.892876
_cell_angle_gamma 90.000000
_cell_volume 2046.844776
_symmetry_space_group_name_H-M "C 2/M"
_symmetry_group_IT_number 12
_symmetry_cell_setting 'monoclinic'
loop_
_space_group_symop_operation_xyz
x,y,z
-x,y,-z
-x,-y,-z
x,-y,z
1/2+x,1/2+y,z
1/2-x,1/2+y,-z
1/2-x,1/2-y,-z
1/2+x,1/2-y,z
loop_
_atom_site_type_symbol
_atom_site_label
_atom_site_fract_x
_atom_site_fract_y
_atom_site_fract_z
Si Si1 0.237526 0.500000 0.059157
Si Si2 0.166665 0.000000 0.996241
Si Si3 0.900298 0.000000 0.860870
Si Si4 0.966029 0.719893 0.071124
Si Si5 0.637721 0.500000 0.535815
Si Si6 0.052173 0.227221 0.497483
Si Si7 0.127239 0.696993 0.880803
O O1 0.292097 0.500000 0.277799
O O2 0.269695 0.500000 0.967380
O O3 0.192926 0.627674 0.992690
O O4 0.159382 0.000000 0.150454
O O5 0.133770 0.859800 0.892403
O O6 0.876812 0.000000 0.657070
O O7 0.941270 0.868182 0.975361
O O8 0.907079 0.658246 0.039891
O O9 0.015848 0.725108 0.290975
O O10 0.000000 0.660063 0.000000
O O11 0.603558 0.627677 0.537390
O O12 0.085433 0.333224 0.664462
O O13 0.000000 0.163017 0.500000
#
# Coordination Sequence:
#
# PCOD9176339 Si02
#       7
#     4   4   4   8   4   8   8
#     4  12  24  40  60  80 127 169 200 235 286 360
#     4  10  20  37  61  81 116 152 203 247 288 334
#     4  10  20  32  53  96 121 146 185 257 315 346
#     4  10  18  34  59  86 122 148 189 252 309 348
#     4  12  20  32  57  88 122 153 198 243 308 340
#     4  10  19  32  55  89 115 148 197 250 299 348
#     4  10  22  39  58  91 117 157 204 244 294 352
#
# _framework density 19.542273999999999
#
# number of rings (size 3 to 8) (size 9 to 14) (size 15 to 20)
#    0.000    1.600    4.000    1.800    0.000    1.600 
#    0.000   11.000    0.000    0.000    0.000    0.000 
#    0.000    0.000    0.000    0.000    0.000    0.000 
#
# Total GULP energy -111450.156798 kJ/mol
# GULP energy per Si atom -5572.507840 kJ/mol
# Density = 1.949780 g / cm^3
# Si number density = 19.542274 Si / 1000 Ang^3
#
#
#
# Elastic Constant Matrix: (Units=GPa)
#
#
# Indices 1 2 3 4 5 6 
#
# 1 186.5879 26.6527 78.2138 0.0000 -19.9651 0.0000
# 2 26.6527 70.5181 22.9395 0.0000 2.9512 0.0000
# 3 78.2138 22.9395 133.4445 0.0000 -10.7831 0.0000
# 4 0.0000 0.0000 0.0000 -7.9527 0.0000 -29.0888
# 5 -19.9651 2.9512 -10.7831 0.0000 49.2297 0.0000
# 6 0.0000 0.0000 0.0000 -29.0888 0.0000 -125.8241
#
#
#
# Elastic Compliance Matrix: (Units=1/GPa)
#
#
# Indices 1 2 3 4 5 6 
#
# 1 0.007480 -0.001648 -0.003917 0.000000 0.002274 0.000000
# 2 -0.001648 0.015492 -0.001859 0.000000 -0.002004 0.000000
# 3 -0.003917 -0.001859 0.010170 0.000000 0.000750 0.000000
# 4 0.000000 0.000000 0.000000 -0.814483 0.000000 0.188297
# 5 0.002274 -0.002004 0.000750 0.000000 0.021520 0.000000
# 6 0.000000 0.000000 0.000000 0.188297 0.000000 -0.051479
#
#
# Mechanical properties :
#
#
# Convention : Reuss Voigt Hill
#
# Bulk Modulus (GPa) = 54.66404 71.79583 63.22993
# Shear Modulus (GPa) = -6.32628 0.60688 -2.85970
#
# Velocity S-wave (km/s) = -1.80118 0.55787 -1.21100
# Velocity P-wave (km/s) = 4.86901 6.10192 5.52000
#
# Compressibility (1/GPa) = 0.01829356
#
# Stress axis : x y z
#
# Youngs Moduli (GPa) = 133.68688 64.54807 98.32962
#
# Poissons Ratio (x) = 0.10638 0.38517
# Poissons Ratio (y) = 0.22033 0.18281
# Poissons Ratio (z) = 0.52367 0.12001
#
# Static dielectric constant tensor:
#      x y z
#    x 1.706820 0.000000 -0.009720 
#    y 0.000000 1.727320 0.000000 
#    z -0.009720 0.000000 1.671140 
# 
# From -- ./inp_files/83519.got.cif
#   From: 2010.05.17/outbox.cif.g08.bks.cpg/sg12_42_cif.got.tgz:83519.got - 2010.06.03 13:09:07.
