data_PCOD9176900
_publ_section_title
;
Structure prediction by ZEFSAII (Michael W. Deem and Ramdas Pophale) SiO2 
 PCOD9176900
Probable space group: C 2/M
;
_chemical_formula_sum "Si O2"
_cell_formula_units_Z 56
_cell_length_a 25.754589
_cell_length_b 19.434070
_cell_length_c 5.561747
_cell_angle_alpha 90.000000
_cell_angle_beta 118.970499
_cell_angle_gamma 90.000000
_cell_volume 2435.413730
_symmetry_space_group_name_H-M "C 2/M"
_symmetry_group_IT_number 12
_symmetry_cell_setting 'monoclinic'
loop_
_space_group_symop_operation_xyz
x,y,z
-x,y,-z
-x,-y,-z
x,-y,z
1/2+x,1/2+y,z
1/2-x,1/2+y,-z
1/2-x,1/2-y,-z
1/2+x,1/2-y,z
loop_
_atom_site_type_symbol
_atom_site_label
_atom_site_fract_x
_atom_site_fract_y
_atom_site_fract_z
Si Si1 0.928620 0.579763 0.879758
Si Si2 0.934502 0.799751 0.431628
Si Si3 0.150833 0.863100 0.431462
Si Si4 0.237432 0.500000 0.046191
Si Si5 0.234484 0.356468 0.990629
Si Si6 0.567279 0.137266 0.608997
Si Si7 0.309356 0.500000 0.705451
Si Si8 0.816545 0.224158 0.872981
O O1 0.914818 0.500000 0.898444
O O2 0.905149 0.602598 0.565831
O O3 0.909087 0.625150 0.065883
O O4 0.000000 0.586499 0.000000
O O5 0.912641 0.847854 0.598711
O O6 0.937701 0.717385 0.478094
O O7 0.000000 0.820811 0.500000
O O8 0.878587 0.802951 0.124061
O O9 0.154623 0.929221 0.266267
O O10 0.170832 0.788356 0.374556
O O11 0.203080 0.874871 0.739750
O O12 0.203050 0.429264 0.925475
O O13 0.283628 0.500000 0.918767
O O14 0.260454 0.500000 0.376957
O O15 0.259667 0.324597 0.801796
O O16 0.200052 0.296515 0.050231
O O17 0.500000 0.109816 0.500000
#
# Coordination Sequence:
#
# PCOD9176900 Si02
#       8
#     8   8   8   4   8   8   4   8
#     4   9  16  28  49  74  96 128 182 248 305 347
#     4  10  23  38  55  84 120 169 219 262 309 362
#     4  10  20  36  61  92 121 162 203 259 313 390
#     4  10  18  36  60  94 131 166 195 250 321 398
#     4   9  19  34  59  94 123 154 198 252 318 384
#     4   9  18  31  49  73 102 140 191 245 293 346
#     4  10  20  36  63  95 129 162 200 249 325 392
#     4  10  19  35  60  88 121 158 206 258 314 370
#
# _framework density 22.994040999999999
#
# number of rings (size 3 to 8) (size 9 to 14) (size 15 to 20)
#    0.000    2.429    1.429    0.857    2.000    2.286 
#    0.000    0.357    3.143    0.857    0.000    0.000 
#    0.000    0.000    0.000    0.000    0.000    0.000 
#
# Total GULP energy -155898.701929 kJ/mol
# GULP energy per Si atom -5567.810783 kJ/mol
# Density = 2.294171 g / cm^3
# Si number density = 22.994041 Si / 1000 Ang^3
#
#
#
# Elastic Constant Matrix: (Units=GPa)
#
#
# Indices 1 2 3 4 5 6 
#
# 1 102.6750 47.8478 34.4933 0.0000 -5.5573 0.0000
# 2 47.8478 84.7509 21.4248 0.0000 -9.5479 0.0000
# 3 34.4933 21.4248 65.1669 0.0000 -16.0024 0.0000
# 4 0.0000 0.0000 0.0000 23.8698 0.0000 -14.8787
# 5 -5.5573 -9.5479 -16.0024 0.0000 29.5543 0.0000
# 6 0.0000 0.0000 0.0000 -14.8787 0.0000 30.5078
#
#
#
# Elastic Compliance Matrix: (Units=1/GPa)
#
#
# Indices 1 2 3 4 5 6 
#
# 1 0.015081 -0.007246 -0.006319 0.000000 -0.002927 0.000000
# 2 -0.007246 0.016471 -0.000701 0.000000 0.003579 0.000000
# 3 -0.006319 -0.000701 0.021421 0.000000 0.010184 0.000000
# 4 0.000000 0.000000 0.000000 0.060192 0.000000 0.029356
# 5 -0.002927 0.003579 0.010184 0.000000 0.039956 0.000000
# 6 0.000000 0.000000 0.000000 0.029356 0.000000 0.047095
#
#
# Mechanical properties :
#
#
# Convention : Reuss Voigt Hill
#
# Bulk Modulus (GPa) = 40.91477 51.12494 46.01985
# Shear Modulus (GPa) = 21.10647 26.70819 23.90733
#
# Velocity S-wave (km/s) = 3.03299 3.41182 3.22796
# Velocity P-wave (km/s) = 5.48613 6.14841 5.82669
#
# Compressibility (1/GPa) = 0.02444105
#
# Stress axis : x y z
#
# Youngs Moduli (GPa) = 66.30988 60.71371 46.68370
#
# Poissons Ratio (x) = 0.43996 0.29497
# Poissons Ratio (y) = 0.48051 0.03270
# Poissons Ratio (z) = 0.41898 0.04253
#
# Static dielectric constant tensor:
#      x y z
#    x 1.865330 0.000000 0.016010 
#    y 0.000000 1.942660 0.000000 
#    z 0.016010 0.000000 1.956190 
# 
# From -- ./inp_files/25687.got.cif
#   From: 2010.05.17/outbox.cif.g08.bks.cpg/sg12_13_cif.got.tgz:25687.got - 2010.06.03 13:09:07.
