data_PCOD9176372
_publ_section_title
;
Structure prediction by ZEFSAII (Michael W. Deem and Ramdas Pophale) SiO2 
 PCOD9176372
Probable space group: C 2/M
;
_chemical_formula_sum "Si O2"
_cell_formula_units_Z 48
_cell_length_a 14.290564
_cell_length_b 14.369677
_cell_length_c 15.583457
_cell_angle_alpha 90.000000
_cell_angle_beta 139.997812
_cell_angle_gamma 90.000000
_cell_volume 2057.062293
_symmetry_space_group_name_H-M "C 2/M"
_symmetry_group_IT_number 12
_symmetry_cell_setting 'monoclinic'
loop_
_space_group_symop_operation_xyz
x,y,z
-x,y,-z
-x,-y,-z
x,-y,z
1/2+x,1/2+y,z
1/2-x,1/2+y,-z
1/2-x,1/2-y,-z
1/2+x,1/2-y,z
loop_
_atom_site_type_symbol
_atom_site_label
_atom_site_fract_x
_atom_site_fract_y
_atom_site_fract_z
Si Si1 0.223598 0.102494 0.643840
Si Si2 0.512852 0.107891 0.732257
Si Si3 0.879747 0.112006 0.801767
Si Si4 0.168884 0.398192 0.089902
Si Si5 0.316452 0.688637 0.949362
Si Si6 0.161954 0.284720 0.520884
O O1 0.383804 0.116019 0.712142
O O2 0.242285 0.103392 0.758623
O O3 0.131628 0.189042 0.547705
O O4 0.171761 0.000000 0.579520
O O5 0.664308 0.146522 0.871435
O O6 0.470165 0.160002 0.614168
O O7 0.527789 0.000000 0.722877
O O8 0.838872 0.149925 0.867626
O O9 0.764401 0.151411 0.652291
O O10 0.883733 0.000000 0.804439
O O11 0.041436 0.153821 0.899560
O O12 0.195244 0.500000 0.065907
O O13 0.195560 0.299707 0.064570
O O14 0.000000 0.397353 0.000000
O O15 0.250000 0.250000 0.500000
#
# Coordination Sequence:
#
# PCOD9176372 Si02
#       6
#     8   8   8   8   8   8
#     4   9  18  36  58  80 110 155 201 243 294 355
#     4  10  21  36  58  89 121 153 198 249 303 358
#     4  11  21  36  59  85 122 162 200 238 297 365
#     4  10  18  34  60  83 109 154 204 244 288 354
#     4  11  20  37  60  92 123 153 196 252 308 353
#     4  10  20  37  57  82 116 159 200 242 294 356
#
# _framework density 23.334247000000001
#
# number of rings (size 3 to 8) (size 9 to 14) (size 15 to 20)
#    0.000    1.833    3.333    2.500    0.000    1.333 
#    0.000   10.000    0.000    8.000    0.000    0.000 
#    0.000    0.000    0.000    0.000    0.000    0.000 
#
# Total GULP energy -134289.190836 kJ/mol
# GULP energy per Si atom -5595.382951 kJ/mol
# Density = 2.328114 g / cm^3
# Si number density = 23.334247 Si / 1000 Ang^3
#
#
#
# Elastic Constant Matrix: (Units=GPa)
#
#
# Indices 1 2 3 4 5 6 
#
# 1 56.2786 48.2800 44.1176 0.0000 15.3122 0.0000
# 2 48.2800 222.5485 52.7030 0.0000 2.2964 0.0000
# 3 44.1176 52.7030 92.3656 0.0000 -13.9773 0.0000
# 4 0.0000 0.0000 0.0000 26.3141 0.0000 -1.8403
# 5 15.3122 2.2964 -13.9773 0.0000 30.8325 0.0000
# 6 0.0000 0.0000 0.0000 -1.8403 0.0000 10.0133
#
#
#
# Elastic Compliance Matrix: (Units=1/GPa)
#
#
# Indices 1 2 3 4 5 6 
#
# 1 0.058344 -0.004710 -0.031685 0.000000 -0.042988 0.000000
# 2 -0.004710 0.005677 -0.000751 0.000000 0.001576 0.000000
# 3 -0.031685 -0.000751 0.030898 0.000000 0.029799 0.000000
# 4 0.000000 0.000000 0.000000 0.038497 0.000000 0.007075
# 5 -0.042988 0.001576 0.029799 0.000000 0.067174 0.000000
# 6 0.000000 0.000000 0.000000 0.007075 0.000000 0.101167
#
#
# Mechanical properties :
#
#
# Convention : Reuss Voigt Hill
#
# Bulk Modulus (GPa) = 48.48041 73.48822 60.98432
# Shear Modulus (GPa) = 13.05738 28.50478 20.78108
#
# Velocity S-wave (km/s) = 2.36811 3.49891 2.98750
# Velocity P-wave (km/s) = 5.31967 6.91992 6.17188
#
# Compressibility (1/GPa) = 0.02062689
#
# Stress axis : x y z
#
# Youngs Moduli (GPa) = 17.13976 176.15608 32.36410
#
# Poissons Ratio (x) = 0.82971 1.02546
# Poissons Ratio (y) = 0.08073 0.02430
# Poissons Ratio (z) = 0.54307 0.13228
#
# Static dielectric constant tensor:
#      x y z
#    x 1.947750 0.000000 -0.013280 
#    y 0.000000 1.878450 0.000000 
#    z -0.013280 0.000000 1.853050 
# 
# From -- ./inp_files/278239.got.cif
#   From: 2010.05.17/outbox.cif.g08.bks.cpg/sg12_140_cif.got.tgz:278239.got - 2010.06.03 13:09:07.
