data_PCOD9176495
_publ_section_title
;
Structure prediction by ZEFSAII (Michael W. Deem and Ramdas Pophale) SiO2 
 PCOD9176495
Probable space group: C 2/M
;
_chemical_formula_sum "Si O2"
_cell_formula_units_Z 64
_cell_length_a 25.212276
_cell_length_b 15.027393
_cell_length_c 18.348754
_cell_angle_alpha 90.000000
_cell_angle_beta 29.012355
_cell_angle_gamma 90.000000
_cell_volume 3371.649406
_symmetry_space_group_name_H-M "C 2/M"
_symmetry_group_IT_number 12
_symmetry_cell_setting 'monoclinic'
loop_
_space_group_symop_operation_xyz
x,y,z
-x,y,-z
-x,-y,-z
x,-y,z
1/2+x,1/2+y,z
1/2-x,1/2+y,-z
1/2-x,1/2-y,-z
1/2+x,1/2-y,z
loop_
_atom_site_type_symbol
_atom_site_label
_atom_site_fract_x
_atom_site_fract_y
_atom_site_fract_z
Si Si1 0.848226 0.840324 0.210723
Si Si2 0.887547 0.358980 0.103902
Si Si3 0.325302 0.232563 0.479068
Si Si4 0.659751 0.404725 0.440291
Si Si5 0.437144 0.398894 0.958735
Si Si6 0.570784 0.740588 0.163092
Si Si7 0.577220 0.397788 0.288150
Si Si8 0.314683 0.104405 0.036004
O O1 0.877185 0.739506 0.150878
O O2 0.737016 0.834450 0.391003
O O3 0.945072 0.877136 0.145678
O O4 0.852865 0.891187 0.128128
O O5 0.773371 0.404386 0.261615
O O6 0.887001 0.364921 0.017750
O O7 0.000000 0.397179 0.000000
O O8 0.250000 0.250000 0.500000
O O9 0.333076 0.325798 0.511720
O O10 0.449902 0.214650 0.307429
O O11 0.649742 0.500000 0.490523
O O12 0.546340 0.392725 0.532233
O O13 0.437031 0.500000 0.930781
O O14 0.416404 0.325526 0.921687
O O15 0.581040 0.676002 0.220333
O O16 0.654338 0.823008 0.061941
O O17 0.588344 0.500000 0.246675
O O18 0.684940 0.385394 0.207286
O O19 0.335195 0.000000 0.995443
#
# Coordination Sequence:
#
# PCOD9176495 Si02
#       8
#     8   8   8   8   8   8   8   8
#     4  10  18  35  51  78 113 152 187 227 277 342
#     4  11  20  35  55  80 118 154 181 225 283 346
#     4  10  20  34  53  74 117 156 182 228 288 349
#     4   9  20  35  54  79 109 146 190 233 279 337
#     4  11  20  33  58  85 114 151 195 244 289 340
#     4  11  20  38  58  85 115 149 194 237 297 346
#     4   9  20  39  59  83 111 144 193 246 286 333
#     4  11  23  37  57  83 112 150 195 236 283 341
#
# _framework density 18.981807
#
# number of rings (size 3 to 8) (size 9 to 14) (size 15 to 20)
#    0.000    1.750    3.750    1.875    1.750    2.000 
#    0.000    3.125    0.000    0.000    0.000    0.000 
#    0.000    6.500    0.000    0.000    0.000    0.000 
#
# Total GULP energy -178225.449016 kJ/mol
# GULP energy per Si atom -5569.545282 kJ/mol
# Density = 1.893860 g / cm^3
# Si number density = 18.981807 Si / 1000 Ang^3
#
#
#
# Elastic Constant Matrix: (Units=GPa)
#
#
# Indices 1 2 3 4 5 6 
#
# 1 65.0170 12.4641 26.8905 0.0000 -16.3085 0.0000
# 2 12.4641 93.0135 35.2172 0.0000 -6.5753 0.0000
# 3 26.8905 35.2172 113.2153 0.0000 -15.9657 0.0000
# 4 0.0000 0.0000 0.0000 19.2446 0.0000 -7.7465
# 5 -16.3085 -6.5753 -15.9657 0.0000 28.3713 0.0000
# 6 0.0000 0.0000 0.0000 -7.7465 0.0000 12.8853
#
#
#
# Elastic Compliance Matrix: (Units=1/GPa)
#
#
# Indices 1 2 3 4 5 6 
#
# 1 0.019049 -0.000774 -0.003003 0.000000 0.009080 0.000000
# 2 -0.000774 0.012233 -0.003567 0.000000 0.000383 0.000000
# 3 -0.003003 -0.003567 0.011183 0.000000 0.003740 0.000000
# 4 0.000000 0.000000 0.000000 0.068552 0.000000 0.041212
# 5 0.009080 0.000383 0.003740 0.000000 0.042660 0.000000
# 6 0.000000 0.000000 0.000000 0.041212 0.000000 0.102384
#
#
# Mechanical properties :
#
#
# Convention : Reuss Voigt Hill
#
# Bulk Modulus (GPa) = 36.00231 46.70994 41.35612
# Shear Modulus (GPa) = 17.85667 25.21183 21.53425
#
# Velocity S-wave (km/s) = 3.07045 3.64842 3.37184
# Velocity P-wave (km/s) = 5.61944 6.51223 6.08224
#
# Compressibility (1/GPa) = 0.02777600
#
# Stress axis : x y z
#
# Youngs Moduli (GPa) = 52.49712 81.74906 89.42014
#
# Poissons Ratio (x) = 0.06324 0.26855
# Poissons Ratio (y) = 0.04061 0.31900
# Poissons Ratio (z) = 0.15766 0.29163
#
# Static dielectric constant tensor:
#      x y z
#    x 1.661840 0.000000 0.014830 
#    y 0.000000 1.675230 0.000000 
#    z 0.014830 0.000000 1.732500 
# 
# From -- ./inp_files/290091.got.cif
#   From: 2010.05.17/outbox.cif.g08.bks.cpg/sg12_146_cif.got.tgz:290091.got - 2010.06.03 13:09:07.
