data_PCOD9176651
_publ_section_title
;
Structure prediction by ZEFSAII (Michael W. Deem and Ramdas Pophale) SiO2 
 PCOD9176651
Probable space group: C 2/M
;
_chemical_formula_sum "Si O2"
_cell_formula_units_Z 64
_cell_length_a 25.590998
_cell_length_b 7.831834
_cell_length_c 20.011358
_cell_angle_alpha 90.000000
_cell_angle_beta 48.736843
_cell_angle_gamma 90.000000
_cell_volume 3014.845736
_symmetry_space_group_name_H-M "C 2/M"
_symmetry_group_IT_number 12
_symmetry_cell_setting 'monoclinic'
loop_
_space_group_symop_operation_xyz
x,y,z
-x,y,-z
-x,-y,-z
x,-y,z
1/2+x,1/2+y,z
1/2-x,1/2+y,-z
1/2-x,1/2-y,-z
1/2+x,1/2-y,z
loop_
_atom_site_type_symbol
_atom_site_label
_atom_site_fract_x
_atom_site_fract_y
_atom_site_fract_z
Si Si1 0.450377 0.209303 0.212678
Si Si2 0.421691 0.206626 0.988961
Si Si3 0.354748 0.794657 0.178598
Si Si4 0.301834 0.203230 0.727757
Si Si5 0.396061 0.310843 0.762751
Si Si6 0.457001 0.193710 0.358121
Si Si7 0.072472 0.709331 0.473830
Si Si8 0.327943 0.797601 0.951096
O O1 0.514807 0.265325 0.111234
O O2 0.382371 0.259170 0.227793
O O3 0.451066 0.271067 0.288750
O O4 0.455410 0.000000 0.211808
O O5 0.352420 0.245063 0.004722
O O6 0.429854 0.000000 0.986641
O O7 0.407201 0.269048 0.075972
O O8 0.275851 0.749740 0.227798
O O9 0.359504 0.000000 0.173378
O O10 0.327995 0.274366 0.776566
O O11 0.360781 0.262095 0.625492
O O12 0.305972 0.000000 0.728717
O O13 0.421100 0.500000 0.726440
O O14 0.460713 0.189521 0.694121
O O15 0.376217 0.292684 0.856422
O O16 0.423499 0.271141 0.452909
O O17 0.430390 0.000000 0.374984
O O18 0.071304 0.500000 0.476422
O O19 0.000000 0.762626 0.500000
O O20 0.337914 0.000000 0.933920
O O21 0.250000 0.750000 0.000000
#
# Coordination Sequence:
#
# PCOD9176651 Si02
#       8
#     8   8   8   8   8   8   8   8
#     4   9  17  32  58  85 109 145 189 233 275 326
#     4   9  17  31  54  81 107 142 189 230 264 317
#     4  10  20  35  56  84 115 144 184 235 281 327
#     4  11  22  38  58  80 110 148 188 231 284 343
#     4  12  23  35  53  81 114 147 182 228 288 342
#     4  10  18  35  60  84 108 140 189 232 276 336
#     4   9  17  32  58  85 106 139 187 235 277 336
#     4  11  21  34  52  78 114 153 192 232 280 335
#
# _framework density 21.228283000000001
#
# number of rings (size 3 to 8) (size 9 to 14) (size 15 to 20)
#    0.000    1.875    2.500    3.000    0.000    2.500 
#    0.000    3.750    0.000    0.750    0.000    0.000 
#    0.000    0.000    0.000    0.000    0.000    0.000 
#
# Total GULP energy -178631.918475 kJ/mol
# GULP energy per Si atom -5582.247452 kJ/mol
# Density = 2.117997 g / cm^3
# Si number density = 21.228283 Si / 1000 Ang^3
#
#
#
# Elastic Constant Matrix: (Units=GPa)
#
#
# Indices 1 2 3 4 5 6 
#
# 1 124.4818 11.3213 38.3416 0.0013 23.7483 -0.0026
# 2 11.3213 36.5399 3.4726 -0.0078 6.5292 0.0055
# 3 38.3416 3.4726 92.6706 0.0006 23.5601 0.0019
# 4 0.0013 -0.0078 0.0006 5.0412 -0.0029 -6.7663
# 5 23.7483 6.5292 23.5601 -0.0029 31.8780 0.0002
# 6 -0.0026 0.0055 0.0019 -6.7663 0.0002 15.3982
#
#
#
# Elastic Compliance Matrix: (Units=1/GPa)
#
#
# Indices 1 2 3 4 5 6 
#
# 1 0.010028 -0.001947 -0.002805 -0.000011 -0.004999 -0.000002
# 2 -0.001947 0.028805 0.001056 0.000067 -0.005229 0.000019
# 3 -0.002805 0.001056 0.014082 -0.000018 -0.008534 -0.000011
# 4 -0.000011 0.000067 -0.000018 0.483592 0.000051 0.212502
# 5 -0.004999 -0.005229 -0.008534 0.000051 0.042471 0.000024
# 6 -0.000002 0.000019 -0.000011 0.212502 0.000024 0.158321
#
#
# Mechanical properties :
#
#
# Convention : Reuss Voigt Hill
#
# Bulk Modulus (GPa) = 21.96797 39.99595 30.98196
# Shear Modulus (GPa) = 6.58011 23.83393 15.20702
#
# Velocity S-wave (km/s) = 1.76250 3.35437 2.67939
# Velocity P-wave (km/s) = 3.80957 5.82101 4.91920
#
# Compressibility (1/GPa) = 0.04552081
#
# Stress axis : x y z
#
# Youngs Moduli (GPa) = 99.72033 34.71645 71.01490
#
# Poissons Ratio (x) = 0.06760 0.19921
# Poissons Ratio (y) = 0.19418 -0.07497
# Poissons Ratio (z) = 0.27974 -0.03665
#
# Static dielectric constant tensor:
#      x y z
#    x 1.772450 -0.000010 0.018480 
#    y -0.000010 1.805200 -0.000010 
#    z 0.018480 -0.000010 1.768420 
# 
# From -- ./inp_files/324126.got.cif
#   From: 2010.05.17/outbox.cif.g08.bks.cpg/sg12_163_cif.got.tgz:324126.got - 2010.06.03 13:09:07.
