data_PCOD9176596
_publ_section_title
;
Structure prediction by ZEFSAII (Michael W. Deem and Ramdas Pophale) SiO2 
 PCOD9176596
Probable space group: C 2/M
;
_chemical_formula_sum "Si O2"
_cell_formula_units_Z 64
_cell_length_a 29.344922
_cell_length_b 15.936693
_cell_length_c 9.507769
_cell_angle_alpha 90.000000
_cell_angle_beta 131.394253
_cell_angle_gamma 90.000000
_cell_volume 3335.598447
_symmetry_space_group_name_H-M "C 2/M"
_symmetry_group_IT_number 12
_symmetry_cell_setting 'monoclinic'
loop_
_space_group_symop_operation_xyz
x,y,z
-x,y,-z
-x,-y,-z
x,-y,z
1/2+x,1/2+y,z
1/2-x,1/2+y,-z
1/2-x,1/2-y,-z
1/2+x,1/2-y,z
loop_
_atom_site_type_symbol
_atom_site_label
_atom_site_fract_x
_atom_site_fract_y
_atom_site_fract_z
Si Si1 0.345825 0.792256 0.766154
Si Si2 0.286870 0.313435 0.897612
Si Si3 0.648743 0.364519 0.416143
Si Si4 0.835628 0.228128 0.282856
Si Si5 0.015828 0.906817 0.195506
Si Si6 0.747240 0.087920 0.572015
Si Si7 0.976874 0.259969 0.612339
Si Si8 0.536502 0.098952 0.927354
O O1 0.313178 0.753632 0.837498
O O2 0.369952 0.715354 0.719873
O O3 0.296572 0.837866 0.566667
O O4 0.398188 0.857081 0.915093
O O5 0.219454 0.293857 0.819549
O O6 0.276982 0.395031 0.783328
O O7 0.331485 0.313372 0.121136
O O8 0.679632 0.334748 0.622371
O O9 0.588563 0.410478 0.340307
O O10 0.697434 0.411919 0.423341
O O11 0.903223 0.260351 0.454851
O O12 0.001535 0.825446 0.262158
O O13 0.991652 0.000000 0.187529
O O14 0.000000 0.891806 0.000000
O O15 0.713362 0.000000 0.499866
O O16 0.000000 0.258359 0.500000
O O17 0.001853 0.341420 0.745048
O O18 0.541136 0.000000 0.897160
O O19 0.500000 0.103093 0.000000
#
# Coordination Sequence:
#
# PCOD9176596 Si02
#       8
#     8   8   8   8   8   8   8   8
#     4  11  19  37  60  87 116 156 199 247 298 354
#     4  10  20  36  59  84 108 154 196 242 293 358
#     4  10  18  35  58  84 114 152 193 241 299 360
#     4  10  19  36  61  80 111 146 201 240 291 355
#     4  10  21  37  60  88 116 151 197 248 301 362
#     4  11  21  34  54  86 120 151 190 245 301 352
#     4  11  23  40  60  87 118 165 196 247 302 360
#     4  11  24  40  62  92 123 161 208 252 296 356
#
# _framework density 19.186961
#
# number of rings (size 3 to 8) (size 9 to 14) (size 15 to 20)
#    0.000    1.500    2.500    4.875    0.000    1.500 
#    0.000    3.125    0.000    0.000    0.000    0.000 
#    0.000    0.000    0.000    0.000    0.000    0.000 
#
# Total GULP energy -178399.551403 kJ/mol
# GULP energy per Si atom -5574.985981 kJ/mol
# Density = 1.914329 g / cm^3
# Si number density = 19.186961 Si / 1000 Ang^3
#
#
#
# Elastic Constant Matrix: (Units=GPa)
#
#
# Indices 1 2 3 4 5 6 
#
# 1 60.3766 32.0904 17.8514 0.0000 -15.3290 0.0000
# 2 32.0904 133.6140 52.1451 0.0000 -11.5064 0.0000
# 3 17.8514 52.1451 113.6909 0.0000 -18.4457 0.0000
# 4 0.0000 0.0000 0.0000 -116.6194 0.0000 -12.5044
# 5 -15.3290 -11.5064 -18.4457 0.0000 33.4302 0.0000
# 6 0.0000 0.0000 0.0000 -12.5044 0.0000 20.2292
#
#
#
# Elastic Compliance Matrix: (Units=1/GPa)
#
#
# Indices 1 2 3 4 5 6 
#
# 1 0.020920 -0.004333 0.000019 0.000000 0.008111 0.000000
# 2 -0.004333 0.010039 -0.004048 0.000000 -0.000765 0.000000
# 3 0.000019 -0.004048 0.011450 0.000000 0.004933 0.000000
# 4 0.000000 0.000000 0.000000 -0.008042 0.000000 -0.004971
# 5 0.008111 -0.000765 0.004933 0.000000 0.036091 0.000000
# 6 0.000000 0.000000 0.000000 -0.004971 0.000000 0.046361
#
#
# Mechanical properties :
#
#
# Convention : Reuss Voigt Hill
#
# Bulk Modulus (GPa) = 38.93596 56.87283 47.90439
# Shear Modulus (GPa) = 35.18542 1.11431 18.14986
#
# Velocity S-wave (km/s) = 4.28696 0.76290 3.07896
# Velocity P-wave (km/s) = 6.69634 5.52103 6.13689
#
# Compressibility (1/GPa) = 0.02568320
#
# Stress axis : x y z
#
# Youngs Moduli (GPa) = 47.80207 99.61242 87.33685
#
# Poissons Ratio (x) = 0.43163 -0.00163
# Poissons Ratio (y) = 0.20713 0.35356
# Poissons Ratio (z) = -0.00089 0.40325
#
# Static dielectric constant tensor:
#      x y z
#    x 1.672920 0.000000 0.017680 
#    y 0.000000 1.712170 0.000000 
#    z 0.017680 0.000000 1.700160 
# 
# From -- ./inp_files/112029.got.cif
#   From: 2010.05.17/outbox.cif.g08.bks.cpg/sg12_57_cif.got.tgz:112029.got - 2010.06.03 13:09:07.
