data_PCOD9176978
_publ_section_title
;
Structure prediction by ZEFSAII (Michael W. Deem and Ramdas Pophale) SiO2 
 PCOD9176978
Probable space group: C 2/M
;
_chemical_formula_sum "Si O2"
_cell_formula_units_Z 56
_cell_length_a 18.248022
_cell_length_b 15.210518
_cell_length_c 9.195539
_cell_angle_alpha 90.000000
_cell_angle_beta 110.091527
_cell_angle_gamma 90.000000
_cell_volume 2397.009033
_symmetry_space_group_name_H-M "C 2/M"
_symmetry_group_IT_number 12
_symmetry_cell_setting 'monoclinic'
loop_
_space_group_symop_operation_xyz
x,y,z
-x,y,-z
-x,-y,-z
x,-y,z
1/2+x,1/2+y,z
1/2-x,1/2+y,-z
1/2-x,1/2-y,-z
1/2+x,1/2-y,z
loop_
_atom_site_type_symbol
_atom_site_label
_atom_site_fract_x
_atom_site_fract_y
_atom_site_fract_z
Si Si1 0.594983 0.404375 0.895891
Si Si2 0.950579 0.336312 0.772860
Si Si3 0.232293 0.854227 0.512327
Si Si4 0.189804 0.598222 0.144570
Si Si5 0.619422 0.901144 0.564116
Si Si6 0.626231 0.791864 0.858895
Si Si7 0.413199 0.633754 0.774780
O O1 0.622234 0.500000 0.862052
O O2 0.626069 0.313248 0.852819
O O3 0.500994 0.399373 0.809421
O O4 0.609999 0.397949 0.080176
O O5 0.893747 0.397788 0.826944
O O6 0.940144 0.364136 0.597529
O O7 0.916962 0.239442 0.779385
O O8 0.041913 0.325113 0.863360
O O9 0.250000 0.750000 0.500000
O O10 0.247633 0.877567 0.689696
O O11 0.298798 0.902125 0.464996
O O12 0.149550 0.884270 0.392503
O O13 0.199902 0.500000 0.094562
O O14 0.187495 0.667635 0.012830
O O15 0.630960 0.835746 0.705363
O O16 0.598559 0.000000 0.596781
#
# Coordination Sequence:
#
# PCOD9176978 Si02
#       7
#     8   8   8   8   8   8   8
#     4  10  21  37  64  97 120 152 212 266 315 375
#     4  10  19  36  62  89 123 164 210 250 307 363
#     4  11  20  39  64  87 123 168 210 252 308 369
#     4  11  22  35  57  93 127 163 211 255 302 372
#     4  11  24  38  59  95 130 169 212 247 304 386
#     4  11  22  39  59  89 131 167 199 259 319 364
#     4  10  18  36  65  93 120 151 205 264 318 356
#
# _framework density 23.362449000000002
#
# number of rings (size 3 to 8) (size 9 to 14) (size 15 to 20)
#    0.000    1.429    4.286    3.857    0.000    5.714 
#    0.000    2.857    0.000   11.143    0.000    0.000 
#    0.000    0.000    0.000    0.000    0.000    0.000 
#
# Total GULP energy -156670.146299 kJ/mol
# GULP energy per Si atom -5595.362368 kJ/mol
# Density = 2.330928 g / cm^3
# Si number density = 23.362449 Si / 1000 Ang^3
#
#
#
# Elastic Constant Matrix: (Units=GPa)
#
#
# Indices 1 2 3 4 5 6 
#
# 1 65.8711 14.9955 36.1120 0.0000 14.2906 0.0000
# 2 14.9955 208.9776 65.9694 0.0000 -7.1031 0.0000
# 3 36.1120 65.9694 168.1356 0.0000 26.0956 0.0000
# 4 0.0000 0.0000 0.0000 -38.9497 0.0000 17.5822
# 5 14.2906 -7.1031 26.0956 0.0000 36.0007 0.0000
# 6 0.0000 0.0000 0.0000 17.5822 0.0000 8.7476
#
#
#
# Elastic Compliance Matrix: (Units=1/GPa)
#
#
# Indices 1 2 3 4 5 6 
#
# 1 0.017993 -0.000574 -0.002832 0.000000 -0.005203 0.000000
# 2 -0.000574 0.005776 -0.002654 0.000000 0.003291 0.000000
# 3 -0.002832 -0.002654 0.008455 0.000000 -0.005528 0.000000
# 4 0.000000 0.000000 0.000000 -0.013461 0.000000 0.027056
# 5 -0.005203 0.003291 -0.005528 0.000000 0.034499 0.000000
# 6 0.000000 0.000000 0.000000 0.027056 0.000000 0.059937
#
#
# Mechanical properties :
#
#
# Convention : Reuss Voigt Hill
#
# Bulk Modulus (GPa) = 49.73901 75.23756 62.48829
# Shear Modulus (GPa) = 37.87314 22.88688 30.38001
#
# Velocity S-wave (km/s) = 4.03067 3.13332 3.60999
# Velocity P-wave (km/s) = 6.55730 6.73533 6.64691
#
# Compressibility (1/GPa) = 0.02010494
#
# Stress axis : x y z
#
# Youngs Moduli (GPa) = 55.57692 173.13055 118.27289
#
# Poissons Ratio (x) = 0.09939 0.33492
# Poissons Ratio (y) = 0.03190 0.31387
# Poissons Ratio (z) = 0.15738 0.45945
#
# Static dielectric constant tensor:
#      x y z
#    x 1.910520 0.000000 0.014730 
#    y 0.000000 1.877880 0.000000 
#    z 0.014730 0.000000 1.856880 
# 
# From -- ./inp_files/96948.got.cif
#   From: 2010.05.17/outbox.cif.g08.bks.cpg/sg12_49_cif.got.tgz:96948.got - 2010.06.03 13:09:07.
