data_PCOD9176134
_publ_section_title
;
Structure prediction by ZEFSAII (Michael W. Deem and Ramdas Pophale) SiO2 
 PCOD9176134
Probable space group: C 2/M
;
_chemical_formula_sum "Si O2"
_cell_formula_units_Z 56
_cell_length_a 10.642392
_cell_length_b 20.465669
_cell_length_c 16.079179
_cell_angle_alpha 90.000000
_cell_angle_beta 51.140452
_cell_angle_gamma 90.000000
_cell_volume 2727.040618
_symmetry_space_group_name_H-M "C 2/M"
_symmetry_group_IT_number 12
_symmetry_cell_setting 'monoclinic'
loop_
_space_group_symop_operation_xyz
x,y,z
-x,y,-z
-x,-y,-z
x,-y,z
1/2+x,1/2+y,z
1/2-x,1/2+y,-z
1/2-x,1/2-y,-z
1/2+x,1/2-y,z
loop_
_atom_site_type_symbol
_atom_site_label
_atom_site_fract_x
_atom_site_fract_y
_atom_site_fract_z
Si Si1 0.456359 0.713359 0.835013
Si Si2 0.677645 0.072881 0.734907
Si Si3 0.798715 0.573371 0.928278
Si Si4 0.872442 0.073608 0.825324
Si Si5 0.792211 0.195050 0.140343
Si Si6 0.788696 0.297884 0.369428
Si Si7 0.544609 0.195929 0.398473
O O1 0.474790 0.640040 0.791168
O O2 0.284028 0.743976 0.880081
O O3 0.531579 0.709814 0.895530
O O4 0.573421 0.765370 0.744227
O O5 0.489854 0.081464 0.836550
O O6 0.777780 0.078157 0.778277
O O7 0.730407 0.127362 0.648394
O O8 0.698094 0.000000 0.692569
O O9 0.754285 0.500000 0.918428
O O10 0.714623 0.630159 0.911719
O O11 0.747971 0.578143 0.045676
O O12 0.946779 0.000000 0.798835
O O13 0.672055 0.179489 0.270713
O O14 0.634423 0.257980 0.402740
O O15 0.873967 0.294013 0.423412
O O16 0.500000 0.153785 0.500000
#
# Coordination Sequence:
#
# PCOD9176134 Si02
#       7
#     8   8   8   8   8   8   8
#     4  10  20  35  54  76 110 140 176 221 262 317
#     4  10  18  34  56  78 109 146 182 217 261 316
#     4  10  20  35  54  76 107 144 185 224 262 310
#     4  10  21  34  52  79 107 144 188 225 259 304
#     4  10  21  37  55  80 108 142 176 218 274 321
#     4  10  19  35  56  82 109 138 176 215 270 320
#     4  10  19  33  56  82 106 132 171 222 270 322
#
# _framework density 20.535081000000002
#
# number of rings (size 3 to 8) (size 9 to 14) (size 15 to 20)
#    0.000    2.000    2.857    3.429    0.000    3.429 
#    0.000    1.429    0.000    2.143    0.000    8.000 
#    0.000    0.000    0.000    0.000    0.000    0.000 
#
# Total GULP energy -155928.671071 kJ/mol
# GULP energy per Si atom -5568.881110 kJ/mol
# Density = 2.048834 g / cm^3
# Si number density = 20.535081 Si / 1000 Ang^3
#
#
#
# Elastic Constant Matrix: (Units=GPa)
#
#
# Indices 1 2 3 4 5 6 
#
# 1 119.3570 66.3702 24.7638 0.0000 31.3840 0.0000
# 2 66.3702 120.4196 5.9668 0.0000 12.4877 0.0000
# 3 24.7638 5.9668 41.8180 0.0000 9.1671 0.0000
# 4 0.0000 0.0000 0.0000 9.3557 0.0000 7.0088
# 5 31.3840 12.4877 9.1671 0.0000 31.6863 0.0000
# 6 0.0000 0.0000 0.0000 7.0088 0.0000 21.5780
#
#
#
# Elastic Compliance Matrix: (Units=1/GPa)
#
#
# Indices 1 2 3 4 5 6 
#
# 1 0.017365 -0.007987 -0.006474 0.000000 -0.012179 0.000000
# 2 -0.007987 0.012343 0.002457 0.000000 0.002336 0.000000
# 3 -0.006474 0.002457 0.027977 0.000000 -0.002650 0.000000
# 4 0.000000 0.000000 0.000000 0.141260 0.000000 -0.045883
# 5 -0.012179 0.002336 -0.002650 0.000000 0.043468 0.000000
# 6 0.000000 0.000000 0.000000 -0.045883 0.000000 0.061247
#
#
# Mechanical properties :
#
#
# Convention : Reuss Voigt Hill
#
# Bulk Modulus (GPa) = 29.69463 52.86623 41.28043
# Shear Modulus (GPa) = 14.75390 24.82359 19.78875
#
# Velocity S-wave (km/s) = 2.68334 3.48061 3.10765
# Velocity P-wave (km/s) = 4.90839 6.47712 5.74654
#
# Compressibility (1/GPa) = 0.03367612
#
# Stress axis : x y z
#
# Youngs Moduli (GPa) = 57.58685 81.02078 35.74328
#
# Poissons Ratio (x) = 0.64713 0.23140
# Poissons Ratio (y) = 0.45996 -0.08781
# Poissons Ratio (z) = 0.37281 -0.19904
#
# Static dielectric constant tensor:
#      x y z
#    x 1.765100 0.000000 -0.017210 
#    y 0.000000 1.732590 0.000000 
#    z -0.017210 0.000000 1.792010 
# 
# From -- ./inp_files/263829.got.cif
#   From: 2010.05.17/outbox.cif.g08.bks.cpg/sg12_132_cif.got.tgz:263829.got - 2010.06.03 13:09:07.
