data_PCOD9176691
_publ_section_title
;
Structure prediction by ZEFSAII (Michael W. Deem and Ramdas Pophale) SiO2 
 PCOD9176691
Probable space group: C 2/M
;
_chemical_formula_sum "Si O2"
_cell_formula_units_Z 56
_cell_length_a 17.480823
_cell_length_b 13.240664
_cell_length_c 11.898787
_cell_angle_alpha 90.000000
_cell_angle_beta 91.129389
_cell_angle_gamma 90.000000
_cell_volume 2753.530894
_symmetry_space_group_name_H-M "C 2/M"
_symmetry_group_IT_number 12
_symmetry_cell_setting 'monoclinic'
loop_
_space_group_symop_operation_xyz
x,y,z
-x,y,-z
-x,-y,-z
x,-y,z
1/2+x,1/2+y,z
1/2-x,1/2+y,-z
1/2-x,1/2-y,-z
1/2+x,1/2-y,z
loop_
_atom_site_type_symbol
_atom_site_label
_atom_site_fract_x
_atom_site_fract_y
_atom_site_fract_z
Si Si1 0.161368 0.729873 0.008691
Si Si2 0.585508 0.882048 0.199235
Si Si3 0.643680 0.736282 0.395314
Si Si4 0.560654 0.388807 0.088863
Si Si5 0.199377 0.618077 0.596542
Si Si6 0.914652 0.295785 0.233645
Si Si7 0.003076 0.884263 0.660892
O O1 0.125530 0.637604 0.079418
O O2 0.134230 0.823017 0.083561
O O3 0.250000 0.750000 0.000000
O O4 0.125344 0.733271 0.883900
O O5 0.628040 0.811254 0.290804
O O6 0.496915 0.845289 0.205220
O O7 0.589603 0.000000 0.227519
O O8 0.716009 0.662895 0.377521
O O9 0.664219 0.811080 0.497928
O O10 0.566739 0.668133 0.409345
O O11 0.576996 0.500000 0.046120
O O12 0.529439 0.392674 0.212553
O O13 0.500000 0.342816 0.000000
O O14 0.203994 0.500000 0.565463
O O15 0.142343 0.631837 0.700071
O O16 0.930623 0.198037 0.314461
O O17 0.022378 0.000000 0.627192
#
# Coordination Sequence:
#
# PCOD9176691 Si02
#       7
#     8   8   8   8   8   8   8
#     4  12  23  38  57  89 129 163 204 260 304 371
#     4  11  23  41  62  87 123 166 206 256 317 367
#     4  10  22  43  66  92 122 156 206 262 304 367
#     4  10  18  35  61  86 116 161 206 248 304 360
#     4  11  24  43  66  93 124 163 205 250 312 375
#     4  11  23  39  62  92 128 164 210 255 303 370
#     4  10  20  37  64  91 120 160 206 258 308 357
#
# _framework density 20.337523999999998
#
# number of rings (size 3 to 8) (size 9 to 14) (size 15 to 20)
#    0.000    1.286    4.286    2.571    0.000    4.571 
#    0.000   10.000    0.000    0.000    0.000    0.000 
#    0.000    0.000    0.000    0.000    0.000    0.000 
#
# Total GULP energy -156217.424214 kJ/mol
# GULP energy per Si atom -5579.193722 kJ/mol
# Density = 2.029123 g / cm^3
# Si number density = 20.337524 Si / 1000 Ang^3
#
#
#
# Elastic Constant Matrix: (Units=GPa)
#
#
# Indices 1 2 3 4 5 6 
#
# 1 97.4174 44.3177 37.0465 0.0000 6.0569 0.0000
# 2 44.3177 147.0591 17.3703 0.0000 5.5278 0.0000
# 3 37.0465 17.3703 75.2470 0.0000 10.4787 0.0000
# 4 0.0000 0.0000 0.0000 26.0674 0.0000 0.3061
# 5 6.0569 5.5278 10.4787 0.0000 32.6676 0.0000
# 6 0.0000 0.0000 0.0000 0.3061 0.0000 6.8672
#
#
#
# Elastic Compliance Matrix: (Units=1/GPa)
#
#
# Indices 1 2 3 4 5 6 
#
# 1 0.014238 -0.003559 -0.006181 0.000000 -0.000055 0.000000
# 2 -0.003559 0.007895 0.000025 0.000000 -0.000684 0.000000
# 3 -0.006181 0.000025 0.016924 0.000000 -0.004287 0.000000
# 4 0.000000 0.000000 0.000000 0.038382 0.000000 -0.001711
# 5 -0.000055 -0.000684 -0.004287 0.000000 0.032112 0.000000
# 6 0.000000 0.000000 0.000000 -0.001711 0.000000 0.145697
#
#
# Mechanical properties :
#
#
# Convention : Reuss Voigt Hill
#
# Bulk Modulus (GPa) = 50.94803 57.46583 54.20693
# Shear Modulus (GPa) = 17.77971 27.85304 22.81637
#
# Velocity S-wave (km/s) = 2.95995 3.70474 3.35309
# Velocity P-wave (km/s) = 6.06526 6.82771 6.45774
#
# Compressibility (1/GPa) = 0.01962785
#
# Stress axis : x y z
#
# Youngs Moduli (GPa) = 70.23544 126.65930 59.08865
#
# Poissons Ratio (x) = 0.45073 0.36520
# Poissons Ratio (y) = 0.24994 -0.00146
# Poissons Ratio (z) = 0.43410 -0.00313
#
# Static dielectric constant tensor:
#      x y z
#    x 1.016850 0.000000 0.206030 
#    y 0.000000 1.759590 0.000000 
#    z 0.206030 0.000000 1.701540 
# 
# From -- ./inp_files/143741.got.cif
#   From: 2010.05.17/outbox.cif.g08.bks.cpg/sg12_72_cif.got.tgz:143741.got - 2010.06.03 13:09:07.
