data_PCOD9176369
_publ_section_title
;
Structure prediction by ZEFSAII (Michael W. Deem and Ramdas Pophale) SiO2 
 PCOD9176369
Probable space group: C 2/M
;
_chemical_formula_sum "Si O2"
_cell_formula_units_Z 56
_cell_length_a 15.763724
_cell_length_b 7.637101
_cell_length_c 25.230039
_cell_angle_alpha 90.000000
_cell_angle_beta 119.500362
_cell_angle_gamma 90.000000
_cell_volume 2643.628966
_symmetry_space_group_name_H-M "C 2/M"
_symmetry_group_IT_number 12
_symmetry_cell_setting 'monoclinic'
loop_
_space_group_symop_operation_xyz
x,y,z
-x,y,-z
-x,-y,-z
x,-y,z
1/2+x,1/2+y,z
1/2-x,1/2+y,-z
1/2-x,1/2-y,-z
1/2+x,1/2-y,z
loop_
_atom_site_type_symbol
_atom_site_label
_atom_site_fract_x
_atom_site_fract_y
_atom_site_fract_z
Si Si1 0.731139 0.701611 0.356535
Si Si2 0.393697 0.711543 0.490737
Si Si3 0.518495 0.289915 0.065495
Si Si4 0.669044 0.289599 0.930803
Si Si5 0.436218 0.284858 0.621589
Si Si6 0.846732 0.203900 0.289705
Si Si7 0.242845 0.288591 0.152690
O O1 0.714251 0.500000 0.337213
O O2 0.810432 0.712290 0.427967
O O3 0.631929 0.773693 0.351197
O O4 0.776312 0.787315 0.318584
O O5 0.500000 0.754914 0.500000
O O6 0.384150 0.500000 0.485695
O O7 0.392495 0.769330 0.551409
O O8 0.507290 0.500000 0.059879
O O9 0.434866 0.223555 0.079544
O O10 0.628447 0.253012 0.116403
O O11 0.500000 0.222647 0.000000
O O12 0.662139 0.500000 0.923993
O O13 0.705887 0.222729 0.885352
O O14 0.750000 0.250000 0.000000
O O15 0.434913 0.500000 0.620092
O O16 0.547218 0.223390 0.662246
O O17 0.796031 0.279087 0.221836
O O18 0.865124 0.000000 0.283803
O O19 0.249453 0.500000 0.154594
#
# Coordination Sequence:
#
# PCOD9176369 Si02
#       7
#     8   8   8   8   8   8   8
#     4  11  22  35  56  87 115 142 183 237 284 319
#     4  10  18  34  60  83 107 149 189 222 274 335
#     4  10  20  35  57  85 115 145 174 217 280 336
#     4  10  20  35  56  84 112 144 180 221 274 328
#     4   9  19  36  58  81 109 148 188 223 273 336
#     4  10  21  41  59  75 108 153 193 224 267 336
#     4  10  22  37  58  84 109 144 190 233 268 318
#
# _framework density 21.183002999999999
#
# number of rings (size 3 to 8) (size 9 to 14) (size 15 to 20)
#    0.000    2.000    2.857    0.857    0.000    2.857 
#    0.000    5.000    0.000    0.000    0.000    0.000 
#    0.000    0.000    0.000    0.000    0.000    0.000 
#
# Total GULP energy -156418.739918 kJ/mol
# GULP energy per Si atom -5586.383568 kJ/mol
# Density = 2.113479 g / cm^3
# Si number density = 21.183003 Si / 1000 Ang^3
#
#
#
# Elastic Constant Matrix: (Units=GPa)
#
#
# Indices 1 2 3 4 5 6 
#
# 1 156.1427 0.8276 60.6542 0.0000 -27.0571 0.0000
# 2 0.8276 34.8646 -5.7438 0.0000 1.5071 0.0000
# 3 60.6542 -5.7438 143.8730 0.0000 -23.5862 0.0000
# 4 0.0000 0.0000 0.0000 7.7897 0.0000 1.8950
# 5 -27.0571 1.5071 -23.5862 0.0000 14.3301 0.0000
# 6 0.0000 0.0000 0.0000 1.8950 0.0000 16.3669
#
#
#
# Elastic Compliance Matrix: (Units=1/GPa)
#
#
# Indices 1 2 3 4 5 6 
#
# 1 0.009796 -0.001182 -0.001540 0.000000 0.016087 0.000000
# 2 -0.001182 0.029040 0.001083 0.000000 -0.003502 0.000000
# 3 -0.001540 0.001083 0.009789 0.000000 0.013090 0.000000
# 4 0.000000 0.000000 0.000000 0.132096 0.000000 -0.015295
# 5 0.016087 -0.003502 0.013090 0.000000 0.122071 0.000000
# 6 0.000000 0.000000 0.000000 -0.015295 0.000000 0.062870
#
#
# Mechanical properties :
#
#
# Convention : Reuss Voigt Hill
#
# Bulk Modulus (GPa) = 22.05104 49.59514 35.82309
# Shear Modulus (GPa) = 13.01897 26.30682 19.66289
#
# Velocity S-wave (km/s) = 2.48179 3.52786 3.05001
# Velocity P-wave (km/s) = 4.31796 6.32913 5.41769
#
# Compressibility (1/GPa) = 0.04534934
#
# Stress axis : x y z
#
# Youngs Moduli (GPa) = 102.07821 34.43491 102.15488
#
# Poissons Ratio (x) = 0.04069 0.15732
# Poissons Ratio (y) = 0.12062 -0.11068
# Poissons Ratio (z) = 0.15720 -0.03731
#
# Static dielectric constant tensor:
#      x y z
#    x 1.760160 0.000000 -0.007040 
#    y 0.000000 1.801420 0.000000 
#    z -0.007040 0.000000 1.727990 
# 
# From -- ./inp_files/337831.got.cif
#   From: 2010.05.17/outbox.cif.g08.bks.cpg/sg12_169_cif.got.tgz:337831.got - 2010.06.03 13:09:07.
