data_PCOD9176881
_publ_section_title
;
Structure prediction by ZEFSAII (Michael W. Deem and Ramdas Pophale) SiO2 
 PCOD9176881
Probable space group: C 2/M
;
_chemical_formula_sum "Si O2"
_cell_formula_units_Z 48
_cell_length_a 14.485821
_cell_length_b 13.826255
_cell_length_c 14.432118
_cell_angle_alpha 90.000000
_cell_angle_beta 131.237191
_cell_angle_gamma 90.000000
_cell_volume 2173.642871
_symmetry_space_group_name_H-M "C 2/M"
_symmetry_group_IT_number 12
_symmetry_cell_setting 'monoclinic'
loop_
_space_group_symop_operation_xyz
x,y,z
-x,y,-z
-x,-y,-z
x,-y,z
1/2+x,1/2+y,z
1/2-x,1/2+y,-z
1/2-x,1/2-y,-z
1/2+x,1/2-y,z
loop_
_atom_site_type_symbol
_atom_site_label
_atom_site_fract_x
_atom_site_fract_y
_atom_site_fract_z
Si Si1 0.157036 0.111118 0.381469
Si Si2 0.634129 0.180424 0.614715
Si Si3 0.408417 0.698237 0.137204
Si Si4 0.315031 0.394373 0.378854
Si Si5 0.439968 0.839777 0.870120
Si Si6 0.716913 0.309280 0.123509
O O1 0.267442 0.165564 0.402111
O O2 0.172498 0.114714 0.502211
O O3 0.024389 0.150225 0.262782
O O4 0.166128 0.000000 0.358190
O O5 0.500000 0.143712 0.500000
O O6 0.625992 0.297180 0.623601
O O7 0.690866 0.136467 0.746493
O O8 0.457790 0.802409 0.132893
O O9 0.296305 0.722677 0.129999
O O10 0.354412 0.644718 0.010303
O O11 0.364204 0.500000 0.381679
O O12 0.172236 0.390996 0.254271
O O13 0.380499 0.740971 0.872711
O O14 0.500000 0.888476 0.000000
#
# Coordination Sequence:
#
# PCOD9176881 Si02
#       6
#     8   8   8   8   8   8
#     4  11  23  38  59  87 119 159 199 240 292 350
#     4  11  22  37  60  85 119 154 198 241 299 349
#     4  10  18  36  60  82 121 151 195 244 288 345
#     4  10  21  36  56  85 115 149 195 239 291 352
#     4   9  18  34  58  84 115 150 192 237 293 353
#     4   9  19  33  59  91 108 155 196 241 289 349
#
# _framework density 22.082744999999999
#
# number of rings (size 3 to 8) (size 9 to 14) (size 15 to 20)
#    0.000    2.000    3.333    1.500    2.333    1.000 
#    0.000    6.667    0.000    6.000    0.000    0.000 
#    0.000    0.000    0.000    0.000    0.000    0.000 
#
# Total GULP energy -133884.940594 kJ/mol
# GULP energy per Si atom -5578.539191 kJ/mol
# Density = 2.203248 g / cm^3
# Si number density = 22.082745 Si / 1000 Ang^3
#
#
#
# Elastic Constant Matrix: (Units=GPa)
#
#
# Indices 1 2 3 4 5 6 
#
# 1 48.5288 -6.2456 20.4311 0.0000 15.3662 0.0000
# 2 -6.2456 53.8792 9.7987 0.0000 3.9888 0.0000
# 3 20.4311 9.7987 216.7223 0.0000 19.5436 0.0000
# 4 0.0000 0.0000 0.0000 -21.6350 0.0000 3.2222
# 5 15.3662 3.9888 19.5436 0.0000 42.3462 0.0000
# 6 0.0000 0.0000 0.0000 3.2222 0.0000 2.2646
#
#
#
# Elastic Compliance Matrix: (Units=1/GPa)
#
#
# Indices 1 2 3 4 5 6 
#
# 1 0.024491 0.003777 -0.001718 0.000000 -0.008450 0.000000
# 2 0.003777 0.019380 -0.000985 0.000000 -0.002741 0.000000
# 3 -0.001718 -0.000985 0.004963 0.000000 -0.001574 0.000000
# 4 0.000000 0.000000 0.000000 -0.038139 0.000000 0.054267
# 5 -0.008450 -0.002741 -0.001574 0.000000 0.027666 0.000000
# 6 0.000000 0.000000 0.000000 0.054267 0.000000 0.364370
#
#
# Mechanical properties :
#
#
# Convention : Reuss Voigt Hill
#
# Bulk Modulus (GPa) = 19.61465 40.78875 30.20170
# Shear Modulus (GPa) = 11.97388 24.27155 18.12271
#
# Velocity S-wave (km/s) = 2.33110 3.31889 2.86785
# Velocity P-wave (km/s) = 4.01834 5.76174 4.96713
#
# Compressibility (1/GPa) = 0.05098231
#
# Stress axis : x y z
#
# Youngs Moduli (GPa) = 40.83097 51.59970 201.50597
#
# Poissons Ratio (x) = -0.19489 0.34611
# Poissons Ratio (y) = -0.15422 0.19850
# Poissons Ratio (z) = 0.07013 0.05083
#
# Static dielectric constant tensor:
#      x y z
#    x 1.774770 0.000000 0.001250 
#    y 0.000000 1.790880 0.000000 
#    z 0.001250 0.000000 1.896640 
# 
# From -- ./inp_files/215011.got.cif
#   From: 2010.05.17/outbox.cif.g08.bks.cpg/sg12_108_cif.got.tgz:215011.got - 2010.06.03 13:09:07.
