data_PCOD9176910
_publ_section_title
;
Structure prediction by ZEFSAII (Michael W. Deem and Ramdas Pophale) SiO2 
 PCOD9176910
Probable space group: C 2/M
;
_chemical_formula_sum "Si O2"
_cell_formula_units_Z 44
_cell_length_a 13.312595
_cell_length_b 13.185656
_cell_length_c 16.554147
_cell_angle_alpha 90.000000
_cell_angle_beta 35.206623
_cell_angle_gamma 90.000000
_cell_volume 1675.292890
_symmetry_space_group_name_H-M "C 2/M"
_symmetry_group_IT_number 12
_symmetry_cell_setting 'monoclinic'
loop_
_space_group_symop_operation_xyz
x,y,z
-x,y,-z
-x,-y,-z
x,-y,z
1/2+x,1/2+y,z
1/2-x,1/2+y,-z
1/2-x,1/2-y,-z
1/2+x,1/2-y,z
loop_
_atom_site_type_symbol
_atom_site_label
_atom_site_fract_x
_atom_site_fract_y
_atom_site_fract_z
Si Si1 0.901833 0.500000 0.800126
Si Si2 0.557337 0.839760 0.591174
Si Si3 0.414260 0.819703 0.141806
Si Si4 0.755067 0.133015 0.984639
Si Si5 0.051145 0.112548 0.310262
Si Si6 0.216320 0.885786 0.706176
O O1 0.036733 0.408828 0.682943
O O2 0.748958 0.584412 0.925563
O O3 0.552039 0.718109 0.606757
O O4 0.383815 0.872441 0.654740
O O5 0.712991 0.874560 0.431108
O O6 0.556496 0.894088 0.087207
O O7 0.227539 0.869704 0.247585
O O8 0.394050 0.713821 0.201967
O O9 0.500000 0.793241 0.000000
O O10 0.750000 0.250000 0.000000
O O11 0.881743 0.108852 0.827275
O O12 0.979986 0.000000 0.376444
O O13 0.148858 0.000000 0.763494
#
# Coordination Sequence:
#
# PCOD9176910 Si02
#       6
#     4   8   8   8   8   8
#     4  12  20  33  61  83 115 150 194 227 287 338
#     4  10  19  34  60  89 109 150 190 230 282 344
#     4   9  22  37  56  85 114 148 193 237 280 335
#     4  11  22  36  56  85 116 151 192 233 285 343
#     4  10  20  37  59  84 118 149 191 238 278 332
#     4  10  18  36  61  85 113 146 191 232 287 338
#
# _framework density 26.264063
#
# number of rings (size 3 to 8) (size 9 to 14) (size 15 to 20)
#    0.000    1.818    4.545    0.545    1.273    1.455 
#    1.636    8.182    0.000    0.000    0.000    0.000 
#    0.000    0.000    0.000    0.000    0.000    0.000 
#
# Total GULP energy -122544.919517 kJ/mol
# GULP energy per Si atom -5570.223614 kJ/mol
# Density = 2.620429 g / cm^3
# Si number density = 26.264063 Si / 1000 Ang^3
#
#
#
# Elastic Constant Matrix: (Units=GPa)
#
#
# Indices 1 2 3 4 5 6 
#
# 1 69.4352 2.3559 -7.5345 -0.0002 -11.9204 0.0001
# 2 2.3559 281.3694 45.7326 -0.0003 -1.9476 0.0001
# 3 -7.5345 45.7326 104.1601 -0.0002 8.1661 -0.0002
# 4 -0.0002 -0.0003 -0.0002 -8.1528 0.0002 -16.0265
# 5 -11.9204 -1.9476 8.1661 0.0002 32.9764 0.0001
# 6 0.0001 0.0001 -0.0002 -16.0265 0.0001 2.7890
#
#
#
# Elastic Compliance Matrix: (Units=1/GPa)
#
#
# Indices 1 2 3 4 5 6 
#
# 1 0.015416 -0.000221 0.000791 0.000000 0.005364 0.000000
# 2 -0.000221 0.003844 -0.001749 0.000000 0.000580 0.000000
# 3 0.000791 -0.001749 0.010618 0.000000 -0.002447 0.000000
# 4 0.000000 0.000000 0.000000 -0.009975 0.000000 -0.057322
# 5 0.005364 0.000580 -0.002447 0.000000 0.032904 0.000000
# 6 0.000000 0.000000 0.000000 -0.057322 0.000000 0.029160
#
#
# Mechanical properties :
#
#
# Convention : Reuss Voigt Hill
#
# Bulk Modulus (GPa) = 36.33564 59.56364 47.94964
# Shear Modulus (GPa) = 53.47767 33.14991 43.31379
#
# Velocity S-wave (km/s) = 4.51727 3.55657 4.06540
# Velocity P-wave (km/s) = 6.40878 6.29234 6.35083
#
# Compressibility (1/GPa) = 0.02752119
#
# Stress axis : x y z
#
# Youngs Moduli (GPa) = 64.86727 260.12952 94.18217
#
# Poissons Ratio (x) = 0.05738 -0.07454
# Poissons Ratio (y) = 0.01431 0.16475
# Poissons Ratio (z) = -0.05134 0.45505
#
# Static dielectric constant tensor:
#      x y z
#    x 2.353890 0.000000 0.037710 
#    y 0.000000 2.020500 0.000000 
#    z 0.037710 0.000000 2.158140 
# 
# From -- ./inp_files/153820.got.cif
#   From: 2010.05.17/outbox.cif.g08.bks.cpg/sg12_77_cif.got.tgz:153820.got - 2010.06.03 13:09:07.
