data_PCOD9176857
_publ_section_title
;
Structure prediction by ZEFSAII (Michael W. Deem and Ramdas Pophale) SiO2 
 PCOD9176857
Probable space group: C 2/M
;
_chemical_formula_sum "Si O2"
_cell_formula_units_Z 64
_cell_length_a 9.389347
_cell_length_b 21.175442
_cell_length_c 21.972564
_cell_angle_alpha 90.000000
_cell_angle_beta 47.789065
_cell_angle_gamma 90.000000
_cell_volume 3235.766015
_symmetry_space_group_name_H-M "C 2/M"
_symmetry_group_IT_number 12
_symmetry_cell_setting 'monoclinic'
loop_
_space_group_symop_operation_xyz
x,y,z
-x,y,-z
-x,-y,-z
x,-y,z
1/2+x,1/2+y,z
1/2-x,1/2+y,-z
1/2-x,1/2-y,-z
1/2+x,1/2-y,z
loop_
_atom_site_type_symbol
_atom_site_label
_atom_site_fract_x
_atom_site_fract_y
_atom_site_fract_z
Si Si1 0.800487 0.772703 0.611025
Si Si2 0.922360 0.174623 0.383909
Si Si3 0.332466 0.929996 0.597434
Si Si4 0.443424 0.928724 0.087418
Si Si5 0.948030 0.186243 0.147060
Si Si6 0.413486 0.834925 0.677804
Si Si7 0.710358 0.693505 0.187015
Si Si8 0.628588 0.429388 0.022418
O O1 0.975486 0.818686 0.579953
O O2 0.759786 0.723202 0.567730
O O3 0.610158 0.815497 0.655427
O O4 0.832725 0.721291 0.656402
O O5 0.078619 0.191900 0.285688
O O6 0.838237 0.108656 0.385820
O O7 0.500000 0.932816 0.500000
O O8 0.417823 0.893403 0.630987
O O9 0.269580 0.000000 0.632676
O O10 0.304372 0.874702 0.150378
O O11 0.367964 0.000000 0.116231
O O12 0.500000 0.919732 0.000000
O O13 0.649558 0.923483 0.060262
O O14 0.750943 0.154016 0.225710
O O15 0.872500 0.251860 0.139987
O O16 0.071842 0.205259 0.170052
O O17 0.066205 0.132795 0.077406
O O18 0.611494 0.500000 0.057620
O O19 0.500000 0.430520 0.000000
#
# Coordination Sequence:
#
# PCOD9176857 Si02
#       8
#     8   8   8   8   8   8   8   8
#     4   9  16  33  59  83 119 149 178 231 290 337
#     4  10  18  36  58  87 118 151 187 235 290 344
#     4  10  22  40  60  85 119 155 195 241 285 342
#     4  10  22  40  56  76 111 151 197 240 282 348
#     4  12  22  36  61  88 116 152 188 248 295 348
#     4  10  18  36  59  88 118 152 189 237 291 345
#     4  12  22  35  60  89 116 149 189 246 298 339
#     4  10  24  43  57  77 113 156 198 245 295 348
#
# _framework density 19.778934
#
# number of rings (size 3 to 8) (size 9 to 14) (size 15 to 20)
#    0.000    1.625    6.250    0.000    1.750    2.000 
#    0.000   11.250    0.000    1.500    0.000    0.000 
#    0.000    0.000    0.000    0.000    0.000    0.000 
#
# Total GULP energy -178168.943221 kJ/mol
# GULP energy per Si atom -5567.779476 kJ/mol
# Density = 1.973392 g / cm^3
# Si number density = 19.778934 Si / 1000 Ang^3
#
#
#
# Elastic Constant Matrix: (Units=GPa)
#
#
# Indices 1 2 3 4 5 6 
#
# 1 162.6969 47.3354 12.3176 0.0001 -14.2175 0.0003
# 2 47.3354 140.0780 35.3208 0.0000 -3.3289 0.0001
# 3 12.3176 35.3208 25.2044 0.0001 1.9497 0.0004
# 4 0.0001 0.0000 0.0001 24.4434 -0.0001 1.3545
# 5 -14.2175 -3.3289 1.9497 -0.0001 19.5973 -0.0003
# 6 0.0003 0.0001 0.0004 1.3545 -0.0003 42.6658
#
#
#
# Elastic Compliance Matrix: (Units=1/GPa)
#
#
# Indices 1 2 3 4 5 6 
#
# 1 0.007267 -0.002077 -0.001030 0.000000 0.005022 0.000000
# 2 -0.002077 0.011869 -0.015778 0.000000 0.002079 0.000000
# 3 -0.001030 -0.015778 0.063040 0.000000 -0.009699 -0.000001
# 4 0.000000 0.000000 0.000000 0.040983 0.000000 -0.001301
# 5 0.005022 0.002079 -0.009699 0.000000 0.055989 0.000000
# 6 0.000000 0.000000 -0.000001 -0.001301 0.000000 0.023479
#
#
# Mechanical properties :
#
#
# Convention : Reuss Voigt Hill
#
# Bulk Modulus (GPa) = 22.51906 57.54745 40.03326
# Shear Modulus (GPa) = 19.59252 32.87499 26.23375
#
# Velocity S-wave (km/s) = 3.15075 4.08134 3.64586
# Velocity P-wave (km/s) = 4.96452 7.16716 6.16501
#
# Compressibility (1/GPa) = 0.04440682
#
# Stress axis : x y z
#
# Youngs Moduli (GPa) = 137.59970 84.25605 15.86286
#
# Poissons Ratio (x) = 0.17499 0.01633
# Poissons Ratio (y) = 0.28577 0.25029
# Poissons Ratio (z) = 0.14169 1.32941
#
# Static dielectric constant tensor:
#      x y z
#    x 1.789770 0.000000 -0.019170 
#    y 0.000000 1.747650 0.000000 
#    z -0.019170 0.000000 1.744310 
# 
# From -- ./inp_files/333732.got.cif
#   From: 2010.05.17/outbox.cif.g08.bks.cpg/sg12_167_cif.got.tgz:333732.got - 2010.06.03 13:09:07.
