data_PCOD9176047
_publ_section_title
;
Structure prediction by ZEFSAII (Michael W. Deem and Ramdas Pophale) SiO2 
 PCOD9176047
Probable space group: C 2/M
;
_chemical_formula_sum "Si O2"
_cell_formula_units_Z 44
_cell_length_a 15.025295
_cell_length_b 22.146616
_cell_length_c 11.310108
_cell_angle_alpha 90.000000
_cell_angle_beta 41.253414
_cell_angle_gamma 90.000000
_cell_volume 2481.646368
_symmetry_space_group_name_H-M "C 2/M"
_symmetry_group_IT_number 12
_symmetry_cell_setting 'monoclinic'
loop_
_space_group_symop_operation_xyz
x,y,z
-x,y,-z
-x,-y,-z
x,-y,z
1/2+x,1/2+y,z
1/2-x,1/2+y,-z
1/2-x,1/2-y,-z
1/2+x,1/2-y,z
loop_
_atom_site_type_symbol
_atom_site_label
_atom_site_fract_x
_atom_site_fract_y
_atom_site_fract_z
Si Si1 0.037513 0.851743 0.326668
Si Si2 0.608830 0.070277 0.741654
Si Si3 0.143548 0.928377 0.659536
Si Si4 0.393994 0.740893 0.919010
Si Si5 0.000000 0.850793 0.000000
Si Si6 0.850788 0.371217 0.045704
O O1 0.015545 0.789867 0.273993
O O2 0.195873 0.868872 0.160103
O O3 0.000000 0.843511 0.500000
O O4 0.949726 0.903954 0.354194
O O5 0.704104 0.084823 0.535929
O O6 0.647831 0.109838 0.817757
O O7 0.631642 0.000000 0.748576
O O8 0.450276 0.082005 0.881688
O O9 0.092980 0.892070 0.823861
O O10 0.128812 0.000000 0.690700
O O11 0.250000 0.750000 0.000000
O O12 0.407401 0.692058 0.010225
O O13 0.418850 0.806344 0.950055
#
# Coordination Sequence:
#
# PCOD9176047 Si02
#       6
#     8   8   8   8   4   8
#     4  10  19  35  54  80 110 144 185 233 275 323
#     4  10  20  33  52  80 110 143 183 225 274 330
#     4  10  21  35  55  82 109 145 188 227 276 329
#     4   9  20  36  56  80 113 143 184 228 274 340
#     4  10  19  38  58  80 113 146 184 234 278 326
#     4  10  18  34  53  77 111 143 177 225 279 323
#
# _framework density 17.730165
#
# number of rings (size 3 to 8) (size 9 to 14) (size 15 to 20)
#    0.000    2.182    1.818    2.455    0.000    1.818 
#    6.545    2.727    0.000    0.000    0.000   24.182 
#    0.000    0.000    0.000    0.000    0.000    0.000 
#
# Total GULP energy -122473.180458 kJ/mol
# GULP energy per Si atom -5566.962748 kJ/mol
# Density = 1.768981 g / cm^3
# Si number density = 17.730165 Si / 1000 Ang^3
#
#
#
# Elastic Constant Matrix: (Units=GPa)
#
#
# Indices 1 2 3 4 5 6 
#
# 1 58.9838 33.7136 43.4143 0.0000 14.2136 0.0000
# 2 33.7136 83.2701 39.7506 0.0000 15.9698 0.0000
# 3 43.4143 39.7506 116.2181 0.0000 10.1164 0.0001
# 4 0.0000 0.0000 0.0000 18.2701 0.0000 2.4834
# 5 14.2136 15.9698 10.1164 0.0000 33.9853 0.0000
# 6 0.0000 0.0000 0.0001 2.4834 0.0000 14.4876
#
#
#
# Elastic Compliance Matrix: (Units=1/GPa)
#
#
# Indices 1 2 3 4 5 6 
#
# 1 0.027740 -0.006373 -0.007631 0.000000 -0.006335 0.000000
# 2 -0.006373 0.016861 -0.003007 0.000000 -0.004363 0.000000
# 3 -0.007631 -0.003007 0.012404 0.000000 0.000912 0.000000
# 4 0.000000 0.000000 0.000000 0.056040 0.000000 -0.009606
# 5 -0.006335 -0.004363 0.000912 0.000000 0.033853 0.000000
# 6 0.000000 0.000000 0.000000 -0.009606 0.000000 0.070671
#
#
# Mechanical properties :
#
#
# Convention : Reuss Voigt Hill
#
# Bulk Modulus (GPa) = 43.50943 54.69212 49.10078
# Shear Modulus (GPa) = 19.28616 22.78816 21.03716
#
# Velocity S-wave (km/s) = 3.30170 3.58896 3.44832
# Velocity P-wave (km/s) = 6.25524 6.93456 6.60364
#
# Compressibility (1/GPa) = 0.02298352
#
# Stress axis : x y z
#
# Youngs Moduli (GPa) = 36.04893 59.30691 80.61783
#
# Poissons Ratio (x) = 0.37798 0.61521
# Poissons Ratio (y) = 0.22975 0.24239
# Poissons Ratio (z) = 0.27510 0.17832
#
# Static dielectric constant tensor:
#      x y z
#    x 1.638910 0.000000 -0.043400 
#    y 0.000000 1.621860 0.000000 
#    z -0.043400 0.000000 1.660810 
# 
# From -- ./inp_files/147491.got.cif
#   From: 2010.05.17/outbox.cif.g08.bks.cpg/sg12_74_cif.got.tgz:147491.got - 2010.06.03 13:09:07.
