data_PCOD9176808
_publ_section_title
;
Structure prediction by ZEFSAII (Michael W. Deem and Ramdas Pophale) SiO2 
 PCOD9176808
Probable space group: C 2/M
;
_chemical_formula_sum "Si O2"
_cell_formula_units_Z 48
_cell_length_a 15.050501
_cell_length_b 23.359152
_cell_length_c 12.642004
_cell_angle_alpha 90.000000
_cell_angle_beta 142.087673
_cell_angle_gamma 90.000000
_cell_volume 2730.951602
_symmetry_space_group_name_H-M "C 2/M"
_symmetry_group_IT_number 12
_symmetry_cell_setting 'monoclinic'
loop_
_space_group_symop_operation_xyz
x,y,z
-x,y,-z
-x,-y,-z
x,-y,z
1/2+x,1/2+y,z
1/2-x,1/2+y,-z
1/2-x,1/2-y,-z
1/2+x,1/2-y,z
loop_
_atom_site_type_symbol
_atom_site_label
_atom_site_fract_x
_atom_site_fract_y
_atom_site_fract_z
Si Si1 0.358899 0.723486 0.686485
Si Si2 0.504972 0.387852 0.132373
Si Si3 0.098046 0.311040 0.989585
Si Si4 0.656435 0.227904 0.697259
Si Si5 0.669159 0.116556 0.860068
Si Si6 0.867140 0.000000 0.796640
Si Si7 0.902821 0.500000 0.306427
O O1 0.250000 0.750000 0.500000
O O2 0.433225 0.662866 0.738032
O O3 0.492058 0.765970 0.832117
O O4 0.262872 0.713430 0.700561
O O5 0.611427 0.441728 0.246372
O O6 0.500000 0.373371 0.000000
O O7 0.339367 0.397841 0.008833
O O8 0.129778 0.362598 0.940134
O O9 0.249733 0.278312 0.158092
O O10 0.000000 0.326775 0.000000
O O11 0.500000 0.243558 0.500000
O O12 0.640852 0.171701 0.756854
O O13 0.585548 0.059084 0.747070
O O14 0.745387 0.000000 0.768888
O O15 0.000000 0.000000 0.000000
O O16 0.000000 0.500000 0.500000
#
# Coordination Sequence:
#
# PCOD9176808 Si02
#       7
#     8   8   8   8   8   4   4
#     4  11  21  34  53  83 120 154 194 236 293 351
#     4  11  18  35  58  83 116 154 189 232 289 359
#     4  10  23  40  55  80 117 155 198 245 288 353
#     4  11  21  34  56  85 115 150 192 241 293 353
#     4  12  21  37  61  83 118 158 193 238 299 349
#     4  10  18  36  56  80 113 147 182 227 279 347
#     4  12  24  36  59  94 123 146 194 243 291 348
#
# _framework density 17.576291000000001
#
# number of rings (size 3 to 8) (size 9 to 14) (size 15 to 20)
#    0.000    1.000    6.667    2.500    2.333    1.333 
#    0.000    0.417    0.000    0.000    0.000    1.750 
#    0.000    0.000    0.000    0.000    0.000    0.000 
#
# Total GULP energy -133720.497017 kJ/mol
# GULP energy per Si atom -5571.687376 kJ/mol
# Density = 1.753629 g / cm^3
# Si number density = 17.576291 Si / 1000 Ang^3
#
#
#
# Elastic Constant Matrix: (Units=GPa)
#
#
# Indices 1 2 3 4 5 6 
#
# 1 58.4758 48.0317 16.9852 0.0000 -5.5291 0.0000
# 2 48.0317 111.9762 47.1881 0.0000 -21.5681 0.0000
# 3 16.9852 47.1881 96.5216 0.0000 4.3270 0.0000
# 4 0.0000 0.0000 0.0000 22.8665 0.0000 -8.0109
# 5 -5.5291 -21.5681 4.3270 0.0000 27.1014 0.0000
# 6 0.0000 0.0000 0.0000 -8.0109 0.0000 27.5915
#
#
#
# Elastic Compliance Matrix: (Units=1/GPa)
#
#
# Indices 1 2 3 4 5 6 
#
# 1 0.027144 -0.013636 0.002144 0.000000 -0.005657 0.000000
# 2 -0.013636 0.021543 -0.008840 0.000000 0.015774 0.000000
# 3 0.002144 -0.008840 0.014706 0.000000 -0.008946 0.000000
# 4 0.000000 0.000000 0.000000 0.048684 0.000000 0.014135
# 5 -0.005657 0.015774 -0.008946 0.000000 0.049726 0.000000
# 6 0.000000 0.000000 0.000000 0.014135 0.000000 0.040347
#
#
# Mechanical properties :
#
#
# Convention : Reuss Voigt Hill
#
# Bulk Modulus (GPa) = 43.99779 54.59817 49.29798
# Shear Modulus (GPa) = 19.96869 25.82978 22.89923
#
# Velocity S-wave (km/s) = 3.37429 3.83767 3.61341
# Velocity P-wave (km/s) = 6.34570 7.12516 6.74670
#
# Compressibility (1/GPa) = 0.02272842
#
# Stress axis : x y z
#
# Youngs Moduli (GPa) = 36.83992 46.41837 68.00033
#
# Poissons Ratio (x) = 0.63298 -0.14576
# Poissons Ratio (y) = 0.50236 0.60110
# Poissons Ratio (z) = -0.07897 0.41032
#
# Static dielectric constant tensor:
#      x y z
#    x 1.602250 0.000000 -0.004870 
#    y 0.000000 1.729440 0.000000 
#    z -0.004870 0.000000 1.615210 
# 
# From -- ./inp_files/148042.got.cif
#   From: 2010.05.17/outbox.cif.g08.bks.cpg/sg12_75_cif.got.tgz:148042.got - 2010.06.03 13:09:07.
