data_PCOD9176303
_publ_section_title
;
Structure prediction by ZEFSAII (Michael W. Deem and Ramdas Pophale) SiO2 
 PCOD9176303
Probable space group: C 2/M
;
_chemical_formula_sum "Si O2"
_cell_formula_units_Z 64
_cell_length_a 21.021027
_cell_length_b 8.832433
_cell_length_c 20.836960
_cell_angle_alpha 90.000000
_cell_angle_beta 72.671087
_cell_angle_gamma 90.000000
_cell_volume 3693.132581
_symmetry_space_group_name_H-M "C 2/M"
_symmetry_group_IT_number 12
_symmetry_cell_setting 'monoclinic'
loop_
_space_group_symop_operation_xyz
x,y,z
-x,y,-z
-x,-y,-z
x,-y,z
1/2+x,1/2+y,z
1/2-x,1/2+y,-z
1/2-x,1/2-y,-z
1/2+x,1/2-y,z
loop_
_atom_site_type_symbol
_atom_site_label
_atom_site_fract_x
_atom_site_fract_y
_atom_site_fract_z
Si Si1 0.314477 0.816926 0.286969
Si Si2 0.577098 0.817353 0.491778
Si Si3 0.419973 0.825220 0.011640
Si Si4 0.338831 0.318807 0.649091
Si Si5 0.396835 0.679553 0.149477
Si Si6 0.932737 0.682580 0.727695
Si Si7 0.541754 0.816898 0.135714
Si Si8 0.419463 0.816022 0.363420
O O1 0.238612 0.773906 0.324223
O O2 0.341565 0.748636 0.212778
O O3 0.364102 0.766589 0.329126
O O4 0.318255 0.000000 0.281833
O O5 0.500000 0.779177 0.500000
O O6 0.624821 0.746202 0.424550
O O7 0.592875 0.768067 0.559731
O O8 0.582444 0.000000 0.486447
O O9 0.388119 0.729551 0.078115
O O10 0.398399 0.000000 0.023529
O O11 0.500000 0.822559 0.000000
O O12 0.414664 0.772573 0.939542
O O13 0.342360 0.500000 0.646748
O O14 0.378078 0.257305 0.699116
O O15 0.398076 0.500000 0.153969
O O16 0.468378 0.745948 0.150697
O O17 0.928320 0.500000 0.722784
O O18 0.928175 0.721352 0.804273
O O19 0.006524 0.728733 0.681288
O O20 0.533583 0.000000 0.135175
O O21 0.419042 0.000000 0.363520
#
# Coordination Sequence:
#
# PCOD9176303 Si02
#       8
#     8   8   8   8   8   8   8   8
#     4  10  21  39  56  73 106 148 184 214 260 325
#     4  10  19  35  58  81 103 136 179 219 263 318
#     4   8  15  28  47  73 105 141 179 214 257 317
#     4  11  24  37  53  80 111 141 173 221 274 316
#     4  11  20  29  48  79 111 141 174 220 271 309
#     4  10  18  34  59  80 103 139 182 223 260 313
#     4   9  17  31  53  78 104 141 183 218 259 316
#     4   9  17  33  59  80  97 135 185 220 252 310
#
# _framework density 17.329461999999999
#
# number of rings (size 3 to 8) (size 9 to 14) (size 15 to 20)
#    0.000    2.250    2.500    2.250    0.000    4.500 
#    0.000    0.625    0.000    0.750    0.000    0.000 
#    0.000    0.000    0.000    0.000    0.000    0.000 
#
# Total GULP energy -178495.305951 kJ/mol
# GULP energy per Si atom -5577.978311 kJ/mol
# Density = 1.729002 g / cm^3
# Si number density = 17.329462 Si / 1000 Ang^3
#
#
#
# Elastic Constant Matrix: (Units=GPa)
#
#
# Indices 1 2 3 4 5 6 
#
# 1 96.1089 29.0183 67.0973 0.0000 -0.6257 0.0000
# 2 29.0183 25.4023 41.6879 0.0000 -2.1763 0.0000
# 3 67.0973 41.6879 164.3938 0.0000 12.1916 0.0000
# 4 0.0000 0.0000 0.0000 17.4435 0.0000 -0.1593
# 5 -0.6257 -2.1763 12.1916 0.0000 25.3466 0.0000
# 6 0.0000 0.0000 0.0000 -0.1593 0.0000 12.1082
#
#
#
# Elastic Compliance Matrix: (Units=1/GPa)
#
#
# Indices 1 2 3 4 5 6 
#
# 1 0.016970 -0.013377 -0.003609 0.000000 0.001006 0.000000
# 2 -0.013377 0.083562 -0.016839 0.000000 0.014944 0.000000
# 3 -0.003609 -0.016839 0.012381 0.000000 -0.007490 0.000000
# 4 0.000000 0.000000 0.000000 0.057335 0.000000 0.000754
# 5 0.001006 0.014944 -0.007490 0.000000 0.044364 0.000000
# 6 0.000000 0.000000 0.000000 0.000754 0.000000 0.082598
#
#
# Mechanical properties :
#
#
# Convention : Reuss Voigt Hill
#
# Bulk Modulus (GPa) = 22.09230 62.39023 42.24126
# Shear Modulus (GPa) = 13.15976 20.85310 17.00643
#
# Velocity S-wave (km/s) = 2.75869 3.47267 3.13606
# Velocity P-wave (km/s) = 4.78782 7.22218 6.12711
#
# Compressibility (1/GPa) = 0.04526465
#
# Stress axis : x y z
#
# Youngs Moduli (GPa) = 58.92891 11.96716 80.76724
#
# Poissons Ratio (x) = 0.16009 0.29145
# Poissons Ratio (y) = 0.78830 1.36000
# Poissons Ratio (z) = 0.21265 0.20151
#
# Static dielectric constant tensor:
#      x y z
#    x 1.566920 0.000000 0.020490 
#    y 0.000000 1.580330 0.000000 
#    z 0.020490 0.000000 1.600240 
# 
# From -- ./inp_files/319865.got.cif
#   From: 2010.05.17/outbox.cif.g08.bks.cpg/sg12_160_cif.got.tgz:319865.got - 2010.06.03 13:09:07.
