data_PCOD9176248
_publ_section_title
;
Structure prediction by ZEFSAII (Michael W. Deem and Ramdas Pophale) SiO2 
 PCOD9176248
Probable space group: C 2/M
;
_chemical_formula_sum "Si O2"
_cell_formula_units_Z 64
_cell_length_a 25.118094
_cell_length_b 8.772800
_cell_length_c 21.186970
_cell_angle_alpha 90.000000
_cell_angle_beta 127.726755
_cell_angle_gamma 90.000000
_cell_volume 3692.632949
_symmetry_space_group_name_H-M "C 2/M"
_symmetry_group_IT_number 12
_symmetry_cell_setting 'monoclinic'
loop_
_space_group_symop_operation_xyz
x,y,z
-x,y,-z
-x,-y,-z
x,-y,z
1/2+x,1/2+y,z
1/2-x,1/2+y,-z
1/2-x,1/2-y,-z
1/2+x,1/2-y,z
loop_
_atom_site_type_symbol
_atom_site_label
_atom_site_fract_x
_atom_site_fract_y
_atom_site_fract_z
Si Si1 0.541364 0.316180 0.215682
Si Si2 0.815914 0.183476 0.124858
Si Si3 0.322220 0.316591 0.623057
Si Si4 0.043175 0.814625 0.721310
Si Si5 0.465862 0.182476 0.040810
Si Si6 0.670130 0.818013 0.511008
Si Si7 0.172307 0.181792 0.014938
Si Si8 0.464605 0.315735 0.539123
O O1 0.535813 0.500000 0.205807
O O2 0.619028 0.276191 0.285644
O O3 0.499587 0.270534 0.247975
O O4 0.509718 0.241550 0.131352
O O5 0.879631 0.233230 0.212654
O O6 0.744776 0.257977 0.089774
O O7 0.809517 0.000000 0.123999
O O8 0.832048 0.220890 0.063133
O O9 0.325085 0.500000 0.616000
O O10 0.336525 0.241047 0.565737
O O11 0.246111 0.276073 0.586994
O O12 0.007390 0.763460 0.631250
O O13 0.043141 0.000000 0.720352
O O14 0.463359 0.000000 0.040208
O O15 0.500000 0.231786 0.000000
O O16 0.390717 0.246312 0.995177
O O17 0.610771 0.745366 0.508319
O O18 0.664409 0.000000 0.507737
O O19 0.169372 0.000000 0.017916
O O20 0.500000 0.268185 0.500000
O O21 0.462502 0.500000 0.538952
#
# Coordination Sequence:
#
# PCOD9176248 Si02
#       8
#     8   8   8   8   8   8   8   8
#     4  10  18  34  58  80 104 138 181 225 263 311
#     4   9  17  31  52  78 107 136 169 219 269 307
#     4   9  18  33  54  79 109 141 175 219 268 317
#     4   9  16  31  54  79 105 136 178 220 260 309
#     4  11  24  39  54  77 111 144 174 217 270 320
#     4  10  19  31  51  80 110 142 177 220 271 314
#     4  10  19  33  54  80 105 137 177 214 261 317
#     4  10  20  35  55  77 106 147 185 217 263 323
#
# _framework density 17.331807000000001
#
# number of rings (size 3 to 8) (size 9 to 14) (size 15 to 20)
#    0.000    2.250    2.500    1.125    0.000    2.750 
#    0.000    1.875    0.000    4.500    0.000    0.000 
#    0.000    0.000    0.000    0.000    0.000    0.000 
#
# Total GULP energy -178519.296539 kJ/mol
# GULP energy per Si atom -5578.728017 kJ/mol
# Density = 1.729236 g / cm^3
# Si number density = 17.331807 Si / 1000 Ang^3
#
#
#
# Elastic Constant Matrix: (Units=GPa)
#
#
# Indices 1 2 3 4 5 6 
#
# 1 168.8073 41.8220 90.1815 0.0000 15.5550 0.0000
# 2 41.8220 17.9477 28.7030 0.0000 4.8405 0.0000
# 3 90.1815 28.7030 117.6304 0.0000 14.5664 0.0000
# 4 0.0000 0.0000 0.0000 21.4856 0.0000 5.2245
# 5 15.5550 4.8405 14.5664 0.0000 30.0200 0.0000
# 6 0.0000 0.0000 0.0000 5.2245 0.0000 26.7406
#
#
#
# Elastic Compliance Matrix: (Units=1/GPa)
#
#
# Indices 1 2 3 4 5 6 
#
# 1 0.015715 -0.028320 -0.004995 0.000000 -0.001153 0.000000
# 2 -0.028320 0.142905 -0.012897 0.000000 -0.002110 0.000000
# 3 -0.004995 -0.012897 0.015852 0.000000 -0.003024 0.000000
# 4 0.000000 0.000000 0.000000 0.048864 0.000000 -0.009547
# 5 -0.001153 -0.002110 -0.003024 0.000000 0.035716 0.000000
# 6 0.000000 0.000000 0.000000 -0.009547 0.000000 0.039262
#
#
# Mechanical properties :
#
#
# Convention : Reuss Voigt Hill
#
# Bulk Modulus (GPa) = 12.18803 69.53316 40.86059
# Shear Modulus (GPa) = 11.95924 25.22784 18.59354
#
# Velocity S-wave (km/s) = 2.62967 3.81935 3.27891
# Velocity P-wave (km/s) = 4.03332 7.72372 6.16131
#
# Compressibility (1/GPa) = 0.08204774
#
# Stress axis : x y z
#
# Youngs Moduli (GPa) = 63.63478 6.99764 63.08435
#
# Poissons Ratio (x) = 0.19817 0.31508
# Poissons Ratio (y) = 1.80215 0.81362
# Poissons Ratio (z) = 0.31782 0.09025
#
# Static dielectric constant tensor:
#      x y z
#    x 1.575210 0.000000 0.019180 
#    y 0.000000 1.583150 0.000000 
#    z 0.019180 0.000000 1.585240 
# 
# From -- ./inp_files/324260.got.cif
#   From: 2010.05.17/outbox.cif.g08.bks.cpg/sg12_163_cif.got.tgz:324260.got - 2010.06.03 13:09:07.
