data_PCOD9176784
_publ_section_title
;
Structure prediction by ZEFSAII (Michael W. Deem and Ramdas Pophale) SiO2 
 PCOD9176784
Probable space group: C 2/M
;
_chemical_formula_sum "Si O2"
_cell_formula_units_Z 56
_cell_length_a 15.598210
_cell_length_b 15.756408
_cell_length_c 13.478270
_cell_angle_alpha 90.000000
_cell_angle_beta 48.658563
_cell_angle_gamma 90.000000
_cell_volume 2487.039340
_symmetry_space_group_name_H-M "C 2/M"
_symmetry_group_IT_number 12
_symmetry_cell_setting 'monoclinic'
loop_
_space_group_symop_operation_xyz
x,y,z
-x,y,-z
-x,-y,-z
x,-y,z
1/2+x,1/2+y,z
1/2-x,1/2+y,-z
1/2-x,1/2-y,-z
1/2+x,1/2-y,z
loop_
_atom_site_type_symbol
_atom_site_label
_atom_site_fract_x
_atom_site_fract_y
_atom_site_fract_z
Si Si1 0.449884 0.728780 0.359415
Si Si2 0.132445 0.091581 0.432287
Si Si3 0.974491 0.092802 0.179551
Si Si4 0.776053 0.864283 0.216404
Si Si5 0.592667 0.096877 0.517138
Si Si6 0.282093 0.312579 0.806744
Si Si7 0.251828 0.593746 0.021554
O O1 0.371396 0.674353 0.495495
O O2 0.436654 0.676128 0.268940
O O3 0.420477 0.827518 0.393588
O O4 0.585029 0.716926 0.281896
O O5 0.206931 0.110024 0.278017
O O6 0.000000 0.085613 0.500000
O O7 0.164053 0.000000 0.452438
O O8 0.899588 0.095947 0.138230
O O9 0.110775 0.097649 0.071367
O O10 0.951958 0.000000 0.245393
O O11 0.708287 0.890673 0.366303
O O12 0.783340 0.764170 0.193979
O O13 0.711685 0.893738 0.165050
O O14 0.500000 0.110596 0.500000
O O15 0.583180 0.000000 0.561016
O O16 0.227988 0.338979 0.953304
O O17 0.218838 0.500000 0.012836
#
# Coordination Sequence:
#
# PCOD9176784 Si02
#       7
#     8   8   8   8   8   8   8
#     4  10  18  36  54  78 111 146 184 226 273 324
#     4   9  15  27  51  77 106 141 176 218 273 324
#     4  10  22  37  58  85 113 144 183 231 285 338
#     4  12  21  36  55  81 113 150 182 227 277 329
#     4  11  21  35  55  79 112 152 190 226 266 323
#     4  10  19  33  54  81 110 142 183 229 278 328
#     4  10  21  37  57  82 111 142 186 236 283 332
#
# _framework density 22.516732000000001
#
# number of rings (size 3 to 8) (size 9 to 14) (size 15 to 20)
#    0.000    1.714    2.857    3.429    0.000    5.143 
#    0.000    0.000    0.000    0.857    0.000    0.000 
#    0.000    9.143    0.000    0.000    0.000    0.000 
#
# Total GULP energy -156230.469147 kJ/mol
# GULP energy per Si atom -5579.659612 kJ/mol
# Density = 2.246548 g / cm^3
# Si number density = 22.516732 Si / 1000 Ang^3
#
#
#
# Elastic Constant Matrix: (Units=GPa)
#
#
# Indices 1 2 3 4 5 6 
#
# 1 32.8078 14.2223 -5.9264 0.0000 -2.4800 0.0000
# 2 14.2223 177.4942 25.0549 0.0000 17.5935 0.0000
# 3 -5.9264 25.0549 37.6417 0.0000 11.0107 0.0000
# 4 0.0000 0.0000 0.0000 8.8510 0.0000 -7.3719
# 5 -2.4800 17.5935 11.0107 0.0000 25.7227 0.0000
# 6 0.0000 0.0000 0.0000 -7.3719 0.0000 -0.8218
#
#
#
# Elastic Compliance Matrix: (Units=1/GPa)
#
#
# Indices 1 2 3 4 5 6 
#
# 1 0.033720 -0.003997 0.007109 0.000000 0.002942 0.000000
# 2 -0.003997 0.006879 -0.004251 0.000000 -0.003270 0.000000
# 3 0.007109 -0.004251 0.033681 0.000000 -0.010824 0.000000
# 4 0.000000 0.000000 0.000000 0.013336 0.000000 -0.119638
# 5 0.002942 -0.003270 -0.010824 0.000000 0.046030 0.000000
# 6 0.000000 0.000000 0.000000 -0.119638 0.000000 -0.143642
#
#
# Mechanical properties :
#
#
# Convention : Reuss Voigt Hill
#
# Bulk Modulus (GPa) = 13.88864 34.96059 24.42462
# Shear Modulus (GPa) = 307.07214 21.05657 164.06436
#
# Velocity S-wave (km/s) = 11.69064 3.06134 8.54526
# Velocity P-wave (km/s) = 13.72624 5.29679 10.40350
#
# Compressibility (1/GPa) = 0.07200127
#
# Stress axis : x y z
#
# Youngs Moduli (GPa) = 29.65621 145.38040 29.68993
#
# Poissons Ratio (x) = 0.58108 -0.21106
# Poissons Ratio (y) = 0.11854 0.12622
# Poissons Ratio (z) = -0.21082 0.61803
#
# Static dielectric constant tensor:
#      x y z
#    x 1.820970 0.000000 0.009310 
#    y 0.000000 1.855400 0.000000 
#    z 0.009310 0.000000 1.914690 
# 
# From -- ./inp_files/225208.got.cif
#   From: 2010.05.17/outbox.cif.g08.bks.cpg/sg12_113_cif.got.tgz:225208.got - 2010.06.03 13:09:07.
