data_PCOD9176297
_publ_section_title
;
Structure prediction by ZEFSAII (Michael W. Deem and Ramdas Pophale) SiO2 
 PCOD9176297
Probable space group: C 2/M
;
_chemical_formula_sum "Si O2"
_cell_formula_units_Z 40
_cell_length_a 13.034338
_cell_length_b 26.616186
_cell_length_c 8.648388
_cell_angle_alpha 90.000000
_cell_angle_beta 136.064193
_cell_angle_gamma 90.000000
_cell_volume 2081.789493
_symmetry_space_group_name_H-M "C 2/M"
_symmetry_group_IT_number 12
_symmetry_cell_setting 'monoclinic'
loop_
_space_group_symop_operation_xyz
x,y,z
-x,y,-z
-x,-y,-z
x,-y,z
1/2+x,1/2+y,z
1/2-x,1/2+y,-z
1/2-x,1/2-y,-z
1/2+x,1/2-y,z
loop_
_atom_site_type_symbol
_atom_site_label
_atom_site_fract_x
_atom_site_fract_y
_atom_site_fract_z
Si Si1 0.000000 0.136338 0.000000
Si Si2 0.524539 0.111719 0.213752
Si Si3 0.331134 0.500000 0.268710
Si Si4 0.202351 0.899573 0.955658
Si Si5 0.500000 0.661333 0.500000
Si Si6 0.401827 0.000000 0.737267
Si Si7 0.789405 0.808044 0.529849
O O1 0.883530 0.103717 0.974930
O O2 0.098564 0.171494 0.217979
O O3 0.571662 0.054352 0.311494
O O4 0.650434 0.153366 0.379767
O O5 0.500000 0.111164 0.000000
O O6 0.368330 0.122627 0.128623
O O7 0.500000 0.500000 0.500000
O O8 0.285439 0.453281 0.113466
O O9 0.257184 0.500000 0.356784
O O10 0.092834 0.870990 0.721315
O O11 0.622312 0.689663 0.535168
O O12 0.500000 0.000000 0.000000
O O13 0.750000 0.750000 0.500000
#
# Coordination Sequence:
#
# PCOD9176297 Si02
#       7
#     4   8   4   8   4   4   8
#     4  10  28  43  56  94 134 161 210 262 342 388
#     4  11  20  38  68  97 122 161 225 272 309 371
#     4  12  20  31  65  96 128 170 222 260 310 383
#     4  11  21  39  62  93 131 169 212 266 318 380
#     4  10  20  39  62  90 120 167 216 264 306 386
#     4  10  18  34  59 104 117 153 222 270 298 361
#     4  11  25  43  67  91 128 170 216 269 327 384
#
# _framework density 19.214238999999999
#
# number of rings (size 3 to 8) (size 9 to 14) (size 15 to 20)
#    0.000    1.200    7.000    0.000    4.200    2.800 
#    0.000    5.000    0.000    2.400    0.000    0.000 
#    0.000    0.000    0.000    0.000    0.000    0.000 
#
# Total GULP energy -111472.446559 kJ/mol
# GULP energy per Si atom -5573.622328 kJ/mol
# Density = 1.917051 g / cm^3
# Si number density = 19.214239 Si / 1000 Ang^3
#
#
#
# Elastic Constant Matrix: (Units=GPa)
#
#
# Indices 1 2 3 4 5 6 
#
# 1 158.8048 38.3138 27.1675 0.0000 24.5645 0.0000
# 2 38.3138 125.6858 26.1343 0.0000 15.4132 0.0000
# 3 27.1675 26.1343 66.7127 0.0000 21.9699 0.0000
# 4 0.0000 0.0000 0.0000 13.3409 0.0000 6.2385
# 5 24.5645 15.4132 21.9699 0.0000 41.1925 0.0000
# 6 0.0000 0.0000 0.0000 6.2385 0.0000 22.7549
#
#
#
# Elastic Compliance Matrix: (Units=1/GPa)
#
#
# Indices 1 2 3 4 5 6 
#
# 1 0.007392 -0.001590 -0.001373 0.000000 -0.003081 0.000000
# 2 -0.001590 0.009108 -0.002560 0.000000 -0.001094 0.000000
# 3 -0.001373 -0.002560 0.019368 0.000000 -0.008554 0.000000
# 4 0.000000 0.000000 0.000000 0.085980 0.000000 -0.023572
# 5 -0.003081 -0.001094 -0.008554 0.000000 0.031085 0.000000
# 6 0.000000 0.000000 0.000000 -0.023572 0.000000 0.050409
#
#
# Mechanical properties :
#
#
# Convention : Reuss Voigt Hill
#
# Bulk Modulus (GPa) = 40.28602 59.38162 49.83382
# Shear Modulus (GPa) = 22.45551 32.76349 27.60950
#
# Velocity S-wave (km/s) = 3.42232 4.13385 3.79480
# Velocity P-wave (km/s) = 6.05216 7.33192 6.72256
#
# Compressibility (1/GPa) = 0.02482251
#
# Stress axis : x y z
#
# Youngs Moduli (GPa) = 135.27950 109.79891 51.63049
#
# Poissons Ratio (x) = 0.17459 0.07087
# Poissons Ratio (y) = 0.21511 0.13217
# Poissons Ratio (z) = 0.18570 0.28108
#
# Static dielectric constant tensor:
#      x y z
#    x 1.655480 0.000000 -0.070150 
#    y 0.000000 1.648630 0.000000 
#    z -0.070150 0.000000 1.633200 
# 
# From -- ./inp_files/52383.got.cif
#   From: 2010.05.17/outbox.cif.g08.bks.cpg/sg12_27_cif.got.tgz:52383.got - 2010.06.03 13:09:07.
