data_PCOD9176311
_publ_section_title
;
Structure prediction by ZEFSAII (Michael W. Deem and Ramdas Pophale) SiO2 
 PCOD9176311
Probable space group: C 2/M
;
_chemical_formula_sum "Si O2"
_cell_formula_units_Z 64
_cell_length_a 15.617027
_cell_length_b 7.633974
_cell_length_c 24.363915
_cell_angle_alpha 90.000000
_cell_angle_beta 94.106115
_cell_angle_gamma 90.000000
_cell_volume 2897.209562
_symmetry_space_group_name_H-M "C 2/M"
_symmetry_group_IT_number 12
_symmetry_cell_setting 'monoclinic'
loop_
_space_group_symop_operation_xyz
x,y,z
-x,y,-z
-x,-y,-z
x,-y,z
1/2+x,1/2+y,z
1/2-x,1/2+y,-z
1/2-x,1/2-y,-z
1/2+x,1/2-y,z
loop_
_atom_site_type_symbol
_atom_site_label
_atom_site_fract_x
_atom_site_fract_y
_atom_site_fract_z
Si Si1 0.989853 0.790505 0.061155
Si Si2 0.616886 0.702201 0.264212
Si Si3 0.873235 0.206171 0.358673
Si Si4 0.834700 0.710508 0.130089
Si Si5 0.077146 0.703064 0.754429
Si Si6 0.853708 0.784757 0.856390
Si Si7 0.528788 0.714512 0.441212
Si Si8 0.810234 0.788385 0.617664
O O1 0.897499 0.757015 0.083559
O O2 0.063852 0.723992 0.105636
O O3 0.001179 0.000000 0.059029
O O4 0.000000 0.721081 0.000000
O O5 0.645293 0.500000 0.264650
O O6 0.513632 0.707007 0.261699
O O7 0.642979 0.777466 0.206483
O O8 0.655461 0.778985 0.321664
O O9 0.865656 0.285510 0.297609
O O10 0.788637 0.237006 0.390707
O O11 0.957841 0.272280 0.393616
O O12 0.883811 0.000000 0.350961
O O13 0.831650 0.500000 0.133763
O O14 0.876640 0.774844 0.189265
O O15 0.736487 0.769528 0.121359
O O16 0.057105 0.500000 0.763825
O O17 0.857131 0.000000 0.855207
O O18 0.500000 0.772507 0.500000
O O19 0.527668 0.500000 0.441436
O O20 0.622963 0.770667 0.425684
O O21 0.814251 0.000000 0.618332
#
# Coordination Sequence:
#
# PCOD9176311 Si02
#       8
#     8   8   8   8   8   8   8   8
#     4  10  21  37  57  81 109 144 188 235 276 319
#     4  10  18  34  59  82 109 151 187 217 279 347
#     4  11  22  37  58  85 114 149 188 227 280 337
#     4  10  21  37  57  81 109 146 184 222 273 334
#     4  11  21  34  56  85 115 143 182 233 281 331
#     4   9  18  34  56  78 109 146 179 217 273 336
#     4   9  19  37  59  81 110 151 194 231 273 332
#     4  10  20  36  58  84 113 147 187 229 278 335
#
# _framework density 22.090221
#
# number of rings (size 3 to 8) (size 9 to 14) (size 15 to 20)
#    0.000    2.000    2.500    1.500    0.000    4.250 
#    0.000    1.250    0.000    2.625    0.000    0.000 
#    0.000    0.000    0.000    0.000    0.000    0.000 
#
# Total GULP energy -178810.747276 kJ/mol
# GULP energy per Si atom -5587.835852 kJ/mol
# Density = 2.203994 g / cm^3
# Si number density = 22.090221 Si / 1000 Ang^3
#
#
#
# Elastic Constant Matrix: (Units=GPa)
#
#
# Indices 1 2 3 4 5 6 
#
# 1 104.4302 -8.1068 16.4747 0.0000 -37.2193 0.0000
# 2 -8.1068 43.6144 2.5973 0.0000 3.3520 0.0000
# 3 16.4747 2.5973 88.2691 0.0000 -39.0612 0.0000
# 4 0.0000 0.0000 0.0000 0.2958 0.0000 -12.4522
# 5 -37.2193 3.3520 -39.0612 0.0000 29.3988 0.0000
# 6 0.0000 0.0000 0.0000 -12.4522 0.0000 4.5124
#
#
#
# Elastic Compliance Matrix: (Units=1/GPa)
#
#
# Indices 1 2 3 4 5 6 
#
# 1 0.036689 -0.002217 0.033696 0.000000 0.091472 0.000000
# 2 -0.002217 0.024020 -0.006667 0.000000 -0.014404 0.000000
# 3 0.033696 -0.006667 0.059341 0.000000 0.122264 0.000000
# 4 0.000000 0.000000 0.000000 -0.029354 0.000000 -0.081005
# 5 0.091472 -0.014404 0.122264 0.000000 0.313910 0.000000
# 6 0.000000 0.000000 0.000000 -0.081005 0.000000 -0.001924
#
#
# Mechanical properties :
#
#
# Convention : Reuss Voigt Hill
#
# Bulk Modulus (GPa) = 5.89367 28.69379 17.29373
# Shear Modulus (GPa) = 12.20658 21.86464 17.03561
#
# Velocity S-wave (km/s) = 2.35325 3.14950 2.78003
# Velocity P-wave (km/s) = 3.17136 5.12283 4.26033
#
# Compressibility (1/GPa) = 0.16967360
#
# Stress axis : x y z
#
# Youngs Moduli (GPa) = 27.25622 41.63172 16.85183
#
# Poissons Ratio (x) = 0.09231 -0.56784
# Poissons Ratio (y) = 0.06043 0.11235
# Poissons Ratio (z) = -0.91843 0.27756
#
# Static dielectric constant tensor:
#      x y z
#    x 1.790740 0.000000 -0.007340 
#    y 0.000000 1.834700 0.000000 
#    z -0.007340 0.000000 1.799970 
# 
# From -- ./inp_files/338718.got.cif
#   From: 2010.05.17/outbox.cif.g08.bks.cpg/sg12_170_cif.got.tgz:338718.got - 2010.06.03 13:09:07.
