data_PCOD9176758
_publ_section_title
;
Structure prediction by ZEFSAII (Michael W. Deem and Ramdas Pophale) SiO2 
 PCOD9176758
Probable space group: C 2/M
;
_chemical_formula_sum "Si O2"
_cell_formula_units_Z 24
_cell_length_a 13.590104
_cell_length_b 13.071054
_cell_length_c 17.979815
_cell_angle_alpha 90.000000
_cell_angle_beta 19.910518
_cell_angle_gamma 90.000000
_cell_volume 1087.682755
_symmetry_space_group_name_H-M "C 2/M"
_symmetry_group_IT_number 12
_symmetry_cell_setting 'monoclinic'
loop_
_space_group_symop_operation_xyz
x,y,z
-x,y,-z
-x,-y,-z
x,-y,z
1/2+x,1/2+y,z
1/2-x,1/2+y,-z
1/2-x,1/2-y,-z
1/2+x,1/2-y,z
loop_
_atom_site_type_symbol
_atom_site_label
_atom_site_fract_x
_atom_site_fract_y
_atom_site_fract_z
Si Si1 0.173738 0.500000 0.800767
Si Si2 0.729579 0.826134 0.446017
Si Si3 0.623979 0.500000 0.103819
Si Si4 0.313899 0.000000 0.708309
Si Si5 0.500000 0.324286 0.500000
O O1 0.365368 0.398963 0.656840
O O2 0.000000 0.500000 0.000000
O O3 0.962940 0.500000 0.878375
O O4 0.750000 0.750000 0.500000
O O5 0.721624 0.752139 0.380493
O O6 0.988522 0.903816 0.244645
O O7 0.438704 0.897483 0.658059
O O8 0.505681 0.500000 0.101916
O O9 0.500000 0.000000 0.500000
#
# Coordination Sequence:
#
# PCOD9176758 Si02
#       5
#     4   8   4   4   4
#     4  11  25  39  59  96 132 160 208 265 317 371
#     4  10  18  35  65  90 120 166 211 252 313 374
#     4  10  19  39  58  85 126 161 203 261 308 359
#     4   8  16  34  56  85 122 159 203 257 309 352
#     4  11  22  41  62  90 128 165 210 257 316 378
#
# _framework density 22.065258
#
# number of rings (size 3 to 8) (size 9 to 14) (size 15 to 20)
#    0.000    2.333    5.000    2.000    0.000    5.333 
#    0.000    0.000    0.000    2.000    0.000    1.167 
#    0.000    0.000    0.000    0.000    0.000    0.000 
#
# Total GULP energy -66910.148203 kJ/mol
# GULP energy per Si atom -5575.845684 kJ/mol
# Density = 2.201504 g / cm^3
# Si number density = 22.065258 Si / 1000 Ang^3
#
#
#
# Elastic Constant Matrix: (Units=GPa)
#
#
# Indices 1 2 3 4 5 6 
#
# 1 57.4672 42.3776 -6.8956 0.0864 -6.7974 0.1679
# 2 42.3776 167.9365 19.8575 0.1395 5.8588 0.1682
# 3 -6.8956 19.8575 41.9699 0.1606 0.6741 0.3902
# 4 0.0864 0.1395 0.1606 2.2276 -0.0559 -13.6421
# 5 -6.7974 5.8588 0.6741 -0.0559 38.2218 -0.1954
# 6 0.1679 0.1682 0.3902 -13.6421 -0.1954 41.5712
#
#
#
# Elastic Compliance Matrix: (Units=1/GPa)
#
#
# Indices 1 2 3 4 5 6 
#
# 1 0.024155 -0.007138 0.007252 0.001552 0.005266 0.000397
# 2 -0.007138 0.008449 -0.005129 -0.000244 -0.002475 -0.000049
# 3 0.007252 -0.005129 0.027398 0.003443 0.001602 0.000872
# 4 0.001552 -0.000244 0.003443 -0.444033 -0.001142 -0.145758
# 5 0.005266 -0.002475 0.001602 -0.001142 0.027448 -0.000272
# 6 0.000397 -0.000049 0.000872 -0.145758 -0.000272 -0.023788
#
#
# Mechanical properties :
#
#
# Convention : Reuss Voigt Hill
#
# Bulk Modulus (GPa) = 20.01197 42.00586 31.00891
# Shear Modulus (GPa) = -14.13692 30.53972 8.20140
#
# Velocity S-wave (km/s) = -2.53393 3.72434 1.93001
# Velocity P-wave (km/s) = 0.72671 6.12966 4.36467
#
# Compressibility (1/GPa) = 0.04997009
#
# Stress axis : x y z
#
# Youngs Moduli (GPa) = 41.39997 118.35765 36.49928
#
# Poissons Ratio (x) = 0.84485 -0.26468
# Poissons Ratio (y) = 0.29552 0.18721
# Poissons Ratio (z) = -0.30022 0.60708
#
# Static dielectric constant tensor:
#      x y z
#    x 1.901720 0.000000 -0.073380 
#    y 0.000000 1.769860 0.000010 
#    z -0.073380 0.000010 1.833190 
# 
# From -- ./inp_files/70638.got.cif
#   From: 2010.05.17/outbox.cif.g08.bks.cpg/sg12_36_cif.got.tgz:70638.got - 2010.06.03 13:09:07.
