data_PCOD9176681
_publ_section_title
;
Structure prediction by ZEFSAII (Michael W. Deem and Ramdas Pophale) SiO2 
 PCOD9176681
Probable space group: C 2/M
;
_chemical_formula_sum "Si O2"
_cell_formula_units_Z 56
_cell_length_a 15.137603
_cell_length_b 7.892335
_cell_length_c 19.352896
_cell_angle_alpha 90.000000
_cell_angle_beta 101.320171
_cell_angle_gamma 90.000000
_cell_volume 2267.129807
_symmetry_space_group_name_H-M "C 2/M"
_symmetry_group_IT_number 12
_symmetry_cell_setting 'monoclinic'
loop_
_space_group_symop_operation_xyz
x,y,z
-x,y,-z
-x,-y,-z
x,-y,z
1/2+x,1/2+y,z
1/2-x,1/2+y,-z
1/2-x,1/2-y,-z
1/2+x,1/2-y,z
loop_
_atom_site_type_symbol
_atom_site_label
_atom_site_fract_x
_atom_site_fract_y
_atom_site_fract_z
Si Si1 0.921553 0.802606 0.765151
Si Si2 0.384562 0.804929 0.177889
Si Si3 0.419837 0.200476 0.398329
Si Si4 0.094823 0.203841 0.975614
Si Si5 0.690864 0.294014 0.123270
Si Si6 0.263453 0.806100 0.645777
Si Si7 0.614306 0.791995 0.449565
O O1 0.891806 0.756531 0.838689
O O2 0.850776 0.704535 0.707310
O O3 0.027626 0.774414 0.773607
O O4 0.901368 0.000000 0.751842
O O5 0.399094 0.791506 0.097194
O O6 0.284317 0.729650 0.169792
O O7 0.383405 0.000000 0.199579
O O8 0.329772 0.230463 0.341014
O O9 0.394905 0.260056 0.472328
O O10 0.520230 0.264803 0.398720
O O11 0.430971 0.000000 0.404009
O O12 0.102710 0.000000 0.965232
O O13 0.169170 0.263491 0.042623
O O14 0.000000 0.230466 0.000000
O O15 0.697634 0.500000 0.120789
O O16 0.301215 0.724825 0.580495
O O17 0.240967 0.000000 0.629995
O O18 0.619146 0.000000 0.448636
#
# Coordination Sequence:
#
# PCOD9176681 Si02
#       7
#     8   8   8   8   8   8   8
#     4  11  23  42  59  75 105 153 195 222 262 334
#     4  11  22  37  58  86 112 137 178 235 285 320
#     4   9  17  35  60  84 107 147 191 220 260 333
#     4  10  18  35  61  84 111 147 182 218 266 334
#     4   9  20  38  59  80 108 146 184 222 273 329
#     4  11  22  36  54  83 116 144 177 232 285 316
#     4   8  17  34  58  83 113 146 183 223 270 327
#
# _framework density 24.700835000000001
#
# number of rings (size 3 to 8) (size 9 to 14) (size 15 to 20)
#    0.000    2.143    1.429    3.000    0.000    1.429 
#    0.000   12.857    0.000    0.000    0.000    0.000 
#    0.000    0.000    0.000    0.000    0.000    0.000 
#
# Total GULP energy -156456.136315 kJ/mol
# GULP energy per Si atom -5587.719154 kJ/mol
# Density = 2.464461 g / cm^3
# Si number density = 24.700835 Si / 1000 Ang^3
#
#
#
# Elastic Constant Matrix: (Units=GPa)
#
#
# Indices 1 2 3 4 5 6 
#
# 1 138.1616 7.6569 7.8563 0.0000 35.0249 0.0000
# 2 7.6569 35.0779 -5.8056 0.0000 1.1724 0.0000
# 3 7.8563 -5.8056 64.9837 0.0000 22.7768 0.0000
# 4 0.0000 0.0000 0.0000 18.2965 0.0000 4.3873
# 5 35.0249 1.1724 22.7768 0.0000 41.7393 0.0000
# 6 0.0000 0.0000 0.0000 4.3873 0.0000 16.8540
#
#
#
# Elastic Compliance Matrix: (Units=1/GPa)
#
#
# Indices 1 2 3 4 5 6 
#
# 1 0.009475 -0.001464 0.001850 0.000000 -0.008919 0.000000
# 2 -0.001464 0.029419 0.003294 0.000000 -0.001396 0.000000
# 3 0.001850 0.003294 0.019828 0.000000 -0.012465 0.000000
# 4 0.000000 0.000000 0.000000 0.058294 0.000000 -0.015175
# 5 -0.008919 -0.001396 -0.012465 0.000000 0.038284 0.000000
# 6 0.000000 0.000000 0.000000 -0.015175 0.000000 0.063283
#
#
# Mechanical properties :
#
#
# Convention : Reuss Voigt Hill
#
# Bulk Modulus (GPa) = 15.13243 28.62650 21.87946
# Shear Modulus (GPa) = 21.43621 30.61233 26.02427
#
# Velocity S-wave (km/s) = 2.94910 3.52422 3.24941
# Velocity P-wave (km/s) = 4.21139 5.30798 4.79116
#
# Compressibility (1/GPa) = 0.06608325
#
# Stress axis : x y z
#
# Youngs Moduli (GPa) = 105.54228 33.99114 50.43343
#
# Poissons Ratio (x) = 0.04976 -0.09329
# Poissons Ratio (y) = 0.15451 -0.16615
# Poissons Ratio (z) = -0.19524 -0.11198
#
# Static dielectric constant tensor:
#      x y z
#    x 1.971760 0.000000 0.018430 
#    y 0.000000 1.902150 0.000000 
#    z 0.018430 0.000000 2.022360 
# 
# From -- ./inp_files/338164.got.cif
#   From: 2010.05.17/outbox.cif.g08.bks.cpg/sg12_170_cif.got.tgz:338164.got - 2010.06.03 13:09:07.
