data_PCOD9176958
_publ_section_title
;
Structure prediction by ZEFSAII (Michael W. Deem and Ramdas Pophale) SiO2 
 PCOD9176958
Probable space group: C 2/M
;
_chemical_formula_sum "Si O2"
_cell_formula_units_Z 52
_cell_length_a 12.285290
_cell_length_b 12.930570
_cell_length_c 15.011037
_cell_angle_alpha 90.000000
_cell_angle_beta 106.410512
_cell_angle_gamma 90.000000
_cell_volume 2287.447261
_symmetry_space_group_name_H-M "C 2/M"
_symmetry_group_IT_number 12
_symmetry_cell_setting 'monoclinic'
loop_
_space_group_symop_operation_xyz
x,y,z
-x,y,-z
-x,-y,-z
x,-y,z
1/2+x,1/2+y,z
1/2-x,1/2+y,-z
1/2-x,1/2-y,-z
1/2+x,1/2-y,z
loop_
_atom_site_type_symbol
_atom_site_label
_atom_site_fract_x
_atom_site_fract_y
_atom_site_fract_z
Si Si1 0.123094 0.113175 0.097953
Si Si2 0.050356 0.613864 0.609372
Si Si3 0.283501 0.760407 0.234097
Si Si4 0.332695 0.180344 0.634577
Si Si5 0.249719 0.882597 0.936523
Si Si6 0.884759 0.118537 0.531950
Si Si7 0.000000 0.708709 0.000000
O O1 0.221705 0.134781 0.190257
O O2 0.036065 0.208121 0.084457
O O3 0.072075 0.000000 0.097513
O O4 0.183606 0.121370 0.015177
O O5 0.105140 0.500000 0.615077
O O6 0.125209 0.702177 0.672369
O O7 0.000000 0.639273 0.500000
O O8 0.939997 0.609547 0.644609
O O9 0.199055 0.689776 0.270810
O O10 0.303442 0.696355 0.148123
O O11 0.225157 0.137482 0.555491
O O12 0.368857 0.293365 0.603427
O O13 0.242772 0.000000 0.901613
O O14 0.383240 0.854427 0.984716
O O15 0.000000 0.129790 0.500000
O O16 0.883766 0.000000 0.565549
#
# Coordination Sequence:
#
# PCOD9176958 Si02
#       7
#     8   8   8   8   8   8   4
#     4  10  22  41  63  90 126 165 205 253 311 373
#     4  11  24  43  65  89 122 166 213 260 310 366
#     4  11  23  38  61  93 127 161 207 261 311 366
#     4  11  22  37  59  88 119 154 203 257 307 364
#     4  10  23  42  64  91 127 167 205 251 309 374
#     4  10  21  39  61  84 116 158 202 253 314 372
#     4  10  18  36  64  90 116 152 200 250 302 362
#
# _framework density 22.732766000000002
#
# number of rings (size 3 to 8) (size 9 to 14) (size 15 to 20)
#    0.000    1.538    0.000    6.462    0.000    8.615 
#    0.000    0.769    0.000    0.923    0.000    0.000 
#    0.000    0.000    0.000    0.000    0.000    0.000 
#
# Total GULP energy -145118.846016 kJ/mol
# GULP energy per Si atom -5581.494078 kJ/mol
# Density = 2.268103 g / cm^3
# Si number density = 22.732766 Si / 1000 Ang^3
#
#
#
# Elastic Constant Matrix: (Units=GPa)
#
#
# Indices 1 2 3 4 5 6 
#
# 1 81.5587 5.8262 8.6697 0.0000 4.8331 0.0000
# 2 5.8262 124.3123 13.9984 0.0000 14.4493 0.0000
# 3 8.6697 13.9984 86.6106 0.0000 8.7154 0.0000
# 4 0.0000 0.0000 0.0000 18.1944 0.0000 5.8317
# 5 4.8331 14.4493 8.7154 0.0000 31.5742 0.0000
# 6 0.0000 0.0000 0.0000 5.8317 0.0000 25.7852
#
#
#
# Elastic Compliance Matrix: (Units=1/GPa)
#
#
# Indices 1 2 3 4 5 6 
#
# 1 0.012482 -0.000294 -0.001052 0.000000 -0.001486 0.000000
# 2 -0.000294 0.008590 -0.000996 0.000000 -0.003611 0.000000
# 3 -0.001052 -0.000996 0.012086 0.000000 -0.002719 0.000000
# 4 0.000000 0.000000 0.000000 0.059258 0.000000 -0.013402
# 5 -0.001486 -0.003611 -0.002719 0.000000 0.034302 0.000000
# 6 0.000000 0.000000 0.000000 -0.013402 0.000000 0.041813
#
#
# Mechanical properties :
#
#
# Convention : Reuss Voigt Hill
#
# Bulk Modulus (GPa) = 35.11964 38.83004 36.97484
# Shear Modulus (GPa) = 27.36643 32.70990 30.03816
#
# Velocity S-wave (km/s) = 3.47339 3.79738 3.63899
# Velocity P-wave (km/s) = 5.61857 6.02868 5.82724
#
# Compressibility (1/GPa) = 0.02847410
#
# Stress axis : x y z
#
# Youngs Moduli (GPa) = 80.11529 116.41608 82.74157
#
# Poissons Ratio (x) = 0.03420 0.08708
# Poissons Ratio (y) = 0.02354 0.08237
# Poissons Ratio (z) = 0.08432 0.11590
#
# Static dielectric constant tensor:
#      x y z
#    x 1.898620 0.000000 0.028630 
#    y 0.000000 1.927320 0.000000 
#    z 0.028630 0.000000 1.754500 
# 
# From -- ./inp_files/205083.got.cif
#   From: 2010.05.17/outbox.cif.g08.bks.cpg/sg12_103_cif.got.tgz:205083.got - 2010.06.03 13:09:07.
