data_PCOD9176727
_publ_section_title
;
Structure prediction by ZEFSAII (Michael W. Deem and Ramdas Pophale) SiO2 
 PCOD9176727
Probable space group: C 2/M
;
_chemical_formula_sum "Si O2"
_cell_formula_units_Z 48
_cell_length_a 19.767627
_cell_length_b 13.845638
_cell_length_c 22.054485
_cell_angle_alpha 90.000000
_cell_angle_beta 21.741351
_cell_angle_gamma 90.000000
_cell_volume 2235.916632
_symmetry_space_group_name_H-M "C 2/M"
_symmetry_group_IT_number 12
_symmetry_cell_setting 'monoclinic'
loop_
_space_group_symop_operation_xyz
x,y,z
-x,y,-z
-x,-y,-z
x,-y,z
1/2+x,1/2+y,z
1/2-x,1/2+y,-z
1/2-x,1/2-y,-z
1/2+x,1/2-y,z
loop_
_atom_site_type_symbol
_atom_site_label
_atom_site_fract_x
_atom_site_fract_y
_atom_site_fract_z
Si Si1 0.751276 0.390817 0.582674
Si Si2 0.351933 0.888764 0.305697
Si Si3 0.343703 0.806274 0.175743
Si Si4 0.578104 0.260746 0.186278
Si Si5 0.518017 0.295381 0.364901
Si Si6 0.284033 0.895532 0.692683
O O1 0.798041 0.500000 0.521906
O O2 0.574044 0.343105 0.699955
O O3 0.701458 0.401261 0.694647
O O4 0.911523 0.309186 0.451483
O O5 0.368015 0.837720 0.225607
O O6 0.469192 0.836924 0.260348
O O7 0.145922 0.871163 0.499268
O O8 0.398428 0.000000 0.260270
O O9 0.143782 0.829790 0.315505
O O10 0.322912 0.690249 0.187519
O O11 0.500000 0.842095 0.000000
O O12 0.638114 0.283792 0.204565
O O13 0.750000 0.250000 0.000000
O O14 0.500000 0.874905 0.500000
O O15 0.276697 0.000000 0.729613
#
# Coordination Sequence:
#
# PCOD9176727 Si02
#       6
#     8   8   8   8   8   8
#     4  10  20  37  63  88 116 158 207 252 301 369
#     4  11  24  45  68  91 124 171 222 260 304 375
#     4  12  23  39  63  95 132 167 203 264 324 374
#     4  11  24  42  63  93 128 162 202 261 325 375
#     4  11  23  39  65  92 120 165 215 257 311 371
#     4  10  18  35  62  89 119 158 203 250 304 370
#
# _framework density 21.467704999999999
#
# number of rings (size 3 to 8) (size 9 to 14) (size 15 to 20)
#    0.000    1.167    5.000    3.500    0.000    5.333 
#    0.000    1.667    0.000    0.000    0.000    0.000 
#    0.000    0.000    0.000    0.000    0.000    0.000 
#
# Total GULP energy -133669.992342 kJ/mol
# GULP energy per Si atom -5569.583014 kJ/mol
# Density = 2.141884 g / cm^3
# Si number density = 21.467705 Si / 1000 Ang^3
#
#
#
# Elastic Constant Matrix: (Units=GPa)
#
#
# Indices 1 2 3 4 5 6 
#
# 1 62.1016 -5.1550 -6.0209 0.0007 3.0220 -0.0010
# 2 -5.1550 79.1379 -5.3507 0.0445 -16.0388 -0.0010
# 3 -6.0209 -5.3507 41.9926 0.0640 7.6515 -0.0048
# 4 0.0007 0.0445 0.0640 2.6285 -0.0038 1.6099
# 5 3.0220 -16.0388 7.6515 -0.0038 28.1469 -0.0016
# 6 -0.0010 -0.0010 -0.0048 1.6099 -0.0016 3.6765
#
#
#
# Elastic Compliance Matrix: (Units=1/GPa)
#
#
# Indices 1 2 3 4 5 6 
#
# 1 0.016551 0.000852 0.002859 -0.000131 -0.002069 0.000065
# 2 0.000852 0.014335 0.000503 -0.000340 0.007940 0.000157
# 3 0.002859 0.000503 0.025559 -0.000902 -0.006969 0.000426
# 4 -0.000131 -0.000340 -0.000902 0.519908 0.000123 -0.227662
# 5 -0.002069 0.007940 -0.006969 0.000123 0.042169 -0.000043
# 6 0.000065 0.000157 0.000426 -0.227662 -0.000043 0.371692
#
#
# Mechanical properties :
#
#
# Convention : Reuss Voigt Hill
#
# Bulk Modulus (GPa) = 15.41488 16.68655 16.05071
# Shear Modulus (GPa) = 4.98301 20.20763 12.59532
#
# Velocity S-wave (km/s) = 1.52519 3.07140 2.42484
# Velocity P-wave (km/s) = 3.20900 4.51306 3.91570
#
# Compressibility (1/GPa) = 0.06487238
#
# Stress axis : x y z
#
# Youngs Moduli (GPa) = 60.41849 69.75881 39.12543
#
# Poissons Ratio (x) = -0.05945 -0.11185
# Poissons Ratio (y) = -0.05149 -0.01966
# Poissons Ratio (z) = -0.17273 -0.03505
#
# Static dielectric constant tensor:
#      x y z
#    x 2.096700 -0.000080 -0.600600 
#    y -0.000080 1.870670 0.000190 
#    z -0.600600 0.000190 3.186590 
# 
# From -- ./inp_files/347469.got.cif
#   From: 2010.05.17/outbox.cif.g08.bks.cpg/sg12_174_cif.got.tgz:347469.got - 2010.06.03 13:09:07.
