data_PCOD9176419
_publ_section_title
;
Structure prediction by ZEFSAII (Michael W. Deem and Ramdas Pophale) SiO2 
 PCOD9176419
Probable space group: C 2/M
;
_chemical_formula_sum "Si O2"
_cell_formula_units_Z 56
_cell_length_a 13.131610
_cell_length_b 31.604695
_cell_length_c 8.905370
_cell_angle_alpha 90.000000
_cell_angle_beta 132.315010
_cell_angle_gamma 90.000000
_cell_volume 2732.959245
_symmetry_space_group_name_H-M "C 2/M"
_symmetry_group_IT_number 12
_symmetry_cell_setting 'monoclinic'
loop_
_space_group_symop_operation_xyz
x,y,z
-x,y,-z
-x,-y,-z
x,-y,z
1/2+x,1/2+y,z
1/2-x,1/2+y,-z
1/2-x,1/2-y,-z
1/2+x,1/2-y,z
loop_
_atom_site_type_symbol
_atom_site_label
_atom_site_fract_x
_atom_site_fract_y
_atom_site_fract_z
Si Si1 0.529567 0.889198 0.862045
Si Si2 0.241783 0.182353 0.937747
Si Si3 0.232128 0.549015 0.922064
Si Si4 0.162295 0.740438 0.681606
Si Si5 0.862547 0.660214 0.468099
Si Si6 0.150306 0.906538 0.220039
Si Si7 0.466049 0.609417 0.292404
O O1 0.591190 0.926660 0.821180
O O2 0.403701 0.865430 0.656582
O O3 0.500000 0.904451 0.000000
O O4 0.645226 0.852863 0.984583
O O5 0.230033 0.215061 0.787457
O O6 0.100200 0.155345 0.817661
O O7 0.293590 0.210484 0.131540
O O8 0.227875 0.500000 0.956555
O O9 0.274241 0.555121 0.788605
O O10 0.350959 0.574482 0.131670
O O11 0.189471 0.708332 0.570446
O O12 0.000000 0.749338 0.500000
O O13 0.744864 0.633018 0.273353
O O14 0.000000 0.660202 0.500000
O O15 0.107546 0.903903 0.349981
O O16 0.000000 0.902503 0.000000
O O17 0.500000 0.610475 0.500000
#
# Coordination Sequence:
#
# PCOD9176419 Si02
#       7
#     8   8   8   8   8   8   8
#     4  11  23  40  63  88 128 166 206 259 326 375
#     4  10  20  37  58  90 125 167 206 263 312 365
#     4  10  22  42  65  91 124 162 208 261 312 379
#     4  10  18  34  61  87 123 162 213 264 308 359
#     4  11  19  39  66  89 118 171 213 258 309 374
#     4  10  21  38  64  92 121 164 211 257 310 379
#     4  10  22  38  62  93 126 167 206 255 319 379
#
# _framework density 20.490608999999999
#
# number of rings (size 3 to 8) (size 9 to 14) (size 15 to 20)
#    0.000    1.714    4.286    2.143    4.000    3.143 
#    0.000    5.714    0.000    0.000    0.000    0.000 
#    0.000    0.000    0.000    0.000    0.000    0.000 
#
# Total GULP energy -155931.746248 kJ/mol
# GULP energy per Si atom -5568.990937 kJ/mol
# Density = 2.044397 g / cm^3
# Si number density = 20.490609 Si / 1000 Ang^3
#
#
#
# Elastic Constant Matrix: (Units=GPa)
#
#
# Indices 1 2 3 4 5 6 
#
# 1 62.8228 22.4501 27.9891 0.0000 -16.2381 0.0000
# 2 22.4501 138.8124 27.8793 0.0000 9.7993 0.0000
# 3 27.9891 27.8793 71.7177 0.0000 -16.1443 0.0000
# 4 0.0000 0.0000 0.0000 8.1874 0.0000 -1.0637
# 5 -16.2381 9.7993 -16.1443 0.0000 20.9086 0.0000
# 6 0.0000 0.0000 0.0000 -1.0637 0.0000 3.4320
#
#
#
# Elastic Compliance Matrix: (Units=1/GPa)
#
#
# Indices 1 2 3 4 5 6 
#
# 1 0.023614 -0.004350 -0.003556 0.000000 0.017632 0.000000
# 2 -0.004350 0.009650 -0.004638 0.000000 -0.011482 0.000000
# 3 -0.003556 -0.004638 0.020579 0.000000 0.015302 0.000000
# 4 0.000000 0.000000 0.000000 0.127264 0.000000 0.039444
# 5 0.017632 -0.011482 0.015302 0.000000 0.078717 0.000000
# 6 0.000000 0.000000 0.000000 0.039444 0.000000 0.303596
#
#
# Mechanical properties :
#
#
# Convention : Reuss Voigt Hill
#
# Bulk Modulus (GPa) = 34.77655 47.77665 41.27660
# Shear Modulus (GPa) = 8.35992 19.50790 13.93391
#
# Velocity S-wave (km/s) = 2.02206 3.08886 2.61054
# Velocity P-wave (km/s) = 4.73924 6.00736 5.41059
#
# Compressibility (1/GPa) = 0.02875501
#
# Stress axis : x y z
#
# Youngs Moduli (GPa) = 42.34834 103.63196 48.59326
#
# Poissons Ratio (x) = 0.45076 0.17278
# Poissons Ratio (y) = 0.18420 0.22539
# Poissons Ratio (z) = 0.15058 0.48067
#
# Static dielectric constant tensor:
#      x y z
#    x 1.807060 0.000000 -0.052140 
#    y 0.000000 1.710570 0.000000 
#    z -0.052140 0.000000 1.826210 
# 
# From -- ./inp_files/68294.got.cif
#   From: 2010.05.17/outbox.cif.g08.bks.cpg/sg12_35_cif.got.tgz:68294.got - 2010.06.03 13:09:07.
