data_PCOD9176276
_publ_section_title
;
Structure prediction by ZEFSAII (Michael W. Deem and Ramdas Pophale) SiO2 
 PCOD9176276
Probable space group: C 2/M
;
_chemical_formula_sum "Si O2"
_cell_formula_units_Z 48
_cell_length_a 19.860431
_cell_length_b 16.949915
_cell_length_c 17.716552
_cell_angle_alpha 90.000000
_cell_angle_beta 159.308592
_cell_angle_gamma 90.000000
_cell_volume 2107.276469
_symmetry_space_group_name_H-M "C 2/M"
_symmetry_group_IT_number 12
_symmetry_cell_setting 'monoclinic'
loop_
_space_group_symop_operation_xyz
x,y,z
-x,y,-z
-x,-y,-z
x,-y,z
1/2+x,1/2+y,z
1/2-x,1/2+y,-z
1/2-x,1/2-y,-z
1/2+x,1/2-y,z
loop_
_atom_site_type_symbol
_atom_site_label
_atom_site_fract_x
_atom_site_fract_y
_atom_site_fract_z
Si Si1 0.766989 0.754955 0.247410
Si Si2 0.026161 0.412764 0.333350
Si Si3 0.363247 0.594125 0.593336
Si Si4 0.314749 0.699670 0.997246
Si Si5 0.828325 0.911814 0.381179
Si Si6 0.209995 0.415864 0.682526
O O1 0.691654 0.754259 0.083010
O O2 0.713382 0.834031 0.235873
O O3 0.703710 0.668771 0.209253
O O4 0.000000 0.752995 0.500000
O O5 0.951603 0.500000 0.237815
O O6 0.144897 0.383728 0.385771
O O7 0.179826 0.417654 0.561368
O O8 0.856896 0.362579 0.189846
O O9 0.385817 0.500000 0.634010
O O10 0.398411 0.602882 0.540595
O O11 0.499596 0.650152 0.785120
O O12 0.250000 0.750000 0.000000
O O13 0.000000 0.916136 0.500000
O O14 0.738033 0.000000 0.286670
O O15 0.296821 0.500000 0.798656
O O16 0.000000 0.416422 0.500000
#
# Coordination Sequence:
#
# PCOD9176276 Si02
#       6
#     8   8   8   8   8   8
#     4  10  18  34  58  85 118 165 209 244 307 382
#     4  10  21  40  64  89 124 165 202 256 321 377
#     4  10  23  41  65  96 122 157 216 267 315 378
#     4  12  23  37  61  93 127 162 203 260 321 375
#     4   9  18  36  62  86 118 166 212 259 310 367
#     4   9  16  30  57  84 112 160 201 235 301 378
#
# _framework density 22.778217000000001
#
# number of rings (size 3 to 8) (size 9 to 14) (size 15 to 20)
#    0.000    2.000    3.333    2.500    0.000    1.333 
#    0.000    1.667    0.000    6.000    0.000   16.333 
#    0.000    0.000    0.000    0.000    0.000    0.000 
#
# Total GULP energy -133818.570079 kJ/mol
# GULP energy per Si atom -5575.773753 kJ/mol
# Density = 2.272637 g / cm^3
# Si number density = 22.778217 Si / 1000 Ang^3
#
#
#
# Elastic Constant Matrix: (Units=GPa)
#
#
# Indices 1 2 3 4 5 6 
#
# 1 77.0668 7.4991 24.4798 0.0260 -18.2744 0.0124
# 2 7.4991 166.4354 34.6736 0.0402 -18.5050 0.0286
# 3 24.4798 34.6736 61.8210 0.0253 -3.4649 0.0217
# 4 0.0260 0.0402 0.0253 12.4626 0.0126 4.7309
# 5 -18.2744 -18.5050 -3.4649 0.0126 39.3713 0.0006
# 6 0.0124 0.0286 0.0217 4.7309 0.0006 49.7945
#
#
#
# Elastic Compliance Matrix: (Units=1/GPa)
#
#
# Indices 1 2 3 4 5 6 
#
# 1 0.017006 0.001625 -0.007196 -0.000035 0.008024 0.000001
# 2 0.001625 0.007299 -0.004525 -0.000021 0.003787 -0.000001
# 3 -0.007196 -0.004525 0.021362 -0.000009 -0.003587 -0.000004
# 4 -0.000035 -0.000021 -0.000009 0.083242 -0.000053 -0.007909
# 5 0.008024 0.003787 -0.003587 -0.000053 0.030588 0.000002
# 6 0.000001 -0.000001 -0.000004 -0.007909 0.000002 0.020834
#
#
# Mechanical properties :
#
#
# Convention : Reuss Voigt Hill
#
# Bulk Modulus (GPa) = 39.25338 48.73645 43.99491
# Shear Modulus (GPa) = 23.92189 36.23707 30.07948
#
# Velocity S-wave (km/s) = 3.24421 3.99289 3.63786
# Velocity P-wave (km/s) = 5.59495 6.53453 6.08291
#
# Compressibility (1/GPa) = 0.02547551
#
# Stress axis : x y z
#
# Youngs Moduli (GPa) = 58.80295 137.00868 46.81231
#
# Poissons Ratio (x) = -0.22264 0.33684
# Poissons Ratio (y) = -0.09555 0.21182
# Poissons Ratio (z) = 0.42313 0.61995
#
# Static dielectric constant tensor:
#      x y z
#    x 1.972030 0.000070 -0.051230 
#    y 0.000070 1.837390 -0.000030 
#    z -0.051230 -0.000030 1.844110 
# 
# From -- ./inp_files/285422.got.cif
#   From: 2010.05.17/outbox.cif.g08.bks.cpg/sg12_143_cif.got.tgz:285422.got - 2010.06.03 13:09:07.
