data_PCOD9176348
_publ_section_title
;
Structure prediction by ZEFSAII (Michael W. Deem and Ramdas Pophale) SiO2 
 PCOD9176348
Probable space group: C 2/M
;
_chemical_formula_sum "Si O2"
_cell_formula_units_Z 48
_cell_length_a 25.903061
_cell_length_b 17.442495
_cell_length_c 18.515087
_cell_angle_alpha 90.000000
_cell_angle_beta 19.200912
_cell_angle_gamma 90.000000
_cell_volume 2751.218816
_symmetry_space_group_name_H-M "C 2/M"
_symmetry_group_IT_number 12
_symmetry_cell_setting 'monoclinic'
loop_
_space_group_symop_operation_xyz
x,y,z
-x,y,-z
-x,-y,-z
x,-y,z
1/2+x,1/2+y,z
1/2-x,1/2+y,-z
1/2-x,1/2-y,-z
1/2+x,1/2-y,z
loop_
_atom_site_type_symbol
_atom_site_label
_atom_site_fract_x
_atom_site_fract_y
_atom_site_fract_z
Si Si1 0.898750 0.591381 0.207556
Si Si2 0.847853 0.734477 0.647059
Si Si3 0.742990 0.156666 0.005486
Si Si4 0.535469 0.916684 0.537379
Si Si5 0.080068 0.177103 0.595120
Si Si6 0.565136 0.194976 0.107694
O O1 0.899686 0.500000 0.220479
O O2 0.723108 0.623822 0.429405
O O3 0.972558 0.640989 0.175055
O O4 0.000000 0.604102 0.000000
O O5 0.834928 0.649018 0.631681
O O6 0.877883 0.787706 0.538600
O O7 0.000000 0.739251 0.500000
O O8 0.692532 0.755900 0.895196
O O9 0.916944 0.132168 0.796997
O O10 0.750000 0.250000 0.000000
O O11 0.617879 0.120267 0.224290
O O12 0.671129 0.143333 0.021621
O O13 0.500000 0.925389 0.500000
O O14 0.572615 0.000000 0.519387
O O15 0.041021 0.246583 0.703515
#
# Coordination Sequence:
#
# PCOD9176348 Si02
#       6
#     8   8   8   8   8   8
#     4  11  25  42  58  81 117 157 195 241 295 343
#     4  11  18  34  61  87 119 148 188 243 281 342
#     4  10  18  34  59  89 113 145 196 237 278 341
#     4  10  19  31  51  87 126 153 179 230 297 348
#     4  11  20  38  62  88 114 151 200 236 286 344
#     4  11  21  37  62  88 111 152 198 237 288 343
#
# _framework density 17.446812999999999
#
# number of rings (size 3 to 8) (size 9 to 14) (size 15 to 20)
#    0.000    1.333    6.667    3.500    0.000    1.333 
#    0.000    0.833    0.000    3.000    0.000    2.333 
#    0.000    0.000    0.000    0.000    0.000    0.000 
#
# Total GULP energy -133705.154860 kJ/mol
# GULP energy per Si atom -5571.048119 kJ/mol
# Density = 1.740710 g / cm^3
# Si number density = 17.446813 Si / 1000 Ang^3
#
#
#
# Elastic Constant Matrix: (Units=GPa)
#
#
# Indices 1 2 3 4 5 6 
#
# 1 96.7400 40.4637 57.4714 -0.0006 -11.8664 0.0005
# 2 40.4637 79.6724 53.4303 -0.0013 -5.4873 0.0007
# 3 57.4714 53.4303 122.2428 -0.0022 1.8334 0.0012
# 4 -0.0006 -0.0013 -0.0022 38.4028 0.0013 9.7479
# 5 -11.8664 -5.4873 1.8334 0.0013 36.2657 -0.0005
# 6 0.0005 0.0007 0.0012 9.7479 -0.0005 11.8532
#
#
#
# Elastic Compliance Matrix: (Units=1/GPa)
#
#
# Indices 1 2 3 4 5 6 
#
# 1 0.016096 -0.003828 -0.005969 -0.000001 0.004989 0.000001
# 2 -0.003828 0.019017 -0.006542 0.000000 0.001956 0.000000
# 3 -0.005969 -0.006542 0.013901 0.000001 -0.003646 -0.000002
# 4 -0.000001 0.000000 0.000001 0.032910 -0.000002 -0.027064
# 5 0.004989 0.001956 -0.003646 -0.000002 0.029687 0.000003
# 6 0.000001 0.000000 -0.000002 -0.027064 0.000003 0.106623
#
#
# Mechanical properties :
#
#
# Convention : Reuss Voigt Hill
#
# Bulk Modulus (GPa) = 61.21334 66.82067 64.01700
# Shear Modulus (GPa) = 19.50402 27.12365 23.31384
#
# Velocity S-wave (km/s) = 3.34715 3.94718 3.65948
# Velocity P-wave (km/s) = 7.07812 7.69132 7.39108
#
# Compressibility (1/GPa) = 0.01633631
#
# Stress axis : x y z
#
# Youngs Moduli (GPa) = 62.12557 52.58347 71.93877
#
# Poissons Ratio (x) = 0.20131 0.42941
# Poissons Ratio (y) = 0.23784 0.47060
# Poissons Ratio (z) = 0.37084 0.34398
#
# Static dielectric constant tensor:
#      x y z
#    x 1.630460 0.000000 0.030300 
#    y 0.000000 1.622890 0.000000 
#    z 0.030300 0.000000 1.658720 
# 
# From -- ./inp_files/293764.got.cif
#   From: 2010.05.17/outbox.cif.g08.bks.cpg/sg12_147_cif.got.tgz:293764.got - 2010.06.03 13:09:07.
