data_PCOD9176243
_publ_section_title
;
Structure prediction by ZEFSAII (Michael W. Deem and Ramdas Pophale) SiO2 
 PCOD9176243
Probable space group: C 2/M
;
_chemical_formula_sum "Si O2"
_cell_formula_units_Z 56
_cell_length_a 28.115476
_cell_length_b 12.140594
_cell_length_c 14.945719
_cell_angle_alpha 90.000000
_cell_angle_beta 40.213587
_cell_angle_gamma 90.000000
_cell_volume 3293.758908
_symmetry_space_group_name_H-M "C 2/M"
_symmetry_group_IT_number 12
_symmetry_cell_setting 'monoclinic'
loop_
_space_group_symop_operation_xyz
x,y,z
-x,y,-z
-x,-y,-z
x,-y,z
1/2+x,1/2+y,z
1/2-x,1/2+y,-z
1/2-x,1/2-y,-z
1/2+x,1/2-y,z
loop_
_atom_site_type_symbol
_atom_site_label
_atom_site_fract_x
_atom_site_fract_y
_atom_site_fract_z
Si Si1 0.060719 0.368243 0.050689
Si Si2 0.897165 0.367935 0.322021
Si Si3 0.688456 0.132748 0.732149
Si Si4 0.149222 0.784774 0.452338
Si Si5 0.677392 0.724665 0.206753
Si Si6 0.400295 0.500000 0.717204
Si Si7 0.559814 0.500000 0.551892
Si Si8 0.167621 0.369590 0.054552
O O1 0.056659 0.500000 0.040818
O O2 0.095658 0.349861 0.098233
O O3 0.976814 0.328906 0.170169
O O4 0.121073 0.328217 0.892449
O O5 0.901118 0.500000 0.328268
O O6 0.836151 0.345297 0.334014
O O7 0.878162 0.309139 0.441776
O O8 0.766505 0.184249 0.645401
O O9 0.695313 0.000000 0.734475
O O10 0.147294 0.757345 0.349472
O O11 0.097601 0.892054 0.538088
O O12 0.643804 0.613800 0.210296
O O13 0.661182 0.825274 0.164167
O O14 0.764265 0.697669 0.085586
O O15 0.471625 0.500000 0.677771
O O16 0.421201 0.500000 0.581620
O O17 0.183558 0.500000 0.027553
#
# Coordination Sequence:
#
# PCOD9176243 Si02
#       8
#     8   8   8   8   8   4   4   8
#     4   9  18  33  56  78 106 134 172 221 262 306
#     4  10  22  35  51  82 111 137 169 215 272 319
#     4  10  18  34  58  79 102 134 180 225 261 303
#     4  11  20  35  55  78 108 139 174 216 261 314
#     4  10  20  32  54  76 104 140 173 213 259 308
#     4   9  18  34  50  74 104 130 172 217 254 301
#     4   9  20  32  52  76 100 136 171 212 260 298
#     4  10  19  33  52  78 104 136 176 214 257 313
#
# _framework density 17.001852
#
# number of rings (size 3 to 8) (size 9 to 14) (size 15 to 20)
#    0.000    2.143    2.857    0.857    2.000    2.286 
#    0.000    0.000    0.000    2.571    1.857    1.000 
#    0.000    0.000    0.000    0.000    0.000    0.000 
#
# Total GULP energy -156061.523062 kJ/mol
# GULP energy per Si atom -5573.625824 kJ/mol
# Density = 1.696315 g / cm^3
# Si number density = 17.001852 Si / 1000 Ang^3
#
#
#
# Elastic Constant Matrix: (Units=GPa)
#
#
# Indices 1 2 3 4 5 6 
#
# 1 66.9550 25.4020 29.7662 0.0000 -3.3874 0.0000
# 2 25.4020 25.9020 8.7982 0.0000 9.4494 0.0000
# 3 29.7662 8.7982 58.4844 0.0000 -2.1212 0.0000
# 4 0.0000 0.0000 0.0000 19.3632 0.0000 4.5118
# 5 -3.3874 9.4494 -2.1212 0.0000 29.9405 0.0000
# 6 0.0000 0.0000 0.0000 4.5118 0.0000 15.0239
#
#
#
# Elastic Compliance Matrix: (Units=1/GPa)
#
#
# Indices 1 2 3 4 5 6 
#
# 1 0.033729 -0.034196 -0.011522 0.000000 0.013792 0.000000
# 2 -0.034196 0.081435 0.004092 0.000000 -0.029280 0.000000
# 3 -0.011522 0.004092 0.022311 0.000000 -0.001014 0.000000
# 4 0.000000 0.000000 0.000000 0.055530 0.000000 -0.016676
# 5 0.013792 -0.029280 -0.001014 0.000000 0.044129 0.000000
# 6 0.000000 0.000000 0.000000 -0.016676 0.000000 0.071569
#
#
# Mechanical properties :
#
#
# Convention : Reuss Voigt Hill
#
# Bulk Modulus (GPa) = 18.44283 31.03046 24.73664
# Shear Modulus (GPa) = 12.19424 18.69050 15.44237
#
# Velocity S-wave (km/s) = 2.68102 3.31920 3.01703
# Velocity P-wave (km/s) = 4.52271 5.74285 5.16891
#
# Compressibility (1/GPa) = 0.05422162
#
# Stress axis : x y z
#
# Youngs Moduli (GPa) = 29.64797 12.27975 44.82166
#
# Poissons Ratio (x) = 0.41992 0.51645
# Poissons Ratio (y) = 1.01384 -0.18339
# Poissons Ratio (z) = 0.34161 -0.05024
#
# Static dielectric constant tensor:
#      x y z
#    x 1.579600 0.000000 -0.006240 
#    y 0.000000 1.554900 0.000000 
#    z -0.006240 0.000000 1.590490 
# 
# From -- ./inp_files/245657.got.cif
#   From: 2010.05.17/outbox.cif.g08.bks.cpg/sg12_123_cif.got.tgz:245657.got - 2010.06.03 13:09:07.
