data_PCOD9176006
_publ_section_title
;
Structure prediction by ZEFSAII (Michael W. Deem and Ramdas Pophale) SiO2 
 PCOD9176006
Probable space group: C 2/M
;
_chemical_formula_sum "Si O2"
_cell_formula_units_Z 44
_cell_length_a 17.691024
_cell_length_b 26.550833
_cell_length_c 8.245877
_cell_angle_alpha 90.000000
_cell_angle_beta 41.315851
_cell_angle_gamma 90.000000
_cell_volume 2557.111894
_symmetry_space_group_name_H-M "C 2/M"
_symmetry_group_IT_number 12
_symmetry_cell_setting 'monoclinic'
loop_
_space_group_symop_operation_xyz
x,y,z
-x,y,-z
-x,-y,-z
x,-y,z
1/2+x,1/2+y,z
1/2-x,1/2+y,-z
1/2-x,1/2-y,-z
1/2+x,1/2-y,z
loop_
_atom_site_type_symbol
_atom_site_label
_atom_site_fract_x
_atom_site_fract_y
_atom_site_fract_z
Si Si1 0.000000 0.795974 0.000000
Si Si2 0.322384 0.443943 0.192446
Si Si3 0.566610 0.556614 0.629576
Si Si4 0.276507 0.341145 0.183081
Si Si5 0.660602 0.746850 0.498471
Si Si6 0.128676 0.844509 0.328315
O O1 0.892647 0.828081 0.102245
O O2 0.958726 0.762322 0.217388
O O3 0.276170 0.500000 0.238578
O O4 0.369126 0.441897 0.301022
O O5 0.240986 0.396738 0.296333
O O6 0.432998 0.437233 0.895232
O O7 0.581423 0.500000 0.537378
O O8 0.611030 0.601443 0.444247
O O9 0.184301 0.297451 0.361173
O O10 0.307748 0.344911 0.944456
O O11 0.750000 0.750000 0.500000
O O12 0.683144 0.696821 0.358342
O O13 0.000000 0.825938 0.500000
#
# Coordination Sequence:
#
# PCOD9176006 Si02
#       6
#     4   8   8   8   8   8
#     4  10  18  34  49  68  91 128 158 202 240 286
#     4   9  16  28  45  66  94 129 164 193 225 281
#     4   9  17  28  44  66  95 133 164 184 228 285
#     4  11  20  31  49  69  99 127 162 196 242 282
#     4  10  21  34  50  67  92 130 164 197 243 288
#     4  12  20  30  47  70 102 131 159 200 234 277
#
# _framework density 17.206911000000002
#
# number of rings (size 3 to 8) (size 9 to 14) (size 15 to 20)
#    0.000    1.818    3.636    4.909    0.000    1.091 
#    0.000    0.000    0.000    0.000    0.000    0.636 
#    0.000    2.182    0.000    1.455    0.000    0.182 
#
# Total GULP energy -122603.855366 kJ/mol
# GULP energy per Si atom -5572.902517 kJ/mol
# Density = 1.716775 g / cm^3
# Si number density = 17.206911 Si / 1000 Ang^3
#
#
#
# Elastic Constant Matrix: (Units=GPa)
#
#
# Indices 1 2 3 4 5 6 
#
# 1 47.4520 39.2595 11.9769 0.0000 20.3001 0.0000
# 2 39.2595 169.5231 46.9914 0.0000 20.3484 0.0000
# 3 11.9769 46.9914 51.5693 0.0000 25.6880 0.0000
# 4 0.0000 0.0000 0.0000 35.7705 0.0000 8.3334
# 5 20.3001 20.3484 25.6880 0.0000 24.1292 0.0000
# 6 0.0000 0.0000 0.0000 8.3334 0.0000 12.5783
#
#
#
# Elastic Compliance Matrix: (Units=1/GPa)
#
#
# Indices 1 2 3 4 5 6 
#
# 1 0.054656 -0.013988 0.036367 0.000000 -0.072903 0.000000
# 2 -0.013988 0.011524 -0.017614 0.000000 0.020802 0.000000
# 3 0.036367 -0.017614 0.074170 0.000000 -0.094703 0.000000
# 4 0.000000 0.000000 0.000000 0.033058 0.000000 -0.021902
# 5 -0.072903 0.020802 -0.094703 0.000000 0.186057 0.000000
# 6 0.000000 0.000000 0.000000 -0.021902 0.000000 0.094013
#
#
# Mechanical properties :
#
#
# Convention : Reuss Voigt Hill
#
# Bulk Modulus (GPa) = 6.67200 51.66668 29.16934
# Shear Modulus (GPa) = 10.12334 25.85004 17.98669
#
# Velocity S-wave (km/s) = 2.42818 3.88016 3.23665
# Velocity P-wave (km/s) = 3.42744 7.08280 5.56388
#
# Compressibility (1/GPa) = 0.14987999
#
# Stress axis : x y z
#
# Youngs Moduli (GPa) = 18.29631 86.77501 13.48251
#
# Poissons Ratio (x) = 1.21379 -0.49032
# Poissons Ratio (y) = 0.25592 0.23749
# Poissons Ratio (z) = -0.66539 1.52850
#
# Static dielectric constant tensor:
#      x y z
#    x 1.596400 0.000000 0.024630 
#    y 0.000000 1.648920 0.000000 
#    z 0.024630 0.000000 1.601880 
# 
# From -- ./inp_files/62714.got.cif
#   From: 2010.05.17/outbox.cif.g08.bks.cpg/sg12_32_cif.got.tgz:62714.got - 2010.06.03 13:09:07.
