data_PCOD9176618
_publ_section_title
;
Structure prediction by ZEFSAII (Michael W. Deem and Ramdas Pophale) SiO2 
 PCOD9176618
Probable space group: C 2/M
;
_chemical_formula_sum "Si O2"
_cell_formula_units_Z 42
_cell_length_a 14.933784
_cell_length_b 7.529879
_cell_length_c 18.090253
_cell_angle_alpha 90.000000
_cell_angle_beta 123.955805
_cell_angle_gamma 90.000000
_cell_volume 1687.339543
_symmetry_space_group_name_H-M "C 2/M"
_symmetry_group_IT_number 12
_symmetry_cell_setting 'monoclinic'
loop_
_space_group_symop_operation_xyz
x,y,z
-x,y,-z
-x,-y,-z
x,-y,z
1/2+x,1/2+y,z
1/2-x,1/2+y,-z
1/2-x,1/2-y,-z
1/2+x,1/2-y,z
loop_
_atom_site_type_symbol
_atom_site_label
_atom_site_fract_x
_atom_site_fract_y
_atom_site_fract_z
Si Si1 0.769283 0.716804 0.162667
Si Si2 0.505458 0.797573 0.776211
Si Si3 0.226953 0.799491 0.305519
Si Si4 0.355048 0.303847 0.498732
Si Si5 0.085723 0.213438 0.974209
Si Si6 0.000000 0.500000 0.500000
O O1 0.769130 0.500000 0.158034
O O2 0.892103 0.777105 0.219392
O O3 0.717633 0.763466 0.217098
O O4 0.699189 0.777322 0.060561
O O5 0.393615 0.697969 0.719079
O O6 0.547204 0.795634 0.880270
O O7 0.484910 0.000000 0.744002
O O8 0.303341 0.690262 0.392831
O O9 0.274007 0.000000 0.327304
O O10 0.392665 0.500000 0.538409
O O11 0.250000 0.250000 0.500000
O O12 0.447161 0.156197 0.531252
O O13 0.089056 0.000000 0.964266
O O14 0.000000 0.245967 0.000000
#
# Coordination Sequence:
#
# PCOD9176618 Si02
#       6
#     8   8   8   8   8   2
#     4   9  20  37  59  86 128 175 229 280 348 422
#     4  11  22  36  57  92 127 172 224 288 353 413
#     4  11  22  44  68  96 138 182 228 289 355 430
#     4  12  26  51  82 117 155 198 251 308 380 466
#     4  10  18  35  59  80 114 176 228 278 340 413
#     4  12  26  52  84 120 152 202 242 306 386 448
#
# _framework density 24.891257
#
# number of rings (size 3 to 8) (size 9 to 14) (size 15 to 20)
#    0.000    1.333    3.810    2.000    0.000    1.905 
#    3.429    6.667    0.000    0.000    0.000    0.000 
#    0.000    0.000    0.000    0.000    0.000    0.000 
#
# Total GULP energy -117254.734540 kJ/mol
# GULP energy per Si atom -5583.558788 kJ/mol
# Density = 2.483460 g / cm^3
# Si number density = 24.891257 Si / 1000 Ang^3
#
#
#
# Elastic Constant Matrix: (Units=GPa)
#
#
# Indices 1 2 3 4 5 6 
#
# 1 115.0823 40.4698 -15.8696 0.0000 3.3663 0.0000
# 2 40.4698 132.6776 -0.2477 0.0000 -5.2310 0.0000
# 3 -15.8696 -0.2477 62.5007 0.0000 1.8741 0.0000
# 4 0.0000 0.0000 0.0000 20.2985 0.0000 2.3631
# 5 3.3663 -5.2310 1.8741 0.0000 13.1430 0.0000
# 6 0.0000 0.0000 0.0000 2.3631 0.0000 22.7826
#
#
#
# Elastic Compliance Matrix: (Units=1/GPa)
#
#
# Indices 1 2 3 4 5 6 
#
# 1 0.010367 -0.003330 0.002750 0.000000 -0.004373 0.000000
# 2 -0.003330 0.008727 -0.000945 0.000000 0.004461 0.000000
# 3 0.002750 -0.000945 0.016799 0.000000 -0.003476 0.000000
# 4 0.000000 0.000000 0.000000 0.049867 0.000000 -0.005172
# 5 -0.004373 0.004461 -0.003476 0.000000 0.079477 0.000000
# 6 0.000000 0.000000 0.000000 -0.005172 0.000000 0.044430
#
#
# Mechanical properties :
#
#
# Convention : Reuss Voigt Hill
#
# Bulk Modulus (GPa) = 30.44584 39.88507 35.16546
# Shear Modulus (GPa) = 22.35510 30.30536 26.33023
#
# Velocity S-wave (km/s) = 3.00010 3.49307 3.25593
# Velocity P-wave (km/s) = 4.92533 5.68570 5.31912
#
# Compressibility (1/GPa) = 0.03284521
#
# Stress axis : x y z
#
# Youngs Moduli (GPa) = 96.45540 114.58977 59.52862
#
# Poissons Ratio (x) = 0.38154 -0.16372
# Poissons Ratio (y) = 0.32116 0.05623
# Poissons Ratio (z) = -0.26528 0.10824
#
# Static dielectric constant tensor:
#      x y z
#    x 1.982660 0.000000 0.027030 
#    y 0.000000 1.973380 0.000000 
#    z 0.027030 0.000000 2.023660 
# 
# From -- ./inp_files/267797.got.cif
#   From: 2010.05.17/outbox.cif.g08.bks.cpg/sg12_134_cif.got.tgz:267797.got - 2010.06.03 13:09:07.
