data_PCOD9176146
_publ_section_title
;
Structure prediction by ZEFSAII (Michael W. Deem and Ramdas Pophale) SiO2 
 PCOD9176146
Probable space group: C 2/M
;
_chemical_formula_sum "Si O2"
_cell_formula_units_Z 32
_cell_length_a 15.775698
_cell_length_b 20.364294
_cell_length_c 11.686748
_cell_angle_alpha 90.000000
_cell_angle_beta 155.750608
_cell_angle_gamma 90.000000
_cell_volume 1542.005877
_symmetry_space_group_name_H-M "C 2/M"
_symmetry_group_IT_number 12
_symmetry_cell_setting 'monoclinic'
loop_
_space_group_symop_operation_xyz
x,y,z
-x,y,-z
-x,-y,-z
x,-y,z
1/2+x,1/2+y,z
1/2-x,1/2+y,-z
1/2-x,1/2-y,-z
1/2+x,1/2-y,z
loop_
_atom_site_type_symbol
_atom_site_label
_atom_site_fract_x
_atom_site_fract_y
_atom_site_fract_z
Si Si1 0.204132 0.246251 0.106137
Si Si2 0.712619 0.395266 0.719867
Si Si3 0.353481 0.926250 0.648597
Si Si4 0.082773 0.700128 0.418030
O O1 0.271781 0.322121 0.207946
O O2 0.370440 0.207433 0.232297
O O3 0.235507 0.219471 0.272116
O O4 0.985339 0.252584 0.771906
O O5 0.500000 0.424524 0.500000
O O6 0.724648 0.397651 0.597439
O O7 0.914404 0.429940 0.016328
O O8 0.367642 0.871975 0.567696
O O9 0.284812 0.000000 0.533514
#
# Coordination Sequence:
#
# PCOD9176146 Si02
#       4
#     8   8   8   8
#     4   9  17  32  55  86 111 137 187 231 290 325
#     4  10  18  34  56  81 108 140 186 244 277 311
#     4  10  22  34  51  82 112 148 189 221 273 339
#     4   9  17  33  55  80 116 141 180 238 273 336
#
# _framework density 20.752191
#
# number of rings (size 3 to 8) (size 9 to 14) (size 15 to 20)
#    0.000    2.500    2.500    1.500    0.000    3.000 
#    0.000    2.500    0.000    0.000    0.000    1.750 
#    0.000    0.000    0.000    0.000    0.000    0.000 
#
# Total GULP energy -89180.521770 kJ/mol
# GULP energy per Si atom -5573.782611 kJ/mol
# Density = 2.070496 g / cm^3
# Si number density = 20.752191 Si / 1000 Ang^3
#
#
#
# Elastic Constant Matrix: (Units=GPa)
#
#
# Indices 1 2 3 4 5 6 
#
# 1 132.4476 57.6513 54.8727 0.0000 -7.9614 0.0000
# 2 57.6513 100.8534 11.3205 0.0000 -13.8331 0.0000
# 3 54.8727 11.3205 104.4106 0.0000 -14.5649 0.0000
# 4 0.0000 0.0000 0.0000 -1.1558 0.0000 -5.2669
# 5 -7.9614 -13.8331 -14.5649 0.0000 47.9176 0.0000
# 6 0.0000 0.0000 0.0000 -5.2669 0.0000 14.0042
#
#
#
# Elastic Compliance Matrix: (Units=1/GPa)
#
#
# Indices 1 2 3 4 5 6 
#
# 1 0.013166 -0.007054 -0.006405 0.000000 -0.001796 0.000000
# 2 -0.007054 0.014157 0.002693 0.000000 0.003734 0.000000
# 3 -0.006405 0.002693 0.013170 0.000000 0.003716 0.000000
# 4 0.000000 0.000000 0.000000 -0.318811 0.000000 -0.119904
# 5 -0.001796 0.003734 0.003716 0.000000 0.022778 0.000000
# 6 0.000000 0.000000 0.000000 -0.119904 0.000000 0.026312
#
#
# Mechanical properties :
#
#
# Convention : Reuss Voigt Hill
#
# Bulk Modulus (GPa) = 52.73731 65.04448 58.89090
# Shear Modulus (GPa) = -24.82928 26.41100 0.79086
#
# Velocity S-wave (km/s) = -3.46275 3.57134 0.61800
# Velocity P-wave (km/s) = 3.07905 6.95826 5.38043
#
# Compressibility (1/GPa) = 0.01896191
#
# Stress axis : x y z
#
# Youngs Moduli (GPa) = 75.95279 70.63516 75.92886
#
# Poissons Ratio (x) = 0.49823 0.48633
# Poissons Ratio (y) = 0.53573 -0.20446
# Poissons Ratio (z) = 0.48649 -0.19021
#
# Static dielectric constant tensor:
#      x y z
#    x 1.819580 0.000000 0.014540 
#    y 0.000000 1.735370 0.000000 
#    z 0.014540 0.000000 1.788100 
# 
# From -- ./inp_files/147347.got.cif
#   From: 2010.05.17/outbox.cif.g08.bks.cpg/sg12_74_cif.got.tgz:147347.got - 2010.06.03 13:09:07.
