data_PCOD9176490
_publ_section_title
;
Structure prediction by ZEFSAII (Michael W. Deem and Ramdas Pophale) SiO2 
 PCOD9176490
Probable space group: C 2/M
;
_chemical_formula_sum "Si O2"
_cell_formula_units_Z 56
_cell_length_a 11.741104
_cell_length_b 27.534119
_cell_length_c 14.435760
_cell_angle_alpha 90.000000
_cell_angle_beta 42.379822
_cell_angle_gamma 90.000000
_cell_volume 3145.624752
_symmetry_space_group_name_H-M "C 2/M"
_symmetry_group_IT_number 12
_symmetry_cell_setting 'monoclinic'
loop_
_space_group_symop_operation_xyz
x,y,z
-x,y,-z
-x,-y,-z
x,-y,z
1/2+x,1/2+y,z
1/2-x,1/2+y,-z
1/2-x,1/2-y,-z
1/2+x,1/2-y,z
loop_
_atom_site_type_symbol
_atom_site_label
_atom_site_fract_x
_atom_site_fract_y
_atom_site_fract_z
Si Si1 0.785072 0.787641 0.854818
Si Si2 0.200004 0.152811 0.981101
Si Si3 0.789761 0.445774 0.021162
Si Si4 0.324033 0.304599 0.182953
Si Si5 0.803165 0.554204 0.231176
Si Si6 0.837141 0.252297 0.348491
Si Si7 0.813688 0.843679 0.651674
O O1 0.720733 0.811781 0.988259
O O2 0.672967 0.745285 0.878409
O O3 0.804367 0.828820 0.765248
O O4 0.968756 0.763669 0.759547
O O5 0.213902 0.098413 0.009203
O O6 0.004073 0.170203 0.094596
O O7 0.268197 0.160418 0.835774
O O8 0.737050 0.500000 0.022991
O O9 0.752363 0.441455 0.153318
O O10 0.993138 0.442907 0.889759
O O11 0.255772 0.285349 0.322279
O O12 0.754010 0.500000 0.292855
O O13 0.731475 0.599894 0.329359
O O14 0.750000 0.250000 0.500000
O O15 0.810617 0.306322 0.325072
O O16 0.000000 0.834182 0.500000
#
# Coordination Sequence:
#
# PCOD9176490 Si02
#       7
#     8   8   8   8   8   8   8
#     4  10  19  34  49  71 107 141 170 206 253 306
#     4  10  18  35  50  74 105 133 169 211 261 311
#     4   9  18  34  57  76 101 135 168 213 271 319
#     4   9  21  31  47  74 104 133 172 208 247 303
#     4   9  19  35  52  80 104 127 172 217 263 322
#     4  10  20  34  50  70 104 144 176 209 244 303
#     4  11  20  32  52  78 101 137 178 208 258 307
#
# _framework density 17.802505
#
# number of rings (size 3 to 8) (size 9 to 14) (size 15 to 20)
#    0.000    2.286    2.857    1.286    2.000    0.286 
#    5.143    1.429    0.000    0.000    0.000    1.000 
#    0.000    2.286    0.000    0.000    0.000    0.000 
#
# Total GULP energy -156019.061098 kJ/mol
# GULP energy per Si atom -5572.109325 kJ/mol
# Density = 1.776199 g / cm^3
# Si number density = 17.802505 Si / 1000 Ang^3
#
#
#
# Elastic Constant Matrix: (Units=GPa)
#
#
# Indices 1 2 3 4 5 6 
#
# 1 77.0652 55.4979 31.2525 0.0000 22.1695 0.0000
# 2 55.4979 152.2950 25.3966 0.0000 7.7155 0.0000
# 3 31.2525 25.3966 49.8338 0.0000 16.6861 0.0000
# 4 0.0000 0.0000 0.0000 22.8417 0.0000 0.0679
# 5 22.1695 7.7155 16.6861 0.0000 28.4554 0.0000
# 6 0.0000 0.0000 0.0000 0.0679 0.0000 31.4973
#
#
#
# Elastic Compliance Matrix: (Units=1/GPa)
#
#
# Indices 1 2 3 4 5 6 
#
# 1 0.024997 -0.007172 -0.007655 0.000000 -0.013042 0.000000
# 2 -0.007172 0.009235 -0.001544 0.000000 0.003989 0.000000
# 3 -0.007655 -0.001544 0.029263 0.000000 -0.010777 0.000000
# 4 0.000000 0.000000 0.000000 0.043780 0.000000 -0.000094
# 5 -0.013042 0.003989 -0.010777 0.000000 0.050542 0.000000
# 6 0.000000 0.000000 0.000000 -0.000094 0.000000 0.031749
#
#
# Mechanical properties :
#
#
# Convention : Reuss Voigt Hill
#
# Bulk Modulus (GPa) = 32.51722 55.94311 44.23017
# Shear Modulus (GPa) = 21.50004 27.69534 24.59769
#
# Velocity S-wave (km/s) = 3.47896 3.94851 3.72115
# Velocity P-wave (km/s) = 5.86880 7.23050 6.58494
#
# Compressibility (1/GPa) = 0.03075294
#
# Stress axis : x y z
#
# Youngs Moduli (GPa) = 40.00532 108.28171 34.17306
#
# Poissons Ratio (x) = 0.77658 0.26158
# Poissons Ratio (y) = 0.28691 0.05278
# Poissons Ratio (z) = 0.30622 0.16724
#
# Static dielectric constant tensor:
#      x y z
#    x 1.653490 0.000000 0.016180 
#    y 0.000000 1.619410 0.000000 
#    z 0.016180 0.000000 1.624400 
# 
# From -- ./inp_files/178254.got.cif
#   From: 2010.05.17/outbox.cif.g08.bks.cpg/sg12_90_cif.got.tgz:178254.got - 2010.06.03 13:09:07.
