data_PCOD9176073
_publ_section_title
;
Structure prediction by ZEFSAII (Michael W. Deem and Ramdas Pophale) SiO2 
 PCOD9176073
Probable space group: C 2/M
;
_chemical_formula_sum "Si O2"
_cell_formula_units_Z 52
_cell_length_a 26.242569
_cell_length_b 10.067747
_cell_length_c 22.368331
_cell_angle_alpha 90.000000
_cell_angle_beta 24.893344
_cell_angle_gamma 90.000000
_cell_volume 2487.611496
_symmetry_space_group_name_H-M "C 2/M"
_symmetry_group_IT_number 12
_symmetry_cell_setting 'monoclinic'
loop_
_space_group_symop_operation_xyz
x,y,z
-x,y,-z
-x,-y,-z
x,-y,z
1/2+x,1/2+y,z
1/2-x,1/2+y,-z
1/2-x,1/2-y,-z
1/2+x,1/2-y,z
loop_
_atom_site_type_symbol
_atom_site_label
_atom_site_fract_x
_atom_site_fract_y
_atom_site_fract_z
Si Si1 0.000000 0.710227 0.000000
Si Si2 0.047787 0.846503 0.719359
Si Si3 0.250904 0.849800 0.205578
Si Si4 0.477343 0.847682 0.694404
Si Si5 0.713554 0.649870 0.940293
Si Si6 0.864568 0.846150 0.251148
Si Si7 0.625661 0.152659 0.426271
O O1 0.123856 0.641808 0.889534
O O2 0.041740 0.790773 0.897002
O O3 0.046100 0.753989 0.663545
O O4 0.125858 0.790496 0.692094
O O5 0.079850 0.000000 0.671062
O O6 0.910625 0.844290 0.891160
O O7 0.280652 0.764918 0.115007
O O8 0.156759 0.761927 0.344161
O O9 0.209672 0.000000 0.237036
O O10 0.332875 0.836464 0.854036
O O11 0.508141 0.824756 0.591808
O O12 0.513293 0.000000 0.669407
O O13 0.720399 0.500000 0.905754
O O14 0.734579 0.838028 0.358689
O O15 0.895960 0.000000 0.225817
O O16 0.625507 0.000000 0.403285
#
# Coordination Sequence:
#
# PCOD9176073 Si02
#       7
#     4   8   8   8   8   8   8
#     4  10  18  34  54  80 117 142 173 218 279 330
#     4  10  20  35  56  84 110 141 185 231 276 321
#     4  11  22  35  56  86 115 140 177 227 282 328
#     4  10  22  39  57  78 109 150 191 227 265 319
#     4  10  21  38  58  81 110 146 187 225 270 327
#     4   9  17  31  56  84 109 142 183 223 268 326
#     4   9  20  38  57  79 110 150 188 220 266 329
#
# _framework density 20.903586000000001
#
# number of rings (size 3 to 8) (size 9 to 14) (size 15 to 20)
#    0.000    2.154    1.538    1.385    0.000    4.308 
#    0.000    3.846    0.000    0.000    0.000    0.000 
#    0.000    0.000    0.000    0.000    0.000    0.000 
#
# Total GULP energy -145089.495319 kJ/mol
# GULP energy per Si atom -5580.365205 kJ/mol
# Density = 2.085601 g / cm^3
# Si number density = 20.903586 Si / 1000 Ang^3
#
#
#
# Elastic Constant Matrix: (Units=GPa)
#
#
# Indices 1 2 3 4 5 6 
#
# 1 78.0388 52.9373 -1.7002 0.0000 1.1430 0.0001
# 2 52.9373 120.2867 10.5472 0.0002 22.4355 -0.0003
# 3 -1.7002 10.5472 42.5420 0.0000 0.8029 0.0004
# 4 0.0000 0.0002 0.0000 21.5034 0.0000 11.8449
# 5 1.1430 22.4355 0.8029 0.0000 28.5212 -0.0001
# 6 0.0001 -0.0003 0.0004 11.8449 -0.0001 27.0618
#
#
#
# Elastic Compliance Matrix: (Units=1/GPa)
#
#
# Indices 1 2 3 4 5 6 
#
# 1 0.019798 -0.010349 0.003220 0.000000 0.007256 0.000000
# 2 -0.010349 0.015377 -0.004008 0.000000 -0.011568 0.000000
# 3 0.003220 -0.004008 0.024584 0.000000 0.002331 -0.000001
# 4 0.000000 0.000000 0.000000 0.061279 0.000000 -0.026822
# 5 0.007256 -0.011568 0.002331 0.000000 0.043805 0.000000
# 6 0.000000 0.000000 -0.000001 -0.026822 0.000000 0.048692
#
#
# Mechanical properties :
#
#
# Convention : Reuss Voigt Hill
#
# Bulk Modulus (GPa) = 26.67610 40.49288 33.58449
# Shear Modulus (GPa) = 20.13665 27.35618 23.74642
#
# Velocity S-wave (km/s) = 3.10709 3.62150 3.37411
# Velocity P-wave (km/s) = 5.06569 6.07456 5.59292
#
# Compressibility (1/GPa) = 0.03748673
#
# Stress axis : x y z
#
# Youngs Moduli (GPa) = 50.51009 65.03239 40.67617
#
# Poissons Ratio (x) = 0.67300 -0.13098
# Poissons Ratio (y) = 0.52272 0.16301
# Poissons Ratio (z) = -0.16264 0.26062
#
# Static dielectric constant tensor:
#      x y z
#    x 1.775630 0.000000 -0.035380 
#    y 0.000000 1.727810 0.000000 
#    z -0.035380 0.000000 1.765650 
# 
# From -- ./inp_files/351229.got.cif
#   From: 2010.05.17/outbox.cif.g08.bks.cpg/sg12_176_cif.got.tgz:351229.got - 2010.06.03 13:09:07.
