data_PCOD9176542
_publ_section_title
;
Structure prediction by ZEFSAII (Michael W. Deem and Ramdas Pophale) SiO2 
 PCOD9176542
Probable space group: C 2/M
;
_chemical_formula_sum "Si O2"
_cell_formula_units_Z 64
_cell_length_a 26.068510
_cell_length_b 14.678504
_cell_length_c 8.437513
_cell_angle_alpha 90.000000
_cell_angle_beta 105.064517
_cell_angle_gamma 90.000000
_cell_volume 3117.632406
_symmetry_space_group_name_H-M "C 2/M"
_symmetry_group_IT_number 12
_symmetry_cell_setting 'monoclinic'
loop_
_space_group_symop_operation_xyz
x,y,z
-x,y,-z
-x,-y,-z
x,-y,z
1/2+x,1/2+y,z
1/2-x,1/2+y,-z
1/2-x,1/2-y,-z
1/2+x,1/2-y,z
loop_
_atom_site_type_symbol
_atom_site_label
_atom_site_fract_x
_atom_site_fract_y
_atom_site_fract_z
Si Si1 0.947737 0.711945 0.025221
Si Si2 0.652182 0.208569 0.537813
Si Si3 0.787413 0.362245 0.937278
Si Si4 0.878575 0.401037 0.779904
Si Si5 0.945028 0.608725 0.356050
Si Si6 0.751342 0.599137 0.259877
Si Si7 0.343164 0.672379 0.972257
Si Si8 0.824375 0.103144 0.297768
O O1 0.951343 0.665732 0.199459
O O2 0.934649 0.630186 0.892315
O O3 0.899218 0.782621 0.981617
O O4 0.000000 0.757866 0.000000
O O5 0.641955 0.177791 0.351089
O O6 0.606372 0.154108 0.598919
O O7 0.710797 0.171660 0.627582
O O8 0.651556 0.315152 0.579128
O O9 0.839310 0.403643 0.898034
O O10 0.803902 0.257603 0.977817
O O11 0.738545 0.378313 0.779203
O O12 0.771733 0.402393 0.093843
O O13 0.880162 0.500000 0.702430
O O14 0.935937 0.500000 0.323382
O O15 0.000000 0.617729 0.500000
O O16 0.759191 0.500000 0.340037
O O17 0.689085 0.621906 0.192263
O O18 0.346477 0.614325 0.135678
O O19 0.832429 0.000000 0.360711
#
# Coordination Sequence:
#
# PCOD9176542 Si02
#       8
#     8   8   8   8   8   8   8   8
#     4  11  23  40  62  88 122 165 203 248 306 371
#     4  12  22  38  58  93 127 164 208 248 303 353
#     4  10  18  35  55  84 122 160 201 239 296 364
#     4  11  23  36  56  89 132 168 198 240 300 375
#     4  11  23  40  65  95 127 160 199 247 299 369
#     4  11  19  33  61  89 125 162 203 252 297 364
#     4  10  18  36  58  87 118 156 207 250 308 359
#     4  11  20  36  62  86 117 160 210 253 300 358
#
# _framework density 20.528397999999999
#
# number of rings (size 3 to 8) (size 9 to 14) (size 15 to 20)
#    0.000    1.125    3.750    6.000    0.000    2.500 
#    0.000    0.000    0.000    4.875    0.000    0.000 
#    0.000    0.000    0.000    0.000    0.000    0.000 
#
# Total GULP energy -178756.141017 kJ/mol
# GULP energy per Si atom -5586.129407 kJ/mol
# Density = 2.048167 g / cm^3
# Si number density = 20.528398 Si / 1000 Ang^3
#
#
#
# Elastic Constant Matrix: (Units=GPa)
#
#
# Indices 1 2 3 4 5 6 
#
# 1 107.5153 19.4066 10.1932 0.0000 10.2584 0.0000
# 2 19.4066 129.9724 22.1633 0.0000 9.9507 0.0000
# 3 10.1932 22.1633 76.0950 0.0000 13.7472 0.0000
# 4 0.0000 0.0000 0.0000 17.4468 0.0000 3.4033
# 5 10.2584 9.9507 13.7472 0.0000 18.8744 0.0000
# 6 0.0000 0.0000 0.0000 3.4033 0.0000 8.6679
#
#
#
# Elastic Compliance Matrix: (Units=1/GPa)
#
#
# Indices 1 2 3 4 5 6 
#
# 1 0.009965 -0.001099 -0.000162 0.000000 -0.004718 0.000000
# 2 -0.001099 0.008361 -0.001842 0.000000 -0.002469 0.000000
# 3 -0.000162 -0.001842 0.015555 0.000000 -0.010270 0.000000
# 4 0.000000 0.000000 0.000000 0.062071 0.000000 -0.024371
# 5 -0.004718 -0.002469 -0.010270 0.000000 0.064328 0.000000
# 6 0.000000 0.000000 0.000000 -0.024371 0.000000 0.124937
#
#
# Mechanical properties :
#
#
# Convention : Reuss Voigt Hill
#
# Bulk Modulus (GPa) = 36.13415 46.34545 41.23980
# Shear Modulus (GPa) = 16.63069 26.45246 21.54158
#
# Velocity S-wave (km/s) = 2.84937 3.59357 3.24289
# Velocity P-wave (km/s) = 5.33530 6.31218 5.84419
#
# Compressibility (1/GPa) = 0.02767465
#
# Stress axis : x y z
#
# Youngs Moduli (GPa) = 100.35162 119.60042 64.28762
#
# Poissons Ratio (x) = 0.13144 0.01044
# Poissons Ratio (y) = 0.11028 0.11842
# Poissons Ratio (z) = 0.01629 0.22030
#
# Static dielectric constant tensor:
#      x y z
#    x 1.747690 0.000000 -0.013110 
#    y 0.000000 1.784650 0.000000 
#    z -0.013110 0.000000 1.758710 
# 
# From -- ./inp_files/104652.got.cif
#   From: 2010.05.17/outbox.cif.g08.bks.cpg/sg12_53_cif.got.tgz:104652.got - 2010.06.03 13:09:07.
