data_PCOD9176221
_publ_section_title
;
Structure prediction by ZEFSAII (Michael W. Deem and Ramdas Pophale) SiO2 
 PCOD9176221
Probable space group: C 2/M
;
_chemical_formula_sum "Si O2"
_cell_formula_units_Z 48
_cell_length_a 21.742004
_cell_length_b 16.197420
_cell_length_c 19.430177
_cell_angle_alpha 90.000000
_cell_angle_beta 19.421575
_cell_angle_gamma 90.000000
_cell_volume 2275.281257
_symmetry_space_group_name_H-M "C 2/M"
_symmetry_group_IT_number 12
_symmetry_cell_setting 'monoclinic'
loop_
_space_group_symop_operation_xyz
x,y,z
-x,y,-z
-x,-y,-z
x,-y,z
1/2+x,1/2+y,z
1/2-x,1/2+y,-z
1/2-x,1/2-y,-z
1/2+x,1/2-y,z
loop_
_atom_site_type_symbol
_atom_site_label
_atom_site_fract_x
_atom_site_fract_y
_atom_site_fract_z
Si Si1 0.303864 0.088479 0.442925
Si Si2 0.693583 0.093089 0.954264
Si Si3 0.292355 0.594426 0.185405
Si Si4 0.022578 0.805017 0.262874
Si Si5 0.912650 0.764383 0.962148
Si Si6 0.176918 0.323556 0.440131
O O1 0.177218 0.159143 0.546014
O O2 0.314918 0.103934 0.512190
O O3 0.216242 0.000000 0.521457
O O4 0.503823 0.090050 0.197799
O O5 0.855833 0.121898 0.833976
O O6 0.724477 0.000000 0.893678
O O7 0.662986 0.173552 0.937881
O O8 0.241793 0.500000 0.221579
O O9 0.165759 0.636153 0.377452
O O10 0.500000 0.591286 0.000000
O O11 0.309073 0.657630 0.104639
O O12 0.982230 0.736520 0.363392
O O13 0.096609 0.771177 0.111567
O O14 0.125498 0.775965 0.761939
#
# Coordination Sequence:
#
# PCOD9176221 Si02
#       6
#     8   8   8   8   8   8
#     4  10  19  33  55  85 117 145 189 241 284 342
#     4  11  22  35  56  85 114 151 193 242 291 331
#     4   9  19  34  59  90 120 154 190 230 290 356
#     4  11  20  35  57  84 114 154 192 240 287 338
#     4  10  19  36  57  84 119 155 191 236 288 341
#     4  10  18  34  57  85 116 152 192 232 294 341
#
# _framework density 21.096292999999999
#
# number of rings (size 3 to 8) (size 9 to 14) (size 15 to 20)
#    0.000    1.833    3.333    2.500    0.000    4.667 
#    0.000    0.833    0.000    8.500    0.000    0.000 
#    0.000    0.000    0.000    0.000    0.000    0.000 
#
# Total GULP energy -133965.490100 kJ/mol
# GULP energy per Si atom -5581.895421 kJ/mol
# Density = 2.104828 g / cm^3
# Si number density = 21.096293 Si / 1000 Ang^3
#
#
#
# Elastic Constant Matrix: (Units=GPa)
#
#
# Indices 1 2 3 4 5 6 
#
# 1 53.0181 47.3730 25.9802 -0.0132 4.5099 0.0047
# 2 47.3730 198.2494 41.8764 -0.0094 17.6129 0.0063
# 3 25.9802 41.8764 68.6789 -0.0333 7.7083 0.0156
# 4 -0.0132 -0.0094 -0.0333 30.4162 0.0090 -0.9499
# 5 4.5099 17.6129 7.7083 0.0090 28.9617 -0.0014
# 6 0.0047 0.0063 0.0156 -0.9499 -0.0014 32.6008
#
#
#
# Elastic Compliance Matrix: (Units=1/GPa)
#
#
# Indices 1 2 3 4 5 6 
#
# 1 0.026729 -0.004936 -0.007186 0.000002 0.000752 0.000001
# 2 -0.004936 0.006907 -0.002020 -0.000001 -0.002895 0.000000
# 3 -0.007186 -0.002020 0.018809 0.000017 -0.002659 -0.000007
# 4 0.000002 -0.000001 0.000017 0.032907 -0.000014 0.000959
# 5 0.000752 -0.002895 -0.002659 -0.000014 0.036879 0.000003
# 6 0.000001 0.000000 -0.000007 0.000959 0.000003 0.030702
#
#
# Mechanical properties :
#
#
# Convention : Reuss Voigt Hill
#
# Bulk Modulus (GPa) = 41.38715 61.15619 51.27167
# Shear Modulus (GPa) = 26.41711 32.04353 29.23032
#
# Velocity S-wave (km/s) = 3.54251 3.90156 3.72636
# Velocity P-wave (km/s) = 6.03268 7.02483 6.54757
#
# Compressibility (1/GPa) = 0.02416209
#
# Stress axis : x y z
#
# Youngs Moduli (GPa) = 37.41214 144.77192 53.16676
#
# Poissons Ratio (x) = 0.71460 0.38206
# Poissons Ratio (y) = 0.18467 0.10738
# Poissons Ratio (z) = 0.26884 0.29239
#
# Static dielectric constant tensor:
#      x y z
#    x 1.751270 -0.000010 -0.026340 
#    y -0.000010 1.797720 0.000020 
#    z -0.026340 0.000020 1.789220 
# 
# From -- ./inp_files/325613.got.cif
#   From: 2010.05.17/outbox.cif.g08.bks.cpg/sg12_163_cif.got.tgz:325613.got - 2010.06.03 13:09:07.
