data_PCOD9176464
_publ_section_title
;
Structure prediction by ZEFSAII (Michael W. Deem and Ramdas Pophale) SiO2 
 PCOD9176464
Probable space group: C 2/M
;
_chemical_formula_sum "Si O2"
_cell_formula_units_Z 64
_cell_length_a 15.452344
_cell_length_b 28.946742
_cell_length_c 8.736510
_cell_angle_alpha 90.000000
_cell_angle_beta 47.359529
_cell_angle_gamma 90.000000
_cell_volume 2874.649177
_symmetry_space_group_name_H-M "C 2/M"
_symmetry_group_IT_number 12
_symmetry_cell_setting 'monoclinic'
loop_
_space_group_symop_operation_xyz
x,y,z
-x,y,-z
-x,-y,-z
x,-y,z
1/2+x,1/2+y,z
1/2-x,1/2+y,-z
1/2-x,1/2-y,-z
1/2+x,1/2-y,z
loop_
_atom_site_type_symbol
_atom_site_label
_atom_site_fract_x
_atom_site_fract_y
_atom_site_fract_z
Si Si1 0.359367 0.050011 0.660458
Si Si2 0.829798 0.700127 0.559417
Si Si3 0.179187 0.357949 0.133562
Si Si4 0.710383 0.050702 0.609508
Si Si5 0.548910 0.868388 0.797337
Si Si6 0.432430 0.723420 0.231227
Si Si7 0.935069 0.144818 0.739472
Si Si8 0.982372 0.945774 0.205103
O O1 0.500000 0.055178 0.500000
O O2 0.297500 0.094650 0.802291
O O3 0.329734 0.047857 0.518292
O O4 0.326822 0.000000 0.769382
O O5 0.846654 0.682528 0.712281
O O6 0.856640 0.656911 0.418643
O O7 0.696343 0.712813 0.681913
O O8 0.913235 0.740495 0.393373
O O9 0.064748 0.371621 0.174137
O O10 0.295597 0.344642 0.900245
O O11 0.619497 0.088024 0.783354
O O12 0.848315 0.061607 0.426514
O O13 0.697702 0.000000 0.697586
O O14 0.500000 0.840893 0.000000
O O15 0.500437 0.679020 0.217835
O O16 0.500000 0.740300 0.000000
O O17 0.000000 0.149479 0.500000
O O18 0.947067 0.092559 0.786606
O O19 0.011268 0.000000 0.197710
O O20 0.000000 0.938526 0.000000
#
# Coordination Sequence:
#
# PCOD9176464 Si02
#       8
#     8   8   8   8   8   8   8   8
#     4  10  18  34  62  98 134 174 227 278 328 395
#     4  11  24  46  77 100 133 170 229 284 339 412
#     4  12  24  44  69 102 136 185 225 283 342 402
#     4  10  20  37  63  93 131 175 230 286 335 397
#     4  12  26  41  66  98 140 180 224 279 347 406
#     4  11  24  49  76 105 134 177 222 281 347 406
#     4  12  28  44  67 102 146 183 226 279 345 415
#     4  10  22  42  71 100 132 183 240 288 339 403
#
# _framework density 22.263587000000001
#
# number of rings (size 3 to 8) (size 9 to 14) (size 15 to 20)
#    0.000    1.000    3.750    2.625    3.500    3.000 
#    0.000    1.250    0.000    0.000    0.000    0.000 
#    0.000    0.000    0.000    0.000    0.000    0.000 
#
# Total GULP energy -178682.044376 kJ/mol
# GULP energy per Si atom -5583.813887 kJ/mol
# Density = 2.221291 g / cm^3
# Si number density = 22.263587 Si / 1000 Ang^3
#
#
#
# Elastic Constant Matrix: (Units=GPa)
#
#
# Indices 1 2 3 4 5 6 
#
# 1 35.5405 30.3063 25.9628 0.0000 -11.7380 0.0000
# 2 30.3063 85.1235 51.4124 0.0000 -5.1918 0.0000
# 3 25.9628 51.4124 146.4147 0.0000 -13.1084 0.0000
# 4 0.0000 0.0000 0.0000 -121.8537 0.0000 1.7166
# 5 -11.7380 -5.1918 -13.1084 0.0000 36.4275 0.0000
# 6 0.0000 0.0000 0.0000 1.7166 0.0000 6.4798
#
#
#
# Elastic Compliance Matrix: (Units=1/GPa)
#
#
# Indices 1 2 3 4 5 6 
#
# 1 0.045816 -0.014369 -0.002005 0.000000 0.011994 0.000000
# 2 -0.014369 0.019419 -0.004585 0.000000 -0.003513 0.000000
# 3 -0.002005 -0.004585 0.008968 0.000000 0.001928 0.000000
# 4 0.000000 0.000000 0.000000 -0.008176 0.000000 0.002166
# 5 0.011994 -0.003513 0.001928 0.000000 0.031510 0.000000
# 6 0.000000 0.000000 0.000000 0.002166 0.000000 0.153753
#
#
# Mechanical properties :
#
#
# Convention : Reuss Voigt Hill
#
# Bulk Modulus (GPa) = 30.97523 53.60464 42.28993
# Shear Modulus (GPa) = 16.44907 -5.16283 5.64312
#
# Velocity S-wave (km/s) = 2.72110 -1.52446 1.59380
# Velocity P-wave (km/s) = 4.88013 4.58594 4.73532
#
# Compressibility (1/GPa) = 0.03228386
#
# Stress axis : x y z
#
# Youngs Moduli (GPa) = 21.82662 51.49705 111.50722
#
# Poissons Ratio (x) = 0.73998 0.22354
# Poissons Ratio (y) = 0.31363 0.51128
# Poissons Ratio (z) = 0.04376 0.23612
#
# Static dielectric constant tensor:
#      x y z
#    x 2.601010 0.000000 -0.458380 
#    y 0.000000 1.892220 0.000000 
#    z -0.458380 0.000000 2.060990 
# 
# From -- ./inp_files/80724.got.cif
#   From: 2010.05.17/outbox.cif.g08.bks.cpg/sg12_41_cif.got.tgz:80724.got - 2010.06.03 13:09:07.
