data_PCOD9176873
_publ_section_title
;
Structure prediction by ZEFSAII (Michael W. Deem and Ramdas Pophale) SiO2 
 PCOD9176873
Probable space group: C 2/M
;
_chemical_formula_sum "Si O2"
_cell_formula_units_Z 64
_cell_length_a 17.486832
_cell_length_b 15.015724
_cell_length_c 23.032294
_cell_angle_alpha 90.000000
_cell_angle_beta 31.590645
_cell_angle_gamma 90.000000
_cell_volume 3168.100374
_symmetry_space_group_name_H-M "C 2/M"
_symmetry_group_IT_number 12
_symmetry_cell_setting 'monoclinic'
loop_
_space_group_symop_operation_xyz
x,y,z
-x,y,-z
-x,-y,-z
x,-y,z
1/2+x,1/2+y,z
1/2-x,1/2+y,-z
1/2-x,1/2-y,-z
1/2+x,1/2-y,z
loop_
_atom_site_type_symbol
_atom_site_label
_atom_site_fract_x
_atom_site_fract_y
_atom_site_fract_z
Si Si1 0.981018 0.601721 0.194044
Si Si2 0.339417 0.334808 0.592551
Si Si3 0.586107 0.192838 0.551657
Si Si4 0.537645 0.401082 0.908221
Si Si5 0.144311 0.735008 0.013539
Si Si6 0.572393 0.753496 0.228564
Si Si7 0.810845 0.650253 0.670187
Si Si8 0.848109 0.100997 0.346222
O O1 0.029761 0.500000 0.164590
O O2 0.805075 0.607041 0.312204
O O3 0.041258 0.660156 0.208775
O O4 0.042840 0.652056 0.096821
O O5 0.500000 0.375246 0.500000
O O6 0.355723 0.277770 0.522551
O O7 0.311401 0.256439 0.658033
O O8 0.493039 0.224444 0.666366
O O9 0.477448 0.135585 0.580707
O O10 0.728792 0.133733 0.470691
O O11 0.501190 0.500000 0.909331
O O12 0.707666 0.382321 0.788208
O O13 0.500000 0.398142 0.000000
O O14 0.452826 0.322521 0.931301
O O15 0.256668 0.728978 0.887025
O O16 0.250000 0.750000 0.000000
O O17 0.479176 0.671281 0.262985
O O18 0.737227 0.609365 0.660163
O O19 0.894489 0.000000 0.325389
#
# Coordination Sequence:
#
# PCOD9176873 Si02
#       8
#     8   8   8   8   8   8   8   8
#     4  11  22  38  62  87 113 154 208 252 293 346
#     4   9  18  36  61  86 113 149 196 243 293 351
#     4  10  21  36  60  87 123 156 194 239 303 370
#     4  11  22  36  60  94 123 151 194 251 312 365
#     4  10  22  40  59  82 119 163 202 245 294 353
#     4  11  22  41  58  87 123 161 199 246 305 354
#     4  10  18  36  59  84 116 159 194 235 294 365
#     4  11  22  36  60  89 123 162 200 242 297 366
#
# _framework density 20.20138
#
# number of rings (size 3 to 8) (size 9 to 14) (size 15 to 20)
#    0.000    1.625    3.750    3.375    0.000    4.750 
#    0.000    0.000    0.000    1.125    0.000    0.000 
#    0.000    0.000    0.000    0.000    0.000    0.000 
#
# Total GULP energy -178531.238918 kJ/mol
# GULP energy per Si atom -5579.101216 kJ/mol
# Density = 2.015540 g / cm^3
# Si number density = 20.201380 Si / 1000 Ang^3
#
#
#
# Elastic Constant Matrix: (Units=GPa)
#
#
# Indices 1 2 3 4 5 6 
#
# 1 29.2653 29.1717 15.8463 0.0002 -1.0950 0.0001
# 2 29.1717 141.4892 51.2691 -0.0007 -6.0779 0.0002
# 3 15.8463 51.2691 141.4584 -0.0022 7.5760 0.0006
# 4 0.0002 -0.0007 -0.0022 8.1959 0.0004 8.6525
# 5 -1.0950 -6.0779 7.5760 0.0004 36.1034 -0.0001
# 6 0.0001 0.0002 0.0006 8.6525 -0.0001 9.5064
#
#
#
# Elastic Compliance Matrix: (Units=1/GPa)
#
#
# Indices 1 2 3 4 5 6 
#
# 1 0.043436 -0.008256 -0.001891 -0.000058 0.000324 0.000053
# 2 -0.008256 0.009853 -0.002752 0.000004 0.001986 -0.000003
# 3 -0.001891 -0.002752 0.008401 0.000069 -0.002284 -0.000063
# 4 -0.000058 0.000004 0.000069 3.118819 -0.000054 -2.838666
# 5 0.000324 0.001986 -0.002284 -0.000054 0.028522 0.000049
# 6 0.000053 -0.000003 -0.000063 -2.838666 0.000049 2.688870
#
#
# Mechanical properties :
#
#
# Convention : Reuss Voigt Hill
#
# Bulk Modulus (GPa) = 27.86252 56.08746 41.97499
# Shear Modulus (GPa) = 0.84237 25.15621 12.99929
#
# Velocity S-wave (km/s) = 0.64644 3.53267 2.53945
# Velocity P-wave (km/s) = 3.79203 6.66814 5.42419
#
# Compressibility (1/GPa) = 0.03589051
#
# Stress axis : x y z
#
# Youngs Moduli (GPa) = 23.02233 101.49616 119.03548
#
# Poissons Ratio (x) = 0.83800 0.22506
# Poissons Ratio (y) = 0.19008 0.32763
# Poissons Ratio (z) = 0.04353 0.27935
#
# Static dielectric constant tensor:
#      x y z
#    x 1.760040 0.000000 0.012010 
#    y 0.000000 1.706500 0.000000 
#    z 0.012010 0.000000 2.052480 
# 
# From -- ./inp_files/344017.got.cif
#   From: 2010.05.17/outbox.cif.g08.bks.cpg/sg12_173_cif.got.tgz:344017.got - 2010.06.03 13:09:07.
