data_PCOD9176082
_publ_section_title
;
Structure prediction by ZEFSAII (Michael W. Deem and Ramdas Pophale) SiO2 
 PCOD9176082
Probable space group: C 2/M
;
_chemical_formula_sum "Si O2"
_cell_formula_units_Z 40
_cell_length_a 13.973726
_cell_length_b 18.042011
_cell_length_c 7.061203
_cell_angle_alpha 90.000000
_cell_angle_beta 112.681879
_cell_angle_gamma 90.000000
_cell_volume 1642.546227
_symmetry_space_group_name_H-M "C 2/M"
_symmetry_group_IT_number 12
_symmetry_cell_setting 'monoclinic'
loop_
_space_group_symop_operation_xyz
x,y,z
-x,y,-z
-x,-y,-z
x,-y,z
1/2+x,1/2+y,z
1/2-x,1/2+y,-z
1/2-x,1/2-y,-z
1/2+x,1/2-y,z
loop_
_atom_site_type_symbol
_atom_site_label
_atom_site_fract_x
_atom_site_fract_y
_atom_site_fract_z
Si Si1 0.869326 0.911657 0.544583
Si Si2 0.709819 0.082521 0.905503
Si Si3 0.577182 0.355762 0.834433
Si Si4 0.460990 0.196465 0.269241
Si Si5 0.859038 0.584258 0.704506
O O1 0.891541 0.871922 0.361178
O O2 0.747557 0.899059 0.490444
O O3 0.959601 0.885204 0.754439
O O4 0.881010 0.000000 0.525799
O O5 0.635533 0.143644 0.763096
O O6 0.691945 0.000000 0.818475
O O7 0.830370 0.102813 0.988125
O O8 0.675570 0.083090 0.101763
O O9 0.574816 0.268232 0.873672
O O10 0.500000 0.226019 0.500000
O O11 0.551939 0.144880 0.255231
O O12 0.895532 0.500000 0.687812
#
# Coordination Sequence:
#
# PCOD9176082 Si02
#       5
#     8   8   8   8   8
#     4   9  16  33  60  83 107 142 191 238 268 316
#     4  10  21  39  62  81 106 149 199 235 262 322
#     4  10  18  34  54  86 114 138 181 233 287 325
#     4  12  23  35  53  87 123 148 172 227 297 341
#     4   9  20  37  59  83 107 148 198 232 264 323
#
# _framework density 24.352436999999998
#
# number of rings (size 3 to 8) (size 9 to 14) (size 15 to 20)
#    0.000    2.000    2.000    5.400    0.000    4.000 
#    0.000    0.000    0.000    0.000    0.000    4.200 
#    0.000    0.000    0.000    0.000    0.000    0.000 
#
# Total GULP energy -111920.899595 kJ/mol
# GULP energy per Si atom -5596.044980 kJ/mol
# Density = 2.429701 g / cm^3
# Si number density = 24.352437 Si / 1000 Ang^3
#
#
#
# Elastic Constant Matrix: (Units=GPa)
#
#
# Indices 1 2 3 4 5 6 
#
# 1 113.6876 52.7949 7.7488 0.0000 -4.1403 0.0000
# 2 52.7949 164.0754 6.1091 0.0000 17.5255 0.0000
# 3 7.7488 6.1091 48.1009 0.0000 15.9733 0.0000
# 4 0.0000 0.0000 0.0000 67.3712 0.0000 -49.7395
# 5 -4.1403 17.5255 15.9733 0.0000 41.1097 0.0000
# 6 0.0000 0.0000 0.0000 -49.7395 0.0000 259.2351
#
#
#
# Elastic Compliance Matrix: (Units=1/GPa)
#
#
# Indices 1 2 3 4 5 6 
#
# 1 0.010862 -0.003796 -0.002490 0.000000 0.003679 0.000000
# 2 -0.003796 0.007712 0.000977 0.000000 -0.004050 0.000000
# 3 -0.002490 0.000977 0.024442 0.000000 -0.010164 0.000000
# 4 0.000000 0.000000 0.000000 0.017293 0.000000 0.003318
# 5 0.003679 -0.004050 -0.010164 0.000000 0.030371 0.000000
# 6 0.000000 0.000000 0.000000 0.003318 0.000000 0.004494
#
#
# Mechanical properties :
#
#
# Convention : Reuss Voigt Hill
#
# Bulk Modulus (GPa) = 30.86461 51.01883 40.94172
# Shear Modulus (GPa) = 42.88475 90.82392 66.85433
#
# Velocity S-wave (km/s) = 4.20098 6.11364 5.24523
# Velocity P-wave (km/s) = 6.01936 8.41612 7.31655
#
# Compressibility (1/GPa) = 0.03239957
#
# Stress axis : x y z
#
# Youngs Moduli (GPa) = 92.06146 129.66416 40.91327
#
# Poissons Ratio (x) = 0.49214 0.10186
# Poissons Ratio (y) = 0.34942 -0.03996
# Poissons Ratio (z) = 0.22920 -0.12664
#
# Static dielectric constant tensor:
#      x y z
#    x 1.923370 0.000000 -0.054930 
#    y 0.000000 1.838470 0.000000 
#    z -0.054930 0.000000 2.015840 
# 
# From -- ./inp_files/61390.got.cif
#   From: 2010.05.17/outbox.cif.g08.bks.cpg/sg12_31_cif.got.tgz:61390.got - 2010.06.03 13:09:07.
