data_PCOD9176233
_publ_section_title
;
Structure prediction by ZEFSAII (Michael W. Deem and Ramdas Pophale) SiO2 
 PCOD9176233
Probable space group: C 2/M
;
_chemical_formula_sum "Si O2"
_cell_formula_units_Z 40
_cell_length_a 9.408751
_cell_length_b 21.527486
_cell_length_c 17.105071
_cell_angle_alpha 90.000000
_cell_angle_beta 31.342780
_cell_angle_gamma 90.000000
_cell_volume 1802.123615
_symmetry_space_group_name_H-M "C 2/M"
_symmetry_group_IT_number 12
_symmetry_cell_setting 'monoclinic'
loop_
_space_group_symop_operation_xyz
x,y,z
-x,y,-z
-x,-y,-z
x,-y,z
1/2+x,1/2+y,z
1/2-x,1/2+y,-z
1/2-x,1/2-y,-z
1/2+x,1/2-y,z
loop_
_atom_site_type_symbol
_atom_site_label
_atom_site_fract_x
_atom_site_fract_y
_atom_site_fract_z
Si Si1 0.798785 0.699703 0.338541
Si Si2 0.632618 0.740733 0.860364
Si Si3 0.190587 0.073748 0.160951
Si Si4 0.276448 0.071725 0.285259
Si Si5 0.394510 0.603842 0.963795
O O1 0.500000 0.725336 0.500000
O O2 0.870661 0.719583 0.216306
O O3 0.776180 0.624693 0.351068
O O4 0.052976 0.722634 0.270080
O O5 0.456680 0.677474 0.933962
O O6 0.500000 0.770862 0.000000
O O7 0.105238 0.093762 0.288748
O O8 0.010001 0.085819 0.168774
O O9 0.209795 0.000000 0.160114
O O10 0.500000 0.097064 0.000000
O O11 0.216782 0.000000 0.333989
O O12 0.590362 0.076424 0.109728
O O13 0.500000 0.582980 0.000000
#
# Coordination Sequence:
#
# PCOD9176233 Si02
#       5
#     8   8   8   8   8
#     4  12  26  45  66  96 133 174 214 268 330 390
#     4  11  24  43  66 100 126 170 220 268 328 378
#     4   8  16  29  51  85 122 164 204 252 315 369
#     4  10  21  38  61  92 130 173 213 260 324 392
#     4  10  18  34  57  93 128 156 217 264 320 363
#
# _framework density 22.196034999999998
#
# number of rings (size 3 to 8) (size 9 to 14) (size 15 to 20)
#    0.000    1.800    4.000    3.000    2.800    2.800 
#    0.000    0.000    0.000    0.000    0.000    2.800 
#    0.000    0.000    0.000    0.000    0.000    0.000 
#
# Total GULP energy -111343.833576 kJ/mol
# GULP energy per Si atom -5567.191679 kJ/mol
# Density = 2.214552 g / cm^3
# Si number density = 22.196035 Si / 1000 Ang^3
#
#
#
# Elastic Constant Matrix: (Units=GPa)
#
#
# Indices 1 2 3 4 5 6 
#
# 1 123.9190 19.7488 18.5728 -0.0004 3.9664 0.0046
# 2 19.7488 81.1411 0.9941 0.0029 -6.5185 0.0052
# 3 18.5728 0.9941 65.0803 -0.1062 -17.7353 -0.0249
# 4 -0.0004 0.0029 -0.1062 -14.6427 0.0308 -6.8742
# 5 3.9664 -6.5185 -17.7353 0.0308 21.7862 0.0041
# 6 0.0046 0.0052 -0.0249 -6.8742 0.0041 11.9157
#
#
#
# Elastic Compliance Matrix: (Units=1/GPa)
#
#
# Indices 1 2 3 4 5 6 
#
# 1 0.009327 -0.002697 -0.004245 0.000017 -0.005960 0.000001
# 2 -0.002697 0.013466 0.002308 0.000000 0.006399 -0.000002
# 3 -0.004245 0.002308 0.021770 -0.000107 0.019185 -0.000022
# 4 0.000017 0.000000 -0.000107 -0.053738 -0.000008 -0.031002
# 5 -0.005960 0.006399 0.019185 -0.000008 0.064518 0.000013
# 6 0.000001 -0.000002 -0.000022 -0.031002 0.000013 0.066037
#
#
# Mechanical properties :
#
#
# Convention : Reuss Voigt Hill
#
# Bulk Modulus (GPa) = 28.33256 38.75243 33.54249
# Shear Modulus (GPa) = 35.10921 19.20016 27.15469
#
# Velocity S-wave (km/s) = 3.98147 2.94432 3.50151
# Velocity P-wave (km/s) = 5.82482 5.39034 5.61179
#
# Compressibility (1/GPa) = 0.03529509
#
# Stress axis : x y z
#
# Youngs Moduli (GPa) = 107.22085 74.25923 45.93509
#
# Poissons Ratio (x) = 0.20026 0.19498
# Poissons Ratio (y) = 0.28915 -0.10600
# Poissons Ratio (z) = 0.45512 -0.17137
#
# Static dielectric constant tensor:
#      x y z
#    x 1.906520 0.000000 0.074840 
#    y 0.000000 1.844070 0.000010 
#    z 0.074840 0.000010 1.940430 
# 
# From -- ./inp_files/198196.got.cif
#   From: 2010.05.17/outbox.cif.g08.bks.cpg/sg12_100_cif.got.tgz:198196.got - 2010.06.03 13:09:07.
