data_PCOD9176976
_publ_section_title
;
Structure prediction by ZEFSAII (Michael W. Deem and Ramdas Pophale) SiO2 
 PCOD9176976
Probable space group: C 2/M
;
_chemical_formula_sum "Si O2"
_cell_formula_units_Z 56
_cell_length_a 21.874140
_cell_length_b 14.469001
_cell_length_c 21.461035
_cell_angle_alpha 90.000000
_cell_angle_beta 24.112305
_cell_angle_gamma 90.000000
_cell_volume 2774.855827
_symmetry_space_group_name_H-M "C 2/M"
_symmetry_group_IT_number 12
_symmetry_cell_setting 'monoclinic'
loop_
_space_group_symop_operation_xyz
x,y,z
-x,y,-z
-x,-y,-z
x,-y,z
1/2+x,1/2+y,z
1/2-x,1/2+y,-z
1/2-x,1/2-y,-z
1/2+x,1/2-y,z
loop_
_atom_site_type_symbol
_atom_site_label
_atom_site_fract_x
_atom_site_fract_y
_atom_site_fract_z
Si Si1 0.918510 0.602203 0.773378
Si Si2 0.770100 0.291242 0.066691
Si Si3 0.518599 0.397003 0.685036
Si Si4 0.844182 0.815475 0.560745
Si Si5 0.570130 0.853531 0.375381
Si Si6 0.414242 0.223290 0.295515
Si Si7 0.679205 0.220942 0.837836
O O1 0.870334 0.500000 0.840333
O O2 0.806500 0.691342 0.876926
O O3 0.945637 0.595920 0.674627
O O4 0.062520 0.637844 0.678055
O O5 0.655952 0.368452 0.148491
O O6 0.785536 0.313075 0.125421
O O7 0.931995 0.285276 0.886317
O O8 0.546044 0.500000 0.682092
O O9 0.574097 0.388155 0.561335
O O10 0.593557 0.316252 0.656417
O O11 0.715903 0.778616 0.633820
O O12 0.759218 0.833291 0.705803
O O13 0.971041 0.739812 0.457343
O O14 0.500000 0.900915 0.500000
O O15 0.737704 0.820860 0.237120
O O16 0.500000 0.225381 0.000000
#
# Coordination Sequence:
#
# PCOD9176976 Si02
#       7
#     8   8   8   8   8   8   8
#     4  10  20  35  59  85 118 153 192 238 289 348
#     4  10  21  40  61  89 115 155 201 245 298 349
#     4  11  23  39  60  88 122 160 199 244 295 351
#     4  11  20  37  61  86 121 154 194 248 292 355
#     4   9  19  35  59  86 114 149 194 234 299 352
#     4  11  22  37  61  88 122 157 196 241 295 351
#     4  10  18  36  65  87 108 157 201 244 299 350
#
# _framework density 20.181228999999998
#
# number of rings (size 3 to 8) (size 9 to 14) (size 15 to 20)
#    0.000    1.714    5.714    2.143    0.000    3.143 
#    0.000    1.429    0.000   11.143    0.000    0.000 
#    0.000    0.000    0.000    0.000    0.000    0.000 
#
# Total GULP energy -155883.653527 kJ/mol
# GULP energy per Si atom -5567.273340 kJ/mol
# Density = 2.013530 g / cm^3
# Si number density = 20.181229 Si / 1000 Ang^3
#
#
#
# Elastic Constant Matrix: (Units=GPa)
#
#
# Indices 1 2 3 4 5 6 
#
# 1 98.7031 10.6523 21.0800 -0.0014 5.7610 -0.0008
# 2 10.6523 80.8017 9.2636 -0.0019 3.4425 -0.0035
# 3 21.0800 9.2636 105.7437 -0.0024 6.3665 -0.0026
# 4 -0.0014 -0.0019 -0.0024 3.7989 0.0002 3.4905
# 5 5.7610 3.4425 6.3665 0.0002 48.0230 0.0008
# 6 -0.0008 -0.0035 -0.0026 3.4905 0.0008 -29.5079
#
#
#
# Elastic Compliance Matrix: (Units=1/GPa)
#
#
# Indices 1 2 3 4 5 6 
#
# 1 0.010734 -0.001148 -0.001982 0.000002 -0.000943 0.000000
# 2 -0.001148 0.012652 -0.000840 0.000006 -0.000658 -0.000001
# 3 -0.001982 -0.000840 0.009987 0.000005 -0.001026 0.000000
# 4 0.000002 0.000006 0.000005 0.237427 -0.000003 0.028085
# 5 -0.000943 -0.000658 -0.001026 -0.000003 0.021120 0.000000
# 6 0.000000 -0.000001 0.000000 0.028085 0.000000 -0.030567
#
#
# Mechanical properties :
#
#
# Convention : Reuss Voigt Hill
#
# Bulk Modulus (GPa) = 39.31962 40.80448 40.06205
# Shear Modulus (GPa) = 18.00050 20.74630 19.37340
#
# Velocity S-wave (km/s) = 2.98978 3.20972 3.10170
# Velocity P-wave (km/s) = 5.60749 5.83090 5.72028
#
# Compressibility (1/GPa) = 0.02543260
#
# Stress axis : x y z
#
# Youngs Moduli (GPa) = 93.16485 79.04138 100.12625
#
# Poissons Ratio (x) = 0.09071 0.19850
# Poissons Ratio (y) = 0.10692 0.08410
# Poissons Ratio (z) = 0.18470 0.06639
#
# Static dielectric constant tensor:
#      x y z
#    x 1.746530 0.000000 0.045510 
#    y 0.000000 1.688200 0.000000 
#    z 0.045510 0.000000 1.781010 
# 
# From -- ./inp_files/349721.got.cif
#   From: 2010.05.17/outbox.cif.g08.bks.cpg/sg12_175_cif.got.tgz:349721.got - 2010.06.03 13:09:07.
