data_PCOD9176903
_publ_section_title
;
Structure prediction by ZEFSAII (Michael W. Deem and Ramdas Pophale) SiO2 
 PCOD9176903
Probable space group: C 2/M
;
_chemical_formula_sum "Si O2"
_cell_formula_units_Z 44
_cell_length_a 13.683246
_cell_length_b 19.296765
_cell_length_c 12.070028
_cell_angle_alpha 90.000000
_cell_angle_beta 150.070471
_cell_angle_gamma 90.000000
_cell_volume 1590.103579
_symmetry_space_group_name_H-M "C 2/M"
_symmetry_group_IT_number 12
_symmetry_cell_setting 'monoclinic'
loop_
_space_group_symop_operation_xyz
x,y,z
-x,y,-z
-x,-y,-z
x,-y,z
1/2+x,1/2+y,z
1/2-x,1/2+y,-z
1/2-x,1/2-y,-z
1/2+x,1/2-y,z
loop_
_atom_site_type_symbol
_atom_site_label
_atom_site_fract_x
_atom_site_fract_y
_atom_site_fract_z
Si Si1 0.896315 0.644679 0.285805
Si Si2 0.936692 0.348389 0.777904
Si Si3 0.510660 0.298642 0.879852
Si Si4 0.594724 0.348177 0.709766
Si Si5 0.573431 0.000000 0.194754
Si Si6 0.342290 0.500000 0.941035
Si Si7 0.631325 0.500000 0.800337
O O1 0.052887 0.646114 0.343488
O O2 0.784422 0.570759 0.182974
O O3 0.000000 0.656948 0.500000
O O4 0.746823 0.705802 0.111345
O O5 0.880393 0.270454 0.755581
O O6 0.841694 0.422332 0.712661
O O7 0.164867 0.345972 0.045150
O O8 0.498041 0.328363 0.737720
O O9 0.500000 0.329183 0.000000
O O10 0.500000 0.321721 0.500000
O O11 0.577383 0.430999 0.688142
O O12 0.500000 0.000000 0.000000
O O13 0.366794 0.000000 0.059274
O O14 0.500000 0.500000 0.000000
O O15 0.466411 0.500000 0.175498
#
# Coordination Sequence:
#
# PCOD9176903 Si02
#       7
#     8   8   8   8   4   4   4
#     4  11  22  40  65  94 133 176 220 270 344 408
#     4  10  21  39  62  87 126 178 217 275 340 404
#     4  11  23  40  63  95 130 171 230 283 336 402
#     4  10  20  37  64  88 124 172 221 268 338 399
#     4  10  18  36  61  82 116 164 213 265 327 398
#     4  12  21  39  72  97 135 178 224 280 337 400
#     4  10  19  37  62  91 125 165 221 267 332 395
#
# _framework density 27.671154000000001
#
# number of rings (size 3 to 8) (size 9 to 14) (size 15 to 20)
#    0.000    1.455    5.455    3.818    0.000    2.909 
#    0.000    7.273    8.000    0.000    0.000    0.000 
#    0.000    0.000    0.000    0.000    0.000    0.000 
#
# Total GULP energy -122565.585421 kJ/mol
# GULP energy per Si atom -5571.162974 kJ/mol
# Density = 2.760817 g / cm^3
# Si number density = 27.671154 Si / 1000 Ang^3
#
#
#
# Elastic Constant Matrix: (Units=GPa)
#
#
# Indices 1 2 3 4 5 6 
#
# 1 115.3991 15.7147 37.3647 0.0000 -29.8394 0.0000
# 2 15.7147 197.3058 25.7285 0.0000 -10.1666 0.0000
# 3 37.3647 25.7285 140.2409 0.0000 -39.9998 0.0000
# 4 0.0000 0.0000 0.0000 19.1662 0.0000 -15.0705
# 5 -29.8394 -10.1666 -39.9998 0.0000 73.7597 0.0000
# 6 0.0000 0.0000 0.0000 -15.0705 0.0000 18.0913
#
#
#
# Elastic Compliance Matrix: (Units=1/GPa)
#
#
# Indices 1 2 3 4 5 6 
#
# 1 0.010080 -0.000418 -0.001730 0.000000 0.003082 0.000000
# 2 -0.000418 0.005213 -0.000814 0.000000 0.000108 0.000000
# 3 -0.001730 -0.000814 0.008883 0.000000 0.004005 0.000000
# 4 0.000000 0.000000 0.000000 0.151239 0.000000 0.125986
# 5 0.003082 0.000108 0.004005 0.000000 0.016991 0.000000
# 6 0.000000 0.000000 0.000000 0.125986 0.000000 0.160224
#
#
# Mechanical properties :
#
#
# Convention : Reuss Voigt Hill
#
# Bulk Modulus (GPa) = 54.79034 67.84017 61.31525
# Shear Modulus (GPa) = 13.71218 47.14596 30.42907
#
# Velocity S-wave (km/s) = 2.22849 4.13218 3.31972
# Velocity P-wave (km/s) = 5.14442 6.88014 6.07460
#
# Compressibility (1/GPa) = 0.01825139
#
# Stress axis : x y z
#
# Youngs Moduli (GPa) = 99.21093 191.81606 112.57159
#
# Poissons Ratio (x) = 0.08026 0.19471
# Poissons Ratio (y) = 0.04151 0.09166
# Poissons Ratio (z) = 0.17160 0.15618
#
# Static dielectric constant tensor:
#      x y z
#    x 2.377830 0.000000 0.086430 
#    y 0.000000 2.277530 0.000000 
#    z 0.086430 0.000000 2.153740 
# 
# From -- ./inp_files/147808.got.cif
#   From: 2010.05.17/outbox.cif.g08.bks.cpg/sg12_74_cif.got.tgz:147808.got - 2010.06.03 13:09:07.
