data_PCOD9176827
_publ_section_title
;
Structure prediction by ZEFSAII (Michael W. Deem and Ramdas Pophale) SiO2 
 PCOD9176827
Probable space group: C 2/M
;
_chemical_formula_sum "Si O2"
_cell_formula_units_Z 64
_cell_length_a 17.857534
_cell_length_b 17.738255
_cell_length_c 10.768082
_cell_angle_alpha 90.000000
_cell_angle_beta 102.619561
_cell_angle_gamma 90.000000
_cell_volume 3328.513649
_symmetry_space_group_name_H-M "C 2/M"
_symmetry_group_IT_number 12
_symmetry_cell_setting 'monoclinic'
loop_
_space_group_symop_operation_xyz
x,y,z
-x,y,-z
-x,-y,-z
x,-y,z
1/2+x,1/2+y,z
1/2-x,1/2+y,-z
1/2-x,1/2-y,-z
1/2+x,1/2-y,z
loop_
_atom_site_type_symbol
_atom_site_label
_atom_site_fract_x
_atom_site_fract_y
_atom_site_fract_z
Si Si1 0.792662 0.869128 0.707921
Si Si2 0.589837 0.197129 0.004228
Si Si3 0.437705 0.412672 0.301356
Si Si4 0.787772 0.699218 0.748231
Si Si5 0.323092 0.338242 0.080848
Si Si6 0.813152 0.913035 0.438004
Si Si7 0.315611 0.910539 0.124244
Si Si8 0.952922 0.909360 0.860073
O O1 0.795853 0.779777 0.687613
O O2 0.807906 0.908851 0.583239
O O3 0.713735 0.892561 0.746840
O O4 0.863855 0.889882 0.823553
O O5 0.635911 0.178335 0.147962
O O6 0.500000 0.201152 0.000000
O O7 0.625863 0.276768 0.971706
O O8 0.613305 0.136331 0.906944
O O9 0.455995 0.500000 0.331457
O O10 0.373785 0.400230 0.170647
O O11 0.394715 0.384462 0.409510
O O12 0.510328 0.378224 0.255366
O O13 0.722519 0.708557 0.830457
O O14 0.754740 0.636008 0.645821
O O15 0.256218 0.379807 0.982493
O O16 0.806482 0.000000 0.395139
O O17 0.325652 0.000000 0.113735
O O18 0.959405 0.000000 0.859352
O O19 0.000000 0.885785 0.000000
#
# Coordination Sequence:
#
# PCOD9176827 Si02
#       8
#     8   8   8   8   8   8   8   8
#     4  12  21  36  58  87 116 155 203 249 291 345
#     4  11  23  38  60  89 123 156 190 245 307 368
#     4   9  19  33  52  82 120 156 190 229 279 351
#     4  10  21  38  59  84 116 151 195 248 293 349
#     4  10  18  36  57  85 115 152 189 237 295 359
#     4  10  22  39  59  82 111 159 207 246 291 344
#     4  11  21  36  59  87 119 154 199 249 295 351
#     4  10  21  33  51  86 124 155 184 226 293 362
#
# _framework density 19.227800999999999
#
# number of rings (size 3 to 8) (size 9 to 14) (size 15 to 20)
#    0.000    1.625    2.500    3.375    1.750    4.750 
#    0.000    1.875    0.000    1.125    0.000    1.750 
#    0.000    0.000    0.000    0.000    0.000    0.000 
#
# Total GULP energy -178485.817342 kJ/mol
# GULP energy per Si atom -5577.681792 kJ/mol
# Density = 1.918404 g / cm^3
# Si number density = 19.227801 Si / 1000 Ang^3
#
#
#
# Elastic Constant Matrix: (Units=GPa)
#
#
# Indices 1 2 3 4 5 6 
#
# 1 100.5196 20.4383 26.6484 0.0000 -11.5873 0.0000
# 2 20.4383 80.9303 28.2970 0.0000 -6.6556 0.0000
# 3 26.6484 28.2970 73.3698 0.0000 -13.2313 0.0000
# 4 0.0000 0.0000 0.0000 25.6363 0.0000 -2.9355
# 5 -11.5873 -6.6556 -13.2313 0.0000 23.2269 0.0000
# 6 0.0000 0.0000 0.0000 -2.9355 0.0000 21.2437
#
#
#
# Elastic Compliance Matrix: (Units=1/GPa)
#
#
# Indices 1 2 3 4 5 6 
#
# 1 0.011455 -0.001582 -0.002899 0.000000 0.003609 0.000000
# 2 -0.001582 0.014524 -0.004925 0.000000 0.000567 0.000000
# 3 -0.002899 -0.004925 0.017906 0.000000 0.007343 0.000000
# 4 0.000000 0.000000 0.000000 0.039634 0.000000 0.005477
# 5 0.003609 0.000567 0.007343 0.000000 0.049200 0.000000
# 6 0.000000 0.000000 0.000000 0.005477 0.000000 0.047830
#
#
# Mechanical properties :
#
#
# Convention : Reuss Voigt Hill
#
# Bulk Modulus (GPa) = 39.88391 45.06524 42.47457
# Shear Modulus (GPa) = 24.07099 25.98379 25.02739
#
# Velocity S-wave (km/s) = 3.54204 3.68008 3.61172
# Velocity P-wave (km/s) = 6.12502 6.44560 6.28735
#
# Compressibility (1/GPa) = 0.02507277
#
# Stress axis : x y z
#
# Youngs Moduli (GPa) = 87.30034 68.84930 55.84665
#
# Poissons Ratio (x) = 0.10894 0.16191
# Poissons Ratio (y) = 0.13813 0.27503
# Poissons Ratio (z) = 0.25311 0.33907
#
# Static dielectric constant tensor:
#      x y z
#    x 1.701100 0.000000 -0.037600 
#    y 0.000000 1.679020 0.000000 
#    z -0.037600 0.000000 1.732280 
# 
# From -- ./inp_files/157864.got.cif
#   From: 2010.05.17/outbox.cif.g08.bks.cpg/sg12_79_cif.got.tgz:157864.got - 2010.06.03 13:09:07.
