data_PCOD9176283
_publ_section_title
;
Structure prediction by ZEFSAII (Michael W. Deem and Ramdas Pophale) SiO2 
 PCOD9176283
Probable space group: C 2/M
;
_chemical_formula_sum "Si O2"
_cell_formula_units_Z 56
_cell_length_a 9.132176
_cell_length_b 16.811555
_cell_length_c 24.374872
_cell_angle_alpha 90.000000
_cell_angle_beta 122.859785
_cell_angle_gamma 90.000000
_cell_volume 3143.433342
_symmetry_space_group_name_H-M "C 2/M"
_symmetry_group_IT_number 12
_symmetry_cell_setting 'monoclinic'
loop_
_space_group_symop_operation_xyz
x,y,z
-x,y,-z
-x,-y,-z
x,-y,z
1/2+x,1/2+y,z
1/2-x,1/2+y,-z
1/2-x,1/2-y,-z
1/2+x,1/2-y,z
loop_
_atom_site_type_symbol
_atom_site_label
_atom_site_fract_x
_atom_site_fract_y
_atom_site_fract_z
Si Si1 0.623578 0.406385 0.258564
Si Si2 0.562139 0.789144 0.953607
Si Si3 0.478417 0.906620 0.156388
Si Si4 0.312713 0.718751 0.453436
Si Si5 0.826123 0.819455 0.259758
Si Si6 0.689935 0.323306 0.162881
Si Si7 0.575481 0.805138 0.631419
O O1 0.622969 0.500000 0.251299
O O2 0.477328 0.377515 0.271012
O O3 0.591220 0.362079 0.194193
O O4 0.806428 0.373942 0.318986
O O5 0.552519 0.858232 0.906278
O O6 0.435931 0.719443 0.905618
O O7 0.500000 0.818815 0.000000
O O8 0.750000 0.750000 0.000000
O O9 0.644412 0.866174 0.219849
O O10 0.310766 0.888546 0.159433
O O11 0.505709 0.000000 0.153418
O O12 0.500000 0.674833 0.500000
O O13 0.250000 0.750000 0.500000
O O14 0.366165 0.786272 0.419480
O O15 0.129437 0.678776 0.398803
O O16 0.808544 0.747054 0.212587
O O17 0.872590 0.776082 0.325819
#
# Coordination Sequence:
#
# PCOD9176283 Si02
#       7
#     8   8   8   8   8   8   8
#     4  11  22  35  55  86 117 145 179 232 290 333
#     4  11  22  40  63  81 105 150 195 227 272 340
#     4  11  23  38  56  85 116 142 180 238 291 328
#     4   9  18  32  56  88 111 141 193 241 262 306
#     4  10  20  35  58  82 112 147 188 230 277 336
#     4  10  21  38  59  80 111 147 186 229 278 338
#     4  10  18  34  58  86 109 147 192 230 272 334
#
# _framework density 17.814916
#
# number of rings (size 3 to 8) (size 9 to 14) (size 15 to 20)
#    0.000    1.714    2.857    3.429    4.000    0.286 
#    0.000    2.143    0.000    4.286    0.000    0.000 
#    0.000    0.000    0.000    0.000    0.000    0.000 
#
# Total GULP energy -156064.171809 kJ/mol
# GULP energy per Si atom -5573.720422 kJ/mol
# Density = 1.777437 g / cm^3
# Si number density = 17.814916 Si / 1000 Ang^3
#
#
#
# Elastic Constant Matrix: (Units=GPa)
#
#
# Indices 1 2 3 4 5 6 
#
# 1 87.3357 16.2917 28.0264 0.0000 3.1981 0.0000
# 2 16.2917 86.5480 15.3074 0.0000 3.4050 0.0000
# 3 28.0264 15.3074 74.6906 0.0000 3.9127 0.0000
# 4 0.0000 0.0000 0.0000 2.8451 0.0000 -3.2380
# 5 3.1981 3.4050 3.9127 0.0000 34.9491 0.0000
# 6 0.0000 0.0000 0.0000 -3.2380 0.0000 18.9352
#
#
#
# Elastic Compliance Matrix: (Units=1/GPa)
#
#
# Indices 1 2 3 4 5 6 
#
# 1 0.013258 -0.001660 -0.004606 0.000000 -0.000536 0.000000
# 2 -0.001660 0.012225 -0.001839 0.000000 -0.000833 0.000000
# 3 -0.004606 -0.001839 0.015554 0.000000 -0.001141 0.000000
# 4 0.000000 0.000000 0.000000 0.436413 0.000000 0.074629
# 5 -0.000536 -0.000833 -0.001141 0.000000 0.028871 0.000000
# 6 0.000000 0.000000 0.000000 0.074629 0.000000 0.065574
#
#
# Mechanical properties :
#
#
# Convention : Reuss Voigt Hill
#
# Bulk Modulus (GPa) = 40.28090 40.86946 40.57518
# Shear Modulus (GPa) = 8.38393 23.94250 16.16322
#
# Velocity S-wave (km/s) = 2.17172 3.66998 3.01539
# Velocity P-wave (km/s) = 5.38036 6.39916 5.91175
#
# Compressibility (1/GPa) = 0.02482566
#
# Stress axis : x y z
#
# Youngs Moduli (GPa) = 75.42885 81.80132 64.29346
#
# Poissons Ratio (x) = 0.13577 0.29616
# Poissons Ratio (y) = 0.12520 0.11823
# Poissons Ratio (z) = 0.34746 0.15043
#
# Static dielectric constant tensor:
#      x y z
#    x 1.644780 0.000000 0.011870 
#    y 0.000000 1.548220 0.000000 
#    z 0.011870 0.000000 1.661620 
# 
# From -- ./inp_files/300432.got.cif
#   From: 2010.05.17/outbox.cif.g08.bks.cpg/sg12_151_cif.got.tgz:300432.got - 2010.06.03 13:09:07.
