data_PCOD9176824
_publ_section_title
;
Structure prediction by ZEFSAII (Michael W. Deem and Ramdas Pophale) SiO2 
 PCOD9176824
Probable space group: C 2/M
;
_chemical_formula_sum "Si O2"
_cell_formula_units_Z 52
_cell_length_a 9.822939
_cell_length_b 27.801495
_cell_length_c 16.867681
_cell_angle_alpha 90.000000
_cell_angle_beta 140.381408
_cell_angle_gamma 90.000000
_cell_volume 2937.403943
_symmetry_space_group_name_H-M "C 2/M"
_symmetry_group_IT_number 12
_symmetry_cell_setting 'monoclinic'
loop_
_space_group_symop_operation_xyz
x,y,z
-x,y,-z
-x,-y,-z
x,-y,z
1/2+x,1/2+y,z
1/2-x,1/2+y,-z
1/2-x,1/2-y,-z
1/2+x,1/2-y,z
loop_
_atom_site_type_symbol
_atom_site_label
_atom_site_fract_x
_atom_site_fract_y
_atom_site_fract_z
Si Si1 0.706510 0.866920 0.642191
Si Si2 0.898288 0.645736 0.788977
Si Si3 0.947030 0.806185 0.618475
Si Si4 0.500000 0.108348 0.000000
Si Si5 0.835890 0.944485 0.356607
Si Si6 0.472071 0.195305 0.666747
Si Si7 0.553314 0.555582 0.775302
O O1 0.500000 0.884262 0.500000
O O2 0.826756 0.827906 0.640781
O O3 0.616601 0.839493 0.678192
O O4 0.871355 0.910143 0.728878
O O5 0.659923 0.664760 0.697866
O O6 0.859336 0.592761 0.734251
O O7 0.000643 0.680888 0.770651
O O8 0.007232 0.639507 0.922949
O O9 0.776449 0.811354 0.470781
O O10 0.008690 0.750891 0.661550
O O11 0.712516 0.075993 0.099055
O O12 0.953630 0.941662 0.324094
O O13 0.000000 0.932104 0.500000
O O14 0.767744 0.000000 0.336517
O O15 0.531761 0.500000 0.788799
#
# Coordination Sequence:
#
# PCOD9176824 Si02
#       7
#     8   8   8   4   8   8   8
#     4  10  20  34  54  87 121 144 178 232 297 359
#     4  11  20  35  58  79 111 150 195 240 271 318
#     4  10  18  36  57  84 117 147 186 231 284 347
#     4  10  21  38  60  80 108 152 212 236 257 326
#     4   9  17  29  52  82 107 135 180 237 285 330
#     4  10  21  32  58  88 114 149 183 232 296 343
#     4  10  20  37  59  81 113 154 191 232 285 342
#
# _framework density 17.702707
#
# number of rings (size 3 to 8) (size 9 to 14) (size 15 to 20)
#    0.000    2.000    3.077    2.538    2.154    3.385 
#    0.000    2.308    0.000    0.923    0.000    0.000 
#    0.000    0.000    0.000    0.000    0.000    0.000 
#
# Total GULP energy -145039.458482 kJ/mol
# GULP energy per Si atom -5578.440711 kJ/mol
# Density = 1.766241 g / cm^3
# Si number density = 17.702707 Si / 1000 Ang^3
#
#
#
# Elastic Constant Matrix: (Units=GPa)
#
#
# Indices 1 2 3 4 5 6 
#
# 1 63.8890 35.7146 43.9751 0.0000 2.4319 0.0000
# 2 35.7146 98.9765 50.4922 0.0000 1.6689 0.0000
# 3 43.9751 50.4922 87.0453 0.0000 -12.0005 0.0000
# 4 0.0000 0.0000 0.0000 13.7951 0.0000 1.9400
# 5 2.4319 1.6689 -12.0005 0.0000 31.0005 0.0000
# 6 0.0000 0.0000 0.0000 1.9400 0.0000 10.6531
#
#
#
# Elastic Compliance Matrix: (Units=1/GPa)
#
#
# Indices 1 2 3 4 5 6 
#
# 1 0.026090 -0.002995 -0.012363 0.000000 -0.006671 0.000000
# 2 -0.002995 0.015236 -0.007823 0.000000 -0.003614 0.000000
# 3 -0.012363 -0.007823 0.023730 0.000000 0.010577 0.000000
# 4 0.000000 0.000000 0.000000 0.074395 0.000000 -0.013548
# 5 -0.006671 -0.003614 0.010577 0.000000 0.037070 0.000000
# 6 0.000000 0.000000 0.000000 -0.013548 0.000000 0.096337
#
#
# Mechanical properties :
#
#
# Convention : Reuss Voigt Hill
#
# Bulk Modulus (GPa) = 53.49314 56.69719 55.09516
# Shear Modulus (GPa) = 15.36335 19.07168 17.21752
#
# Velocity S-wave (km/s) = 2.94913 3.28583 3.12202
# Velocity P-wave (km/s) = 6.47144 6.81854 6.64726
#
# Compressibility (1/GPa) = 0.01869399
#
# Stress axis : x y z
#
# Youngs Moduli (GPa) = 38.32933 65.63456 42.14050
#
# Poissons Ratio (x) = 0.19656 0.52098
# Poissons Ratio (y) = 0.11479 0.32967
# Poissons Ratio (z) = 0.47386 0.51346
#
# Static dielectric constant tensor:
#      x y z
#    x 1.590320 0.000000 -0.019170 
#    y 0.000000 1.627160 0.000000 
#    z -0.019170 0.000000 1.598860 
# 
# From -- ./inp_files/201350.got.cif
#   From: 2010.05.17/outbox.cif.g08.bks.cpg/sg12_101_cif.got.tgz:201350.got - 2010.06.03 13:09:07.
