data_PCOD9176584
_publ_section_title
;
Structure prediction by ZEFSAII (Michael W. Deem and Ramdas Pophale) SiO2 
 PCOD9176584
Probable space group: C 2/M
;
_chemical_formula_sum "Si O2"
_cell_formula_units_Z 58
_cell_length_a 18.537704
_cell_length_b 9.704507
_cell_length_c 22.781453
_cell_angle_alpha 90.000000
_cell_angle_beta 46.826105
_cell_angle_gamma 90.000000
_cell_volume 2988.858870
_symmetry_space_group_name_H-M "C 2/M"
_symmetry_group_IT_number 12
_symmetry_cell_setting 'monoclinic'
loop_
_space_group_symop_operation_xyz
x,y,z
-x,y,-z
-x,-y,-z
x,-y,z
1/2+x,1/2+y,z
1/2-x,1/2+y,-z
1/2-x,1/2-y,-z
1/2+x,1/2-y,z
loop_
_atom_site_type_symbol
_atom_site_label
_atom_site_fract_x
_atom_site_fract_y
_atom_site_fract_z
Si Si1 0.782035 0.840790 0.238011
Si Si2 0.500000 0.000000 0.500000
Si Si3 0.003752 0.843847 0.068537
Si Si4 0.310625 0.163400 0.013339
Si Si5 0.176396 0.835723 0.201790
Si Si6 0.758257 0.834888 0.390358
Si Si7 0.536893 0.658621 0.671256
Si Si8 0.957272 0.226479 0.465967
O O1 0.713390 0.740833 0.238966
O O2 0.772324 0.821390 0.312883
O O3 0.895392 0.819488 0.155108
O O4 0.757378 0.000000 0.238218
O O5 0.507231 0.877207 0.446165
O O6 0.035224 0.000000 0.068678
O O7 0.080927 0.729072 0.044935
O O8 0.000000 0.841490 0.000000
O O9 0.255525 0.185719 0.106267
O O10 0.311523 0.000000 0.000922
O O11 0.250000 0.250000 0.000000
O O12 0.066095 0.785260 0.245939
O O13 0.169410 0.000000 0.216120
O O14 0.857288 0.783293 0.367642
O O15 0.659948 0.754023 0.462856
O O16 0.739914 0.000000 0.412141
O O17 0.543783 0.500000 0.687363
O O18 0.525067 0.665355 0.607611
O O19 0.000000 0.151399 0.500000
#
# Coordination Sequence:
#
# PCOD9176584 Si02
#       8
#     8   2   8   8   8   8   8   8
#     4  10  21  36  63  88 113 153 196 241 284 344
#     4   8  20  32  58  84 108 140 184 234 274 334
#     4  10  20  37  60  90 120 150 195 245 292 349
#     4  11  24  39  62  85 118 159 198 244 296 351
#     4  10  22  40  58  82 115 155 192 238 292 345
#     4  10  19  35  57  84 112 147 191 230 283 343
#     4  10  22  36  56  82 114 149 187 229 282 346
#     4  10  18  35  58  80 110 143 184 232 276 332
#
# _framework density 19.405398999999999
#
# number of rings (size 3 to 8) (size 9 to 14) (size 15 to 20)
#    0.414    1.517    2.069    1.655    1.931    1.655 
#    0.000    0.690    1.517    0.000    0.000    0.000 
#    0.000    0.000    0.000    0.000    0.000    0.000 
#
# Total GULP energy -161504.605102 kJ/mol
# GULP energy per Si atom -5569.124314 kJ/mol
# Density = 1.936123 g / cm^3
# Si number density = 19.405399 Si / 1000 Ang^3
#
#
#
# Elastic Constant Matrix: (Units=GPa)
#
#
# Indices 1 2 3 4 5 6 
#
# 1 83.3754 30.8949 0.8219 0.0000 -9.6486 0.0000
# 2 30.8949 50.5609 9.9154 0.0000 -6.4268 0.0000
# 3 0.8219 9.9154 56.6295 0.0000 -17.6471 0.0000
# 4 0.0000 0.0000 0.0000 13.9635 0.0000 7.7176
# 5 -9.6486 -6.4268 -17.6471 0.0000 26.8032 0.0000
# 6 0.0000 0.0000 0.0000 7.7176 0.0000 22.7616
#
#
#
# Elastic Compliance Matrix: (Units=1/GPa)
#
#
# Indices 1 2 3 4 5 6 
#
# 1 0.016267 -0.009861 0.003244 0.000000 0.005627 0.000000
# 2 -0.009861 0.026680 -0.004581 0.000000 -0.000168 0.000000
# 3 0.003244 -0.004581 0.023194 0.000000 0.015340 0.000000
# 4 0.000000 0.000000 0.000000 0.088131 0.000000 -0.029882
# 5 0.005627 -0.000168 0.015340 0.000000 0.049394 0.000000
# 6 0.000000 0.000000 0.000000 -0.029882 0.000000 0.054065
#
#
# Mechanical properties :
#
#
# Convention : Reuss Voigt Hill
#
# Bulk Modulus (GPa) = 22.85906 30.42557 26.64231
# Shear Modulus (GPa) = 16.96586 22.63458 19.80022
#
# Velocity S-wave (km/s) = 2.96004 3.41897 3.19775
# Velocity P-wave (km/s) = 4.84642 5.59453 5.23386
#
# Compressibility (1/GPa) = 0.04374633
#
# Stress axis : x y z
#
# Youngs Moduli (GPa) = 61.47365 37.48056 43.11450
#
# Poissons Ratio (x) = 0.36959 -0.13987
# Poissons Ratio (y) = 0.60618 0.19751
# Poissons Ratio (z) = -0.19943 0.17170
#
# Static dielectric constant tensor:
#      x y z
#    x 1.727030 0.000000 -0.050400 
#    y 0.000000 1.655860 0.000000 
#    z -0.050400 0.000000 1.711510 
# 
# From -- ./inp_files/346470.got.cif
#   From: 2010.05.17/outbox.cif.g08.bks.cpg/sg12_174_cif.got.tgz:346470.got - 2010.06.03 13:09:07.
