data_PCOD9176149
_publ_section_title
;
Structure prediction by ZEFSAII (Michael W. Deem and Ramdas Pophale) SiO2 
 PCOD9176149
Probable space group: C 2/M
;
_chemical_formula_sum "Si O2"
_cell_formula_units_Z 56
_cell_length_a 24.743761
_cell_length_b 18.124454
_cell_length_c 12.377024
_cell_angle_alpha 90.000000
_cell_angle_beta 35.101752
_cell_angle_gamma 90.000000
_cell_volume 3191.814063
_symmetry_space_group_name_H-M "C 2/M"
_symmetry_group_IT_number 12
_symmetry_cell_setting 'monoclinic'
loop_
_space_group_symop_operation_xyz
x,y,z
-x,y,-z
-x,-y,-z
x,-y,z
1/2+x,1/2+y,z
1/2-x,1/2+y,-z
1/2-x,1/2-y,-z
1/2+x,1/2-y,z
loop_
_atom_site_type_symbol
_atom_site_label
_atom_site_fract_x
_atom_site_fract_y
_atom_site_fract_z
Si Si1 0.301790 0.084592 0.462539
Si Si2 0.516107 0.081178 0.102587
Si Si3 0.211720 0.300402 0.339847
Si Si4 0.795380 0.360880 0.225815
Si Si5 0.187391 0.186975 0.043972
Si Si6 0.979748 0.773760 0.412073
Si Si7 0.360083 0.585447 0.677687
O O1 0.411901 0.088044 0.316362
O O2 0.259832 0.144586 0.611064
O O3 0.292982 0.107237 0.351514
O O4 0.270132 0.000000 0.526995
O O5 0.553399 0.000000 0.069269
O O6 0.500000 0.083122 0.000000
O O7 0.598441 0.136933 0.992116
O O8 0.259833 0.222019 0.282755
O O9 0.101247 0.277139 0.507887
O O10 0.254120 0.331466 0.158743
O O11 0.728349 0.407710 0.257963
O O12 0.170378 0.121141 0.157693
O O13 0.082021 0.217130 0.191062
O O14 0.250000 0.250000 0.000000
O O15 0.935225 0.855990 0.504779
O O16 0.000000 0.744505 0.500000
O O17 0.389820 0.500000 0.637200
#
# Coordination Sequence:
#
# PCOD9176149 Si02
#       7
#     8   8   8   8   8   8   8
#     4  10  21  35  52  79 116 144 175 223 274 327
#     4   8  15  29  50  75 104 138 174 221 268 302
#     4  11  22  34  57  81 110 147 181 213 279 334
#     4  10  18  34  56  82 106 140 187 229 263 315
#     4  11  20  37  54  80 110 143 178 224 276 319
#     4   9  19  35  55  78 108 140 180 231 265 311
#     4  10  20  34  58  84 106 142 186 229 269 311
#
# _framework density 17.544882000000001
#
# number of rings (size 3 to 8) (size 9 to 14) (size 15 to 20)
#    0.000    2.143    4.286    2.571    2.000    3.143 
#    0.000    0.000    0.000    0.429    0.000    5.000 
#    0.000    0.000    0.000    0.000    0.000    0.000 
#
# Total GULP energy -155882.794993 kJ/mol
# GULP energy per Si atom -5567.242678 kJ/mol
# Density = 1.750495 g / cm^3
# Si number density = 17.544882 Si / 1000 Ang^3
#
#
#
# Elastic Constant Matrix: (Units=GPa)
#
#
# Indices 1 2 3 4 5 6 
#
# 1 76.2839 28.6456 20.5140 0.0000 -8.3966 0.0000
# 2 28.6456 95.8682 14.0449 0.0000 6.8040 0.0000
# 3 20.5140 14.0449 51.9838 0.0000 -7.4336 0.0000
# 4 0.0000 0.0000 0.0000 16.7515 0.0000 7.4497
# 5 -8.3966 6.8040 -7.4336 0.0000 26.1995 0.0000
# 6 0.0000 0.0000 0.0000 7.4497 0.0000 17.0656
#
#
#
# Elastic Compliance Matrix: (Units=1/GPa)
#
#
# Indices 1 2 3 4 5 6 
#
# 1 0.016676 -0.004688 -0.004561 0.000000 0.005268 0.000000
# 2 -0.004688 0.012556 -0.002317 0.000000 -0.005421 0.000000
# 3 -0.004561 -0.002317 0.022451 0.000000 0.005510 0.000000
# 4 0.000000 0.000000 0.000000 0.074077 0.000000 -0.032337
# 5 0.005268 -0.005421 0.005510 0.000000 0.042828 0.000000
# 6 0.000000 0.000000 0.000000 -0.032337 0.000000 0.072714
#
#
# Mechanical properties :
#
#
# Convention : Reuss Voigt Hill
#
# Bulk Modulus (GPa) = 35.02693 38.94945 36.98819
# Shear Modulus (GPa) = 18.25141 22.73207 20.49174
#
# Velocity S-wave (km/s) = 3.22882 3.60342 3.42125
# Velocity P-wave (km/s) = 5.82305 6.28975 6.06089
#
# Compressibility (1/GPa) = 0.02854946
#
# Stress axis : x y z
#
# Youngs Moduli (GPa) = 59.96719 79.64221 44.54235
#
# Poissons Ratio (x) = 0.37340 0.20314
# Poissons Ratio (y) = 0.28116 0.10322
# Poissons Ratio (z) = 0.27349 0.18456
#
# Static dielectric constant tensor:
#      x y z
#    x 1.611370 0.000000 -0.018590 
#    y 0.000000 1.611900 0.000000 
#    z -0.018590 0.000000 1.643890 
# 
# From -- ./inp_files/177060.got.cif
#   From: 2010.05.17/outbox.cif.g08.bks.cpg/sg12_89_cif.got.tgz:177060.got - 2010.06.03 13:09:07.
