data_PCOD9176254
_publ_section_title
;
Structure prediction by ZEFSAII (Michael W. Deem and Ramdas Pophale) SiO2 
 PCOD9176254
Probable space group: C 2/M
;
_chemical_formula_sum "Si O2"
_cell_formula_units_Z 48
_cell_length_a 16.214373
_cell_length_b 17.111869
_cell_length_c 19.243847
_cell_angle_alpha 90.000000
_cell_angle_beta 21.793082
_cell_angle_gamma 90.000000
_cell_volume 1982.269332
_symmetry_space_group_name_H-M "C 2/M"
_symmetry_group_IT_number 12
_symmetry_cell_setting 'monoclinic'
loop_
_space_group_symop_operation_xyz
x,y,z
-x,y,-z
-x,-y,-z
x,-y,z
1/2+x,1/2+y,z
1/2-x,1/2+y,-z
1/2-x,1/2-y,-z
1/2+x,1/2-y,z
loop_
_atom_site_type_symbol
_atom_site_label
_atom_site_fract_x
_atom_site_fract_y
_atom_site_fract_z
Si Si1 0.887849 0.178676 0.419777
Si Si2 0.349013 0.412330 0.900476
Si Si3 0.744858 0.587880 0.772858
Si Si4 0.461641 0.091510 0.747814
Si Si5 0.269287 0.758481 0.224114
Si Si6 0.910854 0.416317 0.149784
O O1 0.750000 0.250000 0.500000
O O2 0.694232 0.120297 0.596037
O O3 0.992788 0.137665 0.270582
O O4 0.074524 0.212014 0.324928
O O5 0.441775 0.500000 0.839342
O O6 0.256349 0.373867 0.043475
O O7 0.126844 0.418718 0.028302
O O8 0.776711 0.500000 0.717149
O O9 0.760933 0.671286 0.720876
O O10 0.922908 0.599255 0.696087
O O11 0.500000 0.584464 0.000000
O O12 0.445627 0.000000 0.775117
O O13 0.293152 0.833627 0.255101
O O14 0.500000 0.752828 0.000000
O O15 0.789046 0.500000 0.253196
O O16 0.000000 0.414774 0.000000
#
# Coordination Sequence:
#
# PCOD9176254 Si02
#       6
#     8   8   8   8   8   8
#     4  12  22  36  57  92 121 160 198 248 302 361
#     4  10  21  39  62  87 122 163 195 244 309 366
#     4   9  18  35  59  84 113 157 208 255 300 353
#     4  10  22  39  61  92 121 153 206 253 299 363
#     4  10  18  34  58  81 117 161 198 237 298 366
#     4   9  16  30  57  85 112 157 198 227 290 371
#
# _framework density 24.214670999999999
#
# number of rings (size 3 to 8) (size 9 to 14) (size 15 to 20)
#    0.000    2.000    5.000    0.500    0.000    1.333 
#    0.000    0.833    0.000    4.000    0.000    5.833 
#    0.000    0.000    0.000    0.000    0.000    0.000 
#
# Total GULP energy -133886.025289 kJ/mol
# GULP energy per Si atom -5578.584387 kJ/mol
# Density = 2.415956 g / cm^3
# Si number density = 24.214671 Si / 1000 Ang^3
#
#
#
# Elastic Constant Matrix: (Units=GPa)
#
#
# Indices 1 2 3 4 5 6 
#
# 1 64.9864 8.5838 10.5381 0.0514 -22.8125 0.0367
# 2 8.5838 210.2629 40.4986 -0.0135 -2.7698 0.0204
# 3 10.5381 40.4986 105.1842 -0.0009 -11.3710 0.0134
# 4 0.0514 -0.0135 -0.0009 19.1214 -0.0517 -4.7946
# 5 -22.8125 -2.7698 -11.3710 -0.0517 32.5118 -0.0348
# 6 0.0367 0.0204 0.0134 -4.7946 -0.0348 38.0262
#
#
#
# Elastic Compliance Matrix: (Units=1/GPa)
#
#
# Indices 1 2 3 4 5 6 
#
# 1 0.020512 -0.000595 -0.000287 -0.000019 0.014242 -0.000009
# 2 -0.000595 0.005156 -0.001999 0.000003 -0.000677 -0.000002
# 3 -0.000287 -0.001999 0.010669 0.000009 0.003360 0.000002
# 4 -0.000019 0.000003 0.000009 0.054005 0.000083 0.006809
# 5 0.014242 -0.000677 0.003360 0.000083 0.041869 0.000034
# 6 -0.000009 -0.000002 0.000002 0.006809 0.000034 0.027156
#
#
# Mechanical properties :
#
#
# Convention : Reuss Voigt Hill
#
# Bulk Modulus (GPa) = 32.70413 55.51940 44.11176
# Shear Modulus (GPa) = 28.51929 39.31941 33.91935
#
# Velocity S-wave (km/s) = 3.43559 4.03399 3.74676
# Velocity P-wave (km/s) = 5.41045 6.68395 6.08063
#
# Compressibility (1/GPa) = 0.03057718
#
# Stress axis : x y z
#
# Youngs Moduli (GPa) = 48.75140 193.93670 93.73196
#
# Poissons Ratio (x) = 0.11532 0.02685
# Poissons Ratio (y) = 0.02899 0.18736
# Poissons Ratio (z) = 0.01397 0.38767
#
# Static dielectric constant tensor:
#      x y z
#    x 1.949940 0.000020 0.006920 
#    y 0.000020 2.018340 0.000090 
#    z 0.006920 0.000090 1.803700 
# 
# From -- ./inp_files/317460.got.cif
#   From: 2010.05.17/outbox.cif.g08.bks.cpg/sg12_159_cif.got.tgz:317460.got - 2010.06.03 13:09:07.
