data_PCOD9176191
_publ_section_title
;
Structure prediction by ZEFSAII (Michael W. Deem and Ramdas Pophale) SiO2 
 PCOD9176191
Probable space group: C 2/M
;
_chemical_formula_sum "Si O2"
_cell_formula_units_Z 56
_cell_length_a 19.797512
_cell_length_b 7.423129
_cell_length_c 16.784604
_cell_angle_alpha 90.000000
_cell_angle_beta 74.948444
_cell_angle_gamma 90.000000
_cell_volume 2382.032049
_symmetry_space_group_name_H-M "C 2/M"
_symmetry_group_IT_number 12
_symmetry_cell_setting 'monoclinic'
loop_
_space_group_symop_operation_xyz
x,y,z
-x,y,-z
-x,-y,-z
x,-y,z
1/2+x,1/2+y,z
1/2-x,1/2+y,-z
1/2-x,1/2-y,-z
1/2+x,1/2-y,z
loop_
_atom_site_type_symbol
_atom_site_label
_atom_site_fract_x
_atom_site_fract_y
_atom_site_fract_z
Si Si1 0.910574 0.794599 0.110962
Si Si2 0.862901 0.781845 0.431833
Si Si3 0.167781 0.215522 0.020486
Si Si4 0.196450 0.293820 0.722423
Si Si5 0.019258 0.780713 0.352040
Si Si6 0.836923 0.220548 0.613325
Si Si7 0.956429 0.779507 0.836497
O O1 0.869711 0.714310 0.048353
O O2 0.857246 0.798013 0.201634
O O3 0.983141 0.715945 0.121302
O O4 0.927932 0.000000 0.083055
O O5 0.831969 0.711277 0.359085
O O6 0.826728 0.723098 0.524846
O O7 0.944512 0.728301 0.409918
O O8 0.859663 0.000000 0.428820
O O9 0.162389 0.000000 0.020232
O O10 0.250000 0.250000 0.000000
O O11 0.119725 0.276013 0.109001
O O12 0.200549 0.500000 0.748728
O O13 0.274692 0.218780 0.690056
O O14 0.087211 0.722745 0.379695
O O15 0.026120 0.722051 0.258279
O O16 0.020012 0.000000 0.352692
O O17 0.834954 0.000000 0.614487
O O18 0.958995 0.000000 0.834455
#
# Coordination Sequence:
#
# PCOD9176191 Si02
#       7
#     8   8   8   8   8   8   8
#     4  10  20  38  59  81 106 141 187 225 261 310
#     4  10  18  34  57  79 105 139 184 231 268 313
#     4  10  22  37  59  87 115 140 172 220 272 325
#     4  11  22  34  52  80 113 146 178 218 272 329
#     4   9  16  29  54  83 104 132 181 230 264 304
#     4   9  19  31  49  80 111 140 179 228 275 315
#     4   9  17  33  58  83 105 138 184 227 261 305
#
# _framework density 23.509340999999999
#
# number of rings (size 3 to 8) (size 9 to 14) (size 15 to 20)
#    0.000    2.286    1.429    1.714    2.000    4.000 
#    0.000    1.429    0.000    5.143    0.000    0.000 
#    0.000    0.000    0.000    0.000    0.000    0.000 
#
# Total GULP energy -156513.959468 kJ/mol
# GULP energy per Si atom -5589.784267 kJ/mol
# Density = 2.345583 g / cm^3
# Si number density = 23.509341 Si / 1000 Ang^3
#
#
#
# Elastic Constant Matrix: (Units=GPa)
#
#
# Indices 1 2 3 4 5 6 
#
# 1 74.0354 -7.9297 23.6429 0.0000 -17.0395 0.0000
# 2 -7.9297 75.7948 0.8060 0.0000 -3.0624 0.0000
# 3 23.6429 0.8060 83.8772 0.0000 -17.6189 0.0000
# 4 0.0000 0.0000 0.0000 -3.9184 0.0000 1.0810
# 5 -17.0395 -3.0624 -17.6189 0.0000 45.1419 0.0000
# 6 0.0000 0.0000 0.0000 1.0810 0.0000 9.8717
#
#
#
# Elastic Compliance Matrix: (Units=1/GPa)
#
#
# Indices 1 2 3 4 5 6 
#
# 1 0.015928 0.001897 -0.003505 0.000000 0.004773 0.000000
# 2 0.001897 0.013456 -0.000351 0.000000 0.001492 0.000000
# 3 -0.003505 -0.000351 0.013759 0.000000 0.004023 0.000000
# 4 0.000000 0.000000 0.000000 -0.247725 0.000000 0.027128
# 5 0.004773 0.001492 0.004023 0.000000 0.025625 0.000000
# 6 0.000000 0.000000 0.000000 0.027128 0.000000 0.098329
#
#
# Mechanical properties :
#
#
# Convention : Reuss Voigt Hill
#
# Bulk Modulus (GPa) = 25.49462 29.63843 27.56653
# Shear Modulus (GPa) = -78.57395 24.69825 -26.93785
#
# Velocity S-wave (km/s) = -5.78749 3.24477 -3.38869
# Velocity P-wave (km/s) = 5.81309 5.16454 1.88673
#
# Compressibility (1/GPa) = 0.03922396
#
# Stress axis : x y z
#
# Youngs Moduli (GPa) = 62.78210 74.31664 72.68115
#
# Poissons Ratio (x) = -0.14094 0.25478
# Poissons Ratio (y) = -0.11907 0.02548
# Poissons Ratio (z) = 0.22008 0.02605
#
# Static dielectric constant tensor:
#      x y z
#    x 1.867780 0.000000 0.001070 
#    y 0.000000 1.936860 0.000000 
#    z 0.001070 0.000000 1.840670 
# 
# From -- ./inp_files/275057.got.cif
#   From: 2010.05.17/outbox.cif.g08.bks.cpg/sg12_138_cif.got.tgz:275057.got - 2010.06.03 13:09:07.
