data_PCOD9176920
_publ_section_title
;
Structure prediction by ZEFSAII (Michael W. Deem and Ramdas Pophale) SiO2 
 PCOD9176920
Probable space group: C 2/M
;
_chemical_formula_sum "Si O2"
_cell_formula_units_Z 32
_cell_length_a 22.025371
_cell_length_b 13.635557
_cell_length_c 19.822732
_cell_angle_alpha 90.000000
_cell_angle_beta 11.802775
_cell_angle_gamma 90.000000
_cell_volume 1217.713793
_symmetry_space_group_name_H-M "C 2/M"
_symmetry_group_IT_number 12
_symmetry_cell_setting 'monoclinic'
loop_
_space_group_symop_operation_xyz
x,y,z
-x,y,-z
-x,-y,-z
x,-y,z
1/2+x,1/2+y,z
1/2-x,1/2+y,-z
1/2-x,1/2-y,-z
1/2+x,1/2-y,z
loop_
_atom_site_type_symbol
_atom_site_label
_atom_site_fract_x
_atom_site_fract_y
_atom_site_fract_z
Si Si1 0.620931 0.835483 0.549603
Si Si2 0.294327 0.392948 0.510177
Si Si3 0.723907 0.140915 0.198294
Si Si4 0.800643 0.643674 0.151276
O O1 0.579366 0.716593 0.606619
O O2 0.672289 0.878872 0.567348
O O3 0.365515 0.881845 0.781277
O O4 0.921345 0.865349 0.181016
O O5 0.453479 0.500000 0.342993
O O6 0.016155 0.400933 0.862632
O O7 0.500000 0.102881 0.500000
O O8 0.682398 0.257226 0.246421
O O9 0.500000 0.593037 0.500000
O O10 0.000000 0.663810 0.000000
#
# Coordination Sequence:
#
# PCOD9176920 Si02
#       4
#     8   8   8   8
#     4  10  22  38  59  87 114 149 193 230 281 343
#     4  10  22  39  59  84 118 154 189 234 281 333
#     4  10  18  36  62  85 114 149 187 237 287 333
#     4  10  20  35  56  85 117 149 187 228 281 346
#
# _framework density 26.278751
#
# number of rings (size 3 to 8) (size 9 to 14) (size 15 to 20)
#    0.000    2.000    0.000    6.750    0.000   12.000 
#    0.000   18.750    0.000    5.250    0.000    0.000 
#    0.000    0.000    0.000    0.000    0.000    0.000 
#
# Total GULP energy -89257.010366 kJ/mol
# GULP energy per Si atom -5578.563148 kJ/mol
# Density = 2.621894 g / cm^3
# Si number density = 26.278751 Si / 1000 Ang^3
#
#
#
# Elastic Constant Matrix: (Units=GPa)
#
#
# Indices 1 2 3 4 5 6 
#
# 1 147.2003 18.5759 27.3220 0.1578 8.9918 0.1648
# 2 18.5759 154.9604 19.4697 0.5003 5.3219 0.8200
# 3 27.3220 19.4697 70.6061 0.1608 1.9862 0.6207
# 4 0.1578 0.5003 0.1608 5.3430 0.0769 28.4178
# 5 8.9918 5.3219 1.9862 0.0769 49.9950 0.1517
# 6 0.1648 0.8200 0.6207 28.4178 0.1517 68.2073
#
#
#
# Elastic Compliance Matrix: (Units=1/GPa)
#
#
# Indices 1 2 3 4 5 6 
#
# 1 0.007431 -0.000511 -0.002701 0.000128 -0.001175 -0.000038
# 2 -0.000511 0.006741 -0.001644 0.000181 -0.000560 -0.000139
# 3 -0.002701 -0.001644 0.015661 -0.000313 0.000039 0.000014
# 4 0.000128 0.000181 -0.000313 -0.153906 0.000012 0.064124
# 5 -0.001175 -0.000560 0.000039 0.000012 0.020271 -0.000041
# 6 -0.000038 -0.000139 0.000014 0.064124 -0.000041 -0.012054
#
#
# Mechanical properties :
#
#
# Convention : Reuss Voigt Hill
#
# Bulk Modulus (GPa) = 49.70452 55.94467 52.82459
# Shear Modulus (GPa) = -50.28410 45.20234 -2.54088
#
# Velocity S-wave (km/s) = -4.37909 4.15192 -0.98438
# Velocity P-wave (km/s) = 2.57161 6.65731 4.34204
#
# Compressibility (1/GPa) = 0.02011889
#
# Stress axis : x y z
#
# Youngs Moduli (GPa) = 134.56996 148.35635 63.85133
#
# Poissons Ratio (x) = 0.07585 0.17249
# Poissons Ratio (y) = 0.06880 0.10499
# Poissons Ratio (z) = 0.36354 0.24394
#
# Static dielectric constant tensor:
#      x y z
#    x 2.024950 -0.000090 0.044180 
#    y -0.000090 2.065560 0.000200 
#    z 0.044180 0.000200 2.085990 
# 
# From -- ./inp_files/14338.got.cif
#   From: 2010.05.17/outbox.cif.g08.bks.cpg/sg12_8_cif.got.tgz:14338.got - 2010.06.03 13:09:07.
