data_PCOD9176417
_publ_section_title
;
Structure prediction by ZEFSAII (Michael W. Deem and Ramdas Pophale) SiO2 
 PCOD9176417
Probable space group: C 2/M
;
_chemical_formula_sum "Si O2"
_cell_formula_units_Z 56
_cell_length_a 9.703148
_cell_length_b 14.472567
_cell_length_c 17.078049
_cell_angle_alpha 90.000000
_cell_angle_beta 86.577383
_cell_angle_gamma 90.000000
_cell_volume 2393.983507
_symmetry_space_group_name_H-M "C 2/M"
_symmetry_group_IT_number 12
_symmetry_cell_setting 'monoclinic'
loop_
_space_group_symop_operation_xyz
x,y,z
-x,y,-z
-x,-y,-z
x,-y,z
1/2+x,1/2+y,z
1/2-x,1/2+y,-z
1/2-x,1/2-y,-z
1/2+x,1/2-y,z
loop_
_atom_site_type_symbol
_atom_site_label
_atom_site_fract_x
_atom_site_fract_y
_atom_site_fract_z
Si Si1 0.875496 0.600988 0.254223
Si Si2 0.842572 0.608215 0.983647
Si Si3 0.150553 0.606525 0.466320
Si Si4 0.886463 0.700131 0.831789
Si Si5 0.365782 0.601525 0.863580
Si Si6 0.101019 0.103971 0.425009
Si Si7 0.774618 0.746914 0.670277
O O1 0.897813 0.500000 0.289817
O O2 0.736369 0.597194 0.207780
O O3 0.857697 0.686028 0.314163
O O4 0.994326 0.626578 0.189481
O O5 0.849376 0.500000 0.962530
O O6 0.801359 0.667129 0.909536
O O7 0.734715 0.615013 0.058200
O O8 0.000000 0.636884 0.000000
O O9 0.139598 0.500000 0.439067
O O10 0.250981 0.606524 0.537407
O O11 0.218043 0.670698 0.397522
O O12 0.000000 0.638136 0.500000
O O13 0.945640 0.802637 0.848320
O O14 0.802028 0.704348 0.754089
O O15 0.434435 0.500000 0.868405
O O16 0.105802 0.179845 0.358224
O O17 0.000000 0.124075 0.500000
O O18 0.072732 0.000000 0.397069
#
# Coordination Sequence:
#
# PCOD9176417 Si02
#       7
#     8   8   8   8   8   8   8
#     4  10  21  38  59  88 122 158 204 249 307 372
#     4  10  18  34  61  87 115 158 211 261 305 363
#     4  10  23  42  64  92 126 167 214 267 324 384
#     4  11  22  34  58  92 120 158 200 256 310 374
#     4   9  19  37  58  84 115 154 205 255 301 361
#     4  10  22  41  66  90 118 165 220 264 312 388
#     4  11  24  37  59  91 124 159 197 258 320 375
#
# _framework density 23.391974999999999
#
# number of rings (size 3 to 8) (size 9 to 14) (size 15 to 20)
#    0.000    1.857    1.429    2.143    4.000    1.714 
#    0.000    0.714    0.000    2.143    0.000    0.000 
#    0.000    0.000    0.000    0.000    0.000    0.000 
#
# Total GULP energy -156441.654114 kJ/mol
# GULP energy per Si atom -5587.201933 kJ/mol
# Density = 2.333873 g / cm^3
# Si number density = 23.391975 Si / 1000 Ang^3
#
#
#
# Elastic Constant Matrix: (Units=GPa)
#
#
# Indices 1 2 3 4 5 6 
#
# 1 35.4307 5.5839 3.5131 0.0000 -5.7525 0.0000
# 2 5.5839 118.2931 49.2392 0.0000 2.9285 0.0000
# 3 3.5131 49.2392 105.3857 0.0000 4.6889 0.0000
# 4 0.0000 0.0000 0.0000 20.0810 0.0000 -2.4232
# 5 -5.7525 2.9285 4.6889 0.0000 20.5705 0.0000
# 6 0.0000 0.0000 0.0000 -2.4232 0.0000 20.0389
#
#
#
# Elastic Compliance Matrix: (Units=1/GPa)
#
#
# Indices 1 2 3 4 5 6 
#
# 1 0.029924 -0.001306 -0.000776 0.000000 0.008731 0.000000
# 2 -0.001306 0.010555 -0.004854 0.000000 -0.000761 0.000000
# 3 -0.000776 -0.004854 0.011882 0.000000 -0.002234 0.000000
# 4 0.000000 0.000000 0.000000 0.050536 0.000000 0.006111
# 5 0.008731 -0.000761 -0.002234 0.000000 0.051673 0.000000
# 6 0.000000 0.000000 0.000000 0.006111 0.000000 0.050642
#
#
# Mechanical properties :
#
#
# Convention : Reuss Voigt Hill
#
# Bulk Modulus (GPa) = 25.98095 41.75356 33.86725
# Shear Modulus (GPa) = 21.55987 25.52297 23.54142
#
# Velocity S-wave (km/s) = 3.03921 3.30676 3.17580
# Velocity P-wave (km/s) = 4.84217 5.69806 5.28746
#
# Compressibility (1/GPa) = 0.03848974
#
# Stress axis : x y z
#
# Youngs Moduli (GPa) = 33.41761 94.74619 84.15987
#
# Poissons Ratio (x) = 0.12371 0.06530
# Poissons Ratio (y) = 0.04363 0.40851
# Poissons Ratio (z) = 0.02593 0.45990
#
# Static dielectric constant tensor:
#      x y z
#    x 1.912550 0.000000 -0.008770 
#    y 0.000000 1.947050 0.000000 
#    z -0.008770 0.000000 1.890410 
# 
# From -- ./inp_files/262840.got.cif
#   From: 2010.05.17/outbox.cif.g08.bks.cpg/sg12_132_cif.got.tgz:262840.got - 2010.06.03 13:09:07.
