data_PCOD9176439
_publ_section_title
;
Structure prediction by ZEFSAII (Michael W. Deem and Ramdas Pophale) SiO2 
 PCOD9176439
Probable space group: C 2/M
;
_chemical_formula_sum "Si O2"
_cell_formula_units_Z 64
_cell_length_a 26.919274
_cell_length_b 23.162027
_cell_length_c 8.159280
_cell_angle_alpha 90.000000
_cell_angle_beta 145.049372
_cell_angle_gamma 90.000000
_cell_volume 2914.392857
_symmetry_space_group_name_H-M "C 2/M"
_symmetry_group_IT_number 12
_symmetry_cell_setting 'monoclinic'
loop_
_space_group_symop_operation_xyz
x,y,z
-x,y,-z
-x,-y,-z
x,-y,z
1/2+x,1/2+y,z
1/2-x,1/2+y,-z
1/2-x,1/2-y,-z
1/2+x,1/2-y,z
loop_
_atom_site_type_symbol
_atom_site_label
_atom_site_fract_x
_atom_site_fract_y
_atom_site_fract_z
Si Si1 0.598464 0.187655 0.271468
Si Si2 0.895876 0.679895 0.363128
Si Si3 0.019374 0.858924 0.745201
Si Si4 0.171548 0.433984 0.980118
Si Si5 0.918761 0.270544 0.096360
Si Si6 0.365998 0.936153 0.741032
Si Si7 0.330296 0.435721 0.915245
Si Si8 0.361792 0.432934 0.386525
O O1 0.641413 0.199064 0.562244
O O2 0.593358 0.118908 0.235416
O O3 0.500000 0.211735 0.000000
O O4 0.639067 0.212878 0.215506
O O5 0.868979 0.615550 0.241862
O O6 0.874077 0.721579 0.151642
O O7 0.999854 0.684911 0.671568
O O8 0.037454 0.791436 0.808873
O O9 0.000000 0.869865 0.500000
O O10 0.939347 0.887736 0.624124
O O11 0.108896 0.891880 0.016275
O O12 0.156669 0.500000 0.881008
O O13 0.134855 0.429222 0.064586
O O14 0.275637 0.425162 0.261150
O O15 0.266394 0.934788 0.412466
O O16 0.400613 0.000000 0.794863
O O17 0.367277 0.500000 0.992416
O O18 0.331168 0.425095 0.113658
O O19 0.390864 0.500000 0.481736
#
# Coordination Sequence:
#
# PCOD9176439 Si02
#       8
#     8   8   8   8   8   8   8   8
#     4  10  21  36  60  84 114 155 200 240 296 349
#     4  10  19  36  61  81 116 158 190 245 294 341
#     4  10  18  34  62  82 114 156 196 243 301 348
#     4  10  20  36  59  86 120 157 193 243 303 355
#     4  10  20  38  58  83 117 153 196 247 286 343
#     4  10  20  36  56  83 119 153 192 246 301 356
#     4   9  18  33  57  86 115 148 191 245 300 352
#     4   9  18  33  57  89 117 149 197 244 295 361
#
# _framework density 21.959978
#
# number of rings (size 3 to 8) (size 9 to 14) (size 15 to 20)
#    0.000    2.250    2.500    1.125    0.000    3.250 
#    0.000    8.750    5.500    3.000    0.000    0.000 
#    0.000    0.000    0.000    0.000    0.000    0.000 
#
# Total GULP energy -178517.019508 kJ/mol
# GULP energy per Si atom -5578.656860 kJ/mol
# Density = 2.191000 g / cm^3
# Si number density = 21.959978 Si / 1000 Ang^3
#
#
#
# Elastic Constant Matrix: (Units=GPa)
#
#
# Indices 1 2 3 4 5 6 
#
# 1 68.9757 35.5060 28.5523 0.0000 -19.7580 0.0000
# 2 35.5060 90.1715 34.3116 0.0000 8.1743 0.0000
# 3 28.5523 34.3116 44.6083 0.0000 -11.2350 0.0000
# 4 0.0000 0.0000 0.0000 291.2107 0.0000 166.4698
# 5 -19.7580 8.1743 -11.2350 0.0000 37.3776 0.0000
# 6 0.0000 0.0000 0.0000 166.4698 0.0000 130.5778
#
#
#
# Elastic Compliance Matrix: (Units=1/GPa)
#
#
# Indices 1 2 3 4 5 6 
#
# 1 0.025526 -0.009027 -0.005950 0.000000 0.013679 0.000000
# 2 -0.009027 0.021180 -0.013936 0.000000 -0.013593 0.000000
# 3 -0.005950 -0.013936 0.039945 0.000000 0.011909 0.000000
# 4 0.000000 0.000000 0.000000 0.012661 0.000000 -0.016141
# 5 0.013679 -0.013593 0.011909 0.000000 0.040537 0.000000
# 6 0.000000 0.000000 0.000000 -0.016141 0.000000 0.028236
#
#
# Mechanical properties :
#
#
# Convention : Reuss Voigt Hill
#
# Bulk Modulus (GPa) = 34.69355 44.49947 39.59651
# Shear Modulus (GPa) = 21.22975 98.85893 60.04434
#
# Velocity S-wave (km/s) = 3.11263 6.71681 5.23469
# Velocity P-wave (km/s) = 5.36198 8.97006 7.38961
#
# Compressibility (1/GPa) = 0.02882380
#
# Stress axis : x y z
#
# Youngs Moduli (GPa) = 39.17594 47.21491 25.03473
#
# Poissons Ratio (x) = 0.42622 0.14895
# Poissons Ratio (y) = 0.35365 0.34889
# Poissons Ratio (z) = 0.23308 0.65801
#
# Static dielectric constant tensor:
#      x y z
#    x 1.899430 0.000000 -0.044110 
#    y 0.000000 1.800850 0.000000 
#    z -0.044110 0.000000 1.796100 
# 
# From -- ./inp_files/113643.got.cif
#   From: 2010.05.17/outbox.cif.g08.bks.cpg/sg12_57_cif.got.tgz:113643.got - 2010.06.03 13:09:07.
