data_PCOD9176603
_publ_section_title
;
Structure prediction by ZEFSAII (Michael W. Deem and Ramdas Pophale) SiO2 
 PCOD9176603
Probable space group: C 2/M
;
_chemical_formula_sum "Si O2"
_cell_formula_units_Z 56
_cell_length_a 9.602549
_cell_length_b 31.180124
_cell_length_c 12.922258
_cell_angle_alpha 90.000000
_cell_angle_beta 124.341547
_cell_angle_gamma 90.000000
_cell_volume 3194.622245
_symmetry_space_group_name_H-M "C 2/M"
_symmetry_group_IT_number 12
_symmetry_cell_setting 'monoclinic'
loop_
_space_group_symop_operation_xyz
x,y,z
-x,y,-z
-x,-y,-z
x,-y,z
1/2+x,1/2+y,z
1/2-x,1/2+y,-z
1/2-x,1/2-y,-z
1/2+x,1/2-y,z
loop_
_atom_site_type_symbol
_atom_site_label
_atom_site_fract_x
_atom_site_fract_y
_atom_site_fract_z
Si Si1 0.490683 0.500000 0.120792
Si Si2 0.001570 0.670691 0.274717
Si Si3 0.013719 0.091937 0.882641
Si Si4 0.336440 0.704133 0.508054
Si Si5 0.399794 0.000000 0.063224
Si Si6 0.050649 0.743797 0.912129
Si Si7 0.093221 0.404041 0.928955
Si Si8 0.837761 0.177282 0.742151
O O1 0.551995 0.545876 0.185496
O O2 0.500000 0.500000 0.000000
O O3 0.292193 0.500000 0.053939
O O4 0.989744 0.712465 0.197838
O O5 0.957448 0.630439 0.180558
O O6 0.857748 0.676786 0.302896
O O7 0.191097 0.673464 0.398687
O O8 0.908419 0.130801 0.796592
O O9 0.212342 0.099544 0.953996
O O10 0.000000 0.090802 0.000000
O O11 0.500000 0.708097 0.500000
O O12 0.250000 0.750000 0.500000
O O13 0.376348 0.686449 0.638665
O O14 0.430535 0.047006 0.125246
O O15 0.500000 0.000000 0.000000
O O16 0.942326 0.787122 0.851141
O O17 0.250000 0.750000 0.000000
O O18 0.000000 0.723487 0.000000
O O19 0.000000 0.398954 0.000000
#
# Coordination Sequence:
#
# PCOD9176603 Si02
#       8
#     4   8   8   8   4   8   8   8
#     4   8  16  28  54  87 120 155 185 224 283 354
#     4  12  24  41  60  83 116 154 199 240 283 346
#     4  10  18  35  58  90 125 153 187 234 294 350
#     4  12  28  46  64  81 106 154 206 247 291 340
#     4   8  16  32  52  85 124 161 185 226 285 354
#     4  12  24  36  56  85 118 147 180 228 292 344
#     4  10  20  34  59  91 127 155 192 235 293 351
#     4  12  24  41  60  82 117 155 196 241 285 344
#
# _framework density 17.529458999999999
#
# number of rings (size 3 to 8) (size 9 to 14) (size 15 to 20)
#    0.000    1.143    4.286    3.000    4.000    0.000 
#    0.000    0.000    0.000    0.857    0.000    3.000 
#    0.000    0.000    0.000    0.000    0.000    0.000 
#
# Total GULP energy -155992.524645 kJ/mol
# GULP energy per Si atom -5571.161594 kJ/mol
# Density = 1.748956 g / cm^3
# Si number density = 17.529459 Si / 1000 Ang^3
#
#
#
# Elastic Constant Matrix: (Units=GPa)
#
#
# Indices 1 2 3 4 5 6 
#
# 1 145.2516 11.6879 19.6973 0.0000 -5.3341 0.0000
# 2 11.6879 128.4577 18.2145 0.0000 1.8162 0.0000
# 3 19.6973 18.2145 53.7688 0.0000 -4.0181 0.0000
# 4 0.0000 0.0000 0.0000 7.8092 0.0000 1.1372
# 5 -5.3341 1.8162 -4.0181 0.0000 26.6143 0.0000
# 6 0.0000 0.0000 0.0000 1.1372 0.0000 20.4950
#
#
#
# Elastic Compliance Matrix: (Units=1/GPa)
#
#
# Indices 1 2 3 4 5 6 
#
# 1 0.007287 -0.000328 -0.002476 0.000000 0.001109 0.000000
# 2 -0.000328 0.008218 -0.002742 0.000000 -0.001040 0.000000
# 3 -0.002476 -0.002742 0.020644 0.000000 0.002808 0.000000
# 4 0.000000 0.000000 0.000000 0.129097 0.000000 -0.007163
# 5 0.001109 -0.001040 0.002808 0.000000 0.038291 0.000000
# 6 0.000000 0.000000 0.000000 -0.007163 0.000000 0.049190
#
#
# Mechanical properties :
#
#
# Convention : Reuss Voigt Hill
#
# Bulk Modulus (GPa) = 39.90583 47.40860 43.65722
# Shear Modulus (GPa) = 18.37087 29.50893 23.93990
#
# Velocity S-wave (km/s) = 3.24079 4.10737 3.69954
# Velocity P-wave (km/s) = 6.06779 7.04257 6.57327
#
# Compressibility (1/GPa) = 0.02505899
#
# Stress axis : x y z
#
# Youngs Moduli (GPa) = 137.22254 121.68517 48.44106
#
# Poissons Ratio (x) = 0.03988 0.11993
# Poissons Ratio (y) = 0.04497 0.13280
# Poissons Ratio (z) = 0.33973 0.33361
#
# Static dielectric constant tensor:
#      x y z
#    x 1.459200 0.000000 0.076150 
#    y 0.000000 1.675190 0.000000 
#    z 0.076150 0.000000 1.585300 
# 
# From -- ./inp_files/125655.got.cif
#   From: 2010.05.17/outbox.cif.g08.bks.cpg/sg12_63_cif.got.tgz:125655.got - 2010.06.03 13:09:07.
