data_PCOD9176669
_publ_section_title
;
Structure prediction by ZEFSAII (Michael W. Deem and Ramdas Pophale) SiO2 
 PCOD9176669
Probable space group: C 2/M
;
_chemical_formula_sum "Si O2"
_cell_formula_units_Z 50
_cell_length_a 11.563538
_cell_length_b 13.953904
_cell_length_c 25.514066
_cell_angle_alpha 90.000000
_cell_angle_beta 153.794061
_cell_angle_gamma 90.000000
_cell_volume 1818.000829
_symmetry_space_group_name_H-M "C 2/M"
_symmetry_group_IT_number 12
_symmetry_cell_setting 'monoclinic'
loop_
_space_group_symop_operation_xyz
x,y,z
-x,y,-z
-x,-y,-z
x,-y,z
1/2+x,1/2+y,z
1/2-x,1/2+y,-z
1/2-x,1/2-y,-z
1/2+x,1/2-y,z
loop_
_atom_site_type_symbol
_atom_site_label
_atom_site_fract_x
_atom_site_fract_y
_atom_site_fract_z
Si Si1 0.500129 0.671604 0.424334
Si Si2 0.000000 0.000000 0.500000
Si Si3 0.353378 0.894621 0.041118
Si Si4 0.913738 0.607514 0.397194
Si Si5 0.317812 0.652163 0.806258
Si Si6 0.042242 0.603165 0.793247
Si Si7 0.061784 0.854164 0.717654
O O1 0.620131 0.589929 0.510978
O O2 0.565723 0.786608 0.457944
O O3 0.486345 0.618419 0.362204
O O4 0.186658 0.678163 0.308246
O O5 0.367683 0.889976 0.110370
O O6 0.654783 0.889098 0.145737
O O7 0.252736 0.000000 0.985771
O O8 0.126335 0.827600 0.925973
O O9 0.025356 0.500000 0.451202
O O10 0.783848 0.604143 0.287129
O O11 0.681018 0.619559 0.345155
O O12 0.270929 0.605897 0.844018
O O13 0.136815 0.744257 0.738917
O O14 0.902371 0.500000 0.725885
#
# Coordination Sequence:
#
# PCOD9176669 Si02
#       7
#     8   2   8   8   8   8   8
#     4  10  23  42  69 103 122 165 216 271 337 397
#     4  12  24  48  82 104 124 150 224 284 326 422
#     4  10  20  33  54  88 127 179 236 281 313 356
#     4  11  23  41  66  94 136 184 213 260 331 403
#     4  11  21  36  57  91 132 184 235 266 310 385
#     4  10  18  35  60  89 129 172 221 283 329 371
#     4  10  22  39  61  86 135 180 220 267 329 386
#
# _framework density 27.502738000000001
#
# number of rings (size 3 to 8) (size 9 to 14) (size 15 to 20)
#    0.000    1.600    2.400    2.880    2.240    1.920 
#    2.880    2.800    0.000    0.000    0.000    0.000 
#    0.000    0.000    0.000    0.000    0.000    0.000 
#
# Total GULP energy -139371.845543 kJ/mol
# GULP energy per Si atom -5574.873822 kJ/mol
# Density = 2.744014 g / cm^3
# Si number density = 27.502738 Si / 1000 Ang^3
#
#
#
# Elastic Constant Matrix: (Units=GPa)
#
#
# Indices 1 2 3 4 5 6 
#
# 1 111.7547 38.2403 31.5341 0.0012 19.8721 0.0005
# 2 38.2403 183.4159 43.9649 0.0005 2.6510 0.0003
# 3 31.5341 43.9649 83.5967 0.0025 17.4667 0.0000
# 4 0.0012 0.0005 0.0025 47.2190 0.0001 -1.8415
# 5 19.8721 2.6510 17.4667 0.0001 37.7899 0.0003
# 6 0.0005 0.0003 0.0000 -1.8415 0.0003 28.6530
#
#
#
# Elastic Compliance Matrix: (Units=1/GPa)
#
#
# Indices 1 2 3 4 5 6 
#
# 1 0.010988 -0.001672 -0.002305 0.000000 -0.004595 0.000000
# 2 -0.001672 0.006542 -0.003207 0.000000 0.001903 0.000000
# 3 -0.002305 -0.003207 0.015738 -0.000001 -0.005837 0.000000
# 4 0.000000 0.000000 -0.000001 0.021231 0.000000 0.001364
# 5 -0.004595 0.001903 -0.005837 0.000000 0.031443 0.000000
# 6 0.000000 0.000000 0.000000 0.001364 0.000000 0.034988
#
#
# Mechanical properties :
#
#
# Convention : Reuss Voigt Hill
#
# Bulk Modulus (GPa) = 52.91376 67.36067 60.13721
# Shear Modulus (GPa) = 35.31092 40.40091 37.85591
#
# Velocity S-wave (km/s) = 3.58705 3.83688 3.71407
# Velocity P-wave (km/s) = 6.03632 6.64638 6.34868
#
# Compressibility (1/GPa) = 0.01889868
#
# Stress axis : x y z
#
# Youngs Moduli (GPa) = 91.00932 152.85906 63.53931
#
# Poissons Ratio (x) = 0.25555 0.14649
# Poissons Ratio (y) = 0.15215 0.20380
# Poissons Ratio (z) = 0.20982 0.49029
#
# Static dielectric constant tensor:
#      x y z
#    x 2.144500 0.000000 0.466610 
#    y 0.000000 2.257940 -0.000020 
#    z 0.466610 -0.000020 -0.526490 
# 
# From -- ./inp_files/336086.got.cif
#   From: 2010.05.17/outbox.cif.g08.bks.cpg/sg12_169_cif.got.tgz:336086.got - 2010.06.03 13:09:07.
