data_PCOD9176186
_publ_section_title
;
Structure prediction by ZEFSAII (Michael W. Deem and Ramdas Pophale) SiO2 
 PCOD9176186
Probable space group: C 2/M
;
_chemical_formula_sum "Si O2"
_cell_formula_units_Z 48
_cell_length_a 18.648757
_cell_length_b 16.722973
_cell_length_c 8.923156
_cell_angle_alpha 90.000000
_cell_angle_beta 81.459811
_cell_angle_gamma 90.000000
_cell_volume 2751.943326
_symmetry_space_group_name_H-M "C 2/M"
_symmetry_group_IT_number 12
_symmetry_cell_setting 'monoclinic'
loop_
_space_group_symop_operation_xyz
x,y,z
-x,y,-z
-x,-y,-z
x,-y,z
1/2+x,1/2+y,z
1/2-x,1/2+y,-z
1/2-x,1/2-y,-z
1/2+x,1/2-y,z
loop_
_atom_site_type_symbol
_atom_site_label
_atom_site_fract_x
_atom_site_fract_y
_atom_site_fract_z
Si Si1 0.148116 0.339145 0.626659
Si Si2 0.801981 0.093050 0.471383
Si Si3 0.918970 0.783906 0.571607
Si Si4 0.641762 0.236772 0.109363
Si Si5 0.296765 0.691069 0.190438
Si Si6 0.415261 0.088529 0.064256
O O1 0.220364 0.383470 0.547563
O O2 0.103013 0.298461 0.506973
O O3 0.175540 0.263919 0.715800
O O4 0.101461 0.391674 0.756775
O O5 0.859778 0.149627 0.539817
O O6 0.805796 0.114754 0.293312
O O7 0.815453 0.000000 0.494904
O O8 0.913948 0.767651 0.750049
O O9 0.000000 0.807095 0.500000
O O10 0.714246 0.211834 0.175523
O O11 0.660876 0.303837 0.979589
O O12 0.617908 0.158487 0.026269
O O13 0.385509 0.000000 0.039427
O O14 0.500000 0.088244 0.000000
#
# Coordination Sequence:
#
# PCOD9176186 Si02
#       6
#     8   8   8   8   8   8
#     4  10  18  37  57  77 105 146 185 220 260 324
#     4  11  21  36  56  81 113 143 179 226 275 322
#     4  11  21  36  59  83 108 142 186 226 267 320
#     4  10  18  34  57  78 104 138 183 228 258 314
#     4   9  18  34  57  77 103 135 185 224 258 314
#     4  10  21  34  49  77 115 147 174 215 277 327
#
# _framework density 17.442219000000001
#
# number of rings (size 3 to 8) (size 9 to 14) (size 15 to 20)
#    0.000    1.833    3.333    2.500    0.000    1.000 
#    0.000    0.833    0.000    4.500    0.000    0.000 
#    0.000    0.000    0.000    0.000    0.000    0.000 
#
# Total GULP energy -133809.833004 kJ/mol
# GULP energy per Si atom -5575.409709 kJ/mol
# Density = 1.740252 g / cm^3
# Si number density = 17.442219 Si / 1000 Ang^3
#
#
#
# Elastic Constant Matrix: (Units=GPa)
#
#
# Indices 1 2 3 4 5 6 
#
# 1 55.0750 15.6358 21.3014 0.0000 -25.2015 0.0000
# 2 15.6358 69.1138 26.8096 0.0000 -17.5919 0.0000
# 3 21.3014 26.8096 102.8808 0.0000 -25.4564 0.0000
# 4 0.0000 0.0000 0.0000 9.0386 0.0000 -8.8997
# 5 -25.2015 -17.5919 -25.4564 0.0000 25.9640 0.0000
# 6 0.0000 0.0000 0.0000 -8.8997 0.0000 -11.4237
#
#
#
# Elastic Compliance Matrix: (Units=1/GPa)
#
#
# Indices 1 2 3 4 5 6 
#
# 1 0.032845 0.000599 0.001363 0.000000 0.033622 0.000000
# 2 0.000599 0.017861 -0.002166 0.000000 0.010560 0.000000
# 3 0.001363 -0.002166 0.013159 0.000000 0.012757 0.000000
# 4 0.000000 0.000000 0.000000 0.062610 0.000000 -0.048776
# 5 0.033622 0.010560 0.012757 0.000000 0.090812 0.000000
# 6 0.000000 0.000000 0.000000 -0.048776 0.000000 -0.049538
#
#
# Mechanical properties :
#
#
# Convention : Reuss Voigt Hill
#
# Bulk Modulus (GPa) = 15.75865 39.39591 27.57728
# Shear Modulus (GPa) = 26.41174 15.60395 21.00784
#
# Velocity S-wave (km/s) = 3.89555 2.99424 3.47425
# Velocity P-wave (km/s) = 5.41185 5.88129 5.65145
#
# Compressibility (1/GPa) = 0.06345721
#
# Stress axis : x y z
#
# Youngs Moduli (GPa) = 30.44600 55.98681 75.99569
#
# Poissons Ratio (x) = -0.03353 -0.10357
# Poissons Ratio (y) = -0.01823 0.16457
# Poissons Ratio (z) = -0.04149 0.12124
#
# Static dielectric constant tensor:
#      x y z
#    x 1.595900 0.000000 -0.016010 
#    y 0.000000 1.584300 0.000000 
#    z -0.016010 0.000000 1.619560 
# 
# From -- ./inp_files/73600.got.cif
#   From: 2010.05.17/outbox.cif.g08.bks.cpg/sg12_37_cif.got.tgz:73600.got - 2010.06.03 13:09:07.
