data_PCOD9176684
_publ_section_title
;
Structure prediction by ZEFSAII (Michael W. Deem and Ramdas Pophale) SiO2 
 PCOD9176684
Probable space group: C 2/M
;
_chemical_formula_sum "Si O2"
_cell_formula_units_Z 56
_cell_length_a 15.121389
_cell_length_b 8.070133
_cell_length_c 19.371632
_cell_angle_alpha 90.000000
_cell_angle_beta 101.672573
_cell_angle_gamma 90.000000
_cell_volume 2315.064581
_symmetry_space_group_name_H-M "C 2/M"
_symmetry_group_IT_number 12
_symmetry_cell_setting 'monoclinic'
loop_
_space_group_symop_operation_xyz
x,y,z
-x,y,-z
-x,-y,-z
x,-y,z
1/2+x,1/2+y,z
1/2-x,1/2+y,-z
1/2-x,1/2-y,-z
1/2+x,1/2-y,z
loop_
_atom_site_type_symbol
_atom_site_label
_atom_site_fract_x
_atom_site_fract_y
_atom_site_fract_z
Si Si1 0.605655 0.300244 0.514054
Si Si2 0.219016 0.805403 0.103983
Si Si3 0.389883 0.804512 0.633989
Si Si4 0.291959 0.702570 0.330186
Si Si5 0.051935 0.808240 0.736843
Si Si6 0.056636 0.307461 0.149927
Si Si7 0.613975 0.798124 0.949581
O O1 0.500000 0.254008 0.500000
O O2 0.612203 0.500000 0.510783
O O3 0.642856 0.224071 0.449143
O O4 0.655978 0.247405 0.591544
O O5 0.157608 0.758315 0.158933
O O6 0.318253 0.738122 0.100938
O O7 0.229468 0.000000 0.107052
O O8 0.158816 0.755795 0.027850
O O9 0.311381 0.748419 0.674124
O O10 0.481925 0.705782 0.661840
O O11 0.406426 0.000000 0.646882
O O12 0.293018 0.500000 0.327227
O O13 0.352143 0.759622 0.274799
O O14 0.997637 0.715655 0.788003
O O15 0.061553 0.000000 0.758071
O O16 0.066654 0.500000 0.137175
O O17 0.986070 0.235872 0.082622
O O18 0.610871 0.000000 0.949529
#
# Coordination Sequence:
#
# PCOD9176684 Si02
#       7
#     8   8   8   8   8   8   8
#     4  10  18  35  61  84 113 150 186 226 281 340
#     4  10  20  36  60  90 119 150 190 231 277 336
#     4  11  22  37  58  87 116 143 185 237 287 334
#     4   9  20  38  59  82 112 149 187 230 282 340
#     4  11  23  42  60  78 109 153 195 231 279 340
#     4  11  23  39  58  83 116 152 190 235 286 331
#     4   9  20  38  59  85 120 154 187 232 283 331
#
# _framework density 24.189392000000002
#
# number of rings (size 3 to 8) (size 9 to 14) (size 15 to 20)
#    0.000    1.857    1.429    2.571    0.000    4.857 
#    0.000    6.429    0.000    0.000    0.000    0.000 
#    0.000    0.000    0.000    0.000    0.000    0.000 
#
# Total GULP energy -156535.238293 kJ/mol
# GULP energy per Si atom -5590.544225 kJ/mol
# Density = 2.413434 g / cm^3
# Si number density = 24.189392 Si / 1000 Ang^3
#
#
#
# Elastic Constant Matrix: (Units=GPa)
#
#
# Indices 1 2 3 4 5 6 
#
# 1 148.0541 14.3488 15.0427 0.0000 -38.9624 0.0000
# 2 14.3488 25.1189 -14.9650 0.0000 -3.8821 0.0000
# 3 15.0427 -14.9650 61.4732 0.0000 -27.5811 0.0000
# 4 0.0000 0.0000 0.0000 29.7150 0.0000 -6.2968
# 5 -38.9624 -3.8821 -27.5811 0.0000 37.9048 0.0000
# 6 0.0000 0.0000 0.0000 -6.2968 0.0000 18.0135
#
#
#
# Elastic Compliance Matrix: (Units=1/GPa)
#
#
# Indices 1 2 3 4 5 6 
#
# 1 0.009759 -0.002652 0.001997 0.000000 0.011213 0.000000
# 2 -0.002652 0.059276 0.024616 0.000000 0.021257 0.000000
# 3 0.001997 0.024616 0.035371 0.000000 0.030312 0.000000
# 4 0.000000 0.000000 0.000000 0.036345 0.000000 0.012705
# 5 0.011213 0.021257 0.030312 0.000000 0.062141 0.000000
# 6 0.000000 0.000000 0.000000 0.012705 0.000000 0.059955
#
#
# Mechanical properties :
#
#
# Convention : Reuss Voigt Hill
#
# Bulk Modulus (GPa) = 6.56467 29.27769 17.92118
# Shear Modulus (GPa) = 18.81816 31.80799 25.31307
#
# Velocity S-wave (km/s) = 2.79220 3.63017 3.23840
# Velocity P-wave (km/s) = 3.62146 5.44983 4.62685
#
# Compressibility (1/GPa) = 0.15233056
#
# Stress axis : x y z
#
# Youngs Moduli (GPa) = 102.46644 16.87013 28.27177
#
# Poissons Ratio (x) = 0.04474 -0.05647
# Poissons Ratio (y) = 0.27173 -0.69595
# Poissons Ratio (z) = -0.20466 -0.41528
#
# Static dielectric constant tensor:
#      x y z
#    x 1.961260 0.000000 -0.022320 
#    y 0.000000 1.856100 0.000000 
#    z -0.022320 0.000000 2.016900 
# 
# From -- ./inp_files/309043.got.cif
#   From: 2010.05.17/outbox.cif.g08.bks.cpg/sg12_155_cif.got.tgz:309043.got - 2010.06.03 13:09:07.
