data_PCOD9176342
_publ_section_title
;
Structure prediction by ZEFSAII (Michael W. Deem and Ramdas Pophale) SiO2 
 PCOD9176342
Probable space group: C 2/M
;
_chemical_formula_sum "Si O2"
_cell_formula_units_Z 64
_cell_length_a 30.388160
_cell_length_b 8.322700
_cell_length_c 11.439329
_cell_angle_alpha 90.000000
_cell_angle_beta 79.726827
_cell_angle_gamma 90.000000
_cell_volume 2846.757389
_symmetry_space_group_name_H-M "C 2/M"
_symmetry_group_IT_number 12
_symmetry_cell_setting 'monoclinic'
loop_
_space_group_symop_operation_xyz
x,y,z
-x,y,-z
-x,-y,-z
x,-y,z
1/2+x,1/2+y,z
1/2-x,1/2+y,-z
1/2-x,1/2-y,-z
1/2+x,1/2-y,z
loop_
_atom_site_type_symbol
_atom_site_label
_atom_site_fract_x
_atom_site_fract_y
_atom_site_fract_z
Si Si1 0.313035 0.196099 0.717615
Si Si2 0.400285 0.811445 0.792729
Si Si3 0.351073 0.806914 0.210255
Si Si4 0.981648 0.190729 0.884104
Si Si5 0.063113 0.690862 0.705872
Si Si6 0.301003 0.805934 0.468706
Si Si7 0.052423 0.189743 0.460474
Si Si8 0.272456 0.308885 0.107920
O O1 0.350305 0.251859 0.791972
O O2 0.323172 0.247257 0.580518
O O3 0.263243 0.247255 0.776730
O O4 0.314181 0.000000 0.719217
O O5 0.430735 0.731420 0.876940
O O6 0.424968 0.784224 0.656331
O O7 0.398020 0.000000 0.820215
O O8 0.402022 0.755990 0.209839
O O9 0.325172 0.750021 0.339877
O O10 0.321968 0.749915 0.114974
O O11 0.350602 0.000000 0.206602
O O12 0.013596 0.267563 0.771437
O O13 0.987548 0.000000 0.875945
O O14 0.000000 0.249606 0.000000
O O15 0.067756 0.500000 0.687567
O O16 0.073084 0.772168 0.577234
O O17 0.250000 0.750000 0.500000
O O18 0.302168 0.000000 0.465933
O O19 0.000000 0.232164 0.500000
O O20 0.055316 0.000000 0.432426
O O21 0.273117 0.500000 0.107871
O O22 0.250000 0.250000 0.000000
#
# Coordination Sequence:
#
# PCOD9176342 Si02
#       8
#     8   8   8   8   8   8   8   8
#     4   9  20  38  60  88 121 155 192 243 296 348
#     4  11  22  39  65  91 118 156 203 248 297 356
#     4  10  22  39  61  91 124 154 195 248 298 353
#     4  11  25  44  62  85 121 158 198 252 307 357
#     4  11  23  40  65  92 120 159 204 248 295 355
#     4  10  18  34  59  87 120 153 189 234 290 350
#     4  11  22  37  60  91 129 161 191 241 304 362
#     4  11  23  41  63  86 119 160 204 250 299 351
#
# _framework density 22.481719999999999
#
# number of rings (size 3 to 8) (size 9 to 14) (size 15 to 20)
#    0.000    1.500    2.500    2.625    0.000    5.500 
#    0.000    8.750    0.000    0.000    0.000    0.000 
#    0.000    0.000    0.000    0.000    0.000    0.000 
#
# Total GULP energy -178905.096735 kJ/mol
# GULP energy per Si atom -5590.784273 kJ/mol
# Density = 2.243055 g / cm^3
# Si number density = 22.481720 Si / 1000 Ang^3
#
#
#
# Elastic Constant Matrix: (Units=GPa)
#
#
# Indices 1 2 3 4 5 6 
#
# 1 106.7363 3.0318 3.5769 0.0000 38.9783 0.0000
# 2 3.0318 15.9615 -4.4499 0.0000 4.3351 0.0000
# 3 3.5769 -4.4499 66.3530 0.0000 34.1616 0.0000
# 4 0.0000 0.0000 0.0000 18.5651 0.0000 1.7550
# 5 38.9783 4.3351 34.1616 0.0000 42.6080 0.0000
# 6 0.0000 0.0000 0.0000 1.7550 0.0000 13.2941
#
#
#
# Elastic Compliance Matrix: (Units=1/GPa)
#
#
# Indices 1 2 3 4 5 6 
#
# 1 0.020693 0.009765 0.016684 0.000000 -0.033301 0.000000
# 2 0.009765 0.076508 0.022498 0.000000 -0.034756 0.000000
# 3 0.016684 0.022498 0.042092 0.000000 -0.051299 0.000000
# 4 0.000000 0.000000 0.000000 0.054545 0.000000 -0.007201
# 5 -0.033301 -0.034756 -0.051299 0.000000 0.098600 0.000000
# 6 0.000000 0.000000 0.000000 -0.007201 0.000000 0.076172
#
#
# Mechanical properties :
#
#
# Convention : Reuss Voigt Hill
#
# Bulk Modulus (GPa) = 4.21608 21.48539 12.85074
# Shear Modulus (GPa) = 14.29484 27.35292 20.82388
#
# Velocity S-wave (km/s) = 2.52433 3.49187 3.04675
# Velocity P-wave (km/s) = 3.22114 5.08282 4.25505
#
# Compressibility (1/GPa) = 0.23718693
#
# Stress axis : x y z
#
# Youngs Moduli (GPa) = 48.32506 13.07061 23.75774
#
# Poissons Ratio (x) = -0.12764 -0.39637
# Poissons Ratio (y) = -0.47190 -0.53451
# Poissons Ratio (z) = -0.80626 -0.29407
#
# Static dielectric constant tensor:
#      x y z
#    x 1.770050 0.000000 -0.026520 
#    y 0.000000 1.766040 0.000000 
#    z -0.026520 0.000000 1.818820 
# 
# From -- ./inp_files/187440.got.cif
#   From: 2010.05.17/outbox.cif.g08.bks.cpg/sg12_94_cif.got.tgz:187440.got - 2010.06.03 13:09:07.
