data_PCOD9176277
_publ_section_title
;
Structure prediction by ZEFSAII (Michael W. Deem and Ramdas Pophale) SiO2 
 PCOD9176277
Probable space group: C 2/M
;
_chemical_formula_sum "Si O2"
_cell_formula_units_Z 44
_cell_length_a 8.214003
_cell_length_b 27.012419
_cell_length_c 12.421537
_cell_angle_alpha 90.000000
_cell_angle_beta 130.980587
_cell_angle_gamma 90.000000
_cell_volume 2080.661375
_symmetry_space_group_name_H-M "C 2/M"
_symmetry_group_IT_number 12
_symmetry_cell_setting 'monoclinic'
loop_
_space_group_symop_operation_xyz
x,y,z
-x,y,-z
-x,-y,-z
x,-y,z
1/2+x,1/2+y,z
1/2-x,1/2+y,-z
1/2-x,1/2-y,-z
1/2+x,1/2-y,z
loop_
_atom_site_type_symbol
_atom_site_label
_atom_site_fract_x
_atom_site_fract_y
_atom_site_fract_z
Si Si1 0.136962 0.126267 0.864984
Si Si2 0.655032 0.111961 0.660218
Si Si3 0.933340 0.718824 0.290226
Si Si4 0.347305 0.318658 0.344802
Si Si5 0.739577 0.943057 0.910791
Si Si6 0.000000 0.200001 0.000000
O O1 0.209956 0.150716 0.786307
O O2 0.902531 0.103607 0.736230
O O3 0.283906 0.086143 0.987857
O O4 0.082378 0.165989 0.936419
O O5 0.500000 0.093341 0.500000
O O6 0.617874 0.171000 0.658829
O O7 0.627806 0.086291 0.764513
O O8 0.984878 0.770272 0.369348
O O9 0.710438 0.728869 0.129522
O O10 0.128119 0.701577 0.300693
O O11 0.500000 0.344806 0.500000
O O12 0.673637 0.000000 0.886268
O O13 0.000000 0.941649 0.000000
#
# Coordination Sequence:
#
# PCOD9176277 Si02
#       6
#     8   8   8   8   8   4
#     4  10  19  38  58  81 120 151 197 242 284 352
#     4  10  18  34  58  85 120 154 192 242 289 342
#     4  11  22  38  58  83 120 155 198 242 286 348
#     4  12  25  38  58  86 118 160 200 239 295 346
#     4   9  17  34  59  86 113 149 194 241 297 348
#     4  10  20  40  57  90 112 156 197 242 288 336
#
# _framework density 21.147123000000001
#
# number of rings (size 3 to 8) (size 9 to 14) (size 15 to 20)
#    0.000    1.636    4.545    4.364    0.000    4.000 
#    0.000    0.000    0.000    2.727    0.000    0.000 
#    0.000    0.000    0.000    0.000    0.000    0.000 
#
# Total GULP energy -122907.601044 kJ/mol
# GULP energy per Si atom -5586.709138 kJ/mol
# Density = 2.109899 g / cm^3
# Si number density = 21.147123 Si / 1000 Ang^3
#
#
#
# Elastic Constant Matrix: (Units=GPa)
#
#
# Indices 1 2 3 4 5 6 
#
# 1 54.7811 -7.3774 21.1061 0.0000 1.9648 0.0000
# 2 -7.3774 76.9115 37.9809 0.0000 -13.9543 0.0000
# 3 21.1061 37.9809 157.0323 0.0000 -13.2547 0.0000
# 4 0.0000 0.0000 0.0000 6.1595 0.0000 -1.1140
# 5 1.9648 -13.9543 -13.2547 0.0000 18.2448 0.0000
# 6 0.0000 0.0000 0.0000 -1.1140 0.0000 5.9460
#
#
#
# Elastic Compliance Matrix: (Units=1/GPa)
#
#
# Indices 1 2 3 4 5 6 
#
# 1 0.020226 0.003360 -0.003727 0.000000 -0.002315 0.000000
# 2 0.003360 0.016957 -0.003717 0.000000 0.009907 0.000000
# 3 -0.003727 -0.003717 0.008056 0.000000 0.003411 0.000000
# 4 0.000000 0.000000 0.000000 0.168046 0.000000 0.031485
# 5 -0.002315 0.009907 0.003411 0.000000 0.065115 0.000000
# 6 0.000000 0.000000 0.000000 0.031485 0.000000 0.174080
#
#
# Mechanical properties :
#
#
# Convention : Reuss Voigt Hill
#
# Bulk Modulus (GPa) = 26.97404 43.57158 35.27281
# Shear Modulus (GPa) = 10.57073 21.87106 16.22089
#
# Velocity S-wave (km/s) = 2.23819 3.21944 2.77257
# Velocity P-wave (km/s) = 4.41163 5.87099 5.19283
#
# Compressibility (1/GPa) = 0.03707268
#
# Stress axis : x y z
#
# Youngs Moduli (GPa) = 49.44168 58.97180 124.13262
#
# Poissons Ratio (x) = -0.19816 0.46260
# Poissons Ratio (y) = -0.16614 0.46137
# Poissons Ratio (z) = 0.18425 0.21919
#
# Static dielectric constant tensor:
#      x y z
#    x 1.806510 0.000000 -0.021840 
#    y 0.000000 1.765570 0.000000 
#    z -0.021840 0.000000 1.814640 
# 
# From -- ./inp_files/41634.got.cif
#   From: 2010.05.17/outbox.cif.g08.bks.cpg/sg12_21_cif.got.tgz:41634.got - 2010.06.03 13:09:07.
