data_PCOD9176068
_publ_section_title
;
Structure prediction by ZEFSAII (Michael W. Deem and Ramdas Pophale) SiO2 
 PCOD9176068
Probable space group: C 2/M
;
_chemical_formula_sum "Si O2"
_cell_formula_units_Z 56
_cell_length_a 15.616858
_cell_length_b 18.156729
_cell_length_c 10.281311
_cell_angle_alpha 90.000000
_cell_angle_beta 64.484805
_cell_angle_gamma 90.000000
_cell_volume 2630.952837
_symmetry_space_group_name_H-M "C 2/M"
_symmetry_group_IT_number 12
_symmetry_cell_setting 'monoclinic'
loop_
_space_group_symop_operation_xyz
x,y,z
-x,y,-z
-x,-y,-z
x,-y,z
1/2+x,1/2+y,z
1/2-x,1/2+y,-z
1/2-x,1/2-y,-z
1/2+x,1/2-y,z
loop_
_atom_site_type_symbol
_atom_site_label
_atom_site_fract_x
_atom_site_fract_y
_atom_site_fract_z
Si Si1 0.015847 0.579174 0.146492
Si Si2 0.828650 0.648013 0.291041
Si Si3 0.109180 0.800277 0.691815
Si Si4 0.391438 0.780383 0.583503
Si Si5 0.796183 0.361128 0.022889
Si Si6 0.388569 0.713140 0.870761
Si Si7 0.742031 0.086293 0.398450
O O1 0.983554 0.500000 0.215837
O O2 0.941541 0.637975 0.245925
O O3 0.126575 0.589558 0.101425
O O4 0.000000 0.581385 0.000000
O O5 0.822898 0.736430 0.292659
O O6 0.799269 0.616678 0.171584
O O7 0.776897 0.603764 0.436869
O O8 0.117420 0.775680 0.533976
O O9 0.154266 0.879142 0.692282
O O10 0.000599 0.799409 0.812015
O O11 0.500000 0.805228 0.500000
O O12 0.375663 0.737064 0.728164
O O13 0.329254 0.854507 0.619988
O O14 0.688062 0.351031 0.050330
O O15 0.849886 0.282145 0.978250
O O16 0.731157 0.000000 0.376097
#
# Coordination Sequence:
#
# PCOD9176068 Si02
#       7
#     8   8   8   8   8   8   8
#     4   9  17  29  46  72 105 132 162 211 270 321
#     4  10  18  34  54  79 103 136 181 229 271 313
#     4  10  19  34  56  78 105 141 186 231 262 316
#     4   9  19  36  56  79 107 141 184 230 272 317
#     4  10  19  31  52  79 107 135 180 223 271 317
#     4  10  19  33  53  80 106 139 182 227 263 315
#     4  11  22  35  55  82 111 146 180 223 277 325
#
# _framework density 21.285063999999998
#
# number of rings (size 3 to 8) (size 9 to 14) (size 15 to 20)
#    0.000    2.143    1.429    3.857    0.000    0.857 
#    0.000    1.429    0.000    8.143    0.000   10.000 
#    0.000    0.000    0.000    0.000    0.000    0.000 
#
# Total GULP energy -156101.196350 kJ/mol
# GULP energy per Si atom -5575.042727 kJ/mol
# Density = 2.123662 g / cm^3
# Si number density = 21.285064 Si / 1000 Ang^3
#
#
#
# Elastic Constant Matrix: (Units=GPa)
#
#
# Indices 1 2 3 4 5 6 
#
# 1 68.6561 25.2136 10.2634 0.0000 -38.3703 0.0000
# 2 25.2136 90.9678 -5.5383 0.0000 -24.8780 0.0000
# 3 10.2634 -5.5383 42.6792 0.0000 -15.4320 0.0000
# 4 0.0000 0.0000 0.0000 14.4985 0.0000 -5.3939
# 5 -38.3703 -24.8780 -15.4320 0.0000 45.1437 0.0000
# 6 0.0000 0.0000 0.0000 -5.3939 0.0000 18.7496
#
#
#
# Elastic Compliance Matrix: (Units=1/GPa)
#
#
# Indices 1 2 3 4 5 6 
#
# 1 0.028011 -0.001166 0.001699 0.000000 0.023746 0.000000
# 2 -0.001166 0.013940 0.005145 0.000000 0.008450 0.000000
# 3 0.001699 0.005145 0.028796 0.000000 0.014123 0.000000
# 4 0.000000 0.000000 0.000000 0.077239 0.000000 0.022220
# 5 0.023746 0.008450 0.014123 0.000000 0.051819 0.000000
# 6 0.000000 0.000000 0.000000 0.022220 0.000000 0.059727
#
#
# Mechanical properties :
#
#
# Convention : Reuss Voigt Hill
#
# Bulk Modulus (GPa) = 12.18004 29.13116 20.65560
# Shear Modulus (GPa) = 18.14587 27.16934 22.65760
#
# Velocity S-wave (km/s) = 2.92296 3.57662 3.26618
# Velocity P-wave (km/s) = 4.13840 5.54727 4.89380
#
# Compressibility (1/GPa) = 0.08210152
#
# Stress axis : x y z
#
# Youngs Moduli (GPa) = 35.70054 71.73516 34.72675
#
# Poissons Ratio (x) = 0.08366 -0.05899
# Poissons Ratio (y) = 0.04164 -0.17866
# Poissons Ratio (z) = -0.06065 -0.36905
#
# Static dielectric constant tensor:
#      x y z
#    x 1.846730 0.000000 0.001740 
#    y 0.000000 1.778740 0.000000 
#    z 0.001740 0.000000 1.801920 
# 
# From -- ./inp_files/146060.got.cif
#   From: 2010.05.17/outbox.cif.g08.bks.cpg/sg12_74_cif.got.tgz:146060.got - 2010.06.03 13:09:07.
