data_PCOD9176971
_publ_section_title
;
Structure prediction by ZEFSAII (Michael W. Deem and Ramdas Pophale) SiO2 
 PCOD9176971
Probable space group: C 2/M
;
_chemical_formula_sum "Si O2"
_cell_formula_units_Z 32
_cell_length_a 14.656582
_cell_length_b 11.115896
_cell_length_c 16.681619
_cell_angle_alpha 90.000000
_cell_angle_beta 149.825198
_cell_angle_gamma 90.000000
_cell_volume 1366.067783
_symmetry_space_group_name_H-M "C 2/M"
_symmetry_group_IT_number 12
_symmetry_cell_setting 'monoclinic'
loop_
_space_group_symop_operation_xyz
x,y,z
-x,y,-z
-x,-y,-z
x,-y,z
1/2+x,1/2+y,z
1/2-x,1/2+y,-z
1/2-x,1/2-y,-z
1/2+x,1/2-y,z
loop_
_atom_site_type_symbol
_atom_site_label
_atom_site_fract_x
_atom_site_fract_y
_atom_site_fract_z
Si Si1 0.799720 0.724630 0.663514
Si Si2 0.658745 0.000000 0.050240
Si Si3 0.308311 0.500000 0.316941
Si Si4 0.392251 0.264804 0.002171
Si Si5 0.504109 0.138986 0.345951
O O1 0.777666 0.622174 0.714341
O O2 0.609918 0.786439 0.495342
O O3 0.961065 0.810163 0.820802
O O4 0.873548 0.660539 0.639949
O O5 0.830357 0.000000 0.238692
O O6 0.500000 0.000000 0.000000
O O7 0.652349 0.127338 0.002936
O O8 0.500000 0.500000 0.500000
O O9 0.500000 0.264472 0.000000
O O10 0.199463 0.323352 0.834399
O O11 0.502252 0.000000 0.367273
#
# Coordination Sequence:
#
# PCOD9176971 Si02
#       5
#     8   4   4   8   8
#     4  11  23  43  65  94 126 163 205 260 318 371
#     4  10  18  36  64  98 118 142 199 270 318 350
#     4  12  20  36  72  98 121 153 202 273 322 357
#     4  11  22  41  68  95 123 159 209 266 315 366
#     4  11  26  43  60  90 131 172 208 246 307 384
#
# _framework density 23.424897999999999
#
# number of rings (size 3 to 8) (size 9 to 14) (size 15 to 20)
#    0.000    1.000    6.250    2.250    0.000    1.500 
#    2.250    1.250    0.000    0.000    0.000    0.000 
#    0.000    0.000    0.000    0.000    0.000    0.000 
#
# Total GULP energy -89302.976989 kJ/mol
# GULP energy per Si atom -5581.436062 kJ/mol
# Density = 2.337158 g / cm^3
# Si number density = 23.424898 Si / 1000 Ang^3
#
#
#
# Elastic Constant Matrix: (Units=GPa)
#
#
# Indices 1 2 3 4 5 6 
#
# 1 38.1405 4.5716 0.9635 0.0000 -0.9650 0.0000
# 2 4.5716 91.9128 46.3814 0.0002 6.0072 0.0001
# 3 0.9635 46.3814 194.2568 0.0004 -7.8550 0.0004
# 4 0.0000 0.0002 0.0004 15.8342 0.0002 -3.5491
# 5 -0.9650 6.0072 -7.8550 0.0002 41.2249 0.0002
# 6 0.0000 0.0001 0.0004 -3.5491 0.0002 7.8680
#
#
#
# Elastic Compliance Matrix: (Units=1/GPa)
#
#
# Indices 1 2 3 4 5 6 
#
# 1 0.026415 -0.001505 0.000264 0.000000 0.000888 0.000000
# 2 -0.001505 0.012693 -0.003123 0.000000 -0.002480 0.000000
# 3 0.000264 -0.003123 0.005957 0.000000 0.001596 0.000000
# 4 0.000000 0.000000 0.000000 0.070258 -0.000001 0.031691
# 5 0.000888 -0.002480 0.001596 -0.000001 0.024944 -0.000001
# 6 0.000000 0.000000 0.000000 0.031691 -0.000001 0.141392
#
#
# Mechanical properties :
#
#
# Convention : Reuss Voigt Hill
#
# Bulk Modulus (GPa) = 27.52084 47.57144 37.54614
# Shear Modulus (GPa) = 16.52899 31.14499 23.83699
#
# Velocity S-wave (km/s) = 2.65923 3.65028 3.19343
# Velocity P-wave (km/s) = 4.60464 6.17399 5.44614
#
# Compressibility (1/GPa) = 0.03633610
#
# Stress axis : x y z
#
# Youngs Moduli (GPa) = 37.85716 78.78367 167.87463
#
# Poissons Ratio (x) = 0.11859 -0.04437
# Poissons Ratio (y) = 0.05698 0.52435
# Poissons Ratio (z) = -0.01001 0.24608
#
# Static dielectric constant tensor:
#      x y z
#    x 1.946550 0.000000 -0.006540 
#    y 0.000000 1.963160 0.000000 
#    z -0.006540 0.000000 2.099790 
# 
# From -- ./inp_files/269424.got.cif
#   From: 2010.05.17/outbox.cif.g08.bks.cpg/sg12_135_cif.got.tgz:269424.got - 2010.06.03 13:09:07.
