data_PCOD9176178
_publ_section_title
;
Structure prediction by ZEFSAII (Michael W. Deem and Ramdas Pophale) SiO2 
 PCOD9176178
Probable space group: C 2/M
;
_chemical_formula_sum "Si O2"
_cell_formula_units_Z 48
_cell_length_a 35.848155
_cell_length_b 18.878616
_cell_length_c 10.759839
_cell_angle_alpha 90.000000
_cell_angle_beta 157.916673
_cell_angle_gamma 90.000000
_cell_volume 2737.651553
_symmetry_space_group_name_H-M "C 2/M"
_symmetry_group_IT_number 12
_symmetry_cell_setting 'monoclinic'
loop_
_space_group_symop_operation_xyz
x,y,z
-x,y,-z
-x,-y,-z
x,-y,z
1/2+x,1/2+y,z
1/2-x,1/2+y,-z
1/2-x,1/2-y,-z
1/2+x,1/2-y,z
loop_
_atom_site_type_symbol
_atom_site_label
_atom_site_fract_x
_atom_site_fract_y
_atom_site_fract_z
Si Si1 0.031294 0.416605 0.732450
Si Si2 0.191408 0.775080 0.698178
Si Si3 0.505835 0.172513 0.150884
Si Si4 0.237854 0.081753 0.481249
Si Si5 0.778541 0.290101 0.463495
Si Si6 0.380764 0.416833 0.634638
O O1 0.007599 0.500000 0.665514
O O2 0.000000 0.390083 0.500000
O O3 0.977314 0.376201 0.677795
O O4 0.149982 0.409515 0.118855
O O5 0.087112 0.733226 0.386306
O O6 0.246376 0.747030 0.742986
O O7 0.168911 0.858290 0.608364
O O8 0.250000 0.750000 0.000000
O O9 0.500000 0.132262 0.000000
O O10 0.397319 0.204977 0.832666
O O11 0.232680 0.132433 0.346060
O O12 0.162003 0.098326 0.358913
O O13 0.224812 0.000000 0.406989
O O14 0.750000 0.250000 0.500000
O O15 0.357298 0.500000 0.534723
O O16 0.500000 0.408950 0.000000
#
# Coordination Sequence:
#
# PCOD9176178 Si02
#       6
#     8   8   8   8   8   8
#     4   9  18  31  51  78 107 138 176 223 271 324
#     4  11  23  36  53  84 115 140 179 231 284 334
#     4   9  20  34  50  73 106 142 176 220 267 332
#     4   9  18  32  54  80 104 139 189 229 268 329
#     4  10  18  34  57  75 102 144 183 226 273 329
#     4  10  20  36  60  83 109 150 195 233 271 327
#
# _framework density 17.533276000000001
#
# number of rings (size 3 to 8) (size 9 to 14) (size 15 to 20)
#    0.000    2.333    1.667    1.500    2.333    0.333 
#    0.000    3.333    0.000    0.000    0.000    3.500 
#    0.000    0.000    0.000    0.000    0.000    0.000 
#
# Total GULP energy -133692.149028 kJ/mol
# GULP energy per Si atom -5570.506209 kJ/mol
# Density = 1.749337 g / cm^3
# Si number density = 17.533276 Si / 1000 Ang^3
#
#
#
# Elastic Constant Matrix: (Units=GPa)
#
#
# Indices 1 2 3 4 5 6 
#
# 1 142.1131 63.2429 39.5280 0.0000 -10.9711 0.0000
# 2 63.2429 102.0997 36.0229 0.0000 -14.9596 0.0000
# 3 39.5280 36.0229 32.6847 0.0000 -13.0364 0.0000
# 4 0.0000 0.0000 0.0000 16.1856 0.0000 -2.4466
# 5 -10.9711 -14.9596 -13.0364 0.0000 37.0979 0.0000
# 6 0.0000 0.0000 0.0000 -2.4466 0.0000 33.4396
#
#
#
# Elastic Compliance Matrix: (Units=1/GPa)
#
#
# Indices 1 2 3 4 5 6 
#
# 1 0.011451 -0.003628 -0.010564 0.000000 -0.001789 0.000000
# 2 -0.003628 0.017179 -0.014201 0.000000 0.000864 0.000000
# 3 -0.010564 -0.014201 0.064537 0.000000 0.013828 0.000000
# 4 0.000000 0.000000 0.000000 0.062474 0.000000 0.004571
# 5 -0.001789 0.000864 0.013828 0.000000 0.031635 0.000000
# 6 0.000000 0.000000 0.000000 0.004571 0.000000 0.030239
#
#
# Mechanical properties :
#
#
# Convention : Reuss Voigt Hill
#
# Bulk Modulus (GPa) = 27.48596 61.60945 44.54771
# Shear Modulus (GPa) = 17.45645 26.55152 22.00399
#
# Velocity S-wave (km/s) = 3.15877 3.89569 3.54642
# Velocity P-wave (km/s) = 5.38648 7.44648 6.49863
#
# Compressibility (1/GPa) = 0.03638221
#
# Stress axis : x y z
#
# Youngs Moduli (GPa) = 87.32532 58.21183 15.49500
#
# Poissons Ratio (x) = 0.21121 0.16368
# Poissons Ratio (y) = 0.31684 0.22004
# Poissons Ratio (z) = 0.92247 0.82664
#
# Static dielectric constant tensor:
#      x y z
#    x 1.631430 0.000000 -0.006010 
#    y 0.000000 1.658910 0.000000 
#    z -0.006010 0.000000 1.590350 
# 
# From -- ./inp_files/113242.got.cif
#   From: 2010.05.17/outbox.cif.g08.bks.cpg/sg12_57_cif.got.tgz:113242.got - 2010.06.03 13:09:07.
