data_PCOD9176244
_publ_section_title
;
Structure prediction by ZEFSAII (Michael W. Deem and Ramdas Pophale) SiO2 
 PCOD9176244
Probable space group: C 2/M
;
_chemical_formula_sum "Si O2"
_cell_formula_units_Z 64
_cell_length_a 21.180031
_cell_length_b 8.783934
_cell_length_c 20.699204
_cell_angle_alpha 90.000000
_cell_angle_beta 106.344447
_cell_angle_gamma 90.000000
_cell_volume 3695.334709
_symmetry_space_group_name_H-M "C 2/M"
_symmetry_group_IT_number 12
_symmetry_cell_setting 'monoclinic'
loop_
_space_group_symop_operation_xyz
x,y,z
-x,y,-z
-x,-y,-z
x,-y,z
1/2+x,1/2+y,z
1/2-x,1/2+y,-z
1/2-x,1/2-y,-z
1/2+x,1/2-y,z
loop_
_atom_site_type_symbol
_atom_site_label
_atom_site_fract_x
_atom_site_fract_y
_atom_site_fract_z
Si Si1 0.925175 0.816009 0.715028
Si Si2 0.320907 0.685145 0.792863
Si Si3 0.309132 0.316840 0.934194
Si Si4 0.574813 0.682285 0.784472
Si Si5 0.326663 0.183587 0.291830
Si Si6 0.800872 0.683175 0.427899
Si Si7 0.659098 0.181828 0.419735
Si Si8 0.342596 0.181445 0.077430
O O1 0.875122 0.763828 0.757040
O O2 0.897875 0.753737 0.639674
O O3 0.999542 0.768996 0.751578
O O4 0.922888 0.000000 0.712509
O O5 0.321706 0.500000 0.792834
O O6 0.332607 0.732889 0.870144
O O7 0.247318 0.729287 0.750367
O O8 0.315059 0.500000 0.940799
O O9 0.231261 0.280070 0.918488
O O10 0.345350 0.241780 0.005132
O O11 0.576763 0.500000 0.786751
O O12 0.620499 0.741826 0.739665
O O13 0.604976 0.745598 0.859515
O O14 0.333853 0.223399 0.369419
O O15 0.331064 0.000000 0.286318
O O16 0.790919 0.500000 0.424951
O O17 0.729168 0.758697 0.413112
O O18 0.840701 0.723429 0.504158
O O19 0.656784 0.000000 0.414057
O O20 0.348742 0.000000 0.080584
#
# Coordination Sequence:
#
# PCOD9176244 Si02
#       8
#     8   8   8   8   8   8   8   8
#     4  10  21  38  56  75 107 149 181 214 267 324
#     4   9  16  32  57  79  99 134 183 219 255 312
#     4   9  17  31  53  80 103 129 173 224 263 305
#     4  11  23  36  53  79 110 142 178 221 268 318
#     4  10  18  34  58  79 103 140 181 221 263 313
#     4   9  18  33  54  79 109 142 176 217 268 321
#     4  10  19  31  52  83 110 137 177 224 268 310
#     4  10  19  33  53  78 107 140 173 211 267 322
#
# _framework density 17.319134999999999
#
# number of rings (size 3 to 8) (size 9 to 14) (size 15 to 20)
#    0.000    2.250    2.500    1.125    0.000    2.500 
#    0.000    1.875    0.000    7.500    0.000    0.000 
#    0.000    0.000    0.000    0.000    0.000    0.000 
#
# Total GULP energy -178519.321524 kJ/mol
# GULP energy per Si atom -5578.728798 kJ/mol
# Density = 1.727972 g / cm^3
# Si number density = 17.319135 Si / 1000 Ang^3
#
#
#
# Elastic Constant Matrix: (Units=GPa)
#
#
# Indices 1 2 3 4 5 6 
#
# 1 106.4140 28.2212 84.4044 0.0000 5.3441 0.0000
# 2 28.2212 18.2727 42.4372 0.0000 4.1144 0.0000
# 3 84.4044 42.4372 181.3813 0.0000 3.0774 0.0000
# 4 0.0000 0.0000 0.0000 30.0754 0.0000 -0.1730
# 5 5.3441 4.1144 3.0774 0.0000 26.4203 0.0000
# 6 0.0000 0.0000 0.0000 -0.1730 0.0000 21.4677
#
#
#
# Elastic Compliance Matrix: (Units=1/GPa)
#
#
# Indices 1 2 3 4 5 6 
#
# 1 0.017087 -0.017223 -0.003916 0.000000 -0.000318 0.000000
# 2 -0.017223 0.143833 -0.025367 0.000000 -0.015960 0.000000
# 3 -0.003916 -0.025367 0.013216 0.000000 0.003203 0.000000
# 4 0.000000 0.000000 0.000000 0.033251 0.000000 0.000268
# 5 -0.000318 -0.015960 0.003203 0.000000 0.040026 0.000000
# 6 0.000000 0.000000 0.000000 0.000268 0.000000 0.046584
#
#
# Mechanical properties :
#
#
# Convention : Reuss Voigt Hill
#
# Bulk Modulus (GPa) = 12.32676 68.46595 40.39635
# Shear Modulus (GPa) = 12.07577 25.65970 18.86774
#
# Velocity S-wave (km/s) = 2.64341 3.85331 3.30421
# Velocity P-wave (km/s) = 4.05583 7.70812 6.15893
#
# Compressibility (1/GPa) = 0.08112433
#
# Stress axis : x y z
#
# Youngs Moduli (GPa) = 58.52354 6.95249 75.66388
#
# Poissons Ratio (x) = 0.11974 0.29633
# Poissons Ratio (y) = 1.00796 1.91935
# Poissons Ratio (z) = 0.22920 0.17636
#
# Static dielectric constant tensor:
#      x y z
#    x 1.564360 0.000000 -0.012640 
#    y 0.000000 1.586770 0.000000 
#    z -0.012640 0.000000 1.595010 
# 
# From -- ./inp_files/320032.got.cif
#   From: 2010.05.17/outbox.cif.g08.bks.cpg/sg12_161_cif.got.tgz:320032.got - 2010.06.03 13:09:07.
