data_PCOD9176174
_publ_section_title
;
Structure prediction by ZEFSAII (Michael W. Deem and Ramdas Pophale) SiO2 
 PCOD9176174
Probable space group: C 2/M
;
_chemical_formula_sum "Si O2"
_cell_formula_units_Z 48
_cell_length_a 10.770038
_cell_length_b 30.256046
_cell_length_c 14.006902
_cell_angle_alpha 90.000000
_cell_angle_beta 32.048219
_cell_angle_gamma 90.000000
_cell_volume 2421.952215
_symmetry_space_group_name_H-M "C 2/M"
_symmetry_group_IT_number 12
_symmetry_cell_setting 'monoclinic'
loop_
_space_group_symop_operation_xyz
x,y,z
-x,y,-z
-x,-y,-z
x,-y,z
1/2+x,1/2+y,z
1/2-x,1/2+y,-z
1/2-x,1/2-y,-z
1/2+x,1/2-y,z
loop_
_atom_site_type_symbol
_atom_site_label
_atom_site_fract_x
_atom_site_fract_y
_atom_site_fract_z
Si Si1 0.853090 0.310243 0.372530
Si Si2 0.265688 0.277218 0.349068
Si Si3 0.783589 0.500000 0.068594
Si Si4 0.641846 0.405067 0.505802
Si Si5 0.280800 0.098271 0.068946
Si Si6 0.355932 0.500000 0.494165
Si Si7 0.354263 0.666044 0.008704
O O1 0.709216 0.293454 0.557997
O O2 0.786247 0.275944 0.332957
O O3 0.795397 0.361548 0.400016
O O4 0.133403 0.308059 0.196914
O O5 0.463638 0.300396 0.158541
O O6 0.000000 0.290539 0.500000
O O7 0.799501 0.548599 0.012407
O O8 0.548898 0.500000 0.284859
O O9 0.000000 0.500000 0.000000
O O10 0.500000 0.406715 0.500000
O O11 0.452361 0.400693 0.713770
O O12 0.768955 0.452657 0.431575
O O13 0.245516 0.133725 0.008282
O O14 0.500000 0.105248 0.000000
O O15 0.500000 0.500000 0.500000
O O16 0.500000 0.643566 0.000000
#
# Coordination Sequence:
#
# PCOD9176174 Si02
#       7
#     8   8   4   8   8   4   8
#     4  11  23  39  63  87 118 161 208 251 307 364
#     4  11  23  43  61  85 121 163 204 259 307 366
#     4   8  16  32  55  84 124 162 196 258 313 355
#     4  10  18  34  56  90 123 158 199 254 309 365
#     4  10  20  36  60  92 126 162 211 259 309 366
#     4   8  16  28  52  82 121 155 192 243 310 365
#     4  12  24  42  63  92 124 167 206 251 311 374
#
# _framework density 19.818722999999999
#
# number of rings (size 3 to 8) (size 9 to 14) (size 15 to 20)
#    0.000    1.667    3.333    2.000    0.000    1.333 
#    0.000    0.417    0.000    0.000    0.000    4.667 
#    0.000    0.000    0.000    0.000    0.000    0.000 
#
# Total GULP energy -133722.824055 kJ/mol
# GULP energy per Si atom -5571.784336 kJ/mol
# Density = 1.977362 g / cm^3
# Si number density = 19.818723 Si / 1000 Ang^3
#
#
#
# Elastic Constant Matrix: (Units=GPa)
#
#
# Indices 1 2 3 4 5 6 
#
# 1 52.4977 24.4851 15.2241 0.0000 2.0194 0.0000
# 2 24.4851 150.1495 41.6259 0.0000 -5.9636 0.0000
# 3 15.2241 41.6259 111.1680 0.0000 -2.8659 0.0000
# 4 0.0000 0.0000 0.0000 144.7225 0.0000 121.2522
# 5 2.0194 -5.9636 -2.8659 0.0000 25.6173 0.0000
# 6 0.0000 0.0000 0.0000 121.2522 0.0000 138.9257
#
#
#
# Elastic Compliance Matrix: (Units=1/GPa)
#
#
# Indices 1 2 3 4 5 6 
#
# 1 0.021091 -0.003038 -0.001817 0.000000 -0.002573 0.000000
# 2 -0.003038 0.007921 -0.002503 0.000000 0.001803 0.000000
# 3 -0.001817 -0.002503 0.010200 0.000000 0.000702 0.000000
# 4 0.000000 0.000000 0.000000 0.025710 0.000000 -0.022439
# 5 -0.002573 0.001803 0.000702 0.000000 0.039737 0.000000
# 6 0.000000 0.000000 0.000000 -0.022439 0.000000 0.026783
#
#
# Mechanical properties :
#
#
# Convention : Reuss Voigt Hill
#
# Bulk Modulus (GPa) = 40.82452 52.94281 46.88366
# Shear Modulus (GPa) = 32.39938 77.35178 54.87558
#
# Velocity S-wave (km/s) = 4.04764 6.25415 5.26772
# Velocity P-wave (km/s) = 6.51829 8.88392 7.79141
#
# Compressibility (1/GPa) = 0.02449508
#
# Stress axis : x y z
#
# Youngs Moduli (GPa) = 47.41303 126.24569 98.04163
#
# Poissons Ratio (x) = 0.38351 0.17816
# Poissons Ratio (y) = 0.14403 0.24544
# Poissons Ratio (z) = 0.08616 0.31605
#
# Static dielectric constant tensor:
#      x y z
#    x 1.708070 0.000000 0.004600 
#    y 0.000000 1.780150 0.000000 
#    z 0.004600 0.000000 1.700060 
# 
# From -- ./inp_files/209809.got.cif
#   From: 2010.05.17/outbox.cif.g08.bks.cpg/sg12_105_cif.got.tgz:209809.got - 2010.06.03 13:09:07.
