data_PCOD9176506
_publ_section_title
;
Structure prediction by ZEFSAII (Michael W. Deem and Ramdas Pophale) SiO2 
 PCOD9176506
Probable space group: C 2/M
;
_chemical_formula_sum "Si O2"
_cell_formula_units_Z 64
_cell_length_a 20.413050
_cell_length_b 23.240174
_cell_length_c 26.805538
_cell_angle_alpha 90.000000
_cell_angle_beta 17.629646
_cell_angle_gamma 90.000000
_cell_volume 3851.395291
_symmetry_space_group_name_H-M "C 2/M"
_symmetry_group_IT_number 12
_symmetry_cell_setting 'monoclinic'
loop_
_space_group_symop_operation_xyz
x,y,z
-x,y,-z
-x,-y,-z
x,-y,z
1/2+x,1/2+y,z
1/2-x,1/2+y,-z
1/2-x,1/2-y,-z
1/2+x,1/2-y,z
loop_
_atom_site_type_symbol
_atom_site_label
_atom_site_fract_x
_atom_site_fract_y
_atom_site_fract_z
Si Si1 0.593871 0.254228 0.035452
Si Si2 0.446329 0.682467 0.831244
Si Si3 0.893972 0.246789 0.629977
Si Si4 0.157338 0.064650 0.692254
Si Si5 0.007880 0.934314 0.074348
Si Si6 0.256148 0.773999 0.439191
Si Si7 0.385628 0.846937 0.783679
Si Si8 0.084786 0.375843 0.349401
O O1 0.570012 0.299866 0.098723
O O2 0.361017 0.235255 0.185852
O O3 0.729866 0.202005 0.960136
O O4 0.734029 0.289661 0.893528
O O5 0.515845 0.617010 0.773067
O O6 0.628017 0.724963 0.677675
O O7 0.911135 0.315983 0.623915
O O8 0.000000 0.230745 0.500000
O O9 0.026606 0.218199 0.579055
O O10 0.096646 0.065033 0.794618
O O11 0.406142 0.082245 0.502429
O O12 0.117534 0.000000 0.702060
O O13 0.823611 0.903056 0.175766
O O14 0.042772 0.000000 0.033156
O O15 0.230142 0.898779 0.912842
O O16 0.250000 0.750000 0.500000
O O17 0.414630 0.829053 0.326032
O O18 0.472519 0.860926 0.665882
#
# Coordination Sequence:
#
# PCOD9176506 Si02
#       8
#     8   8   8   8   8   8   8   8
#     4  10  20  32  54  78 105 141 180 222 273 326
#     4  10  18  35  53  75 107 141 180 222 270 319
#     4  12  20  32  54  79 105 144 181 215 268 330
#     4  11  21  35  53  74 105 147 188 218 258 318
#     4  11  23  35  50  74 107 144 186 223 256 313
#     4  11  21  35  52  77 110 140 177 227 274 316
#     4  11  22  35  52  73 107 145 174 222 271 314
#     4  12  21  33  51  74 109 142 181 218 261 318
#
# _framework density 16.617355
#
# number of rings (size 3 to 8) (size 9 to 14) (size 15 to 20)
#    0.000    1.000    6.250    1.875    0.000    2.500 
#    0.000    0.000    0.000    0.000    0.000    0.875 
#    0.000    7.000    0.000    0.000    0.000    0.000 
#
# Total GULP energy -178642.804969 kJ/mol
# GULP energy per Si atom -5582.587655 kJ/mol
# Density = 1.657953 g / cm^3
# Si number density = 16.617355 Si / 1000 Ang^3
#
#
#
# Elastic Constant Matrix: (Units=GPa)
#
#
# Indices 1 2 3 4 5 6 
#
# 1 58.3037 18.7882 28.6337 0.0282 -17.9843 -0.0119
# 2 18.7882 87.4827 24.4538 0.0440 -21.4599 -0.0585
# 3 28.6337 24.4538 81.9408 -0.1016 -25.5181 -0.1692
# 4 0.0282 0.0440 -0.1016 16.1747 -0.0522 -2.1457
# 5 -17.9843 -21.4599 -25.5181 -0.0522 43.0346 -0.0100
# 6 -0.0119 -0.0585 -0.1692 -2.1457 -0.0100 16.8775
#
#
#
# Elastic Compliance Matrix: (Units=1/GPa)
#
#
# Indices 1 2 3 4 5 6 
#
# 1 0.022046 -0.001967 -0.005585 -0.000059 0.004921 -0.000052
# 2 -0.001967 0.013558 -0.001851 -0.000026 0.004841 0.000027
# 3 -0.005585 -0.001851 0.016796 0.000166 0.006703 0.000183
# 4 -0.000059 -0.000026 0.000166 0.062887 0.000139 0.007997
# 5 0.004921 0.004841 0.006703 0.000139 0.031682 0.000124
# 6 -0.000052 0.000027 0.000183 0.007997 0.000124 0.060269
#
#
# Mechanical properties :
#
#
# Convention : Reuss Voigt Hill
#
# Bulk Modulus (GPa) = 29.76626 41.27540 35.52083
# Shear Modulus (GPa) = 21.07550 25.60746 23.34148
#
# Velocity S-wave (km/s) = 3.56516 3.92983 3.75193
# Velocity P-wave (km/s) = 5.90752 6.74418 6.33967
#
# Compressibility (1/GPa) = 0.03359509
#
# Stress axis : x y z
#
# Youngs Moduli (GPa) = 45.35999 73.75542 59.53846
#
# Poissons Ratio (x) = 0.14504 0.33250
# Poissons Ratio (y) = 0.08920 0.11022
# Poissons Ratio (z) = 0.25332 0.13654
#
# Static dielectric constant tensor:
#      x y z
#    x 1.592960 0.000040 0.011980 
#    y 0.000040 1.553030 0.000190 
#    z 0.011980 0.000190 1.614170 
# 
# From -- ./inp_files/345022.got.cif
#   From: 2010.05.17/outbox.cif.g08.bks.cpg/sg12_173_cif.got.tgz:345022.got - 2010.06.03 13:09:07.
