data_PCOD9176324
_publ_section_title
;
Structure prediction by ZEFSAII (Michael W. Deem and Ramdas Pophale) SiO2 
 PCOD9176324
Probable space group: C 2/M
;
_chemical_formula_sum "Si O2"
_cell_formula_units_Z 56
_cell_length_a 30.231115
_cell_length_b 7.457601
_cell_length_c 13.139093
_cell_angle_alpha 90.000000
_cell_angle_beta 58.559036
_cell_angle_gamma 90.000000
_cell_volume 2527.309237
_symmetry_space_group_name_H-M "C 2/M"
_symmetry_group_IT_number 12
_symmetry_cell_setting 'monoclinic'
loop_
_space_group_symop_operation_xyz
x,y,z
-x,y,-z
-x,-y,-z
x,-y,z
1/2+x,1/2+y,z
1/2-x,1/2+y,-z
1/2-x,1/2-y,-z
1/2+x,1/2-y,z
loop_
_atom_site_type_symbol
_atom_site_label
_atom_site_fract_x
_atom_site_fract_y
_atom_site_fract_z
Si Si1 0.189821 0.714845 0.591787
Si Si2 0.540446 0.715350 0.037451
Si Si3 0.111831 0.719506 0.510973
Si Si4 0.108273 0.280485 0.285588
Si Si5 0.693822 0.785288 0.021929
Si Si6 0.340732 0.208902 0.151005
Si Si7 0.504311 0.210054 0.309286
O O1 0.182234 0.500000 0.602691
O O2 0.250000 0.750000 0.500000
O O3 0.153162 0.782198 0.544759
O O4 0.173310 0.786854 0.722334
O O5 0.541552 0.500000 0.035150
O O6 0.522532 0.773455 0.170815
O O7 0.500000 0.776590 0.000000
O O8 0.597938 0.780715 0.942824
O O9 0.112206 0.500000 0.512806
O O10 0.123515 0.772913 0.381096
O O11 0.053555 0.781833 0.607309
O O12 0.107765 0.500000 0.283950
O O13 0.149167 0.219104 0.151777
O O14 0.050643 0.218103 0.324025
O O15 0.686711 0.000000 0.024671
O O16 0.750000 0.750000 0.000000
O O17 0.686603 0.712993 0.916430
O O18 0.325376 0.000000 0.174297
O O19 0.500446 0.000000 0.339792
#
# Coordination Sequence:
#
# PCOD9176324 Si02
#       7
#     8   8   8   8   8   8   8
#     4  10  22  38  57  81 110 145 186 228 272 327
#     4  11  23  36  54  83 117 149 182 226 280 336
#     4   9  18  32  55  85 111 141 184 228 274 326
#     4   9  17  32  55  85 113 138 179 231 275 321
#     4  10  21  36  56  83 113 145 185 232 280 330
#     4  10  21  40  60  82 111 145 191 234 271 326
#     4  10  18  34  59  84 110 143 182 229 278 327
#
# _framework density 22.157955000000001
#
# number of rings (size 3 to 8) (size 9 to 14) (size 15 to 20)
#    0.000    2.143    1.429    1.714    2.000    5.143 
#    0.000    0.714    0.000    3.429    0.000    0.000 
#    0.000    0.000    0.000    0.000    0.000    0.000 
#
# Total GULP energy -156507.918302 kJ/mol
# GULP energy per Si atom -5589.568511 kJ/mol
# Density = 2.210752 g / cm^3
# Si number density = 22.157955 Si / 1000 Ang^3
#
#
#
# Elastic Constant Matrix: (Units=GPa)
#
#
# Indices 1 2 3 4 5 6 
#
# 1 204.6974 2.6870 91.2010 0.0000 36.4036 0.0000
# 2 2.6870 66.2525 5.9955 0.0000 4.1921 0.0000
# 3 91.2010 5.9955 96.4448 0.0000 26.7356 0.0000
# 4 0.0000 0.0000 0.0000 -5.1807 0.0000 -9.6250
# 5 36.4036 4.1921 26.7356 0.0000 35.0581 0.0000
# 6 0.0000 0.0000 0.0000 -9.6250 0.0000 16.8623
#
#
#
# Elastic Compliance Matrix: (Units=1/GPa)
#
#
# Indices 1 2 3 4 5 6 
#
# 1 0.008792 0.000536 -0.007353 0.000000 -0.003586 0.000000
# 2 0.000536 0.015265 -0.001009 0.000000 -0.001613 0.000000
# 3 -0.007353 -0.001009 0.019319 0.000000 -0.006977 0.000000
# 4 0.000000 0.000000 0.000000 -0.093679 0.000000 -0.053473
# 5 -0.003586 -0.001613 -0.006977 0.000000 0.037761 0.000000
# 6 0.000000 0.000000 0.000000 -0.053473 0.000000 0.028782
#
#
# Mechanical properties :
#
#
# Convention : Reuss Voigt Hill
#
# Bulk Modulus (GPa) = 36.06984 63.01797 49.54391
# Shear Modulus (GPa) = 121.55623 27.18201 74.36912
#
# Velocity S-wave (km/s) = 7.41472 3.50628 5.79966
# Velocity P-wave (km/s) = 9.46667 6.70031 8.20098
#
# Compressibility (1/GPa) = 0.02772399
#
# Stress axis : x y z
#
# Youngs Moduli (GPa) = 113.73733 65.50780 51.76278
#
# Poissons Ratio (x) = -0.03510 0.38063
# Poissons Ratio (y) = -0.06094 0.05221
# Poissons Ratio (z) = 0.83636 0.06607
#
# Static dielectric constant tensor:
#      x y z
#    x 1.769110 0.000000 0.024400 
#    y 0.000000 1.697490 0.000000 
#    z 0.024400 0.000000 1.777910 
# 
# From -- ./inp_files/180800.got.cif
#   From: 2010.05.17/outbox.cif.g08.bks.cpg/sg12_91_cif.got.tgz:180800.got - 2010.06.03 13:09:07.
