data_PCOD9176312
_publ_section_title
;
Structure prediction by ZEFSAII (Michael W. Deem and Ramdas Pophale) SiO2 
 PCOD9176312
Probable space group: C 2/M
;
_chemical_formula_sum "Si O2"
_cell_formula_units_Z 36
_cell_length_a 13.395555
_cell_length_b 18.192522
_cell_length_c 9.166749
_cell_angle_alpha 90.000000
_cell_angle_beta 119.018493
_cell_angle_gamma 90.000000
_cell_volume 1953.486839
_symmetry_space_group_name_H-M "C 2/M"
_symmetry_group_IT_number 12
_symmetry_cell_setting 'monoclinic'
loop_
_space_group_symop_operation_xyz
x,y,z
-x,y,-z
-x,-y,-z
x,-y,z
1/2+x,1/2+y,z
1/2-x,1/2+y,-z
1/2-x,1/2-y,-z
1/2+x,1/2-y,z
loop_
_atom_site_type_symbol
_atom_site_label
_atom_site_fract_x
_atom_site_fract_y
_atom_site_fract_z
Si Si1 0.500000 0.870974 0.500000
Si Si2 0.672720 0.916458 0.377856
Si Si3 0.413767 0.248367 0.236001
Si Si4 0.658974 0.691048 0.371317
Si Si5 0.331696 0.205639 0.872056
O O1 0.572364 0.911956 0.427966
O O2 0.585252 0.816856 0.646198
O O3 0.786220 0.885073 0.539297
O O4 0.646310 0.860596 0.225495
O O5 0.686251 0.000000 0.338273
O O6 0.531977 0.292210 0.338096
O O7 0.301793 0.297345 0.178255
O O8 0.404664 0.210834 0.070426
O O9 0.750000 0.750000 0.500000
O O10 0.652696 0.716080 0.199101
#
# Coordination Sequence:
#
# PCOD9176312 Si02
#       5
#     4   8   8   8   8
#     4  12  19  36  58  86 115 152 194 240 287 344
#     4  11  23  38  56  87 123 160 189 232 302 355
#     4  11  20  35  64  91 108 142 207 247 289 325
#     4  10  18  34  59  82 113 147 191 239 277 339
#     4  10  21  37  60  87 116 150 195 249 284 342
#
# _framework density 18.428585999999999
#
# number of rings (size 3 to 8) (size 9 to 14) (size 15 to 20)
#    0.000    1.333    6.667    2.333    0.000    0.000 
#    0.000    5.556    0.000    2.667    0.000    0.000 
#    0.000    0.000    0.000    0.000    0.000    0.000 
#
# Total GULP energy -100350.184392 kJ/mol
# GULP energy per Si atom -5575.010244 kJ/mol
# Density = 1.838664 g / cm^3
# Si number density = 18.428586 Si / 1000 Ang^3
#
#
#
# Elastic Constant Matrix: (Units=GPa)
#
#
# Indices 1 2 3 4 5 6 
#
# 1 109.5141 30.8933 19.7803 0.0000 12.4513 0.0000
# 2 30.8933 89.3702 34.3105 0.0000 -3.4895 0.0000
# 3 19.7803 34.3105 96.9299 0.0000 -12.8131 0.0000
# 4 0.0000 0.0000 0.0000 13.2515 0.0000 -1.8599
# 5 12.4513 -3.4895 -12.8131 0.0000 42.6510 0.0000
# 6 0.0000 0.0000 0.0000 -1.8599 0.0000 16.5165
#
#
#
# Elastic Compliance Matrix: (Units=1/GPa)
#
#
# Indices 1 2 3 4 5 6 
#
# 1 0.010778 -0.003282 -0.001551 0.000000 -0.003881 0.000000
# 2 -0.003282 0.013953 -0.004157 0.000000 0.000851 0.000000
# 3 -0.001551 -0.004157 0.012621 0.000000 0.003904 0.000000
# 4 0.000000 0.000000 0.000000 0.076675 0.000000 0.008634
# 5 -0.003881 0.000851 0.003904 0.000000 0.025822 0.000000
# 6 0.000000 0.000000 0.000000 0.008634 0.000000 0.061518
#
#
# Mechanical properties :
#
#
# Convention : Reuss Voigt Hill
#
# Bulk Modulus (GPa) = 51.61836 51.75359 51.68598
# Shear Modulus (GPa) = 22.14317 28.53914 25.34116
#
# Velocity S-wave (km/s) = 3.47012 3.93954 3.71226
# Velocity P-wave (km/s) = 6.64277 6.98839 6.81777
#
# Compressibility (1/GPa) = 0.01937295
#
# Stress axis : x y z
#
# Youngs Moduli (GPa) = 92.77769 71.66924 79.23523
#
# Poissons Ratio (x) = 0.23522 0.12288
# Poissons Ratio (y) = 0.30450 0.32936
# Poissons Ratio (z) = 0.14388 0.29791
#
# Static dielectric constant tensor:
#      x y z
#    x 1.728030 0.000000 -0.017340 
#    y 0.000000 1.612880 0.000000 
#    z -0.017340 0.000000 1.675890 
# 
# From -- ./inp_files/48959.got.cif
#   From: 2010.05.17/outbox.cif.g08.bks.cpg/sg12_25_cif.got.tgz:48959.got - 2010.06.03 13:09:07.
