data_PCOD9176474
_publ_section_title
;
Structure prediction by ZEFSAII (Michael W. Deem and Ramdas Pophale) SiO2 
 PCOD9176474
Probable space group: C 2/M
;
_chemical_formula_sum "Si O2"
_cell_formula_units_Z 40
_cell_length_a 11.307194
_cell_length_b 18.308166
_cell_length_c 17.422157
_cell_angle_alpha 90.000000
_cell_angle_beta 146.437053
_cell_angle_gamma 90.000000
_cell_volume 1993.935523
_symmetry_space_group_name_H-M "C 2/M"
_symmetry_group_IT_number 12
_symmetry_cell_setting 'monoclinic'
loop_
_space_group_symop_operation_xyz
x,y,z
-x,y,-z
-x,-y,-z
x,-y,z
1/2+x,1/2+y,z
1/2-x,1/2+y,-z
1/2-x,1/2-y,-z
1/2+x,1/2-y,z
loop_
_atom_site_type_symbol
_atom_site_label
_atom_site_fract_x
_atom_site_fract_y
_atom_site_fract_z
Si Si1 0.383607 0.583693 0.197735
Si Si2 0.179774 0.582134 0.662587
Si Si3 0.451421 0.199320 0.637421
Si Si4 0.212079 0.729973 0.068375
Si Si5 0.391135 0.585568 0.521417
O O1 0.308796 0.500000 0.158845
O O2 0.591998 0.587615 0.255742
O O3 0.218068 0.642320 0.077764
O O4 0.463452 0.604898 0.326577
O O5 0.175458 0.500000 0.699290
O O6 0.000000 0.577641 0.500000
O O7 0.121288 0.659034 0.672432
O O8 0.250000 0.250000 0.500000
O O9 0.584720 0.240586 0.773892
O O10 0.328205 0.128006 0.598777
O O11 0.250000 0.750000 0.000000
O O12 0.000000 0.756099 0.000000
O O13 0.500000 0.601516 0.500000
O O14 0.351669 0.500000 0.507715
#
# Coordination Sequence:
#
# PCOD9176474 Si02
#       5
#     8   8   8   8   8
#     4  10  21  42  67  93 126 171 217 264 326 390
#     4  10  18  34  63  96 126 155 205 273 327 372
#     4  12  23  39  67  95 124 169 218 266 322 383
#     4  12  28  46  64  95 139 177 215 269 328 392
#     4  10  21  37  63  99 130 159 214 277 319 370
#
# _framework density 20.060829999999999
#
# number of rings (size 3 to 8) (size 9 to 14) (size 15 to 20)
#    0.000    1.200    4.000    1.800    2.800    2.800 
#    0.000    2.000    0.000    5.400    0.000    0.000 
#    0.000    0.000    0.000    0.000    0.000    0.000 
#
# Total GULP energy -111445.222161 kJ/mol
# GULP energy per Si atom -5572.261108 kJ/mol
# Density = 2.001517 g / cm^3
# Si number density = 20.060830 Si / 1000 Ang^3
#
#
#
# Elastic Constant Matrix: (Units=GPa)
#
#
# Indices 1 2 3 4 5 6 
#
# 1 111.5334 29.2810 40.4947 -0.0006 -17.0148 -0.0014
# 2 29.2810 108.0508 47.5924 -0.0002 -23.5488 -0.0022
# 3 40.4947 47.5924 89.0205 0.0003 -9.9600 -0.0065
# 4 -0.0006 -0.0002 0.0003 38.6186 -0.0007 10.8159
# 5 -17.0148 -23.5488 -9.9600 -0.0007 20.3055 -0.0045
# 6 -0.0014 -0.0022 -0.0065 10.8159 -0.0045 45.5782
#
#
#
# Elastic Compliance Matrix: (Units=1/GPa)
#
#
# Indices 1 2 3 4 5 6 
#
# 1 0.011804 0.000763 -0.004837 0.000000 0.008403 0.000000
# 2 0.000763 0.015363 -0.006873 0.000000 0.015085 0.000001
# 3 -0.004837 -0.006873 0.016678 -0.000001 -0.003843 0.000002
# 4 0.000000 0.000000 -0.000001 0.027738 -0.000001 -0.006582
# 5 0.008403 0.015085 -0.003843 -0.000001 0.071899 0.000008
# 6 0.000000 0.000001 0.000002 -0.006582 0.000008 0.023502
#
#
# Mechanical properties :
#
#
# Convention : Reuss Voigt Hill
#
# Bulk Modulus (GPa) = 45.55526 60.37120 52.96323
# Shear Modulus (GPa) = 25.48487 33.64957 29.56722
#
# Velocity S-wave (km/s) = 3.56811 4.10002 3.84328
# Velocity P-wave (km/s) = 6.30341 7.25072 6.79360
#
# Compressibility (1/GPa) = 0.02195136
#
# Stress axis : x y z
#
# Youngs Moduli (GPa) = 84.71843 65.09155 59.95833
#
# Poissons Ratio (x) = -0.04969 0.29004
# Poissons Ratio (y) = -0.06467 0.41209
# Poissons Ratio (z) = 0.40981 0.44737
#
# Static dielectric constant tensor:
#      x y z
#    x 1.932760 0.000000 0.054510 
#    y 0.000000 1.791010 0.000000 
#    z 0.054510 0.000000 1.683470 
# 
# From -- ./inp_files/47139.got.cif
#   From: 2010.05.17/outbox.cif.g08.bks.cpg/sg12_24_cif.got.tgz:47139.got - 2010.06.03 13:09:07.
