data_PCOD9176935
_publ_section_title
;
Structure prediction by ZEFSAII (Michael W. Deem and Ramdas Pophale) SiO2 
 PCOD9176935
Probable space group: C 2/M
;
_chemical_formula_sum "Si O2"
_cell_formula_units_Z 36
_cell_length_a 19.940406
_cell_length_b 15.900970
_cell_length_c 9.021512
_cell_angle_alpha 90.000000
_cell_angle_beta 136.771646
_cell_angle_gamma 90.000000
_cell_volume 1959.156085
_symmetry_space_group_name_H-M "C 2/M"
_symmetry_group_IT_number 12
_symmetry_cell_setting 'monoclinic'
loop_
_space_group_symop_operation_xyz
x,y,z
-x,y,-z
-x,-y,-z
x,-y,z
1/2+x,1/2+y,z
1/2-x,1/2+y,-z
1/2-x,1/2-y,-z
1/2+x,1/2-y,z
loop_
_atom_site_type_symbol
_atom_site_label
_atom_site_fract_x
_atom_site_fract_y
_atom_site_fract_z
Si Si1 0.438813 0.326576 0.056049
Si Si2 0.753938 0.500000 0.590935
Si Si3 0.022833 0.000000 0.215337
Si Si4 0.984803 0.332744 0.650126
Si Si5 0.731380 0.169675 0.574922
Si Si6 0.555163 0.000000 0.930059
O O1 0.476480 0.412499 0.191821
O O2 0.458905 0.246175 0.188348
O O3 0.500000 0.315416 0.000000
O O4 0.325786 0.336498 0.831623
O O5 0.637942 0.500000 0.433299
O O6 0.774336 0.584306 0.529910
O O7 0.829057 0.500000 0.848266
O O8 0.000000 0.000000 0.000000
O O9 0.870455 0.320901 0.504337
O O10 0.000000 0.337762 0.500000
O O11 0.022903 0.417337 0.789919
O O12 0.750000 0.250000 0.500000
O O13 0.500000 0.000000 0.000000
#
# Coordination Sequence:
#
# PCOD9176935 Si02
#       6
#     8   4   4   8   8   4
#     4  11  20  38  65  92 122 158 212 258 303 373
#     4  12  20  34  64  99 116 152 211 267 303 352
#     4  10  18  36  62  98 119 147 202 272 304 352
#     4  12  26  42  59  92 135 166 202 262 319 366
#     4  12  21  36  65  92 118 164 213 253 306 372
#     4  12  23  40  66  91 119 167 219 256 299 374
#
# _framework density 18.375260000000001
#
# number of rings (size 3 to 8) (size 9 to 14) (size 15 to 20)
#    0.000    0.444    8.889    2.333    0.000    0.889 
#    0.000    0.556    0.000    0.000    0.000    0.000 
#    0.000    0.000    0.000    0.000    0.000    0.000 
#
# Total GULP energy -100615.595409 kJ/mol
# GULP energy per Si atom -5589.755301 kJ/mol
# Density = 1.833344 g / cm^3
# Si number density = 18.375260 Si / 1000 Ang^3
#
#
#
# Elastic Constant Matrix: (Units=GPa)
#
#
# Indices 1 2 3 4 5 6 
#
# 1 93.9682 59.4974 75.7889 0.0000 8.6254 0.0000
# 2 59.4974 176.7242 49.8741 0.0000 -19.9499 0.0000
# 3 75.7889 49.8741 127.7336 0.0000 19.3068 0.0000
# 4 0.0000 0.0000 0.0000 30.7589 0.0000 18.5497
# 5 8.6254 -19.9499 19.3068 0.0000 39.8430 0.0000
# 6 0.0000 0.0000 0.0000 18.5497 0.0000 -2.5599
#
#
#
# Elastic Compliance Matrix: (Units=1/GPa)
#
#
# Indices 1 2 3 4 5 6 
#
# 1 0.023184 -0.004712 -0.011655 0.000000 -0.001731 0.000000
# 2 -0.004712 0.008268 -0.001309 0.000000 0.005794 0.000000
# 3 -0.011655 -0.001309 0.016156 0.000000 -0.005961 0.000000
# 4 0.000000 0.000000 0.000000 0.006054 0.000000 0.043870
# 5 -0.001731 0.005794 -0.005961 0.000000 0.031263 0.000000
# 6 0.000000 0.000000 0.000000 0.043870 0.000000 -0.072745
#
#
# Mechanical properties :
#
#
# Convention : Reuss Voigt Hill
#
# Bulk Modulus (GPa) = 81.57687 85.41628 83.49658
# Shear Modulus (GPa) = 96.87102 27.82611 62.34856
#
# Velocity S-wave (km/s) = 7.26861 3.89565 5.83133
# Velocity P-wave (km/s) = 10.72077 8.17436 9.53297
#
# Compressibility (1/GPa) = 0.01225838
#
# Stress axis : x y z
#
# Youngs Moduli (GPa) = 43.13372 120.94652 61.89743
#
# Poissons Ratio (x) = 0.56984 0.72139
# Poissons Ratio (y) = 0.20322 0.08100
# Poissons Ratio (z) = 0.50270 0.15827
#
# Static dielectric constant tensor:
#      x y z
#    x 1.611430 0.000000 0.019550 
#    y 0.000000 1.626900 0.000000 
#    z 0.019550 0.000000 1.627430 
# 
# From -- ./inp_files/86265.got.cif
#   From: 2010.05.17/outbox.cif.g08.bks.cpg/sg12_44_cif.got.tgz:86265.got - 2010.06.03 13:09:07.
