data_PCOD9176197
_publ_section_title
;
Structure prediction by ZEFSAII (Michael W. Deem and Ramdas Pophale) SiO2 
 PCOD9176197
Probable space group: C 2/M
;
_chemical_formula_sum "Si O2"
_cell_formula_units_Z 64
_cell_length_a 29.156947
_cell_length_b 8.523420
_cell_length_c 14.746084
_cell_angle_alpha 90.000000
_cell_angle_beta 120.449074
_cell_angle_gamma 90.000000
_cell_volume 3159.222228
_symmetry_space_group_name_H-M "C 2/M"
_symmetry_group_IT_number 12
_symmetry_cell_setting 'monoclinic'
loop_
_space_group_symop_operation_xyz
x,y,z
-x,y,-z
-x,-y,-z
x,-y,z
1/2+x,1/2+y,z
1/2-x,1/2+y,-z
1/2-x,1/2-y,-z
1/2+x,1/2-y,z
loop_
_atom_site_type_symbol
_atom_site_label
_atom_site_fract_x
_atom_site_fract_y
_atom_site_fract_z
Si Si1 0.484743 0.687955 0.883002
Si Si2 0.872730 0.317115 0.789709
Si Si3 0.243931 0.689024 0.392221
Si Si4 0.852887 0.180736 0.956244
Si Si5 0.167659 0.688955 0.658259
Si Si6 0.766173 0.679556 0.111600
Si Si7 0.557284 0.690043 0.597393
Si Si8 0.568685 0.310113 0.815697
O O1 0.489839 0.500000 0.890640
O O2 0.423982 0.731279 0.801373
O O3 0.523965 0.744646 0.842671
O O4 0.500000 0.745693 0.000000
O O5 0.876450 0.500000 0.771868
O O6 0.814667 0.258932 0.700700
O O7 0.874983 0.288929 0.899848
O O8 0.245165 0.500000 0.390465
O O9 0.250000 0.750000 0.500000
O O10 0.291709 0.751943 0.377465
O O11 0.789539 0.183954 0.890170
O O12 0.870307 0.000000 0.955927
O O13 0.875733 0.224789 0.077699
O O14 0.169743 0.500000 0.661350
O O15 0.190101 0.751616 0.778017
O O16 0.107184 0.745495 0.590682
O O17 0.781363 0.500000 0.110058
O O18 0.750000 0.750000 0.000000
O O19 0.500000 0.735436 0.500000
O O20 0.560122 0.500000 0.599229
O O21 0.562804 0.747295 0.707344
O O22 0.564800 0.500000 0.805979
#
# Coordination Sequence:
#
# PCOD9176197 Si02
#       8
#     8   8   8   8   8   8   8   8
#     4  10  19  34  58  84 116 163 209 246 296 365
#     4  11  23  37  56  87 122 154 193 250 310 356
#     4  11  25  44  66  92 124 164 208 255 308 367
#     4  10  18  34  57  80 113 156 198 242 295 362
#     4  11  23  41  65  93 125 161 205 255 312 371
#     4  10  21  34  56  88 122 161 203 248 304 365
#     4  10  22  41  64  89 120 160 209 258 306 363
#     4   9  18  34  58  86 115 154 206 254 295 354
#
# _framework density 20.258151000000002
#
# number of rings (size 3 to 8) (size 9 to 14) (size 15 to 20)
#    0.000    1.750    2.500    1.875    0.000    5.500 
#    0.000    2.500    0.000    0.000    0.000    0.000 
#    0.000    0.000    0.000    0.000    0.000    0.000 
#
# Total GULP energy -178618.680099 kJ/mol
# GULP energy per Si atom -5581.833753 kJ/mol
# Density = 2.021204 g / cm^3
# Si number density = 20.258151 Si / 1000 Ang^3
#
#
#
# Elastic Constant Matrix: (Units=GPa)
#
#
# Indices 1 2 3 4 5 6 
#
# 1 112.3547 17.7254 56.5914 0.0000 18.5042 0.0000
# 2 17.7254 13.9201 12.8105 0.0000 6.8914 0.0000
# 3 56.5914 12.8105 121.2770 0.0000 13.8097 0.0000
# 4 0.0000 0.0000 0.0000 22.6376 0.0000 2.1327
# 5 18.5042 6.8914 13.8097 0.0000 35.5733 0.0000
# 6 0.0000 0.0000 0.0000 2.1327 0.0000 27.2749
#
#
#
# Elastic Compliance Matrix: (Units=1/GPa)
#
#
# Indices 1 2 3 4 5 6 
#
# 1 0.013619 -0.011433 -0.004805 0.000000 -0.003004 0.000000
# 2 -0.011433 0.095076 -0.003440 0.000000 -0.011136 0.000000
# 3 -0.004805 -0.003440 0.010976 0.000000 -0.001095 0.000000
# 4 0.000000 0.000000 0.000000 0.044502 0.000000 -0.003480
# 5 -0.003004 -0.011136 -0.001095 0.000000 0.032256 0.000000
# 6 0.000000 0.000000 0.000000 -0.003480 0.000000 0.036936
#
#
# Mechanical properties :
#
#
# Convention : Reuss Voigt Hill
#
# Bulk Modulus (GPa) = 12.45102 46.86738 29.65920
# Shear Modulus (GPa) = 16.69491 27.79213 22.24352
#
# Velocity S-wave (km/s) = 2.87384 3.70793 3.31721
# Velocity P-wave (km/s) = 4.14385 6.44337 5.41703
#
# Compressibility (1/GPa) = 0.08031472
#
# Stress axis : x y z
#
# Youngs Moduli (GPa) = 73.42569 10.51794 91.10809
#
# Poissons Ratio (x) = 0.12025 0.43781
# Poissons Ratio (y) = 0.83946 0.31341
# Poissons Ratio (z) = 0.35284 0.03618
#
# Static dielectric constant tensor:
#      x y z
#    x 1.724970 0.000000 0.002830 
#    y 0.000000 1.723890 0.000000 
#    z 0.002830 0.000000 1.737890 
# 
# From -- ./inp_files/249957.got.cif
#   From: 2010.05.17/outbox.cif.g08.bks.cpg/sg12_125_cif.got.tgz:249957.got - 2010.06.03 13:09:07.
