data_PCOD9176193
_publ_section_title
;
Structure prediction by ZEFSAII (Michael W. Deem and Ramdas Pophale) SiO2 
 PCOD9176193
Probable space group: C 2/M
;
_chemical_formula_sum "Si O2"
_cell_formula_units_Z 48
_cell_length_a 16.040892
_cell_length_b 14.987916
_cell_length_c 13.780097
_cell_angle_alpha 90.000000
_cell_angle_beta 132.777266
_cell_angle_gamma 90.000000
_cell_volume 2431.743386
_symmetry_space_group_name_H-M "C 2/M"
_symmetry_group_IT_number 12
_symmetry_cell_setting 'monoclinic'
loop_
_space_group_symop_operation_xyz
x,y,z
-x,y,-z
-x,-y,-z
x,-y,z
1/2+x,1/2+y,z
1/2-x,1/2+y,-z
1/2-x,1/2-y,-z
1/2+x,1/2-y,z
loop_
_atom_site_type_symbol
_atom_site_label
_atom_site_fract_x
_atom_site_fract_y
_atom_site_fract_z
Si Si1 0.190903 0.400724 0.886884
Si Si2 0.824931 0.241408 0.465763
Si Si3 0.553914 0.724932 0.760709
Si Si4 0.634929 0.093418 0.617655
Si Si5 0.127244 0.897874 0.647389
Si Si6 0.962898 0.103975 0.081035
O O1 0.164985 0.500000 0.911048
O O2 0.123099 0.309468 0.859726
O O3 0.158423 0.408183 0.748979
O O4 0.326797 0.389566 0.991536
O O5 0.750000 0.250000 0.500000
O O6 0.803377 0.323938 0.379104
O O7 0.807222 0.153915 0.386239
O O8 0.953874 0.251989 0.607370
O O9 0.627315 0.659252 0.747615
O O10 0.495306 0.668926 0.800942
O O11 0.500000 0.099848 0.500000
O O12 0.673300 0.000000 0.602650
O O13 0.000000 0.900031 0.500000
O O14 0.162099 0.000000 0.692177
O O15 0.995808 0.000000 0.121662
O O16 0.000000 0.127073 0.000000
#
# Coordination Sequence:
#
# PCOD9176193 Si02
#       6
#     8   8   8   8   8   8
#     4  10  20  36  59  81 106 143 187 231 267 321
#     4  11  22  33  51  83 116 144 178 223 275 327
#     4  11  20  36  60  78 107 149 185 223 271 328
#     4  10  18  34  57  79 107 143 183 226 270 322
#     4   9  18  34  52  74 105 141 181 216 259 323
#     4  10  23  39  56  84 112 139 182 233 283 328
#
# _framework density 19.738924999999998
#
# number of rings (size 3 to 8) (size 9 to 14) (size 15 to 20)
#    0.000    1.833    3.333    1.500    2.333    1.333 
#    0.000    0.000    0.000    0.500    0.000    0.000 
#    0.000    0.000    0.000    0.000    0.000    0.000 
#
# Total GULP energy -133660.212385 kJ/mol
# GULP energy per Si atom -5569.175516 kJ/mol
# Density = 1.969400 g / cm^3
# Si number density = 19.738925 Si / 1000 Ang^3
#
#
#
# Elastic Constant Matrix: (Units=GPa)
#
#
# Indices 1 2 3 4 5 6 
#
# 1 56.6067 46.5032 -3.7734 0.0000 -24.6336 0.0000
# 2 46.5032 145.2585 6.6680 0.0000 -22.5335 0.0000
# 3 -3.7734 6.6680 33.4019 0.0000 -9.0510 0.0000
# 4 0.0000 0.0000 0.0000 23.4297 0.0000 -2.9522
# 5 -24.6336 -22.5335 -9.0510 0.0000 33.3702 0.0000
# 6 0.0000 0.0000 0.0000 -2.9522 0.0000 24.5756
#
#
#
# Elastic Compliance Matrix: (Units=1/GPa)
#
#
# Indices 1 2 3 4 5 6 
#
# 1 0.035787 -0.008272 0.012239 0.000000 0.024151 0.000000
# 2 -0.008272 0.009603 -0.002967 0.000000 -0.000427 0.000000
# 3 0.012239 -0.002967 0.036501 0.000000 0.016931 0.000000
# 4 0.000000 0.000000 0.000000 0.043337 0.000000 0.005206
# 5 0.024151 -0.000427 0.016931 0.000000 0.052099 0.000000
# 6 0.000000 0.000000 0.000000 0.005206 0.000000 0.041316
#
#
# Mechanical properties :
#
#
# Convention : Reuss Voigt Hill
#
# Bulk Modulus (GPa) = 11.92043 37.11808 24.51925
# Shear Modulus (GPa) = 20.44089 28.66641 24.55365
#
# Velocity S-wave (km/s) = 3.22151 3.81501 3.53075
# Velocity P-wave (km/s) = 4.45978 6.18475 5.39169
#
# Compressibility (1/GPa) = 0.08388957
#
# Stress axis : x y z
#
# Youngs Moduli (GPa) = 27.94283 104.13938 27.39630
#
# Poissons Ratio (x) = 0.86147 -0.33529
# Poissons Ratio (y) = 0.23115 0.08129
# Poissons Ratio (z) = -0.34198 0.30900
#
# Static dielectric constant tensor:
#      x y z
#    x 1.669730 0.000000 -0.012120 
#    y 0.000000 1.795010 0.000000 
#    z -0.012120 0.000000 1.621090 
# 
# From -- ./inp_files/143575.got.cif
#   From: 2010.05.17/outbox.cif.g08.bks.cpg/sg12_72_cif.got.tgz:143575.got - 2010.06.03 13:09:07.
