data_PCOD9176923
_publ_section_title
;
Structure prediction by ZEFSAII (Michael W. Deem and Ramdas Pophale) SiO2 
 PCOD9176923
Probable space group: C 2/M
;
_chemical_formula_sum "Si O2"
_cell_formula_units_Z 48
_cell_length_a 20.591663
_cell_length_b 15.604056
_cell_length_c 11.857571
_cell_angle_alpha 90.000000
_cell_angle_beta 36.150140
_cell_angle_gamma 90.000000
_cell_volume 2247.529576
_symmetry_space_group_name_H-M "C 2/M"
_symmetry_group_IT_number 12
_symmetry_cell_setting 'monoclinic'
loop_
_space_group_symop_operation_xyz
x,y,z
-x,y,-z
-x,-y,-z
x,-y,z
1/2+x,1/2+y,z
1/2-x,1/2+y,-z
1/2-x,1/2-y,-z
1/2+x,1/2-y,z
loop_
_atom_site_type_symbol
_atom_site_label
_atom_site_fract_x
_atom_site_fract_y
_atom_site_fract_z
Si Si1 0.134678 0.500000 0.169587
Si Si2 0.606384 0.177506 0.271304
Si Si3 0.286449 0.500000 0.741900
Si Si4 0.791396 0.000000 0.466720
Si Si5 0.550183 0.180445 0.085776
Si Si6 0.450783 0.000000 0.267454
Si Si7 0.198082 0.816550 0.294965
Si Si8 0.139956 0.195769 0.625382
O O1 0.164501 0.585239 0.192546
O O2 0.005105 0.500000 0.316932
O O3 0.187995 0.500000 0.970230
O O4 0.500000 0.174162 0.500000
O O5 0.575478 0.188553 0.184245
O O6 0.680206 0.250967 0.220129
O O7 0.260471 0.500000 0.644435
O O8 0.343750 0.410057 0.682999
O O9 0.849201 0.093219 0.365868
O O10 0.680042 0.000000 0.551111
O O11 0.465823 0.256261 0.174863
O O12 0.491155 0.088389 0.153475
O O13 0.671184 0.179270 0.861304
O O14 0.134453 0.794212 0.497529
O O15 0.250000 0.250000 0.500000
#
# Coordination Sequence:
#
# PCOD9176923 Si02
#       8
#     4   8   4   4   8   4   8   8
#     4  10  21  35  57  91 117 146 205 252 290 351
#     4  11  21  38  61  86 122 160 196 246 300 350
#     4  10  20  36  54  88 120 148 202 247 288 349
#     4  10  22  37  60  83 122 159 193 249 303 343
#     4  11  21  38  61  90 120 154 200 242 300 354
#     4  10  18  36  62  86 114 153 194 258 296 335
#     4  11  22  40  61  88 122 158 197 248 299 352
#     4  11  23  40  60  89 119 155 199 246 297 358
#
# _framework density 21.356783
#
# number of rings (size 3 to 8) (size 9 to 14) (size 15 to 20)
#    0.000    1.333    6.667    0.750    0.000    1.000 
#    0.000    2.917    0.000    1.000    0.000    0.000 
#    0.000    0.000    0.000    0.000    0.000    0.000 
#
# Total GULP energy -133931.105871 kJ/mol
# GULP energy per Si atom -5580.462745 kJ/mol
# Density = 2.130817 g / cm^3
# Si number density = 21.356783 Si / 1000 Ang^3
#
#
#
# Elastic Constant Matrix: (Units=GPa)
#
#
# Indices 1 2 3 4 5 6 
#
# 1 39.3971 53.0553 -5.2661 0.0000 9.4164 0.0000
# 2 53.0553 201.9413 25.3674 0.0000 -9.5836 0.0000
# 3 -5.2661 25.3674 69.4744 0.0000 0.1846 0.0000
# 4 0.0000 0.0000 0.0000 23.9857 0.0000 -7.7747
# 5 9.4164 -9.5836 0.1846 0.0000 20.1654 0.0000
# 6 0.0000 0.0000 0.0000 -7.7747 0.0000 35.1046
#
#
#
# Elastic Compliance Matrix: (Units=1/GPa)
#
#
# Indices 1 2 3 4 5 6 
#
# 1 0.063420 -0.020062 0.012237 0.000000 -0.039261 0.000000
# 2 -0.020062 0.011664 -0.005819 0.000000 0.014965 0.000000
# 3 0.012237 -0.005819 0.017469 0.000000 -0.008640 0.000000
# 4 0.000000 0.000000 0.000000 0.044916 0.000000 0.009948
# 5 -0.039261 0.014965 -0.008640 0.000000 0.075114 0.000000
# 6 0.000000 0.000000 0.000000 0.009948 0.000000 0.030689
#
#
# Mechanical properties :
#
#
# Convention : Reuss Voigt Hill
#
# Bulk Modulus (GPa) = 15.32258 50.79180 33.05719
# Shear Modulus (GPa) = 17.10472 31.69488 24.39980
#
# Velocity S-wave (km/s) = 2.83309 3.85654 3.38373
# Velocity P-wave (km/s) = 4.22990 6.60792 5.54782
#
# Compressibility (1/GPa) = 0.06526315
#
# Stress axis : x y z
#
# Youngs Moduli (GPa) = 15.76792 85.73317 57.24382
#
# Poissons Ratio (x) = 1.72002 -0.70049
# Poissons Ratio (y) = 0.31634 0.33313
# Poissons Ratio (z) = -0.19295 0.49892
#
# Static dielectric constant tensor:
#      x y z
#    x 1.787440 0.000000 -0.001220 
#    y 0.000000 1.830360 0.000000 
#    z -0.001220 0.000000 1.776420 
# 
# From -- ./inp_files/167594.got.cif
#   From: 2010.05.17/outbox.cif.g08.bks.cpg/sg12_84_cif.got.tgz:167594.got - 2010.06.03 13:09:07.
