data_PCOD9176747
_publ_section_title
;
Structure prediction by ZEFSAII (Michael W. Deem and Ramdas Pophale) SiO2 
 PCOD9176747
Probable space group: C 2/M
;
_chemical_formula_sum "Si O2"
_cell_formula_units_Z 48
_cell_length_a 12.218770
_cell_length_b 21.642679
_cell_length_c 14.238468
_cell_angle_alpha 90.000000
_cell_angle_beta 40.491484
_cell_angle_gamma 90.000000
_cell_volume 2444.953466
_symmetry_space_group_name_H-M "C 2/M"
_symmetry_group_IT_number 12
_symmetry_cell_setting 'monoclinic'
loop_
_space_group_symop_operation_xyz
x,y,z
-x,y,-z
-x,-y,-z
x,-y,z
1/2+x,1/2+y,z
1/2-x,1/2+y,-z
1/2-x,1/2-y,-z
1/2+x,1/2-y,z
loop_
_atom_site_type_symbol
_atom_site_label
_atom_site_fract_x
_atom_site_fract_y
_atom_site_fract_z
Si Si1 0.387312 0.660182 0.165142
Si Si2 0.679613 0.281705 0.330479
Si Si3 0.515143 0.364677 0.281163
Si Si4 0.837543 0.370476 0.372087
Si Si5 0.044222 0.000000 0.307895
Si Si6 0.094488 0.571461 0.338714
Si Si7 0.241861 0.500000 0.641503
O O1 0.256539 0.716668 0.252560
O O2 0.492438 0.662287 0.192894
O O3 0.281632 0.596585 0.231781
O O4 0.500000 0.664702 0.000000
O O5 0.500000 0.273665 0.500000
O O6 0.636572 0.325830 0.270308
O O7 0.809494 0.315063 0.317534
O O8 0.331162 0.366318 0.452802
O O9 0.573188 0.435925 0.236978
O O10 0.843554 0.433762 0.307974
O O11 0.996360 0.380242 0.335767
O O12 0.149407 0.000000 0.335388
O O13 0.853972 0.000000 0.472832
O O14 0.088343 0.500000 0.308342
O O15 0.000000 0.572197 0.500000
#
# Coordination Sequence:
#
# PCOD9176747 Si02
#       7
#     8   8   8   8   4   8   4
#     4  12  28  44  59  83 126 173 209 246 298 366
#     4  10  23  40  66  93 119 159 207 258 305 355
#     4  10  21  37  62  93 123 161 199 250 304 361
#     4  10  18  35  63  98 126 147 197 258 311 358
#     4   9  16  30  58  93 128 147 191 246 315 364
#     4  11  23  40  66  95 124 159 199 249 306 365
#     4   9  14  28  56  98 126 150 181 248 320 359
#
# _framework density 19.632273999999999
#
# number of rings (size 3 to 8) (size 9 to 14) (size 15 to 20)
#    0.000    1.667    4.167    0.500    3.500    2.333 
#    0.000    0.000    0.000    0.000    0.000    3.500 
#    0.000    0.000    0.000    0.000    0.000    0.000 
#
# Total GULP energy -133879.988478 kJ/mol
# GULP energy per Si atom -5578.332853 kJ/mol
# Density = 1.958759 g / cm^3
# Si number density = 19.632274 Si / 1000 Ang^3
#
#
#
# Elastic Constant Matrix: (Units=GPa)
#
#
# Indices 1 2 3 4 5 6 
#
# 1 100.2712 44.6116 30.1364 0.0007 16.5311 0.0003
# 2 44.6116 107.8344 42.8374 0.0002 10.7936 -0.0005
# 3 30.1364 42.8374 42.0715 0.0014 13.2247 0.0008
# 4 0.0007 0.0002 0.0014 -4.9446 -0.0005 0.2561
# 5 16.5311 10.7936 13.2247 -0.0005 11.7887 -0.0008
# 6 0.0003 -0.0005 0.0008 0.2561 -0.0008 29.9170
#
#
#
# Elastic Compliance Matrix: (Units=1/GPa)
#
#
# Indices 1 2 3 4 5 6 
#
# 1 0.014726 -0.003816 -0.001962 0.000003 -0.014955 -0.000001
# 2 -0.003816 0.016791 -0.017321 -0.000006 0.009408 0.000001
# 3 -0.001962 -0.017321 0.057094 0.000019 -0.045438 -0.000003
# 4 0.000003 -0.000006 0.000019 -0.202151 -0.000029 0.001730
# 5 -0.014955 0.009408 -0.045438 -0.000029 0.148158 0.000006
# 6 -0.000001 0.000001 -0.000003 0.001730 0.000006 0.033411
#
#
# Mechanical properties :
#
#
# Convention : Reuss Voigt Hill
#
# Bulk Modulus (GPa) = 23.57754 53.92754 38.75254
# Shear Modulus (GPa) = 38.95206 16.19167 27.57187
#
# Velocity S-wave (km/s) = 4.45914 2.87496 3.75162
# Velocity P-wave (km/s) = 6.20867 6.20878 6.20872
#
# Compressibility (1/GPa) = 0.04241325
#
# Stress axis : x y z
#
# Youngs Moduli (GPa) = 67.90761 59.55533 17.51512
#
# Poissons Ratio (x) = 0.22725 0.03437
# Poissons Ratio (y) = 0.25912 0.30337
# Poissons Ratio (z) = 0.13325 1.03154
#
# Static dielectric constant tensor:
#      x y z
#    x 1.706180 0.000000 -0.019220 
#    y 0.000000 1.692860 0.000000 
#    z -0.019220 0.000000 1.655120 
# 
# From -- ./inp_files/207955.got.cif
#   From: 2010.05.17/outbox.cif.g08.bks.cpg/sg12_104_cif.got.tgz:207955.got - 2010.06.03 13:09:07.
