data_PCOD9176834
_publ_section_title
;
Structure prediction by ZEFSAII (Michael W. Deem and Ramdas Pophale) SiO2 
 PCOD9176834
Probable space group: C 2/M
;
_chemical_formula_sum "Si O2"
_cell_formula_units_Z 58
_cell_length_a 25.722918
_cell_length_b 12.700065
_cell_length_c 8.543545
_cell_angle_alpha 90.000000
_cell_angle_beta 91.386837
_cell_angle_gamma 90.000000
_cell_volume 2790.211051
_symmetry_space_group_name_H-M "C 2/M"
_symmetry_group_IT_number 12
_symmetry_cell_setting 'monoclinic'
loop_
_space_group_symop_operation_xyz
x,y,z
-x,y,-z
-x,-y,-z
x,-y,z
1/2+x,1/2+y,z
1/2-x,1/2+y,-z
1/2-x,1/2-y,-z
1/2+x,1/2-y,z
loop_
_atom_site_type_symbol
_atom_site_label
_atom_site_fract_x
_atom_site_fract_y
_atom_site_fract_z
Si Si1 0.137400 0.877369 0.522410
Si Si2 0.588975 0.611744 0.022388
Si Si3 0.611059 0.790844 0.255119
Si Si4 0.500000 0.500000 0.500000
Si Si5 0.995604 0.382123 0.807952
Si Si6 0.533657 0.661480 0.715913
Si Si7 0.191057 0.174020 0.838125
Si Si8 0.804038 0.619685 0.974362
O O1 0.132926 0.783041 0.395985
O O2 0.083924 0.872035 0.617746
O O3 0.181142 0.851368 0.656119
O O4 0.143369 0.000000 0.468510
O O5 0.589022 0.500000 0.102485
O O6 0.545364 0.620143 0.888396
O O7 0.643707 0.624583 0.933892
O O8 0.584528 0.707140 0.137440
O O9 0.562955 0.871172 0.267176
O O10 0.657388 0.845132 0.162086
O O11 0.489819 0.593460 0.630537
O O12 0.015335 0.500000 0.776277
O O13 0.026191 0.285954 0.729184
O O14 0.000000 0.370426 0.000000
O O15 0.245542 0.131126 0.905354
O O16 0.189435 0.297789 0.883062
O O17 0.814744 0.500000 0.021092
#
# Coordination Sequence:
#
# PCOD9176834 Si02
#       8
#     8   8   8   2   8   8   8   8
#     4  11  22  41  61  89 128 158 189 249 314 364
#     4  10  18  36  57  88 121 152 200 251 299 363
#     4  11  23  38  58  90 122 158 207 247 300 359
#     4  12  20  36  60  88 124 148 190 262 296 348
#     4  11  24  43  62  84 119 164 208 256 297 354
#     4  11  21  38  60  87 114 159 205 242 305 360
#     4   9  20  37  64  90 120 158 200 243 307 366
#     4  10  20  39  64  91 119 158 204 251 292 352
#
# _framework density 20.786959
#
# number of rings (size 3 to 8) (size 9 to 14) (size 15 to 20)
#    0.000    1.517    2.759    3.724    0.000    0.552 
#    1.241    6.897    0.000    0.000    0.000    0.000 
#    0.000    0.000    0.000    0.000    0.000    0.000 
#
# Total GULP energy -161589.236675 kJ/mol
# GULP energy per Si atom -5572.042644 kJ/mol
# Density = 2.073965 g / cm^3
# Si number density = 20.786959 Si / 1000 Ang^3
#
#
#
# Elastic Constant Matrix: (Units=GPa)
#
#
# Indices 1 2 3 4 5 6 
#
# 1 55.0889 15.3167 11.3084 0.0000 7.3944 0.0000
# 2 15.3167 187.1265 30.3677 0.0000 5.3896 0.0000
# 3 11.3084 30.3677 60.1562 0.0000 20.2737 0.0000
# 4 0.0000 0.0000 0.0000 -592.9015 0.0000-2276.7925
# 5 7.3944 5.3896 20.2737 0.0000 25.5267 0.0000
# 6 0.0000 0.0000 0.0000-2276.7925 0.0000-8300.7558
#
#
#
# Elastic Compliance Matrix: (Units=1/GPa)
#
#
# Indices 1 2 3 4 5 6 
#
# 1 0.019370 -0.001197 -0.001681 0.000000 -0.004023 0.000000
# 2 -0.001197 0.005938 -0.003368 0.000000 0.001768 0.000000
# 3 -0.001681 -0.003368 0.024901 0.000000 -0.018579 0.000000
# 4 0.000000 0.000000 0.000000 0.031652 0.000000 -0.008682
# 5 -0.004023 0.001768 -0.018579 0.000000 0.054722 0.000000
# 6 0.000000 0.000000 0.000000 -0.008682 0.000000 0.002261
#
#
# Mechanical properties :
#
#
# Convention : Reuss Voigt Hill
#
# Bulk Modulus (GPa) = 26.51382 46.26191 36.38787
# Shear Modulus (GPa) = 30.50482 -1757.26752 -863.38135
#
# Velocity S-wave (km/s) = 3.83495 -29.10679 -20.40219
# Velocity P-wave (km/s) = 5.69138 33.27617 23.18310
#
# Compressibility (1/GPa) = 0.03771618
#
# Stress axis : x y z
#
# Youngs Moduli (GPa) = 51.62528 168.41714 40.15882
#
# Poissons Ratio (x) = 0.20156 0.06752
# Poissons Ratio (y) = 0.06178 0.13527
# Poissons Ratio (z) = 0.08680 0.56729
#
# Static dielectric constant tensor:
#      x y z
#    x 1.832800 0.000000 0.029630 
#    y 0.000000 1.713480 0.000000 
#    z 0.029630 0.000000 1.773130 
# 
# From -- ./inp_files/103240.got.cif
#   From: 2010.05.17/outbox.cif.g08.bks.cpg/sg12_52_cif.got.tgz:103240.got - 2010.06.03 13:09:07.
