data_PCOD9176851
_publ_section_title
;
Structure prediction by ZEFSAII (Michael W. Deem and Ramdas Pophale) SiO2 
 PCOD9176851
Probable space group: C 2/M
;
_chemical_formula_sum "Si O2"
_cell_formula_units_Z 64
_cell_length_a 26.223262
_cell_length_b 22.659098
_cell_length_c 18.319108
_cell_angle_alpha 90.000000
_cell_angle_beta 161.742204
_cell_angle_gamma 90.000000
_cell_volume 3410.235580
_symmetry_space_group_name_H-M "C 2/M"
_symmetry_group_IT_number 12
_symmetry_cell_setting 'monoclinic'
loop_
_space_group_symop_operation_xyz
x,y,z
-x,y,-z
-x,-y,-z
x,-y,z
1/2+x,1/2+y,z
1/2-x,1/2+y,-z
1/2-x,1/2-y,-z
1/2+x,1/2-y,z
loop_
_atom_site_type_symbol
_atom_site_label
_atom_site_fract_x
_atom_site_fract_y
_atom_site_fract_z
Si Si1 0.600005 0.733435 0.444441
Si Si2 0.682594 0.570700 0.421231
Si Si3 0.428955 0.930925 0.323137
Si Si4 0.175166 0.260674 0.712990
Si Si5 0.427725 0.069456 0.630568
Si Si6 0.401042 0.175183 0.082474
Si Si7 0.117304 0.857847 0.928792
Si Si8 0.105307 0.667655 0.215748
O O1 0.657218 0.743205 0.604529
O O2 0.501478 0.789331 0.280239
O O3 0.480784 0.678220 0.266415
O O4 0.758628 0.717499 0.612515
O O5 0.681634 0.500000 0.430437
O O6 0.761862 0.583803 0.449022
O O7 0.506234 0.598560 0.197237
O O8 0.803083 0.606735 0.638845
O O9 0.500000 0.922755 0.500000
O O10 0.561916 0.917599 0.441421
O O11 0.385632 0.000000 0.256352
O O12 0.267932 0.892037 0.098147
O O13 0.000000 0.283211 0.500000
O O14 0.226384 0.204237 0.832132
O O15 0.309072 0.309806 0.914814
O O16 0.574112 0.107109 0.864683
O O17 0.453263 0.000000 0.675634
O O18 0.492495 0.184882 0.129975
O O19 0.000000 0.660843 0.000000
#
# Coordination Sequence:
#
# PCOD9176851 Si02
#       8
#     8   8   8   8   8   8   8   8
#     4  10  22  37  57  84 117 152 191 241 284 346
#     4   9  19  38  61  87 117 151 192 239 291 345
#     4  10  21  37  60  86 115 153 195 242 290 345
#     4  11  24  37  56  88 117 152 197 238 287 345
#     4   9  20  38  61  85 114 150 193 237 288 344
#     4  10  21  36  61  82 112 157 188 237 294 344
#     4  10  22  37  61  84 118 154 197 237 290 348
#     4  10  18  36  58  85 119 147 192 239 286 344
#
# _framework density 18.767030999999999
#
# number of rings (size 3 to 8) (size 9 to 14) (size 15 to 20)
#    0.000    2.125    1.250    1.125    5.250    2.250 
#    0.000    0.625    2.750    3.375    0.000    0.000 
#    0.000    0.000    0.000    0.000    0.000    0.000 
#
# Total GULP energy -178468.115587 kJ/mol
# GULP energy per Si atom -5577.128612 kJ/mol
# Density = 1.872432 g / cm^3
# Si number density = 18.767031 Si / 1000 Ang^3
#
#
#
# Elastic Constant Matrix: (Units=GPa)
#
#
# Indices 1 2 3 4 5 6 
#
# 1 62.7251 22.5999 17.9770 0.0000 -11.4150 0.0000
# 2 22.5999 58.7371 15.9061 0.0000 2.9698 0.0000
# 3 17.9770 15.9061 66.9695 0.0000 -6.4193 0.0000
# 4 0.0000 0.0000 0.0000 20.5636 0.0000 5.8866
# 5 -11.4150 2.9698 -6.4193 0.0000 28.6460 0.0000
# 6 0.0000 0.0000 0.0000 5.8866 0.0000 14.8209
#
#
#
# Elastic Compliance Matrix: (Units=1/GPa)
#
#
# Indices 1 2 3 4 5 6 
#
# 1 0.021160 -0.007757 -0.003017 0.000000 0.008560 0.000000
# 2 -0.007757 0.021281 -0.003556 0.000000 -0.006094 0.000000
# 3 -0.003017 -0.003556 0.016869 0.000000 0.002947 0.000000
# 4 0.000000 0.000000 0.000000 0.054868 0.000000 -0.021793
# 5 0.008560 -0.006094 0.002947 0.000000 0.039612 0.000000
# 6 0.000000 0.000000 0.000000 -0.021793 0.000000 0.076128
#
#
# Mechanical properties :
#
#
# Convention : Reuss Voigt Hill
#
# Bulk Modulus (GPa) = 32.62793 33.48864 33.05828
# Shear Modulus (GPa) = 18.60144 21.60268 20.10206
#
# Velocity S-wave (km/s) = 3.15171 3.39646 3.27637
# Velocity P-wave (km/s) = 5.53786 5.76753 5.65386
#
# Compressibility (1/GPa) = 0.03064859
#
# Stress axis : x y z
#
# Youngs Moduli (GPa) = 47.25881 46.99036 59.27965
#
# Poissons Ratio (x) = 0.36452 0.17885
# Poissons Ratio (y) = 0.36661 0.21082
# Poissons Ratio (z) = 0.14259 0.16711
#
# Static dielectric constant tensor:
#      x y z
#    x 1.664760 0.000000 0.015140 
#    y 0.000000 1.665330 0.000000 
#    z 0.015140 0.000000 1.626890 
# 
# From -- ./inp_files/294158.got.cif
#   From: 2010.05.17/outbox.cif.g08.bks.cpg/sg12_148_cif.got.tgz:294158.got - 2010.06.03 13:09:07.
