data_PCOD9176465
_publ_section_title
;
Structure prediction by ZEFSAII (Michael W. Deem and Ramdas Pophale) SiO2 
 PCOD9176465
Probable space group: C 2/M
;
_chemical_formula_sum "Si O2"
_cell_formula_units_Z 44
_cell_length_a 15.113667
_cell_length_b 17.253530
_cell_length_c 11.435599
_cell_angle_alpha 90.000000
_cell_angle_beta 47.347480
_cell_angle_gamma 90.000000
_cell_volume 2193.185803
_symmetry_space_group_name_H-M "C 2/M"
_symmetry_group_IT_number 12
_symmetry_cell_setting 'monoclinic'
loop_
_space_group_symop_operation_xyz
x,y,z
-x,y,-z
-x,-y,-z
x,-y,z
1/2+x,1/2+y,z
1/2-x,1/2+y,-z
1/2-x,1/2-y,-z
1/2+x,1/2-y,z
loop_
_atom_site_type_symbol
_atom_site_label
_atom_site_fract_x
_atom_site_fract_y
_atom_site_fract_z
Si Si1 0.703694 0.000000 0.168331
Si Si2 0.142842 0.911912 0.352006
Si Si3 0.244379 0.592283 0.495304
Si Si4 0.484316 0.130267 0.649643
Si Si5 0.639956 0.363508 0.844846
Si Si6 0.203007 0.239936 0.172326
O O1 0.607029 0.931705 0.214490
O O2 0.791863 0.931627 0.145242
O O3 0.205376 0.896414 0.420428
O O4 0.185300 0.848671 0.222222
O O5 0.000000 0.906665 0.500000
O O6 0.170544 0.000000 0.289191
O O7 0.229044 0.500000 0.489520
O O8 0.334180 0.622258 0.315013
O O9 0.114406 0.629924 0.591168
O O10 0.500000 0.103836 0.500000
O O11 0.422340 0.213790 0.703771
O O12 0.704078 0.283843 0.825787
O O13 0.500000 0.363264 0.000000
O O14 0.250000 0.250000 0.000000
#
# Coordination Sequence:
#
# PCOD9176465 Si02
#       6
#     4   8   8   8   8   8
#     4  10  18  34  62  98 140 165 210 267 336 395
#     4  10  25  48  68  96 135 180 230 276 336 410
#     4  11  21  39  71 103 129 175 227 279 333 402
#     4  11  18  38  66  99 132 166 220 274 323 400
#     4  11  23  37  60 102 140 172 221 280 339 404
#     4  11  26  44  63  95 136 180 222 279 342 397
#
# _framework density 20.062138999999998
#
# number of rings (size 3 to 8) (size 9 to 14) (size 15 to 20)
#    0.000    1.273    5.455    1.091    2.545    2.182 
#    6.545    0.000    0.000    2.727    0.000    0.000 
#    0.000    0.000    0.000    0.000    0.000    0.000 
#
# Total GULP energy -122487.956495 kJ/mol
# GULP energy per Si atom -5567.634386 kJ/mol
# Density = 2.001648 g / cm^3
# Si number density = 20.062139 Si / 1000 Ang^3
#
#
#
# Elastic Constant Matrix: (Units=GPa)
#
#
# Indices 1 2 3 4 5 6 
#
# 1 109.7105 53.8765 45.5200 0.0000 -23.4192 0.0000
# 2 53.8765 123.9304 64.8537 0.0000 2.9287 0.0000
# 3 45.5200 64.8537 87.5312 0.0000 -7.9903 0.0000
# 4 0.0000 0.0000 0.0000 15.5564 0.0000 13.1319
# 5 -23.4192 2.9287 -7.9903 0.0000 23.0356 0.0000
# 6 0.0000 0.0000 0.0000 13.1319 0.0000 -0.2766
#
#
#
# Elastic Compliance Matrix: (Units=1/GPa)
#
#
# Indices 1 2 3 4 5 6 
#
# 1 0.017027 -0.006539 -0.002431 0.000000 0.017299 0.000000
# 2 -0.006539 0.016329 -0.009805 0.000000 -0.012125 0.000000
# 3 -0.002431 -0.009805 0.020490 0.000000 0.005883 0.000000
# 4 0.000000 0.000000 0.000000 0.001565 0.000000 0.074297
# 5 0.017299 -0.012125 0.005883 0.000000 0.064581 0.000000
# 6 0.000000 0.000000 0.000000 0.074297 0.000000 -0.088014
#
#
# Mechanical properties :
#
#
# Convention : Reuss Voigt Hill
#
# Bulk Modulus (GPa) = 61.36004 72.18583 66.77293
# Shear Modulus (GPa) = 66.70087 18.12453 42.41270
#
# Velocity S-wave (km/s) = 5.77229 3.00896 4.60289
# Velocity P-wave (km/s) = 8.66471 6.93765 7.84883
#
# Compressibility (1/GPa) = 0.01629725
#
# Stress axis : x y z
#
# Youngs Moduli (GPa) = 58.72865 61.23932 48.80331
#
# Poissons Ratio (x) = 0.40045 0.11864
# Poissons Ratio (y) = 0.38403 0.47852
# Poissons Ratio (z) = 0.14276 0.60045
#
# Static dielectric constant tensor:
#      x y z
#    x 1.687590 0.000000 0.010770 
#    y 0.000000 1.716890 0.000000 
#    z 0.010770 0.000000 1.698540 
# 
# From -- ./inp_files/145339.got.cif
#   From: 2010.05.17/outbox.cif.g08.bks.cpg/sg12_73_cif.got.tgz:145339.got - 2010.06.03 13:09:07.
