data_PCOD9176788
_publ_section_title
;
Structure prediction by ZEFSAII (Michael W. Deem and Ramdas Pophale) SiO2 
 PCOD9176788
Probable space group: C 2/M
;
_chemical_formula_sum "Si O2"
_cell_formula_units_Z 40
_cell_length_a 15.673142
_cell_length_b 19.480665
_cell_length_c 9.887444
_cell_angle_alpha 90.000000
_cell_angle_beta 136.170042
_cell_angle_gamma 90.000000
_cell_volume 2090.626706
_symmetry_space_group_name_H-M "C 2/M"
_symmetry_group_IT_number 12
_symmetry_cell_setting 'monoclinic'
loop_
_space_group_symop_operation_xyz
x,y,z
-x,y,-z
-x,-y,-z
x,-y,z
1/2+x,1/2+y,z
1/2-x,1/2+y,-z
1/2-x,1/2-y,-z
1/2+x,1/2-y,z
loop_
_atom_site_type_symbol
_atom_site_label
_atom_site_fract_x
_atom_site_fract_y
_atom_site_fract_z
Si Si1 0.015250 0.581286 0.173074
Si Si2 0.289810 0.420555 0.419589
Si Si3 0.728108 0.145512 0.065160
Si Si4 0.360011 0.706893 0.975169
Si Si5 0.137081 0.799706 0.327686
O O1 0.988646 0.500000 0.148096
O O2 0.161076 0.589199 0.356521
O O3 0.000000 0.604914 0.000000
O O4 0.908906 0.619713 0.132359
O O5 0.325888 0.500000 0.471784
O O6 0.269640 0.401711 0.238500
O O7 0.373635 0.363566 0.583382
O O8 0.814891 0.152826 0.035008
O O9 0.719174 0.223405 0.109474
O O10 0.499761 0.731543 0.165334
O O11 0.345368 0.678063 0.807818
O O12 0.250000 0.750000 0.500000
#
# Coordination Sequence:
#
# PCOD9176788 Si02
#       5
#     8   8   8   8   8
#     4   8  15  29  55  83 107 141 185 233 285 332
#     4  10  20  36  61  87 113 155 201 237 282 346
#     4  10  18  36  54  87 116 139 193 253 283 339
#     4  10  23  35  56  85 114 152 197 233 297 346
#     4  11  21  40  59  81 116 158 192 238 292 350
#
# _framework density 19.133018
#
# number of rings (size 3 to 8) (size 9 to 14) (size 15 to 20)
#    0.000    2.200    2.000    3.000    5.600    0.800 
#    0.000   10.000    0.000    2.400    0.000    0.000 
#    0.000    0.000    0.000    0.000    0.000    0.000 
#
# Total GULP energy -111346.529028 kJ/mol
# GULP energy per Si atom -5567.326451 kJ/mol
# Density = 1.908947 g / cm^3
# Si number density = 19.133018 Si / 1000 Ang^3
#
#
#
# Elastic Constant Matrix: (Units=GPa)
#
#
# Indices 1 2 3 4 5 6 
#
# 1 89.7935 10.6162 22.7608 0.0000 -10.1327 0.0000
# 2 10.6162 71.9808 23.2540 0.0000 -8.6173 0.0000
# 3 22.7608 23.2540 70.2529 0.0000 -5.2595 0.0000
# 4 0.0000 0.0000 0.0000 23.5930 0.0000 5.4430
# 5 -10.1327 -8.6173 -5.2595 0.0000 16.5604 0.0000
# 6 0.0000 0.0000 0.0000 5.4430 0.0000 28.1043
#
#
#
# Elastic Compliance Matrix: (Units=1/GPa)
#
#
# Indices 1 2 3 4 5 6 
#
# 1 0.012817 0.000105 -0.003684 0.000000 0.006727 0.000000
# 2 0.000105 0.016298 -0.004906 0.000000 0.006987 0.000000
# 3 -0.003684 -0.004906 0.017098 0.000000 0.000624 0.000000
# 4 0.000000 0.000000 0.000000 0.044368 0.000000 -0.008593
# 5 0.006727 0.006987 0.000624 0.000000 0.068335 0.000000
# 6 0.000000 0.000000 0.000000 -0.008593 0.000000 0.037246
#
#
# Mechanical properties :
#
#
# Convention : Reuss Voigt Hill
#
# Bulk Modulus (GPa) = 34.19393 38.36546 36.27969
# Shear Modulus (GPa) = 22.43363 25.34462 23.88912
#
# Velocity S-wave (km/s) = 3.42791 3.64353 3.53736
# Velocity P-wave (km/s) = 5.79464 6.14784 5.97385
#
# Compressibility (1/GPa) = 0.02924496
#
# Stress axis : x y z
#
# Youngs Moduli (GPa) = 78.02078 61.35560 58.48548
#
# Poissons Ratio (x) = -0.00644 0.21544
# Poissons Ratio (y) = -0.00819 0.28692
# Poissons Ratio (z) = 0.28740 0.30100
#
# Static dielectric constant tensor:
#      x y z
#    x 1.720630 0.000000 0.050900 
#    y 0.000000 1.659950 0.000000 
#    z 0.050900 0.000000 1.711950 
# 
# From -- ./inp_files/63782.got.cif
#   From: 2010.05.17/outbox.cif.g08.bks.cpg/sg12_32_cif.got.tgz:63782.got - 2010.06.03 13:09:07.
