data_PCOD9176386
_publ_section_title
;
Structure prediction by ZEFSAII (Michael W. Deem and Ramdas Pophale) SiO2 
 PCOD9176386
Probable space group: C 2/M
;
_chemical_formula_sum "Si O2"
_cell_formula_units_Z 48
_cell_length_a 11.399261
_cell_length_b 22.286990
_cell_length_c 12.196927
_cell_angle_alpha 90.000000
_cell_angle_beta 132.905558
_cell_angle_gamma 90.000000
_cell_volume 2269.720867
_symmetry_space_group_name_H-M "C 2/M"
_symmetry_group_IT_number 12
_symmetry_cell_setting 'monoclinic'
loop_
_space_group_symop_operation_xyz
x,y,z
-x,y,-z
-x,-y,-z
x,-y,z
1/2+x,1/2+y,z
1/2-x,1/2+y,-z
1/2-x,1/2-y,-z
1/2+x,1/2-y,z
loop_
_atom_site_type_symbol
_atom_site_label
_atom_site_fract_x
_atom_site_fract_y
_atom_site_fract_z
Si Si1 0.372106 0.932523 0.321247
Si Si2 0.813718 0.068920 0.418272
Si Si3 0.895925 0.890994 0.698610
Si Si4 0.475164 0.276867 0.112812
Si Si5 0.257964 0.071074 0.864844
Si Si6 0.131308 0.655788 0.885165
O O1 0.500000 0.923259 0.500000
O O2 0.199931 0.927769 0.271066
O O3 0.383634 0.882736 0.234514
O O4 0.393662 0.000000 0.290168
O O5 0.803717 0.105159 0.523979
O O6 0.728800 0.090341 0.253877
O O7 0.000000 0.067702 0.500000
O O8 0.766761 0.000000 0.412061
O O9 0.909518 0.824285 0.755171
O O10 0.073330 0.917290 0.786962
O O11 0.483892 0.212644 0.176739
O O12 0.500000 0.267162 0.000000
O O13 0.303596 0.310732 0.006330
O O14 0.287956 0.000000 0.889520
O O15 0.367956 0.109255 0.014394
#
# Coordination Sequence:
#
# PCOD9176386 Si02
#       6
#     8   8   8   8   8   8
#     4  11  23  39  59  85 121 154 186 237 294 346
#     4   8  14  27  50  85 121 142 172 229 289 342
#     4  10  18  34  60  87 112 152 190 234 289 338
#     4  10  20  39  61  83 112 150 196 241 282 328
#     4   9  17  31  58  91 117 144 183 235 290 341
#     4  10  21  38  59  85 116 149 191 239 285 339
#
# _framework density 21.147974000000001
#
# number of rings (size 3 to 8) (size 9 to 14) (size 15 to 20)
#    0.000    2.333    1.667    3.000    0.000    0.000 
#    3.000    9.167    0.000    1.000    0.000    0.000 
#    0.000    0.000    0.000    0.000    0.000    0.000 
#
# Total GULP energy -134006.024531 kJ/mol
# GULP energy per Si atom -5583.584355 kJ/mol
# Density = 2.109984 g / cm^3
# Si number density = 21.147974 Si / 1000 Ang^3
#
#
#
# Elastic Constant Matrix: (Units=GPa)
#
#
# Indices 1 2 3 4 5 6 
#
# 1 64.8917 42.7064 42.3200 0.0000 -17.3323 0.0000
# 2 42.7064 156.6975 76.1999 0.0000 -33.2400 0.0000
# 3 42.3200 76.1999 92.9196 0.0000 -24.7714 0.0000
# 4 0.0000 0.0000 0.0000 17.2265 0.0000 -12.8670
# 5 -17.3323 -33.2400 -24.7714 0.0000 39.6979 0.0000
# 6 0.0000 0.0000 0.0000 -12.8670 0.0000 28.5608
#
#
#
# Elastic Compliance Matrix: (Units=1/GPa)
#
#
# Indices 1 2 3 4 5 6 
#
# 1 0.022648 -0.001432 -0.008186 0.000000 0.003581 0.000000
# 2 -0.001432 0.011306 -0.007512 0.000000 0.004154 0.000000
# 3 -0.008186 -0.007512 0.021617 0.000000 0.003625 0.000000
# 4 0.000000 0.000000 0.000000 0.087491 0.000000 0.039416
# 5 0.003581 0.004154 0.003625 0.000000 0.032494 0.000000
# 6 0.000000 0.000000 0.000000 0.039416 0.000000 0.052770
#
#
# Mechanical properties :
#
#
# Convention : Reuss Voigt Hill
#
# Bulk Modulus (GPa) = 46.92425 70.77352 58.84889
# Shear Modulus (GPa) = 18.53978 27.31587 22.92783
#
# Velocity S-wave (km/s) = 2.96407 3.59786 3.29623
# Velocity P-wave (km/s) = 5.82675 7.12727 6.50957
#
# Compressibility (1/GPa) = 0.02131094
#
# Stress axis : x y z
#
# Youngs Moduli (GPa) = 44.15450 88.44597 46.25999
#
# Poissons Ratio (x) = 0.12667 0.37867
# Poissons Ratio (y) = 0.06324 0.34751
# Poissons Ratio (z) = 0.36144 0.66442
#
# Static dielectric constant tensor:
#      x y z
#    x 1.821530 0.000000 0.047070 
#    y 0.000000 1.728690 0.000000 
#    z 0.047070 0.000000 1.757780 
# 
# From -- ./inp_files/135531.got.cif
#   From: 2010.05.17/outbox.cif.g08.bks.cpg/sg12_68_cif.got.tgz:135531.got - 2010.06.03 13:09:07.
