data_PCOD9176160
_publ_section_title
;
Structure prediction by ZEFSAII (Michael W. Deem and Ramdas Pophale) SiO2 
 PCOD9176160
Probable space group: C 2/M
;
_chemical_formula_sum "Si O2"
_cell_formula_units_Z 56
_cell_length_a 17.302185
_cell_length_b 16.784654
_cell_length_c 14.416007
_cell_angle_alpha 90.000000
_cell_angle_beta 138.663547
_cell_angle_gamma 90.000000
_cell_volume 2765.143512
_symmetry_space_group_name_H-M "C 2/M"
_symmetry_group_IT_number 12
_symmetry_cell_setting 'monoclinic'
loop_
_space_group_symop_operation_xyz
x,y,z
-x,y,-z
-x,-y,-z
x,-y,z
1/2+x,1/2+y,z
1/2-x,1/2+y,-z
1/2-x,1/2-y,-z
1/2+x,1/2-y,z
loop_
_atom_site_type_symbol
_atom_site_label
_atom_site_fract_x
_atom_site_fract_y
_atom_site_fract_z
Si Si1 0.706675 0.655589 0.289980
Si Si2 0.324152 0.185150 0.219456
Si Si3 0.062702 0.910687 0.319413
Si Si4 0.917264 0.733861 0.591339
Si Si5 0.686260 0.848583 0.118991
Si Si6 0.570999 0.191899 0.185000
Si Si7 0.790781 0.913146 0.040246
O O1 0.768260 0.630396 0.250110
O O2 0.651942 0.594399 0.313220
O O3 0.807253 0.705115 0.433858
O O4 0.602540 0.719048 0.178059
O O5 0.462607 0.199776 0.343271
O O6 0.267345 0.271051 0.185960
O O7 0.278326 0.152308 0.080458
O O8 0.082675 0.830268 0.397735
O O9 0.929761 0.900722 0.162842
O O10 0.070683 0.000000 0.368694
O O11 0.909839 0.696743 0.688213
O O12 0.655096 0.864077 0.198430
O O13 0.750668 0.910231 0.110981
O O14 0.561027 0.830134 0.958836
O O15 0.762901 0.000000 0.976151
#
# Coordination Sequence:
#
# PCOD9176160 Si02
#       7
#     8   8   8   8   8   8   8
#     4  10  22  35  57  89 113 153 202 238 272 345
#     4  11  20  35  60  85 115 153 193 241 286 340
#     4  10  21  37  60  88 119 153 188 241 302 347
#     4  11  19  37  62  84 116 154 202 239 280 340
#     4  10  18  34  56  83 109 144 187 241 291 342
#     4   9  18  31  57  83 108 140 193 238 282 328
#     4  11  22  36  58  87 119 150 186 241 305 354
#
# _framework density 20.252115
#
# number of rings (size 3 to 8) (size 9 to 14) (size 15 to 20)
#    0.000    1.714    2.857    4.286    0.000    2.286 
#    0.000    3.571    0.000    8.571    0.000    0.000 
#    0.000    0.000    0.000    0.000    0.000    0.000 
#
# Total GULP energy -156105.785858 kJ/mol
# GULP energy per Si atom -5575.206638 kJ/mol
# Density = 2.020602 g / cm^3
# Si number density = 20.252115 Si / 1000 Ang^3
#
#
#
# Elastic Constant Matrix: (Units=GPa)
#
#
# Indices 1 2 3 4 5 6 
#
# 1 125.8343 21.4073 24.9009 0.0000 15.9795 0.0000
# 2 21.4073 53.4095 22.6507 0.0000 11.6614 0.0000
# 3 24.9009 22.6507 48.9993 0.0000 7.6845 0.0000
# 4 0.0000 0.0000 0.0000 5.0151 0.0000 -5.4234
# 5 15.9795 11.6614 7.6845 0.0000 32.9291 0.0000
# 6 0.0000 0.0000 0.0000 -5.4234 0.0000 6.0181
#
#
#
# Elastic Compliance Matrix: (Units=1/GPa)
#
#
# Indices 1 2 3 4 5 6 
#
# 1 0.009307 -0.001551 -0.003519 0.000000 -0.003146 0.000000
# 2 -0.001551 0.024729 -0.009744 0.000000 -0.005731 0.000000
# 3 -0.003519 -0.009744 0.026876 0.000001 -0.001113 0.000001
# 4 0.000000 0.000000 0.000001 7.832138 0.000000 7.058145
# 5 -0.003146 -0.005731 -0.001113 0.000000 0.034184 0.000000
# 6 0.000000 0.000000 0.000001 7.058145 0.000000 6.526806
#
#
# Mechanical properties :
#
#
# Convention : Reuss Voigt Hill
#
# Bulk Modulus (GPa) = 31.96692 40.68453 36.32572
# Shear Modulus (GPa) = 0.34497 19.41140 9.87819
#
# Velocity S-wave (km/s) = 0.41317 3.09930 2.21093
# Velocity P-wave (km/s) = 4.00579 5.73936 4.94907
#
# Compressibility (1/GPa) = 0.03128234
#
# Stress axis : x y z
#
# Youngs Moduli (GPa) = 107.44953 40.43889 37.20799
#
# Poissons Ratio (x) = 0.06272 0.13094
# Poissons Ratio (y) = 0.16664 0.36257
# Poissons Ratio (z) = 0.37814 0.39405
#
# Static dielectric constant tensor:
#      x y z
#    x 1.793680 0.000000 -0.032920 
#    y 0.000000 1.716090 0.000000 
#    z -0.032920 0.000000 1.687240 
# 
# From -- ./inp_files/226608.got.cif
#   From: 2010.05.17/outbox.cif.g08.bks.cpg/sg12_114_cif.got.tgz:226608.got - 2010.06.03 13:09:07.
