data_PCOD9176795
_publ_section_title
;
Structure prediction by ZEFSAII (Michael W. Deem and Ramdas Pophale) SiO2 
 PCOD9176795
Probable space group: C 2/M
;
_chemical_formula_sum "Si O2"
_cell_formula_units_Z 56
_cell_length_a 28.636453
_cell_length_b 18.680297
_cell_length_c 9.596091
_cell_angle_alpha 90.000000
_cell_angle_beta 39.065814
_cell_angle_gamma 90.000000
_cell_volume 3235.075958
_symmetry_space_group_name_H-M "C 2/M"
_symmetry_group_IT_number 12
_symmetry_cell_setting 'monoclinic'
loop_
_space_group_symop_operation_xyz
x,y,z
-x,y,-z
-x,-y,-z
x,-y,z
1/2+x,1/2+y,z
1/2-x,1/2+y,-z
1/2-x,1/2-y,-z
1/2+x,1/2-y,z
loop_
_atom_site_type_symbol
_atom_site_label
_atom_site_fract_x
_atom_site_fract_y
_atom_site_fract_z
Si Si1 0.203965 0.583656 0.822573
Si Si2 0.582922 0.084083 0.338609
Si Si3 0.948645 0.915251 0.333032
Si Si4 0.393111 0.585092 0.143247
Si Si5 0.681803 0.660345 0.235321
Si Si6 0.306014 0.171624 0.731029
Si Si7 0.240944 0.668049 0.472706
O O1 0.221804 0.500000 0.761067
O O2 0.268819 0.621279 0.760978
O O3 0.198178 0.624262 0.690837
O O4 0.131144 0.589566 0.085950
O O5 0.500000 0.109902 0.500000
O O6 0.628322 0.126795 0.350135
O O7 0.579378 0.000000 0.385374
O O8 0.915635 0.903723 0.253336
O O9 0.899721 0.872190 0.557140
O O10 0.942984 0.000000 0.374753
O O11 0.035244 0.896546 0.116521
O O12 0.378617 0.500000 0.160705
O O13 0.321664 0.631503 0.275293
O O14 0.681217 0.744873 0.264792
O O15 0.728394 0.649248 0.985614
O O16 0.298662 0.163262 0.583757
O O17 0.250000 0.750000 0.500000
#
# Coordination Sequence:
#
# PCOD9176795 Si02
#       7
#     8   8   8   8   8   8   8
#     4  10  19  34  61  84 107 153 195 226 278 345
#     4   9  20  41  63  83 109 147 195 241 288 346
#     4   9  16  31  54  79 106 148 193 226 266 334
#     4   9  18  31  52  79 111 146 186 230 274 329
#     4  10  18  36  55  80 111 146 192 230 279 346
#     4  10  22  35  56  84 114 146 188 242 292 337
#     4  12  21  35  54  83 122 150 184 241 285 338
#
# _framework density 17.310258000000001
#
# number of rings (size 3 to 8) (size 9 to 14) (size 15 to 20)
#    0.000    2.143    2.857    1.714    0.000    1.714 
#    2.571    1.429    0.000    4.286    0.000    0.000 
#    0.000    0.000    0.000    0.000    0.000    0.000 
#
# Total GULP energy -156194.289447 kJ/mol
# GULP energy per Si atom -5578.367480 kJ/mol
# Density = 1.727086 g / cm^3
# Si number density = 17.310258 Si / 1000 Ang^3
#
#
#
# Elastic Constant Matrix: (Units=GPa)
#
#
# Indices 1 2 3 4 5 6 
#
# 1 91.6414 52.0262 43.5241 0.0000 8.1965 0.0000
# 2 52.0262 88.4034 48.1148 0.0000 -2.6696 0.0000
# 3 43.5241 48.1148 88.6183 0.0000 -7.4395 0.0000
# 4 0.0000 0.0000 0.0000 23.7895 0.0000 18.3219
# 5 8.1965 -2.6696 -7.4395 0.0000 36.5467 0.0000
# 6 0.0000 0.0000 0.0000 18.3219 0.0000 -18.3228
#
#
#
# Elastic Compliance Matrix: (Units=1/GPa)
#
#
# Indices 1 2 3 4 5 6 
#
# 1 0.018585 -0.008345 -0.005085 0.000000 -0.005813 0.000000
# 2 -0.008345 0.019818 -0.006493 0.000000 0.001997 0.000000
# 3 -0.005085 -0.006493 0.017665 0.000000 0.004262 0.000000
# 4 0.000000 0.000000 0.000000 0.023747 0.000000 0.023746
# 5 -0.005813 0.001997 0.004262 0.000000 0.029679 0.000000
# 6 0.000000 0.000000 0.000000 0.023746 0.000000 -0.030832
#
#
# Mechanical properties :
#
#
# Convention : Reuss Voigt Hill
#
# Bulk Modulus (GPa) = 61.65063 61.77702 61.71383
# Shear Modulus (GPa) = 40.35023 16.73588 28.54306
#
# Velocity S-wave (km/s) = 4.83328 3.11274 4.06508
# Velocity P-wave (km/s) = 8.17557 6.97743 7.60014
#
# Compressibility (1/GPa) = 0.01622043
#
# Stress axis : x y z
#
# Youngs Moduli (GPa) = 53.80781 50.46030 56.60937
#
# Poissons Ratio (x) = 0.42111 0.28783
# Poissons Ratio (y) = 0.44905 0.36759
# Poissons Ratio (z) = 0.27359 0.32766
#
# Static dielectric constant tensor:
#      x y z
#    x 1.562920 0.000000 -0.000960 
#    y 0.000000 1.571850 0.000000 
#    z -0.000960 0.000000 1.616560 
# 
# From -- ./inp_files/105931.got.cif
#   From: 2010.05.17/outbox.cif.g08.bks.cpg/sg12_53_cif.got.tgz:105931.got - 2010.06.03 13:09:07.
