data_PCOD9176058
_publ_section_title
;
Structure prediction by ZEFSAII (Michael W. Deem and Ramdas Pophale) SiO2 
 PCOD9176058
Probable space group: C 2/M
;
_chemical_formula_sum "Si O2"
_cell_formula_units_Z 54
_cell_length_a 16.120824
_cell_length_b 7.514793
_cell_length_c 18.272797
_cell_angle_alpha 90.000000
_cell_angle_beta 114.733893
_cell_angle_gamma 90.000000
_cell_volume 2010.573129
_symmetry_space_group_name_H-M "C 2/M"
_symmetry_group_IT_number 12
_symmetry_cell_setting 'monoclinic'
loop_
_space_group_symop_operation_xyz
x,y,z
-x,y,-z
-x,-y,-z
x,-y,z
1/2+x,1/2+y,z
1/2-x,1/2+y,-z
1/2-x,1/2-y,-z
1/2+x,1/2-y,z
loop_
_atom_site_type_symbol
_atom_site_label
_atom_site_fract_x
_atom_site_fract_y
_atom_site_fract_z
Si Si1 0.804241 0.210132 0.255153
Si Si2 0.955062 0.797009 0.554508
Si Si3 0.292948 0.000000 0.065012
Si Si4 0.790643 0.704938 0.407209
Si Si5 0.912823 0.217618 0.695592
Si Si6 0.000000 0.500000 0.000000
Si Si7 0.360247 0.688752 0.901085
Si Si8 0.422989 0.289464 0.153375
O O1 0.837227 0.285480 0.344282
O O2 0.706266 0.283885 0.193529
O O3 0.871392 0.243687 0.212089
O O4 0.797509 0.000000 0.260261
O O5 0.848991 0.801302 0.490264
O O6 0.959320 0.721227 0.636852
O O7 0.000000 0.708525 0.500000
O O8 0.991060 0.000000 0.572453
O O9 0.217553 0.848153 0.065147
O O10 0.372634 0.846354 0.082285
O O11 0.783138 0.500000 0.426430
O O12 0.690780 0.778546 0.351132
O O13 0.973467 0.262165 0.788206
O O14 0.912577 0.000000 0.694034
O O15 0.928430 0.344753 0.943163
O O16 0.410241 0.500000 0.909989
O O17 0.413088 0.500000 0.132417
#
# Coordination Sequence:
#
# PCOD9176058 Si02
#       8
#     8   8   4   8   8   2   8   8
#     4  10  18  34  54  75 104 148 188 224 279 340
#     4  10  20  37  55  71  96 141 194 238 289 356
#     4   8  18  29  48  81 105 143 187 222 270 321
#     4  11  22  33  50  75 108 141 180 238 295 346
#     4   9  19  35  51  73 106 141 184 240 299 343
#     4  12  18  32  52  84 128 166 176 220 284 328
#     4   9  19  31  50  80 116 153 187 225 272 334
#     4   9  17  33  54  73 103 143 186 236 282 328
#
# _framework density 26.858015000000002
#
# number of rings (size 3 to 8) (size 9 to 14) (size 15 to 20)
#    0.444    1.926    0.741    2.444    2.074    2.667 
#    4.000    0.000    0.000    0.000    0.000    0.000 
#    0.000   10.667    0.000    0.741    0.000    0.000 
#
# Total GULP energy -150325.597968 kJ/mol
# GULP energy per Si atom -5567.614740 kJ/mol
# Density = 2.679688 g / cm^3
# Si number density = 26.858015 Si / 1000 Ang^3
#
#
#
# Elastic Constant Matrix: (Units=GPa)
#
#
# Indices 1 2 3 4 5 6 
#
# 1 87.0640 11.7097 15.2629 0.0000 11.2225 0.0000
# 2 11.7097 117.9274 51.0423 0.0000 23.7978 0.0000
# 3 15.2629 51.0423 139.8375 0.0000 18.8472 0.0000
# 4 0.0000 0.0000 0.0000 47.6468 0.0000 4.6255
# 5 11.2225 23.7978 18.8472 0.0000 47.3639 0.0000
# 6 0.0000 0.0000 0.0000 4.6255 0.0000 16.9849
#
#
#
# Elastic Compliance Matrix: (Units=1/GPa)
#
#
# Indices 1 2 3 4 5 6 
#
# 1 0.011984 -0.000346 -0.000869 0.000000 -0.002320 0.000000
# 2 -0.000346 0.010773 -0.003356 0.000000 -0.003996 0.000000
# 3 -0.000869 -0.003356 0.008682 0.000000 -0.001562 0.000000
# 4 0.000000 0.000000 0.000000 0.021558 0.000000 -0.005871
# 5 -0.002320 -0.003996 -0.001562 0.000000 0.024292 0.000000
# 6 0.000000 0.000000 0.000000 -0.005871 0.000000 0.060475
#
#
# Mechanical properties :
#
#
# Convention : Reuss Voigt Hill
#
# Bulk Modulus (GPa) = 44.84960 55.65094 50.25027
# Shear Modulus (GPa) = 32.39672 40.18672 36.29172
#
# Velocity S-wave (km/s) = 3.47684 3.87236 3.67991
# Velocity P-wave (km/s) = 5.73174 6.38427 6.06679
#
# Compressibility (1/GPa) = 0.02229674
#
# Stress axis : x y z
#
# Youngs Moduli (GPa) = 83.44677 92.82472 115.18614
#
# Poissons Ratio (x) = 0.03208 0.10012
# Poissons Ratio (y) = 0.02884 0.38657
# Poissons Ratio (z) = 0.07253 0.31152
#
# Static dielectric constant tensor:
#      x y z
#    x 2.264150 0.000000 -0.038280 
#    y 0.000000 2.022260 0.000000 
#    z -0.038280 0.000000 2.087300 
# 
# From -- ./inp_files/314461.got.cif
#   From: 2010.05.17/outbox.cif.g08.bks.cpg/sg12_158_cif.got.tgz:314461.got - 2010.06.03 13:09:07.
