data_PCOD9176109
_publ_section_title
;
Structure prediction by ZEFSAII (Michael W. Deem and Ramdas Pophale) SiO2 
 PCOD9176109
Probable space group: C 2/M
;
_chemical_formula_sum "Si O2"
_cell_formula_units_Z 64
_cell_length_a 9.196853
_cell_length_b 18.811517
_cell_length_c 20.038818
_cell_angle_alpha 90.000000
_cell_angle_beta 88.676306
_cell_angle_gamma 90.000000
_cell_volume 3465.925750
_symmetry_space_group_name_H-M "C 2/M"
_symmetry_group_IT_number 12
_symmetry_cell_setting 'monoclinic'
loop_
_space_group_symop_operation_xyz
x,y,z
-x,y,-z
-x,-y,-z
x,-y,z
1/2+x,1/2+y,z
1/2-x,1/2+y,-z
1/2-x,1/2-y,-z
1/2+x,1/2-y,z
loop_
_atom_site_type_symbol
_atom_site_label
_atom_site_fract_x
_atom_site_fract_y
_atom_site_fract_z
Si Si1 0.379495 0.716539 0.453562
Si Si2 0.590769 0.081740 0.261233
Si Si3 0.601478 0.418971 0.937341
Si Si4 0.824328 0.171605 0.189056
Si Si5 0.300451 0.916811 0.180294
Si Si6 0.871621 0.209473 0.760335
Si Si7 0.363089 0.918397 0.033035
Si Si8 0.117811 0.301770 0.367566
O O1 0.500000 0.677825 0.500000
O O2 0.250000 0.750000 0.500000
O O3 0.272706 0.679150 0.400950
O O4 0.486782 0.773383 0.415954
O O5 0.741210 0.107959 0.227399
O O6 0.463187 0.090070 0.207831
O O7 0.562751 0.132636 0.324042
O O8 0.596364 0.000000 0.280548
O O9 0.559847 0.500000 0.915925
O O10 0.611729 0.362333 0.878734
O O11 0.500000 0.398086 0.000000
O O12 0.754713 0.423168 0.972835
O O13 0.704038 0.233934 0.188678
O O14 0.957671 0.204314 0.228349
O O15 0.198184 0.866642 0.224771
O O16 0.298675 0.891359 0.103160
O O17 0.258121 0.000000 0.184206
O O18 0.847586 0.239514 0.686400
O O19 0.406161 0.000000 0.051701
O O20 0.500000 0.879026 0.000000
#
# Coordination Sequence:
#
# PCOD9176109 Si02
#       8
#     8   8   8   8   8   8   8   8
#     4   9  18  32  56  84 108 137 175 215 248 294
#     4  10  20  34  56  83 111 144 179 221 272 324
#     4  10  20  35  54  74  98 133 179 228 278 332
#     4  11  22  36  53  76 106 140 183 229 277 330
#     4  10  20  35  54  79 107 136 179 228 276 329
#     4  11  22  36  55  79 109 142 174 220 277 321
#     4   9  17  30  49  70  94 129 172 220 270 320
#     4  10  18  34  55  81 111 139 174 215 259 309
#
# _framework density 18.465485000000001
#
# number of rings (size 3 to 8) (size 9 to 14) (size 15 to 20)
#    0.000    2.000    0.000    5.625    0.000    4.000 
#    0.000    3.125    0.000    3.750    0.000    3.500 
#    0.000    0.000    0.000    0.000    0.000    0.000 
#
# Total GULP energy -178208.246117 kJ/mol
# GULP energy per Si atom -5569.007691 kJ/mol
# Density = 1.842346 g / cm^3
# Si number density = 18.465485 Si / 1000 Ang^3
#
#
#
# Elastic Constant Matrix: (Units=GPa)
#
#
# Indices 1 2 3 4 5 6 
#
# 1 70.0079 4.6753 4.5704 0.0000 -1.9957 0.0000
# 2 4.6753 48.8060 15.7662 0.0000 -6.6189 0.0000
# 3 4.5704 15.7662 53.6452 0.0000 0.7856 0.0000
# 4 0.0000 0.0000 0.0000 9.1352 0.0000 6.0451
# 5 -1.9957 -6.6189 0.7856 0.0000 39.0791 0.0000
# 6 0.0000 0.0000 0.0000 6.0451 0.0000 19.4502
#
#
#
# Elastic Compliance Matrix: (Units=1/GPa)
#
#
# Indices 1 2 3 4 5 6 
#
# 1 0.014429 -0.000997 -0.000945 0.000000 0.000587 0.000000
# 2 -0.000997 0.023340 -0.006834 0.000000 0.004040 0.000000
# 3 -0.000945 -0.006834 0.020754 0.000000 -0.001623 0.000000
# 4 0.000000 0.000000 0.000000 0.137810 0.000000 -0.042831
# 5 0.000587 0.004040 -0.001623 0.000000 0.026336 0.000000
# 6 0.000000 0.000000 0.000000 -0.042831 0.000000 0.064725
#
#
# Mechanical properties :
#
#
# Convention : Reuss Voigt Hill
#
# Bulk Modulus (GPa) = 24.40750 24.72034 24.56392
# Shear Modulus (GPa) = 15.69351 23.36270 19.52810
#
# Velocity S-wave (km/s) = 2.91844 3.56084 3.25552
# Velocity P-wave (km/s) = 4.96014 5.50658 5.24049
#
# Compressibility (1/GPa) = 0.04097101
#
# Stress axis : x y z
#
# Youngs Moduli (GPa) = 69.30427 42.84448 48.18420
#
# Poissons Ratio (x) = 0.04273 0.04552
# Poissons Ratio (y) = 0.06913 0.32928
# Poissons Ratio (z) = 0.06548 0.29279
#
# Static dielectric constant tensor:
#      x y z
#    x 4.570510 0.000000 0.633820 
#    y 0.000000 1.635520 0.000000 
#    z 0.633820 0.000000 1.834380 
# 
# From -- ./inp_files/300776.got.cif
#   From: 2010.05.17/outbox.cif.g08.bks.cpg/sg12_151_cif.got.tgz:300776.got - 2010.06.03 13:09:07.
