data_PCOD9176125
_publ_section_title
;
Structure prediction by ZEFSAII (Michael W. Deem and Ramdas Pophale) SiO2 
 PCOD9176125
Probable space group: C 2/M
;
_chemical_formula_sum "Si O2"
_cell_formula_units_Z 32
_cell_length_a 12.778551
_cell_length_b 21.190014
_cell_length_c 11.628147
_cell_angle_alpha 90.000000
_cell_angle_beta 155.172495
_cell_angle_gamma 90.000000
_cell_volume 1322.076664
_symmetry_space_group_name_H-M "C 2/M"
_symmetry_group_IT_number 12
_symmetry_cell_setting 'monoclinic'
loop_
_space_group_symop_operation_xyz
x,y,z
-x,y,-z
-x,-y,-z
x,-y,z
1/2+x,1/2+y,z
1/2-x,1/2+y,-z
1/2-x,1/2-y,-z
1/2+x,1/2-y,z
loop_
_atom_site_type_symbol
_atom_site_label
_atom_site_fract_x
_atom_site_fract_y
_atom_site_fract_z
Si Si1 0.500000 0.689224 0.500000
Si Si2 0.500000 0.891352 0.000000
Si Si3 0.876124 0.500000 0.055274
Si Si4 0.372302 0.500000 0.686618
Si Si5 0.477251 0.360190 0.847345
Si Si6 0.978367 0.687750 0.347679
O O1 0.750263 0.649393 0.730831
O O2 0.549747 0.738695 0.653769
O O3 0.439762 0.938308 0.044768
O O4 0.081729 0.500000 0.361796
O O5 0.584173 0.500000 0.797420
O O6 0.428924 0.434340 0.805025
O O7 0.239427 0.328708 0.551527
O O8 0.500000 0.332598 0.000000
O O9 0.739900 0.343506 0.053127
O O10 0.000000 0.658258 0.500000
#
# Coordination Sequence:
#
# PCOD9176125 Si02
#       6
#     4   4   4   4   8   8
#     4  10  18  35  68  91 102 150 194 248 284 348
#     4  11  22  42  68  80 108 143 210 240 310 341
#     4  11  26  42  57  90 110 150 193 262 280 343
#     4  12  23  37  60  82 130 156 188 229 299 326
#     4  10  18  34  55  89 121 159 186 221 268 354
#     4   8  17  30  54  89 114 141 195 228 269 327
#
# _framework density 24.204345
#
# number of rings (size 3 to 8) (size 9 to 14) (size 15 to 20)
#    0.750    1.250    0.000    4.875    0.000    2.000 
#    0.000    5.000    0.000   30.000    0.000    0.000 
#    0.000    0.000    0.000    0.000    0.000    0.000 
#
# Total GULP energy -89389.594541 kJ/mol
# GULP energy per Si atom -5586.849659 kJ/mol
# Density = 2.414926 g / cm^3
# Si number density = 24.204345 Si / 1000 Ang^3
#
#
#
# Elastic Constant Matrix: (Units=GPa)
#
#
# Indices 1 2 3 4 5 6 
#
# 1 35.6817 4.7837 -4.2899 0.0000 2.7015 -0.0001
# 2 4.7837 116.1307 22.8779 -0.0003 1.4180 0.0000
# 3 -4.2899 22.8779 121.3434 0.0005 27.0711 -0.0006
# 4 0.0000 -0.0003 0.0005 44.0443 0.0001 0.3937
# 5 2.7015 1.4180 27.0711 0.0001 28.1395 -0.0002
# 6 -0.0001 0.0000 -0.0006 0.3937 -0.0002 22.4549
#
#
#
# Elastic Compliance Matrix: (Units=1/GPa)
#
#
# Indices 1 2 3 4 5 6 
#
# 1 0.028920 -0.001613 0.002455 0.000000 -0.005057 0.000000
# 2 -0.001613 0.009083 -0.002167 0.000000 0.001782 0.000000
# 3 0.002455 -0.002167 0.011160 0.000000 -0.010863 0.000000
# 4 0.000000 0.000000 0.000000 0.022708 0.000000 -0.000398
# 5 -0.005057 0.001782 -0.010863 0.000000 0.046383 0.000000
# 6 0.000000 0.000000 0.000000 -0.000398 0.000000 0.044541
#
#
# Mechanical properties :
#
#
# Convention : Reuss Voigt Hill
#
# Bulk Modulus (GPa) = 21.50014 35.54435 28.52225
# Shear Modulus (GPa) = 27.63218 35.58002 31.60610
#
# Velocity S-wave (km/s) = 3.38245 3.83820 3.61751
# Velocity P-wave (km/s) = 4.91495 5.86168 5.40907
#
# Compressibility (1/GPa) = 0.04651132
#
# Stress axis : x y z
#
# Youngs Moduli (GPa) = 34.57838 110.10098 89.60737
#
# Poissons Ratio (x) = 0.17760 -0.21995
# Poissons Ratio (y) = 0.05578 0.19418
# Poissons Ratio (z) = -0.08488 0.23859
#
# Static dielectric constant tensor:
#      x y z
#    x 1.975250 0.000000 0.032500 
#    y 0.000000 1.866450 0.000000 
#    z 0.032500 0.000000 2.009350 
# 
# From -- ./inp_files/217965.got.cif
#   From: 2010.05.17/outbox.cif.g08.bks.cpg/sg12_109_cif.got.tgz:217965.got - 2010.06.03 13:09:07.
