data_PCOD9176859
_publ_section_title
;
Structure prediction by ZEFSAII (Michael W. Deem and Ramdas Pophale) SiO2 
 PCOD9176859
Probable space group: C 2/M
;
_chemical_formula_sum "Si O2"
_cell_formula_units_Z 60
_cell_length_a 23.267356
_cell_length_b 22.112665
_cell_length_c 12.314734
_cell_angle_alpha 90.000000
_cell_angle_beta 28.650035
_cell_angle_gamma 90.000000
_cell_volume 3037.834327
_symmetry_space_group_name_H-M "C 2/M"
_symmetry_group_IT_number 12
_symmetry_cell_setting 'monoclinic'
loop_
_space_group_symop_operation_xyz
x,y,z
-x,y,-z
-x,-y,-z
x,-y,z
1/2+x,1/2+y,z
1/2-x,1/2+y,-z
1/2-x,1/2-y,-z
1/2+x,1/2-y,z
loop_
_atom_site_type_symbol
_atom_site_label
_atom_site_fract_x
_atom_site_fract_y
_atom_site_fract_z
Si Si1 0.515622 0.334796 0.355570
Si Si2 0.423889 0.929037 0.820113
Si Si3 0.222330 0.930854 0.978525
Si Si4 0.708113 0.178817 0.567019
Si Si5 0.500000 0.236702 0.000000
Si Si6 0.847260 0.767223 0.055709
Si Si7 0.250883 0.862940 0.259458
Si Si8 0.183258 0.371827 0.382339
O O1 0.500000 0.306302 0.500000
O O2 0.618384 0.385798 0.188068
O O3 0.389097 0.365275 0.536083
O O4 0.561895 0.288289 0.187856
O O5 0.543712 0.888803 0.617935
O O6 0.457739 0.000000 0.766220
O O7 0.342499 0.918161 0.848328
O O8 0.335563 0.913810 0.067490
O O9 0.188479 0.000000 0.054864
O O10 0.251293 0.919799 0.803859
O O11 0.750000 0.250000 0.500000
O O12 0.567083 0.191850 0.807117
O O13 0.742660 0.147244 0.621887
O O14 0.730253 0.137217 0.427115
O O15 0.583631 0.274133 0.942845
O O16 0.803957 0.698886 0.120232
O O17 0.727867 0.808539 0.255196
#
# Coordination Sequence:
#
# PCOD9176859 Si02
#       8
#     8   8   8   8   4   8   8   8
#     4  11  23  41  61  93 123 165 215 266 327 385
#     4  11  24  43  67  92 128 176 221 266 317 378
#     4  10  23  45  67  90 122 171 228 269 313 375
#     4  11  20  37  62  93 127 170 204 251 318 399
#     4  10  18  36  58  88 122 168 212 236 300 392
#     4  10  23  36  62  94 131 163 210 263 322 386
#     4  11  23  40  63  95 130 168 214 260 321 387
#     4  11  21  39  64  99 125 164 214 265 318 384
#
# _framework density 19.750912
#
# number of rings (size 3 to 8) (size 9 to 14) (size 15 to 20)
#    0.000    1.333    4.000    3.200    1.867    2.400 
#    0.000    2.000    0.000    0.800    0.000    0.000 
#    0.000    0.000    0.000    0.000    0.000    0.000 
#
# Total GULP energy -167237.806835 kJ/mol
# GULP energy per Si atom -5574.593561 kJ/mol
# Density = 1.970596 g / cm^3
# Si number density = 19.750912 Si / 1000 Ang^3
#
#
#
# Elastic Constant Matrix: (Units=GPa)
#
#
# Indices 1 2 3 4 5 6 
#
# 1 94.6948 35.3051 50.4368 -0.0010 13.4981 0.0007
# 2 35.3051 48.8180 17.6305 -0.0003 -1.2586 0.0003
# 3 50.4368 17.6305 104.3110 -0.0008 11.6924 0.0012
# 4 -0.0010 -0.0003 -0.0008 15.1491 0.0008 2.4166
# 5 13.4981 -1.2586 11.6924 0.0008 41.9951 -0.0008
# 6 0.0007 0.0003 0.0012 2.4166 -0.0008 16.1954
#
#
#
# Elastic Compliance Matrix: (Units=1/GPa)
#
#
# Indices 1 2 3 4 5 6 
#
# 1 0.019114 -0.011491 -0.006784 0.000001 -0.004599 -0.000001
# 2 -0.011491 0.028848 0.000175 0.000000 0.004509 0.000000
# 3 -0.006784 0.000175 0.012998 0.000000 -0.001433 -0.000001
# 4 0.000001 0.000000 0.000000 0.067620 -0.000002 -0.010090
# 5 -0.004599 0.004509 -0.001433 -0.000002 0.025825 0.000002
# 6 -0.000001 0.000000 -0.000001 -0.010090 0.000002 0.063251
#
#
# Mechanical properties :
#
#
# Convention : Reuss Voigt Hill
#
# Bulk Modulus (GPa) = 40.38999 50.50763 45.44881
# Shear Modulus (GPa) = 19.07602 24.29802 21.68702
#
# Velocity S-wave (km/s) = 3.11115 3.51126 3.31724
# Velocity P-wave (km/s) = 5.77925 6.48586 6.14273
#
# Compressibility (1/GPa) = 0.02475861
#
# Stress axis : x y z
#
# Youngs Moduli (GPa) = 52.31899 34.66464 76.93471
#
# Poissons Ratio (x) = 0.39835 0.52193
# Poissons Ratio (y) = 0.60122 -0.01347
# Poissons Ratio (z) = 0.35494 -0.00607
#
# Static dielectric constant tensor:
#      x y z
#    x 1.717180 0.000000 -0.011690 
#    y 0.000000 1.687590 0.000000 
#    z -0.011690 0.000000 1.749970 
# 
# From -- ./inp_files/178010.got.cif
#   From: 2010.05.17/outbox.cif.g08.bks.cpg/sg12_90_cif.got.tgz:178010.got - 2010.06.03 13:09:07.
