data_PCOD9176375
_publ_section_title
;
Structure prediction by ZEFSAII (Michael W. Deem and Ramdas Pophale) SiO2 
 PCOD9176375
Probable space group: C 2/M
;
_chemical_formula_sum "Si O2"
_cell_formula_units_Z 64
_cell_length_a 25.252484
_cell_length_b 7.654832
_cell_length_c 19.984250
_cell_angle_alpha 90.000000
_cell_angle_beta 130.780114
_cell_angle_gamma 90.000000
_cell_volume 2925.167429
_symmetry_space_group_name_H-M "C 2/M"
_symmetry_group_IT_number 12
_symmetry_cell_setting 'monoclinic'
loop_
_space_group_symop_operation_xyz
x,y,z
-x,y,-z
-x,-y,-z
x,-y,z
1/2+x,1/2+y,z
1/2-x,1/2+y,-z
1/2-x,1/2-y,-z
1/2+x,1/2-y,z
loop_
_atom_site_type_symbol
_atom_site_label
_atom_site_fract_x
_atom_site_fract_y
_atom_site_fract_z
Si Si1 0.544077 0.800774 0.360802
Si Si2 0.356404 0.209980 0.823983
Si Si3 0.172953 0.208308 0.961155
Si Si4 0.893942 0.203381 0.228165
Si Si5 0.802569 0.707086 0.271649
Si Si6 0.573995 0.214205 0.528347
Si Si7 0.546393 0.213686 0.211250
Si Si8 0.925815 0.700812 0.012254
O O1 0.461590 0.800837 0.311112
O O2 0.579421 0.722912 0.455996
O O3 0.548110 0.722824 0.289336
O O4 0.569434 0.000000 0.375801
O O5 0.276639 0.256294 0.773160
O O6 0.385192 0.261352 0.775187
O O7 0.360953 0.000000 0.831122
O O8 0.408636 0.278250 0.925508
O O9 0.123492 0.270795 0.859934
O O10 0.147500 0.292797 0.008421
O O11 0.166557 0.000000 0.963070
O O12 0.250000 0.250000 0.000000
O O13 0.827077 0.220154 0.220449
O O14 0.912223 0.000000 0.238824
O O15 0.810338 0.500000 0.272634
O O16 0.860177 0.770572 0.372780
O O17 0.500000 0.268843 0.500000
O O18 0.573328 0.000000 0.526268
O O19 0.482062 0.276441 0.111053
O O20 0.540616 0.000000 0.210108
O O21 0.947599 0.500000 0.019983
#
# Coordination Sequence:
#
# PCOD9176375 Si02
#       8
#     8   8   8   8   8   8   8   8
#     4  10  18  34  60  84 105 138 185 224 263 324
#     4  10  21  37  55  81 115 144 180 232 277 315
#     4  11  23  35  49  74 111 147 180 221 270 324
#     4  11  22  35  52  79 113 143 172 221 281 324
#     4  11  22  37  57  80 109 146 187 225 270 331
#     4   9  17  32  56  84 109 137 179 231 271 314
#     4   9  18  34  59  84 107 144 188 226 268 322
#     4  10  19  34  57  81 106 141 187 228 266 318
#
# _framework density 21.879089
#
# number of rings (size 3 to 8) (size 9 to 14) (size 15 to 20)
#    0.000    1.875    2.500    2.250    0.000    6.500 
#    0.000    3.750    0.000    1.500    0.000    0.000 
#    0.000    0.000    0.000    0.000    0.000    0.000 
#
# Total GULP energy -178704.644726 kJ/mol
# GULP energy per Si atom -5584.520148 kJ/mol
# Density = 2.182929 g / cm^3
# Si number density = 21.879089 Si / 1000 Ang^3
#
#
#
# Elastic Constant Matrix: (Units=GPa)
#
#
# Indices 1 2 3 4 5 6 
#
# 1 130.7725 -0.9994 40.8553 0.0000 -23.5546 0.0000
# 2 -0.9994 49.5907 4.4258 0.0000 -4.3775 -0.0001
# 3 40.8553 4.4258 102.6684 0.0000 -24.2685 0.0000
# 4 0.0000 0.0000 0.0000 4.7670 0.0000 4.5104
# 5 -23.5546 -4.3775 -24.2685 0.0000 35.1771 0.0000
# 6 0.0000 -0.0001 0.0000 4.5104 0.0000 15.1659
#
#
#
# Elastic Compliance Matrix: (Units=1/GPa)
#
#
# Indices 1 2 3 4 5 6 
#
# 1 0.009296 0.000822 -0.002675 0.000000 0.004481 0.000000
# 2 0.000822 0.020471 -0.000570 0.000000 0.002704 0.000000
# 3 -0.002675 -0.000570 0.012413 0.000000 0.006702 0.000000
# 4 0.000000 0.000000 0.000000 0.291925 0.000000 -0.086820
# 5 0.004481 0.002704 0.006702 0.000000 0.036388 0.000000
# 6 0.000000 0.000000 0.000000 -0.086820 0.000000 0.091758
#
#
# Mechanical properties :
#
#
# Convention : Reuss Voigt Hill
#
# Bulk Modulus (GPa) = 26.78603 41.28831 34.03717
# Shear Modulus (GPa) = 10.42657 26.93865 18.68261
#
# Velocity S-wave (km/s) = 2.18538 3.51273 2.92533
# Velocity P-wave (km/s) = 4.31708 5.94680 5.19623
#
# Compressibility (1/GPa) = 0.03733289
#
# Stress axis : x y z
#
# Youngs Moduli (GPa) = 107.57165 48.84902 80.55804
#
# Poissons Ratio (x) = -0.04014 0.21553
# Poissons Ratio (y) = -0.08839 0.04593
# Poissons Ratio (z) = 0.28780 0.02785
#
# Static dielectric constant tensor:
#      x y z
#    x 1.793150 0.000000 -0.012500 
#    y 0.000000 1.820060 0.000000 
#    z -0.012500 0.000000 1.826150 
# 
# From -- ./inp_files/324237.got.cif
#   From: 2010.05.17/outbox.cif.g08.bks.cpg/sg12_163_cif.got.tgz:324237.got - 2010.06.03 13:09:07.
