data_PCOD9176051
_publ_section_title
;
Structure prediction by ZEFSAII (Michael W. Deem and Ramdas Pophale) SiO2 
 PCOD9176051
Probable space group: C 2/M
;
_chemical_formula_sum "Si O2"
_cell_formula_units_Z 56
_cell_length_a 19.014975
_cell_length_b 12.844733
_cell_length_c 14.825768
_cell_angle_alpha 90.000000
_cell_angle_beta 49.010414
_cell_angle_gamma 90.000000
_cell_volume 2733.295011
_symmetry_space_group_name_H-M "C 2/M"
_symmetry_group_IT_number 12
_symmetry_cell_setting 'monoclinic'
loop_
_space_group_symop_operation_xyz
x,y,z
-x,y,-z
-x,-y,-z
x,-y,z
1/2+x,1/2+y,z
1/2-x,1/2+y,-z
1/2-x,1/2-y,-z
1/2+x,1/2-y,z
loop_
_atom_site_type_symbol
_atom_site_label
_atom_site_fract_x
_atom_site_fract_y
_atom_site_fract_z
Si Si1 0.961807 0.796420 0.856415
Si Si2 0.177688 0.123650 0.484892
Si Si3 0.179965 0.172654 0.876665
Si Si4 0.821360 0.383545 0.912968
Si Si5 0.733359 0.380255 0.177596
Si Si6 0.174341 0.204121 0.689447
Si Si7 0.028786 0.119152 0.344242
O O1 0.898563 0.701179 0.873053
O O2 0.066712 0.760369 0.786111
O O3 0.967997 0.874655 0.767164
O O4 0.912118 0.844322 0.986204
O O5 0.185350 0.141553 0.586495
O O6 0.254517 0.198879 0.377125
O O7 0.072949 0.161106 0.545007
O O8 0.186982 0.000000 0.457686
O O9 0.265151 0.138517 0.868941
O O10 0.190327 0.297911 0.856346
O O11 0.187502 0.135077 0.768360
O O12 0.860610 0.500000 0.878081
O O13 0.746436 0.379616 0.057752
O O14 0.745757 0.500000 0.195878
O O15 0.629871 0.340871 0.289607
O O16 0.028660 0.000000 0.372959
#
# Coordination Sequence:
#
# PCOD9176051 Si02
#       7
#     8   8   8   8   8   8   8
#     4  10  18  34  53  80 110 144 172 207 261 325
#     4   9  20  39  56  72  98 141 186 219 261 312
#     4  11  19  32  51  84 113 136 166 221 271 313
#     4  10  19  31  51  79 113 150 176 200 254 328
#     4   9  16  29  50  77 107 138 170 207 258 316
#     4  10  22  35  56  79 104 139 180 224 267 312
#     4   9  15  29  56  78  96 132 177 213 252 307
#
# _framework density 20.488092000000002
#
# number of rings (size 3 to 8) (size 9 to 14) (size 15 to 20)
#    0.000    2.286    2.857    1.286    0.000    1.714 
#    0.000    0.714    0.000   11.143    0.000    4.000 
#    0.000    0.000    0.000    0.000    0.000    0.000 
#
# Total GULP energy -156059.689792 kJ/mol
# GULP energy per Si atom -5573.560350 kJ/mol
# Density = 2.044146 g / cm^3
# Si number density = 20.488092 Si / 1000 Ang^3
#
#
#
# Elastic Constant Matrix: (Units=GPa)
#
#
# Indices 1 2 3 4 5 6 
#
# 1 49.4066 -1.1598 44.1735 0.0000 -6.3085 0.0000
# 2 -1.1598 52.7716 5.3923 0.0000 -3.6730 0.0000
# 3 44.1735 5.3923 115.4399 0.0000 13.6600 0.0000
# 4 0.0000 0.0000 0.0000 12.1378 0.0000 -9.5217
# 5 -6.3085 -3.6730 13.6600 0.0000 44.7238 0.0000
# 6 0.0000 0.0000 0.0000 -9.5217 0.0000 7.8202
#
#
#
# Elastic Compliance Matrix: (Units=1/GPa)
#
#
# Indices 1 2 3 4 5 6 
#
# 1 0.034425 0.002893 -0.014432 0.000000 0.009501 0.000000
# 2 0.002893 0.019441 -0.002337 0.000000 0.002718 0.000000
# 3 -0.014432 -0.002337 0.015104 0.000000 -0.006841 0.000000
# 4 0.000000 0.000000 0.000000 1.836938 0.000000 2.236610
# 5 0.009501 0.002718 -0.006841 0.000000 0.026012 0.000000
# 6 0.000000 0.000000 0.000000 2.236610 0.000000 2.851114
#
#
# Mechanical properties :
#
#
# Convention : Reuss Voigt Hill
#
# Bulk Modulus (GPa) = 24.26172 34.93669 29.59921
# Shear Modulus (GPa) = 1.03637 24.21716 12.62677
#
# Velocity S-wave (km/s) = 0.71200 3.44177 2.48523
# Velocity P-wave (km/s) = 3.54168 5.73442 4.76587
#
# Compressibility (1/GPa) = 0.04121719
#
# Stress axis : x y z
#
# Youngs Moduli (GPa) = 29.04873 51.43733 66.20903
#
# Poissons Ratio (x) = -0.14879 0.95554
# Poissons Ratio (y) = -0.08403 0.15471
# Poissons Ratio (z) = 0.41924 0.12019
#
# Static dielectric constant tensor:
#      x y z
#    x 1.785710 0.000000 0.032600 
#    y 0.000000 1.725940 0.000000 
#    z 0.032600 0.000000 1.776690 
# 
# From -- ./inp_files/233660.got.cif
#   From: 2010.05.17/outbox.cif.g08.bks.cpg/sg12_117_cif.got.tgz:233660.got - 2010.06.03 13:09:07.
