data_PCOD9176053
_publ_section_title
;
Structure prediction by ZEFSAII (Michael W. Deem and Ramdas Pophale) SiO2 
 PCOD9176053
Probable space group: C 2/M
;
_chemical_formula_sum "Si O2"
_cell_formula_units_Z 38
_cell_length_a 8.723324
_cell_length_b 17.512445
_cell_length_c 10.261952
_cell_angle_alpha 90.000000
_cell_angle_beta 79.383343
_cell_angle_gamma 90.000000
_cell_volume 1540.848972
_symmetry_space_group_name_H-M "C 2/M"
_symmetry_group_IT_number 12
_symmetry_cell_setting 'monoclinic'
loop_
_space_group_symop_operation_xyz
x,y,z
-x,y,-z
-x,-y,-z
x,-y,z
1/2+x,1/2+y,z
1/2-x,1/2+y,-z
1/2-x,1/2-y,-z
1/2+x,1/2-y,z
loop_
_atom_site_type_symbol
_atom_site_label
_atom_site_fract_x
_atom_site_fract_y
_atom_site_fract_z
Si Si1 0.275495 0.918714 0.655779
Si Si2 0.275146 0.858554 0.105823
Si Si3 0.602696 0.288423 0.595909
Si Si4 0.500000 0.719717 0.000000
Si Si5 0.000000 0.500000 0.000000
Si Si6 0.405768 0.875506 0.348864
O O1 0.163088 0.847511 0.691811
O O2 0.337995 0.906035 0.496270
O O3 0.435939 0.919507 0.711678
O O4 0.196611 0.000000 0.680501
O O5 0.275557 0.877803 0.259731
O O6 0.111121 0.834016 0.070291
O O7 0.380013 0.781188 0.082177
O O8 0.363739 0.930989 0.029702
O O9 0.500000 0.326654 0.500000
O O10 0.750000 0.250000 0.500000
O O11 0.476216 0.210536 0.346559
#
# Coordination Sequence:
#
# PCOD9176053 Si02
#       6
#     8   8   8   4   2   8
#     4  10  21  34  53  89 126 150 193 237 286 354
#     4  10  22  39  67  86 121 155 205 253 313 355
#     4  10  18  34  53  82 115 154 194 234 271 344
#     4   9  22  44  58  93 116 154 206 267 294 362
#     4  10  24  42  60  92 116 154 202 264 308 358
#     4  10  19  34  62  83 114 163 196 228 293 364
#
# _framework density 24.661728
#
# number of rings (size 3 to 8) (size 9 to 14) (size 15 to 20)
#    0.000    2.105    4.211    1.263    5.895    0.842 
#    0.000    0.000    0.000    0.000    0.000    0.000 
#    0.000    0.000    0.000    0.000    0.000    0.000 
#
# Total GULP energy -105771.769979 kJ/mol
# GULP energy per Si atom -5566.935262 kJ/mol
# Density = 2.460560 g / cm^3
# Si number density = 24.661728 Si / 1000 Ang^3
#
#
#
# Elastic Constant Matrix: (Units=GPa)
#
#
# Indices 1 2 3 4 5 6 
#
# 1 130.8761 50.5747 43.7793 0.0000 31.0588 0.0000
# 2 50.5747 200.0928 5.0229 0.0000 10.3307 0.0000
# 3 43.7793 5.0229 85.0525 0.0000 21.8006 0.0000
# 4 0.0000 0.0000 0.0000 -5.7481 0.0000 -0.1453
# 5 31.0588 10.3307 21.8006 0.0000 41.8899 0.0000
# 6 0.0000 0.0000 0.0000 -0.1453 0.0000 33.0465
#
#
#
# Elastic Compliance Matrix: (Units=1/GPa)
#
#
# Indices 1 2 3 4 5 6 
#
# 1 0.011348 -0.002473 -0.004264 0.000000 -0.005585 0.000000
# 2 -0.002473 0.005601 0.000953 0.000000 -0.000044 0.000000
# 3 -0.004264 0.000953 0.015169 0.000000 -0.004968 0.000000
# 4 0.000000 0.000000 0.000000 -0.173951 0.000000 -0.000765
# 5 -0.005585 -0.000044 -0.004968 0.000000 0.030610 0.000000
# 6 0.000000 0.000000 0.000000 -0.000765 0.000000 0.030257
#
#
# Mechanical properties :
#
#
# Convention : Reuss Voigt Hill
#
# Bulk Modulus (GPa) = 48.65677 68.30836 58.48257
# Shear Modulus (GPa) = -79.93790 34.94730 -22.49530
#
# Velocity S-wave (km/s) = -5.69948 3.76848 -3.02347
# Velocity P-wave (km/s) = 4.85177 6.83326 3.40249
#
# Compressibility (1/GPa) = 0.02055213
#
# Stress axis : x y z
#
# Youngs Moduli (GPa) = 88.12058 178.53754 65.92280
#
# Poissons Ratio (x) = 0.44151 0.28107
# Poissons Ratio (y) = 0.21791 -0.06285
# Poissons Ratio (z) = 0.37571 -0.17021
#
# Static dielectric constant tensor:
#      x y z
#    x 1.957340 0.000000 -0.044010 
#    y 0.000000 1.970770 0.000000 
#    z -0.044010 0.000000 2.082820 
# 
# From -- ./inp_files/119157.got.cif
#   From: 2010.05.17/outbox.cif.g08.bks.cpg/sg12_60_cif.got.tgz:119157.got - 2010.06.03 13:09:07.
