data_PCOD9176901
_publ_section_title
;
Structure prediction by ZEFSAII (Michael W. Deem and Ramdas Pophale) SiO2 
 PCOD9176901
Probable space group: C 2/M
;
_chemical_formula_sum "Si O2"
_cell_formula_units_Z 48
_cell_length_a 14.464584
_cell_length_b 14.575643
_cell_length_c 22.511324
_cell_angle_alpha 90.000000
_cell_angle_beta 30.776203
_cell_angle_gamma 90.000000
_cell_volume 2428.501063
_symmetry_space_group_name_H-M "C 2/M"
_symmetry_group_IT_number 12
_symmetry_cell_setting 'monoclinic'
loop_
_space_group_symop_operation_xyz
x,y,z
-x,y,-z
-x,-y,-z
x,-y,z
1/2+x,1/2+y,z
1/2-x,1/2+y,-z
1/2-x,1/2-y,-z
1/2+x,1/2-y,z
loop_
_atom_site_type_symbol
_atom_site_label
_atom_site_fract_x
_atom_site_fract_y
_atom_site_fract_z
Si Si1 0.425534 0.756679 0.976913
Si Si2 0.635776 0.398721 0.132128
Si Si3 0.681981 0.894791 0.170206
Si Si4 0.692299 0.642867 0.769281
Si Si5 0.453860 0.280878 0.329181
Si Si6 0.462094 0.237626 0.458085
O O1 0.287658 0.828952 0.025873
O O2 0.319379 0.661401 0.051680
O O3 0.500000 0.788807 0.000000
O O4 0.594160 0.738392 0.841274
O O5 0.709201 0.500000 0.098184
O O6 0.458159 0.401078 0.189085
O O7 0.572441 0.353469 0.228579
O O8 0.772441 0.900487 0.185781
O O9 0.519059 0.821323 0.271778
O O10 0.642220 0.000000 0.173230
O O11 0.883813 0.659286 0.632245
O O12 0.479446 0.289165 0.385628
O O13 0.244803 0.294804 0.428725
O O14 0.500000 0.286040 0.500000
#
# Coordination Sequence:
#
# PCOD9176901 Si02
#       6
#     8   8   8   8   8   8
#     4   9  20  36  54  81 112 148 184 222 275 338
#     4  11  21  35  56  84 115 146 183 229 281 334
#     4   9  18  34  58  83 111 141 180 233 282 327
#     4  10  19  33  56  85 111 140 186 231 282 330
#     4   9  20  36  56  86 111 145 184 225 283 333
#     4  10  18  36  61  78 109 150 182 229 280 330
#
# _framework density 19.765277999999999
#
# number of rings (size 3 to 8) (size 9 to 14) (size 15 to 20)
#    0.000    2.333    1.667    2.000    0.000    4.000 
#    0.000    9.167    0.000    3.000    0.000    0.000 
#    0.000    0.000    0.000    0.000    0.000    0.000 
#
# Total GULP energy -133695.231631 kJ/mol
# GULP energy per Si atom -5570.634651 kJ/mol
# Density = 1.972029 g / cm^3
# Si number density = 19.765278 Si / 1000 Ang^3
#
#
#
# Elastic Constant Matrix: (Units=GPa)
#
#
# Indices 1 2 3 4 5 6 
#
# 1 90.0196 23.7597 14.0517 0.0003 0.1520 0.0000
# 2 23.7597 115.2317 35.5835 -0.0002 -10.8066 0.0001
# 3 14.0517 35.5835 96.1870 -0.0009 -20.8480 0.0004
# 4 0.0003 -0.0002 -0.0009 -5.4828 0.0004 4.8859
# 5 0.1520 -10.8066 -20.8480 0.0004 28.7272 0.0000
# 6 0.0000 0.0001 0.0004 4.8859 0.0000 -2.0405
#
#
#
# Elastic Compliance Matrix: (Units=1/GPa)
#
#
# Indices 1 2 3 4 5 6 
#
# 1 0.011904 -0.002221 -0.001320 -0.000001 -0.001856 -0.000002
# 2 -0.002221 0.010250 -0.003120 0.000000 0.001603 0.000000
# 3 -0.001320 -0.003120 0.013635 -0.000001 0.008729 0.000001
# 4 -0.000001 0.000000 -0.000001 0.160865 -0.000002 0.385191
# 5 -0.001856 0.001603 0.008729 -0.000002 0.041758 -0.000005
# 6 -0.000002 0.000000 0.000001 0.385191 -0.000005 0.432252
#
#
# Mechanical properties :
#
#
# Convention : Reuss Voigt Hill
#
# Bulk Modulus (GPa) = 44.50773 49.80312 47.15542
# Shear Modulus (GPa) = 7.23092 19.44369 13.33731
#
# Velocity S-wave (km/s) = 1.91477 3.13985 2.60048
# Velocity P-wave (km/s) = 5.23980 6.19652 5.73813
#
# Compressibility (1/GPa) = 0.02246801
#
# Stress axis : x y z
#
# Youngs Moduli (GPa) = 84.00504 97.56181 73.33912
#
# Poissons Ratio (x) = 0.21669 0.09679
# Poissons Ratio (y) = 0.18658 0.22881
# Poissons Ratio (z) = 0.11086 0.30438
#
# Static dielectric constant tensor:
#      x y z
#    x 1.747910 0.000000 -0.002890 
#    y 0.000000 1.673600 0.000000 
#    z -0.002890 0.000000 1.720090 
# 
# From -- ./inp_files/240613.got.cif
#   From: 2010.05.17/outbox.cif.g08.bks.cpg/sg12_121_cif.got.tgz:240613.got - 2010.06.03 13:09:07.
