data_PCOD9176079
_publ_section_title
;
Structure prediction by ZEFSAII (Michael W. Deem and Ramdas Pophale) SiO2 
 PCOD9176079
Probable space group: C 2/M
;
_chemical_formula_sum "Si O2"
_cell_formula_units_Z 52
_cell_length_a 15.317302
_cell_length_b 17.111924
_cell_length_c 10.743837
_cell_angle_alpha 90.000000
_cell_angle_beta 104.628396
_cell_angle_gamma 90.000000
_cell_volume 2724.766324
_symmetry_space_group_name_H-M "C 2/M"
_symmetry_group_IT_number 12
_symmetry_cell_setting 'monoclinic'
loop_
_space_group_symop_operation_xyz
x,y,z
-x,y,-z
-x,-y,-z
x,-y,z
1/2+x,1/2+y,z
1/2-x,1/2+y,-z
1/2-x,1/2-y,-z
1/2+x,1/2-y,z
loop_
_atom_site_type_symbol
_atom_site_label
_atom_site_fract_x
_atom_site_fract_y
_atom_site_fract_z
Si Si1 0.262339 0.653137 0.728965
Si Si2 0.500000 0.357215 0.000000
Si Si3 0.225982 0.309316 0.379859
Si Si4 0.361845 0.593793 0.283747
Si Si5 0.103284 0.593499 0.498179
Si Si6 0.553293 0.588181 0.285996
Si Si7 0.808996 0.827144 0.007841
O O1 0.273657 0.747221 0.732504
O O2 0.172269 0.622060 0.631107
O O3 0.349146 0.626305 0.680993
O O4 0.270347 0.626007 0.874483
O O5 0.476669 0.407873 0.870218
O O6 0.412014 0.308221 0.004400
O O7 0.250000 0.250000 0.500000
O O8 0.303300 0.370783 0.373449
O O9 0.137736 0.356999 0.390807
O O10 0.362583 0.500000 0.285974
O O11 0.466229 0.622539 0.324861
O O12 0.318830 0.623355 0.137767
O O13 0.113313 0.500000 0.482720
O O14 0.000000 0.609190 0.500000
O O15 0.564224 0.500000 0.333128
O O16 0.750000 0.750000 0.000000
#
# Coordination Sequence:
#
# PCOD9176079 Si02
#       7
#     8   4   8   8   8   8   8
#     4  10  20  34  57  85 110 144 186 231 276 338
#     4   8  17  28  48  78 113 148 174 208 267 338
#     4  10  21  37  56  79 107 146 190 231 277 331
#     4  10  20  35  57  84 116 149 180 227 290 342
#     4  10  22  40  58  76 104 148 196 239 280 324
#     4   9  17  30  52  82 114 141 173 220 277 338
#     4  10  18  34  54  84 118 145 182 223 282 340
#
# _framework density 19.084204
#
# number of rings (size 3 to 8) (size 9 to 14) (size 15 to 20)
#    0.000    2.308    1.538    1.154    0.000    6.769 
#    2.769    2.308    0.000    8.308    0.000    3.769 
#    0.000    0.000    0.000    0.000    0.000    0.000 
#
# Total GULP energy -144792.777016 kJ/mol
# GULP energy per Si atom -5568.952962 kJ/mol
# Density = 1.904077 g / cm^3
# Si number density = 19.084204 Si / 1000 Ang^3
#
#
#
# Elastic Constant Matrix: (Units=GPa)
#
#
# Indices 1 2 3 4 5 6 
#
# 1 150.7724 60.8121 28.3474 0.0000 -0.3229 0.0000
# 2 60.8121 82.8775 10.4636 0.0000 -3.4896 0.0000
# 3 28.3474 10.4636 76.1851 0.0000 -0.9882 0.0000
# 4 0.0000 0.0000 0.0000 9.9429 0.0000 -2.2801
# 5 -0.3229 -3.4896 -0.9882 0.0000 31.5865 0.0000
# 6 0.0000 0.0000 0.0000 -2.2801 0.0000 31.7736
#
#
#
# Elastic Compliance Matrix: (Units=1/GPa)
#
#
# Indices 1 2 3 4 5 6 
#
# 1 0.009974 -0.007002 -0.002759 0.000000 -0.000758 0.000000
# 2 -0.007002 0.017248 0.000260 0.000000 0.001842 0.000000
# 3 -0.002759 0.000260 0.014123 0.000000 0.000442 0.000000
# 4 0.000000 0.000000 0.000000 0.102257 0.000000 0.007338
# 5 -0.000758 0.001842 0.000442 0.000000 0.031869 0.000000
# 6 0.000000 0.000000 0.000000 0.007338 0.000000 0.031999
#
#
# Mechanical properties :
#
#
# Convention : Reuss Voigt Hill
#
# Bulk Modulus (GPa) = 44.75686 56.56458 50.66072
# Shear Modulus (GPa) = 21.37486 28.67472 25.02479
#
# Velocity S-wave (km/s) = 3.35031 3.88046 3.62509
# Velocity P-wave (km/s) = 6.20237 7.05558 6.64268
#
# Compressibility (1/GPa) = 0.02234295
#
# Stress axis : x y z
#
# Youngs Moduli (GPa) = 100.26267 57.97631 70.80843
#
# Poissons Ratio (x) = 0.40594 0.19538
# Poissons Ratio (y) = 0.70203 -0.01843
# Poissons Ratio (z) = 0.27665 -0.01509
#
# Static dielectric constant tensor:
#      x y z
#    x 1.676400 0.000000 -0.007990 
#    y 0.000000 1.725290 0.000000 
#    z -0.007990 0.000000 1.768640 
# 
# From -- ./inp_files/144927.got.cif
#   From: 2010.05.17/outbox.cif.g08.bks.cpg/sg12_73_cif.got.tgz:144927.got - 2010.06.03 13:09:07.
