data_PCOD9176692
_publ_section_title
;
Structure prediction by ZEFSAII (Michael W. Deem and Ramdas Pophale) SiO2 
 PCOD9176692
Probable space group: C 2/M
;
_chemical_formula_sum "Si O2"
_cell_formula_units_Z 64
_cell_length_a 8.079338
_cell_length_b 32.217392
_cell_length_c 16.473576
_cell_angle_alpha 90.000000
_cell_angle_beta 139.477470
_cell_angle_gamma 90.000000
_cell_volume 2786.110456
_symmetry_space_group_name_H-M "C 2/M"
_symmetry_group_IT_number 12
_symmetry_cell_setting 'monoclinic'
loop_
_space_group_symop_operation_xyz
x,y,z
-x,y,-z
-x,-y,-z
x,-y,z
1/2+x,1/2+y,z
1/2-x,1/2+y,-z
1/2-x,1/2-y,-z
1/2+x,1/2-y,z
loop_
_atom_site_type_symbol
_atom_site_label
_atom_site_fract_x
_atom_site_fract_y
_atom_site_fract_z
Si Si1 0.712519 0.141482 0.022877
Si Si2 0.608011 0.730324 0.866536
Si Si3 0.151897 0.098252 0.265704
Si Si4 0.489584 0.183996 0.209168
Si Si5 0.907613 0.682448 0.360709
Si Si6 0.895769 0.451444 0.643367
Si Si7 0.541003 0.682876 0.423542
Si Si8 0.531246 0.585064 0.628769
O O1 0.765428 0.185358 0.087803
O O2 0.965010 0.114933 0.126348
O O3 0.500000 0.120782 0.000000
O O4 0.638633 0.154230 0.904333
O O5 0.648564 0.771742 0.829732
O O6 0.318832 0.715527 0.734651
O O7 0.750000 0.750000 0.000000
O O8 0.294775 0.139586 0.352786
O O9 0.350815 0.066945 0.301506
O O10 0.998235 0.081112 0.285899
O O11 0.493046 0.167204 0.301322
O O12 0.773800 0.193926 0.281165
O O13 0.178342 0.697125 0.499009
O O14 0.915826 0.500000 0.667529
O O15 0.677675 0.442820 0.494662
O O16 0.798360 0.427591 0.687721
O O17 0.500000 0.698415 0.500000
O O18 0.530273 0.632805 0.417054
#
# Coordination Sequence:
#
# PCOD9176692 Si02
#       8
#     8   8   8   8   8   8   8   8
#     4  10  22  39  59  91 123 172 237 282 336 393
#     4   9  21  34  55  80 118 172 224 288 334 382
#     4  11  23  39  65  99 134 173 223 278 320 402
#     4  10  21  36  59  83 123 176 220 287 343 389
#     4  10  21  38  58  91 124 170 225 273 345 399
#     4  11  23  40  68 105 141 176 213 260 341 418
#     4  10  18  35  61  86 124 167 214 272 330 408
#     4  11  20  39  64  95 140 175 208 272 331 397
#
# _framework density 22.971093
#
# number of rings (size 3 to 8) (size 9 to 14) (size 15 to 20)
#    0.000    1.750    2.500    2.625    3.500    6.000 
#    0.000    0.000    0.000    0.375    0.000   12.250 
#    0.000    0.000    0.000    0.000    0.000    0.000 
#
# Total GULP energy -178518.248338 kJ/mol
# GULP energy per Si atom -5578.695261 kJ/mol
# Density = 2.291881 g / cm^3
# Si number density = 22.971093 Si / 1000 Ang^3
#
#
#
# Elastic Constant Matrix: (Units=GPa)
#
#
# Indices 1 2 3 4 5 6 
#
# 1 89.6651 32.1048 27.7163 0.0000 -13.5057 0.0000
# 2 32.1048 83.5087 17.5273 0.0000 1.5528 0.0000
# 3 27.7163 17.5273 101.7699 0.0000 5.1508 0.0000
# 4 0.0000 0.0000 0.0000 23.8381 0.0000 3.3039
# 5 -13.5057 1.5528 5.1508 0.0000 30.6792 0.0000
# 6 0.0000 0.0000 0.0000 3.3039 0.0000 32.8984
#
#
#
# Elastic Compliance Matrix: (Units=1/GPa)
#
#
# Indices 1 2 3 4 5 6 
#
# 1 0.015313 -0.005263 -0.003650 0.000000 0.007620 0.000000
# 2 -0.005263 0.014235 -0.000872 0.000000 -0.002891 0.000000
# 3 -0.003650 -0.000872 0.011144 0.000000 -0.003434 0.000000
# 4 0.000000 0.000000 0.000000 0.042542 0.000000 -0.004272
# 5 0.007620 -0.002891 -0.003434 0.000000 0.036673 0.000000
# 6 0.000000 0.000000 0.000000 -0.004272 0.000000 0.030826
#
#
# Mechanical properties :
#
#
# Convention : Reuss Voigt Hill
#
# Bulk Modulus (GPa) = 47.34188 47.73783 47.53985
# Shear Modulus (GPa) = 28.19419 30.65616 29.42517
#
# Velocity S-wave (km/s) = 3.50719 3.65712 3.58294
# Velocity P-wave (km/s) = 6.08725 6.21768 6.15281
#
# Compressibility (1/GPa) = 0.02112295
#
# Stress axis : x y z
#
# Youngs Moduli (GPa) = 65.30464 70.25027 89.73428
#
# Poissons Ratio (x) = 0.36971 0.32750
# Poissons Ratio (y) = 0.34368 0.07825
# Poissons Ratio (z) = 0.23834 0.06126
#
# Static dielectric constant tensor:
#      x y z
#    x 1.983660 0.000000 0.005920 
#    y 0.000000 1.813420 0.000000 
#    z 0.005920 0.000000 1.947940 
# 
# From -- ./inp_files/260376.got.cif
#   From: 2010.05.17/outbox.cif.g08.bks.cpg/sg12_131_cif.got.tgz:260376.got - 2010.06.03 13:09:07.
