data_PCOD9176868
_publ_section_title
;
Structure prediction by ZEFSAII (Michael W. Deem and Ramdas Pophale) SiO2 
 PCOD9176868
Probable space group: C 2/M
;
_chemical_formula_sum "Si O2"
_cell_formula_units_Z 60
_cell_length_a 26.343488
_cell_length_b 23.043130
_cell_length_c 8.449532
_cell_angle_alpha 90.000000
_cell_angle_beta 31.639292
_cell_angle_gamma 90.000000
_cell_volume 2690.609980
_symmetry_space_group_name_H-M "C 2/M"
_symmetry_group_IT_number 12
_symmetry_cell_setting 'monoclinic'
loop_
_space_group_symop_operation_xyz
x,y,z
-x,y,-z
-x,-y,-z
x,-y,z
1/2+x,1/2+y,z
1/2-x,1/2+y,-z
1/2-x,1/2-y,-z
1/2+x,1/2-y,z
loop_
_atom_site_type_symbol
_atom_site_label
_atom_site_fract_x
_atom_site_fract_y
_atom_site_fract_z
Si Si1 0.855255 0.569205 0.423758
Si Si2 0.855965 0.776259 0.119405
Si Si3 0.051814 0.908441 0.622511
Si Si4 0.869679 0.897500 0.939139
Si Si5 0.000000 0.190266 0.000000
Si Si6 0.766108 0.061160 0.685155
Si Si7 0.679431 0.159667 0.722466
Si Si8 0.418358 0.932187 0.599803
O O1 0.873835 0.500000 0.349710
O O2 0.884212 0.613702 0.206539
O O3 0.902293 0.589120 0.464658
O O4 0.739289 0.580235 0.749073
O O5 0.917297 0.777223 0.120582
O O6 0.745995 0.799671 0.434768
O O7 0.863519 0.709020 0.048559
O O8 0.889791 0.828728 0.917096
O O9 0.099060 0.907293 0.323564
O O10 0.127703 0.942358 0.526608
O O11 0.942165 0.927249 0.873847
O O12 0.045065 0.849482 0.741990
O O13 0.754008 0.117422 0.611762
O O14 0.742295 0.000000 0.665420
O O15 0.684644 0.068760 0.037066
O O16 0.500000 0.906469 0.500000
O O17 0.445300 0.000000 0.507184
#
# Coordination Sequence:
#
# PCOD9176868 Si02
#       8
#     8   8   8   8   4   8   8   8
#     4  10  19  35  58  85 117 154 197 245 295 350
#     4   9  19  36  58  76 111 154 191 241 294 343
#     4  10  19  34  56  89 123 157 191 234 293 362
#     4   9  19  34  58  86 120 155 195 236 294 358
#     4  10  18  36  59  82 119 154 190 246 296 354
#     4  11  21  36  58  84 118 158 194 239 298 357
#     4  10  20  37  55  83 112 149 197 241 294 349
#     4   9  19  37  58  77 108 153 196 244 295 339
#
# _framework density 22.299776999999999
#
# number of rings (size 3 to 8) (size 9 to 14) (size 15 to 20)
#    0.000    2.267    2.667    0.400    0.000    0.533 
#    2.400    3.667    2.933    3.200    0.000    0.000 
#    0.000    0.000    0.000    0.000    0.000    0.000 
#
# Total GULP energy -167003.700482 kJ/mol
# GULP energy per Si atom -5566.790016 kJ/mol
# Density = 2.224902 g / cm^3
# Si number density = 22.299777 Si / 1000 Ang^3
#
#
#
# Elastic Constant Matrix: (Units=GPa)
#
#
# Indices 1 2 3 4 5 6 
#
# 1 128.8713 31.0221 13.9060 0.0000 -25.3374 0.0000
# 2 31.0221 127.6761 11.5295 0.0000 -3.8210 0.0000
# 3 13.9060 11.5295 50.0924 0.0000 -24.1538 0.0000
# 4 0.0000 0.0000 0.0000 32.7973 0.0000 17.9719
# 5 -25.3374 -3.8210 -24.1538 0.0000 28.9566 0.0000
# 6 0.0000 0.0000 0.0000 17.9719 0.0000 19.1818
#
#
#
# Elastic Compliance Matrix: (Units=1/GPa)
#
#
# Indices 1 2 3 4 5 6 
#
# 1 0.010215 -0.002429 0.003143 0.000000 0.011239 0.000000
# 2 -0.002429 0.008588 -0.002979 0.000000 -0.003477 0.000000
# 3 0.003143 -0.002979 0.034983 0.000000 0.031538 0.000000
# 4 0.000000 0.000000 0.000000 0.062660 0.000000 -0.058708
# 5 0.011239 -0.003477 0.031538 0.000000 0.070217 0.000000
# 6 0.000000 0.000000 0.000000 -0.058708 0.000000 0.107137
#
#
# Mechanical properties :
#
#
# Convention : Reuss Voigt Hill
#
# Bulk Modulus (GPa) = 20.30251 46.61723 33.45987
# Shear Modulus (GPa) = 15.88563 32.86596 24.37580
#
# Velocity S-wave (km/s) = 2.67192 3.84321 3.30979
# Velocity P-wave (km/s) = 4.31775 6.37525 5.44458
#
# Compressibility (1/GPa) = 0.04925500
#
# Stress axis : x y z
#
# Youngs Moduli (GPa) = 97.89390 116.44759 28.58499
#
# Poissons Ratio (x) = 0.28291 -0.08984
# Poissons Ratio (y) = 0.23783 0.08515
# Poissons Ratio (z) = -0.30766 0.34688
#
# Static dielectric constant tensor:
#      x y z
#    x 1.837090 0.000000 -0.014780 
#    y 0.000000 1.902470 0.000000 
#    z -0.014780 0.000000 1.935480 
# 
# From -- ./inp_files/99784.got.cif
#   From: 2010.05.17/outbox.cif.g08.bks.cpg/sg12_50_cif.got.tgz:99784.got - 2010.06.03 13:09:07.
