data_PCOD9176454
_publ_section_title
;
Structure prediction by ZEFSAII (Michael W. Deem and Ramdas Pophale) SiO2 
 PCOD9176454
Probable space group: C 2/M
;
_chemical_formula_sum "Si O2"
_cell_formula_units_Z 48
_cell_length_a 10.769486
_cell_length_b 28.288190
_cell_length_c 9.648734
_cell_angle_alpha 90.000000
_cell_angle_beta 117.677635
_cell_angle_gamma 90.000000
_cell_volume 2603.129782
_symmetry_space_group_name_H-M "C 2/M"
_symmetry_group_IT_number 12
_symmetry_cell_setting 'monoclinic'
loop_
_space_group_symop_operation_xyz
x,y,z
-x,y,-z
-x,-y,-z
x,-y,z
1/2+x,1/2+y,z
1/2-x,1/2+y,-z
1/2-x,1/2-y,-z
1/2+x,1/2-y,z
loop_
_atom_site_type_symbol
_atom_site_label
_atom_site_fract_x
_atom_site_fract_y
_atom_site_fract_z
Si Si1 0.830396 0.051700 0.414542
Si Si2 0.861047 0.848895 0.522547
Si Si3 0.377282 0.692201 0.832272
Si Si4 0.148588 0.696138 0.212487
Si Si5 0.163581 0.446880 0.039569
Si Si6 0.158539 0.654083 0.925483
O O1 0.796771 0.098259 0.484324
O O2 0.000000 0.049718 0.500000
O O3 0.781095 0.000000 0.439365
O O4 0.762062 0.058368 0.226785
O O5 0.891952 0.832502 0.692562
O O6 0.753647 0.814133 0.390949
O O7 0.000000 0.849322 0.500000
O O8 0.383191 0.748621 0.816295
O O9 0.234949 0.677285 0.835458
O O10 0.500000 0.677521 0.000000
O O11 0.005986 0.666770 0.162945
O O12 0.209355 0.677680 0.096985
O O13 0.188615 0.500000 0.996207
O O14 0.185457 0.401891 0.952553
O O15 0.000000 0.444682 0.000000
#
# Coordination Sequence:
#
# PCOD9176454 Si02
#       6
#     8   8   8   8   8   8
#     4   9  18  33  56  83 112 151 194 239 289 349
#     4  11  23  39  61  85 117 155 204 241 289 362
#     4  12  26  38  58  88 120 160 196 247 299 348
#     4  11  22  41  60  84 117 162 195 239 296 353
#     4  10  18  34  62  92 115 151 200 244 297 359
#     4  11  21  39  63  86 124 151 197 246 297 354
#
# _framework density 18.439343000000001
#
# number of rings (size 3 to 8) (size 9 to 14) (size 15 to 20)
#    0.000    1.333    5.000    2.000    4.667    0.667 
#    0.000    0.833    0.000    1.000    0.000    5.833 
#    0.000    0.000    0.000    0.000    0.000    0.000 
#
# Total GULP energy -133926.761871 kJ/mol
# GULP energy per Si atom -5580.281745 kJ/mol
# Density = 1.839737 g / cm^3
# Si number density = 18.439343 Si / 1000 Ang^3
#
#
#
# Elastic Constant Matrix: (Units=GPa)
#
#
# Indices 1 2 3 4 5 6 
#
# 1 56.0850 17.8573 41.0378 0.0000 -6.1093 0.0000
# 2 17.8573 135.9207 43.1156 0.0000 -13.4204 0.0000
# 3 41.0378 43.1156 126.2816 0.0000 2.2040 0.0000
# 4 0.0000 0.0000 0.0000 5.5071 0.0000 14.0814
# 5 -6.1093 -13.4204 2.2040 0.0000 31.5261 0.0000
# 6 0.0000 0.0000 0.0000 14.0814 0.0000 9.1850
#
#
#
# Elastic Compliance Matrix: (Units=1/GPa)
#
#
# Indices 1 2 3 4 5 6 
#
# 1 0.024234 -0.000163 -0.007910 0.000000 0.005180 0.000000
# 2 -0.000163 0.008710 -0.002989 0.000000 0.003885 0.000000
# 3 -0.007910 -0.002989 0.011573 0.000000 -0.003614 0.000000
# 4 0.000000 0.000000 0.000000 -0.062185 0.000000 0.095336
# 5 0.005180 0.003885 -0.003614 0.000000 0.034630 0.000000
# 6 0.000000 0.000000 0.000000 0.095336 0.000000 -0.037285
#
#
# Mechanical properties :
#
#
# Convention : Reuss Voigt Hill
#
# Bulk Modulus (GPa) = 44.65619 58.03427 51.34523
# Shear Modulus (GPa) = 539.62299 23.66207 281.64253
#
# Velocity S-wave (km/s) = 17.12551 3.58612 12.37221
# Velocity P-wave (km/s) = 20.37926 6.97771 15.23159
#
# Compressibility (1/GPa) = 0.02239331
#
# Stress axis : x y z
#
# Youngs Moduli (GPa) = 41.26414 114.80610 86.40951
#
# Poissons Ratio (x) = 0.01875 0.68350
# Poissons Ratio (y) = 0.00674 0.25825
# Poissons Ratio (z) = 0.32640 0.34312
#
# Static dielectric constant tensor:
#      x y z
#    x 1.637810 0.000000 0.029600 
#    y 0.000000 1.669880 0.000000 
#    z 0.029600 0.000000 1.618450 
# 
# From -- ./inp_files/52794.got.cif
#   From: 2010.05.17/outbox.cif.g08.bks.cpg/sg12_27_cif.got.tgz:52794.got - 2010.06.03 13:09:07.
