data_PCOD9176624
_publ_section_title
;
Structure prediction by ZEFSAII (Michael W. Deem and Ramdas Pophale) SiO2 
 PCOD9176624
Probable space group: C 2/M
;
_chemical_formula_sum "Si O2"
_cell_formula_units_Z 40
_cell_length_a 18.119887
_cell_length_b 10.027810
_cell_length_c 11.630883
_cell_angle_alpha 90.000000
_cell_angle_beta 75.315007
_cell_angle_gamma 90.000000
_cell_volume 2044.329069
_symmetry_space_group_name_H-M "C 2/M"
_symmetry_group_IT_number 12
_symmetry_cell_setting 'monoclinic'
loop_
_space_group_symop_operation_xyz
x,y,z
-x,y,-z
-x,-y,-z
x,-y,z
1/2+x,1/2+y,z
1/2-x,1/2+y,-z
1/2-x,1/2-y,-z
1/2+x,1/2-y,z
loop_
_atom_site_type_symbol
_atom_site_label
_atom_site_fract_x
_atom_site_fract_y
_atom_site_fract_z
Si Si1 0.716831 0.860334 0.139736
Si Si2 0.968429 0.847105 0.170979
Si Si3 0.647906 0.344604 0.598882
Si Si4 0.775667 0.842314 0.663969
Si Si5 0.378302 0.270371 0.996764
O O1 0.705667 0.733516 0.225964
O O2 0.802740 0.853529 0.057272
O O3 0.706468 0.000000 0.207668
O O4 0.658502 0.851307 0.057183
O O5 0.934844 0.826296 0.310890
O O6 0.922648 0.753859 0.099537
O O7 0.949001 0.000000 0.145182
O O8 0.057529 0.830313 0.112700
O O9 0.670510 0.500000 0.613928
O O10 0.704454 0.240295 0.638438
O O11 0.658294 0.328388 0.458586
O O12 0.760089 0.000000 0.685707
#
# Coordination Sequence:
#
# PCOD9176624 Si02
#       5
#     8   8   8   8   8
#     4  11  22  38  57  81 115 150 181 225 277 329
#     4  10  18  35  59  84 109 143 182 230 276 323
#     4   9  18  35  57  82 110 142 183 229 276 322
#     4  10  20  33  55  84 111 143 185 228 270 325
#     4  10  21  34  56  83 108 144 187 225 270 325
#
# _framework density 19.566322
#
# number of rings (size 3 to 8) (size 9 to 14) (size 15 to 20)
#    0.000    2.000    2.000    3.000    0.000    5.600 
#    0.000    4.000    0.000    4.800    0.000    0.000 
#    0.000    0.000    0.000    0.000    0.000    0.000 
#
# Total GULP energy -111348.815754 kJ/mol
# GULP energy per Si atom -5567.440788 kJ/mol
# Density = 1.952179 g / cm^3
# Si number density = 19.566322 Si / 1000 Ang^3
#
#
#
# Elastic Constant Matrix: (Units=GPa)
#
#
# Indices 1 2 3 4 5 6 
#
# 1 71.9540 25.4198 39.2082 0.0000 -8.1883 0.0000
# 2 25.4198 112.3916 50.9548 0.0000 6.4254 0.0000
# 3 39.2082 50.9548 140.8609 0.0000 -30.8116 0.0000
# 4 0.0000 0.0000 0.0000 19.3943 0.0000 7.5553
# 5 -8.1883 6.4254 -30.8116 0.0000 24.6302 0.0000
# 6 0.0000 0.0000 0.0000 7.5553 0.0000 -4.9676
#
#
#
# Elastic Compliance Matrix: (Units=1/GPa)
#
#
# Indices 1 2 3 4 5 6 
#
# 1 0.016808 -0.002379 -0.003387 0.000000 0.001972 0.000000
# 2 -0.002379 0.013374 -0.007038 0.000000 -0.013084 0.000000
# 3 -0.003387 -0.007038 0.014790 0.000000 0.019212 0.000000
# 4 0.000000 0.000000 0.000000 0.032378 0.000000 0.049244
# 5 0.001972 -0.013084 0.019212 0.000000 0.068703 0.000000
# 6 0.000000 0.000000 0.000000 0.049244 0.000000 -0.126408
#
#
# Mechanical properties :
#
#
# Convention : Reuss Voigt Hill
#
# Bulk Modulus (GPa) = 51.63734 61.81912 56.72823
# Shear Modulus (GPa) = 96.70056 21.78629 59.24343
#
# Velocity S-wave (km/s) = 7.03770 3.34047 5.50854
# Velocity P-wave (km/s) = 9.61703 6.82214 8.33753
#
# Compressibility (1/GPa) = 0.01936583
#
# Stress axis : x y z
#
# Youngs Moduli (GPa) = 59.49567 74.77106 67.61303
#
# Poissons Ratio (x) = 0.17787 0.22898
# Poissons Ratio (y) = 0.14153 0.47584
# Poissons Ratio (z) = 0.20149 0.52622
#
# Static dielectric constant tensor:
#      x y z
#    x 1.668660 0.000000 0.004440 
#    y 0.000000 1.699230 0.000000 
#    z 0.004440 0.000000 1.723990 
# 
# From -- ./inp_files/220604.got.cif
#   From: 2010.05.17/outbox.cif.g08.bks.cpg/sg12_111_cif.got.tgz:220604.got - 2010.06.03 13:09:07.
