data_PCOD9176756
_publ_section_title
;
Structure prediction by ZEFSAII (Michael W. Deem and Ramdas Pophale) SiO2 
 PCOD9176756
Probable space group: C 2/M
;
_chemical_formula_sum "Si O2"
_cell_formula_units_Z 40
_cell_length_a 11.028369
_cell_length_b 25.112077
_cell_length_c 9.165470
_cell_angle_alpha 90.000000
_cell_angle_beta 123.002751
_cell_angle_gamma 90.000000
_cell_volume 2128.759129
_symmetry_space_group_name_H-M "C 2/M"
_symmetry_group_IT_number 12
_symmetry_cell_setting 'monoclinic'
loop_
_space_group_symop_operation_xyz
x,y,z
-x,y,-z
-x,-y,-z
x,-y,z
1/2+x,1/2+y,z
1/2-x,1/2+y,-z
1/2-x,1/2-y,-z
1/2+x,1/2-y,z
loop_
_atom_site_type_symbol
_atom_site_label
_atom_site_fract_x
_atom_site_fract_y
_atom_site_fract_z
Si Si1 0.057750 0.500000 0.367576
Si Si2 0.402130 0.593492 0.793717
Si Si3 0.592662 0.284227 0.213146
Si Si4 0.090394 0.395385 0.703874
Si Si5 0.149822 0.722654 0.810535
Si Si6 0.594472 0.500000 0.417861
O O1 0.229834 0.500000 0.454899
O O2 0.000000 0.500000 0.500000
O O3 0.992728 0.443519 0.270311
O O4 0.407075 0.654110 0.742263
O O5 0.240260 0.581747 0.741099
O O6 0.445389 0.551914 0.700997
O O7 0.500000 0.589268 0.000000
O O8 0.755910 0.269190 0.274452
O O9 0.506515 0.249074 0.272451
O O10 0.500000 0.281436 0.000000
O O11 0.129146 0.341118 0.814483
O O12 0.000000 0.379246 0.500000
O O13 0.250000 0.750000 0.000000
O O14 0.500000 0.500000 0.500000
#
# Coordination Sequence:
#
# PCOD9176756 Si02
#       6
#     4   8   8   8   8   4
#     4  10  18  38  63  83 113 159 207 241 295 377
#     4  10  19  36  62  89 114 161 211 246 293 380
#     4   8  16  31  52  77 108 141 191 241 289 343
#     4  10  18  35  65  86 109 157 216 244 286 368
#     4   9  17  32  53  81 112 148 187 241 294 350
#     4  12  23  38  58  92 129 154 193 270 328 344
#
# _framework density 18.790289000000001
#
# number of rings (size 3 to 8) (size 9 to 14) (size 15 to 20)
#    0.000    2.400    4.000    1.500    0.000    0.000 
#    3.600    5.000    0.000    1.200    0.000    0.000 
#    0.000    0.000    0.000    0.000    0.000    0.000 
#
# Total GULP energy -111375.861426 kJ/mol
# GULP energy per Si atom -5568.793071 kJ/mol
# Density = 1.874752 g / cm^3
# Si number density = 18.790289 Si / 1000 Ang^3
#
#
#
# Elastic Constant Matrix: (Units=GPa)
#
#
# Indices 1 2 3 4 5 6 
#
# 1 150.0922 71.0383 25.7258 0.0000 -19.1018 0.0000
# 2 71.0383 130.9434 33.2576 0.0000 -22.7886 0.0000
# 3 25.7258 33.2576 40.6667 0.0000 2.1067 0.0000
# 4 0.0000 0.0000 0.0000 -15.0541 0.0000 17.5103
# 5 -19.1018 -22.7886 2.1067 0.0000 21.1813 0.0000
# 6 0.0000 0.0000 0.0000 17.5103 0.0000 30.6551
#
#
#
# Elastic Compliance Matrix: (Units=1/GPa)
#
#
# Indices 1 2 3 4 5 6 
#
# 1 0.009537 -0.003325 -0.003593 0.000000 0.005381 0.000000
# 2 -0.003325 0.014451 -0.010419 0.000000 0.013586 0.000000
# 3 -0.003593 -0.010419 0.036319 0.000000 -0.018062 0.000000
# 4 0.000000 0.000000 0.000000 -0.039911 0.000000 0.022797
# 5 0.005381 0.013586 -0.018062 0.000000 0.068477 0.000000
# 6 0.000000 0.000000 0.000000 0.022797 0.000000 0.019599
#
#
# Mechanical properties :
#
#
# Convention : Reuss Voigt Hill
#
# Bulk Modulus (GPa) = 39.00995 64.63843 51.82419
# Shear Modulus (GPa) = 32.96191 20.13518 26.54854
#
# Velocity S-wave (km/s) = 4.19286 3.27704 3.76292
# Velocity P-wave (km/s) = 6.65176 6.98522 6.82052
#
# Compressibility (1/GPa) = 0.02563448
#
# Stress axis : x y z
#
# Youngs Moduli (GPa) = 104.85699 69.19779 27.53375
#
# Poissons Ratio (x) = 0.23008 0.09892
# Poissons Ratio (y) = 0.34865 0.28687
# Poissons Ratio (z) = 0.37670 0.72096
#
# Static dielectric constant tensor:
#      x y z
#    x 1.664630 0.000000 -0.015950 
#    y 0.000000 1.678120 0.000000 
#    z -0.015950 0.000000 1.452360 
# 
# From -- ./inp_files/51768.got.cif
#   From: 2010.05.17/outbox.cif.g08.bks.cpg/sg12_26_cif.got.tgz:51768.got - 2010.06.03 13:09:07.
