data_PCOD9176084
_publ_section_title
;
Structure prediction by ZEFSAII (Michael W. Deem and Ramdas Pophale) SiO2 
 PCOD9176084
Probable space group: C 2/M
;
_chemical_formula_sum "Si O2"
_cell_formula_units_Z 56
_cell_length_a 20.318114
_cell_length_b 20.429726
_cell_length_c 7.334929
_cell_angle_alpha 90.000000
_cell_angle_beta 51.929036
_cell_angle_gamma 90.000000
_cell_volume 2396.918153
_symmetry_space_group_name_H-M "C 2/M"
_symmetry_group_IT_number 12
_symmetry_cell_setting 'monoclinic'
loop_
_space_group_symop_operation_xyz
x,y,z
-x,y,-z
-x,-y,-z
x,-y,z
1/2+x,1/2+y,z
1/2-x,1/2+y,-z
1/2-x,1/2-y,-z
1/2+x,1/2-y,z
loop_
_atom_site_type_symbol
_atom_site_label
_atom_site_fract_x
_atom_site_fract_y
_atom_site_fract_z
Si Si1 0.408076 0.309219 0.073247
Si Si2 0.651111 0.176366 0.911002
Si Si3 0.018272 0.425344 0.189182
Si Si4 0.688645 0.574177 0.915561
Si Si5 0.662534 0.702172 0.433332
Si Si6 0.144756 0.650776 0.482677
Si Si7 0.410234 0.569884 0.556690
O O1 0.396127 0.245031 0.970247
O O2 0.385771 0.379422 0.031688
O O3 0.337094 0.296741 0.347509
O O4 0.500000 0.305830 0.000000
O O5 0.747095 0.185009 0.798949
O O6 0.649291 0.159833 0.696058
O O7 0.600474 0.117256 0.084871
O O8 0.027927 0.500000 0.228851
O O9 0.938074 0.390640 0.412320
O O10 0.000000 0.424867 0.000000
O O11 0.690385 0.500000 0.837101
O O12 0.773960 0.612179 0.726102
O O13 0.664089 0.568210 0.168471
O O14 0.638764 0.775320 0.416175
O O15 0.600528 0.641282 0.509950
O O16 0.500000 0.568697 0.500000
O O17 0.404648 0.500000 0.459857
#
# Coordination Sequence:
#
# PCOD9176084 Si02
#       7
#     8   8   8   8   8   8   8
#     4  11  20  35  58  86 118 150 188 239 293 340
#     4  10  18  34  54  87 121 146 186 241 285 337
#     4   9  18  30  51  82 118 155 184 224 285 349
#     4  11  22  37  58  81 114 152 192 245 292 339
#     4  11  20  36  61  85 112 155 191 240 286 343
#     4  10  18  36  56  85 119 147 191 238 291 340
#     4  10  24  43  57  79 116 153 192 237 291 348
#
# _framework density 23.363333000000001
#
# number of rings (size 3 to 8) (size 9 to 14) (size 15 to 20)
#    0.000    1.714    2.857    4.286    0.000    2.571 
#    0.000    0.000    0.000    0.000    0.000    3.000 
#    0.000    0.000    0.000    0.000    0.000    0.000 
#
# Total GULP energy -156403.324111 kJ/mol
# GULP energy per Si atom -5585.833004 kJ/mol
# Density = 2.331016 g / cm^3
# Si number density = 23.363333 Si / 1000 Ang^3
#
#
#
# Elastic Constant Matrix: (Units=GPa)
#
#
# Indices 1 2 3 4 5 6 
#
# 1 42.8682 58.8879 21.6245 0.0000 -29.2848 0.0000
# 2 58.8879 261.9251 42.9301 0.0000 -31.2090 0.0000
# 3 21.6245 42.9301 76.0812 0.0000 -19.8499 0.0000
# 4 0.0000 0.0000 0.0000 17.0491 0.0000 6.7756
# 5 -29.2848 -31.2090 -19.8499 0.0000 39.0551 0.0000
# 6 0.0000 0.0000 0.0000 6.7756 0.0000 -3.8745
#
#
#
# Elastic Compliance Matrix: (Units=1/GPa)
#
#
# Indices 1 2 3 4 5 6 
#
# 1 0.064596 -0.009357 -0.002760 0.000000 0.039556 0.000000
# 2 -0.009357 0.005783 -0.001416 0.000000 -0.003115 0.000000
# 3 -0.002760 -0.001416 0.016016 0.000000 0.004939 0.000000
# 4 0.000000 0.000000 0.000000 0.034604 0.000000 0.060515
# 5 0.039556 -0.003115 0.004939 0.000000 0.055286 0.000000
# 6 0.000000 0.000000 0.000000 0.060515 0.000000 -0.152271
#
#
# Mechanical properties :
#
#
# Convention : Reuss Voigt Hill
#
# Bulk Modulus (GPa) = 16.85543 69.75104 43.30323
# Shear Modulus (GPa) = 70.56549 27.60806 49.08678
#
# Velocity S-wave (km/s) = 5.50174 3.44129 4.58866
# Velocity P-wave (km/s) = 6.89847 6.76090 6.83003
#
# Compressibility (1/GPa) = 0.05932808
#
# Stress axis : x y z
#
# Youngs Moduli (GPa) = 15.48089 172.93329 62.43777
#
# Poissons Ratio (x) = 1.61820 0.17231
# Poissons Ratio (y) = 0.14486 0.08842
# Poissons Ratio (z) = 0.04272 0.24489
#
# Static dielectric constant tensor:
#      x y z
#    x 1.883140 0.000000 0.068610 
#    y 0.000000 1.934950 0.000000 
#    z 0.068610 0.000000 1.903870 
# 
# From -- ./inp_files/98060.got.cif
#   From: 2010.05.17/outbox.cif.g08.bks.cpg/sg12_50_cif.got.tgz:98060.got - 2010.06.03 13:09:07.
