data_PCOD9176757
_publ_section_title
;
Structure prediction by ZEFSAII (Michael W. Deem and Ramdas Pophale) SiO2 
 PCOD9176757
Probable space group: C 2/M
;
_chemical_formula_sum "Si O2"
_cell_formula_units_Z 50
_cell_length_a 9.536557
_cell_length_b 24.891658
_cell_length_c 19.593821
_cell_angle_alpha 90.000000
_cell_angle_beta 148.384557
_cell_angle_gamma 90.000000
_cell_volume 2438.228427
_symmetry_space_group_name_H-M "C 2/M"
_symmetry_group_IT_number 12
_symmetry_cell_setting 'monoclinic'
loop_
_space_group_symop_operation_xyz
x,y,z
-x,y,-z
-x,-y,-z
x,-y,z
1/2+x,1/2+y,z
1/2-x,1/2+y,-z
1/2-x,1/2-y,-z
1/2+x,1/2-y,z
loop_
_atom_site_type_symbol
_atom_site_label
_atom_site_fract_x
_atom_site_fract_y
_atom_site_fract_z
Si Si1 0.812537 0.559456 0.653662
Si Si2 0.961197 0.757663 0.728863
Si Si3 0.000000 0.500000 0.000000
Si Si4 0.502274 0.789204 0.111872
Si Si5 0.365499 0.910200 0.835117
Si Si6 0.288311 0.367160 0.611197
Si Si7 0.730274 0.836232 0.432173
O O1 0.500000 0.557370 0.500000
O O2 0.924841 0.500000 0.684858
O O3 0.838795 0.570828 0.745220
O O4 0.926629 0.611038 0.660638
O O5 0.269871 0.773915 0.847901
O O6 0.902411 0.723468 0.771523
O O7 0.798337 0.813185 0.660768
O O8 0.906552 0.719699 0.641609
O O9 0.993961 0.453368 0.937551
O O10 0.476611 0.853458 0.096567
O O11 0.250000 0.750000 0.000000
O O12 0.058656 0.900316 0.733623
O O13 0.301366 0.346123 0.539308
O O14 0.000000 0.394792 0.500000
O O15 0.000000 0.833626 0.500000
#
# Coordination Sequence:
#
# PCOD9176757 Si02
#       7
#     8   8   2   8   8   8   8
#     4  10  18  35  65  90 117 150 215 268 317 374
#     4  11  21  36  58  92 130 170 203 262 322 402
#     4  12  28  44  72  88 130 184 240 272 306 384
#     4  11  24  39  61  91 128 173 222 263 318 384
#     4  11  23  43  66  94 128 173 229 268 321 391
#     4  11  22  36  60  98 136 161 200 265 344 397
#     4  11  18  35  59  91 123 163 198 253 323 393
#
# _framework density 20.506692999999999
#
# number of rings (size 3 to 8) (size 9 to 14) (size 15 to 20)
#    0.000    1.120    5.600    3.360    4.480    0.000 
#    0.000    0.400    0.000    0.000    0.000    3.360 
#    0.000    0.000    0.000    0.000    0.000    0.000 
#
# Total GULP energy -139264.552901 kJ/mol
# GULP energy per Si atom -5570.582116 kJ/mol
# Density = 2.046002 g / cm^3
# Si number density = 20.506693 Si / 1000 Ang^3
#
#
#
# Elastic Constant Matrix: (Units=GPa)
#
#
# Indices 1 2 3 4 5 6 
#
# 1 49.6663 6.0525 12.2672 0.0020 -6.5526 -0.0038
# 2 6.0525 126.0070 21.9570 0.0020 -5.5022 -0.0034
# 3 12.2672 21.9570 50.7183 -0.0044 -10.3572 -0.0176
# 4 0.0020 0.0020 -0.0044 16.8346 -0.0022 -19.1898
# 5 -6.5526 -5.5022 -10.3572 -0.0022 38.6038 -0.0011
# 6 -0.0038 -0.0034 -0.0176 -19.1898 -0.0011 13.3816
#
#
#
# Elastic Compliance Matrix: (Units=1/GPa)
#
#
# Indices 1 2 3 4 5 6 
#
# 1 0.021623 -0.000117 -0.004690 0.000005 0.002395 0.000008
# 2 -0.000117 0.008586 -0.003643 0.000008 0.000227 0.000008
# 3 -0.004690 -0.003643 0.023444 -0.000064 0.004975 -0.000063
# 4 0.000005 0.000008 -0.000064 -0.093594 -0.000024 -0.134218
# 5 0.002395 0.000227 0.004975 -0.000024 0.027678 -0.000025
# 6 0.000008 0.000008 -0.000063 -0.134218 -0.000025 -0.117745
#
#
# Mechanical properties :
#
#
# Convention : Reuss Voigt Hill
#
# Bulk Modulus (GPa) = 27.20790 34.10500 30.65645
# Shear Modulus (GPa) = -49.57479 26.17166 -11.70156
#
# Velocity S-wave (km/s) = -4.92213 3.57634 -2.39136
# Velocity P-wave (km/s) = 4.35966 5.80697 2.71240
#
# Compressibility (1/GPa) = 0.03675404
#
# Stress axis : x y z
#
# Youngs Moduli (GPa) = 46.24689 116.46437 42.65489
#
# Poissons Ratio (x) = 0.01360 0.20006
# Poissons Ratio (y) = 0.00540 0.15538
# Poissons Ratio (z) = 0.21691 0.42424
#
# Static dielectric constant tensor:
#      x y z
#    x 1.721540 0.000000 -0.000670 
#    y 0.000000 1.752760 0.000000 
#    z -0.000670 0.000000 1.831270 
# 
# From -- ./inp_files/259749.got.cif
#   From: 2010.05.17/outbox.cif.g08.bks.cpg/sg12_130_cif.got.tgz:259749.got - 2010.06.03 13:09:07.
