data_PCOD9176332
_publ_section_title
;
Structure prediction by ZEFSAII (Michael W. Deem and Ramdas Pophale) SiO2 
 PCOD9176332
Probable space group: C 2/M
;
_chemical_formula_sum "Si O2"
_cell_formula_units_Z 60
_cell_length_a 8.583337
_cell_length_b 19.936376
_cell_length_c 18.996651
_cell_angle_alpha 90.000000
_cell_angle_beta 98.972994
_cell_angle_gamma 90.000000
_cell_volume 3210.936547
_symmetry_space_group_name_H-M "C 2/M"
_symmetry_group_IT_number 12
_symmetry_cell_setting 'monoclinic'
loop_
_space_group_symop_operation_xyz
x,y,z
-x,y,-z
-x,-y,-z
x,-y,z
1/2+x,1/2+y,z
1/2-x,1/2+y,-z
1/2-x,1/2-y,-z
1/2+x,1/2-y,z
loop_
_atom_site_type_symbol
_atom_site_label
_atom_site_fract_x
_atom_site_fract_y
_atom_site_fract_z
Si Si1 0.158324 0.686468 0.646589
Si Si2 0.099435 0.226392 0.446183
Si Si3 0.677621 0.921789 0.028088
Si Si4 0.158986 0.422367 0.765729
Si Si5 0.000000 0.851336 0.000000
Si Si6 0.692287 0.073906 0.197624
Si Si7 0.360619 0.690908 0.847997
Si Si8 0.354960 0.292063 0.229367
O O1 0.319894 0.687532 0.612922
O O2 0.145009 0.618578 0.691211
O O3 0.160917 0.746087 0.703969
O O4 0.008214 0.711223 0.589123
O O5 0.250000 0.250000 0.500000
O O6 0.000000 0.188590 0.500000
O O7 0.699002 0.918829 0.113810
O O8 0.673399 0.000000 0.005444
O O9 0.500000 0.893919 0.000000
O O10 0.835404 0.890496 0.005006
O O11 0.208463 0.500000 0.761123
O O12 0.271494 0.378779 0.824746
O O13 0.987432 0.421836 0.789632
O O14 0.958065 0.811716 0.926233
O O15 0.786904 0.134815 0.237270
O O16 0.754174 0.000000 0.220364
O O17 0.471830 0.702405 0.788844
O O18 0.241430 0.752774 0.837985
#
# Coordination Sequence:
#
# PCOD9176332 Si02
#       8
#     8   8   8   8   4   8   8   8
#     4  10  18  34  59  85 115 155 187 233 295 336
#     4   9  18  32  56  89 119 146 186 230 270 339
#     4  10  21  37  57  79 108 148 194 248 311 379
#     4  10  21  37  59  86 116 151 200 250 298 358
#     4  12  23  40  56  84 109 158 204 256 332 382
#     4  10  20  37  57  79 108 143 186 246 301 349
#     4  11  24  37  57  81 110 153 194 255 312 367
#     4  11  21  39  56  83 115 144 196 243 299 361
#
# _framework density 18.686138
#
# number of rings (size 3 to 8) (size 9 to 14) (size 15 to 20)
#    0.000    1.733    1.333    5.000    0.000    3.200 
#    1.200    0.000    0.000    4.000    0.000    3.733 
#    0.000    0.000    0.000    0.000    0.000    0.000 
#
# Total GULP energy -167215.296586 kJ/mol
# GULP energy per Si atom -5573.843220 kJ/mol
# Density = 1.864361 g / cm^3
# Si number density = 18.686138 Si / 1000 Ang^3
#
#
#
# Elastic Constant Matrix: (Units=GPa)
#
#
# Indices 1 2 3 4 5 6 
#
# 1 105.7608 31.3280 28.2924 0.0000 -15.1475 0.0000
# 2 31.3280 103.2242 24.2240 0.0000 -1.4774 0.0000
# 3 28.2924 24.2240 83.9188 0.0000 -7.9130 0.0000
# 4 0.0000 0.0000 0.0000 3.3927 0.0000 -2.9901
# 5 -15.1475 -1.4774 -7.9130 0.0000 44.6134 0.0000
# 6 0.0000 0.0000 0.0000 -2.9901 0.0000 20.6364
#
#
#
# Elastic Compliance Matrix: (Units=1/GPa)
#
#
# Indices 1 2 3 4 5 6 
#
# 1 0.011496 -0.002795 -0.002756 0.000000 0.003322 0.000000
# 2 -0.002795 0.011073 -0.002348 0.000000 -0.000999 0.000000
# 3 -0.002756 -0.002348 0.013656 0.000000 0.001409 0.000000
# 4 0.000000 0.000000 0.000000 0.337907 0.000000 0.048961
# 5 0.003322 -0.000999 0.001409 0.000000 0.023759 0.000000
# 6 0.000000 0.000000 0.000000 0.048961 0.000000 0.055552
#
#
# Mechanical properties :
#
#
# Convention : Reuss Voigt Hill
#
# Bulk Modulus (GPa) = 48.95419 51.17697 50.06558
# Shear Modulus (GPa) = 10.50310 27.66579 19.08444
#
# Velocity S-wave (km/s) = 2.37339 3.85197 3.19927
# Velocity P-wave (km/s) = 5.81082 6.87246 6.36382
#
# Compressibility (1/GPa) = 0.02042726
#
# Stress axis : x y z
#
# Youngs Moduli (GPa) = 86.98570 90.31307 73.22769
#
# Poissons Ratio (x) = 0.25240 0.20180
# Poissons Ratio (y) = 0.24310 0.17195
# Poissons Ratio (z) = 0.23972 0.21207
#
# Static dielectric constant tensor:
#      x y z
#    x 1.702150 0.000000 -0.004540 
#    y 0.000000 1.642160 0.000000 
#    z -0.004540 0.000000 1.688510 
# 
# From -- ./inp_files/258162.got.cif
#   From: 2010.05.17/outbox.cif.g08.bks.cpg/sg12_130_cif.got.tgz:258162.got - 2010.06.03 13:09:07.
