data_PCOD9176525
_publ_section_title
;
Structure prediction by ZEFSAII (Michael W. Deem and Ramdas Pophale) SiO2 
 PCOD9176525
Probable space group: C 2/M
;
_chemical_formula_sum "Si O2"
_cell_formula_units_Z 44
_cell_length_a 14.532730
_cell_length_b 17.451521
_cell_length_c 8.584884
_cell_angle_alpha 90.000000
_cell_angle_beta 81.139896
_cell_angle_gamma 90.000000
_cell_volume 2151.302444
_symmetry_space_group_name_H-M "C 2/M"
_symmetry_group_IT_number 12
_symmetry_cell_setting 'monoclinic'
loop_
_space_group_symop_operation_xyz
x,y,z
-x,y,-z
-x,-y,-z
x,-y,z
1/2+x,1/2+y,z
1/2-x,1/2+y,-z
1/2-x,1/2-y,-z
1/2+x,1/2-y,z
loop_
_atom_site_type_symbol
_atom_site_label
_atom_site_fract_x
_atom_site_fract_y
_atom_site_fract_z
Si Si1 0.613733 0.213480 0.688765
Si Si2 0.819388 0.367681 0.903442
Si Si3 0.301128 0.914317 0.552101
Si Si4 0.000000 0.641980 0.000000
Si Si5 0.099539 0.865697 0.491199
Si Si6 0.695906 0.303031 0.173110
O O1 0.635923 0.147442 0.555852
O O2 0.589035 0.291108 0.605474
O O3 0.712855 0.221822 0.750970
O O4 0.540675 0.187981 0.839461
O O5 0.804785 0.398267 0.735303
O O6 0.839577 0.275769 0.890802
O O7 0.909685 0.402987 0.961474
O O8 0.729707 0.365718 0.038855
O O9 0.193327 0.906711 0.526216
O O10 0.334026 0.000000 0.509434
O O11 0.124605 0.836652 0.312776
O O12 0.000000 0.906170 0.500000
#
# Coordination Sequence:
#
# PCOD9176525 Si02
#       6
#     8   8   8   4   8   8
#     4  10  19  37  58  92 117 150 194 244 292 341
#     4  10  18  35  54  83 114 149 192 237 289 341
#     4  11  23  40  59  81 121 165 192 230 292 356
#     4  10  22  32  59  90 117 142 192 250 290 334
#     4  11  20  36  62  91 115 144 197 250 287 338
#     4   9  17  33  57  82 117 147 187 243 292 334
#
# _framework density 20.452725999999998
#
# number of rings (size 3 to 8) (size 9 to 14) (size 15 to 20)
#    0.000    1.818    3.636    2.182    0.000    0.364 
#    0.000   10.909    0.000    1.091    0.000    0.000 
#    0.000    0.000    0.000    0.000    0.000    0.000 
#
# Total GULP energy -122728.712709 kJ/mol
# GULP energy per Si atom -5578.577850 kJ/mol
# Density = 2.040617 g / cm^3
# Si number density = 20.452726 Si / 1000 Ang^3
#
#
#
# Elastic Constant Matrix: (Units=GPa)
#
#
# Indices 1 2 3 4 5 6 
#
# 1 66.9160 5.3144 21.1589 0.0000 -14.8276 0.0000
# 2 5.3144 61.2082 12.4536 0.0000 5.8532 0.0000
# 3 21.1589 12.4536 124.9030 0.0000 -5.1348 0.0000
# 4 0.0000 0.0000 0.0000 4.6131 0.0000 1.9825
# 5 -14.8276 5.8532 -5.1348 0.0000 30.8609 0.0000
# 6 0.0000 0.0000 0.0000 1.9825 0.0000 -1.6637
#
#
#
# Elastic Compliance Matrix: (Units=1/GPa)
#
#
# Indices 1 2 3 4 5 6 
#
# 1 0.017749 -0.001847 -0.002475 0.000000 0.008467 0.000000
# 2 -0.001847 0.017244 -0.001588 0.000000 -0.004422 0.000000
# 3 -0.002475 -0.001588 0.008606 0.000000 0.000544 0.000000
# 4 0.000000 0.000000 0.000000 0.143360 0.000000 0.170832
# 5 0.008467 -0.004422 0.000544 0.000000 0.037401 0.000000
# 6 0.000000 0.000000 0.000000 0.170832 0.000000 -0.397516
#
#
# Mechanical properties :
#
#
# Convention : Reuss Voigt Hill
#
# Bulk Modulus (GPa) = 31.46675 36.76454 34.11565
# Shear Modulus (GPa) = -33.16916 21.03543 -6.06687
#
# Velocity S-wave (km/s) = -4.03146 3.21049 -1.72416
# Velocity P-wave (km/s) = 2.50035 5.63537 3.57111
#
# Compressibility (1/GPa) = 0.03177958
#
# Stress axis : x y z
#
# Youngs Moduli (GPa) = 56.34021 57.99084 116.19617
#
# Poissons Ratio (x) = 0.10712 0.28753
# Poissons Ratio (y) = 0.10407 0.18455
# Poissons Ratio (z) = 0.13942 0.09210
#
# Static dielectric constant tensor:
#      x y z
#    x 1.755060 0.000000 -0.004590 
#    y 0.000000 1.713340 0.000000 
#    z -0.004590 0.000000 1.736070 
# 
# From -- ./inp_files/60978.got.cif
#   From: 2010.05.17/outbox.cif.g08.bks.cpg/sg12_31_cif.got.tgz:60978.got - 2010.06.03 13:09:07.
