data_PCOD9176122
_publ_section_title
;
Structure prediction by ZEFSAII (Michael W. Deem and Ramdas Pophale) SiO2 
 PCOD9176122
Probable space group: C 2/M
;
_chemical_formula_sum "Si O2"
_cell_formula_units_Z 40
_cell_length_a 17.017770
_cell_length_b 27.072399
_cell_length_c 10.276336
_cell_angle_alpha 90.000000
_cell_angle_beta 21.224089
_cell_angle_gamma 90.000000
_cell_volume 1713.941812
_symmetry_space_group_name_H-M "C 2/M"
_symmetry_group_IT_number 12
_symmetry_cell_setting 'monoclinic'
loop_
_space_group_symop_operation_xyz
x,y,z
-x,y,-z
-x,-y,-z
x,-y,z
1/2+x,1/2+y,z
1/2-x,1/2+y,-z
1/2-x,1/2-y,-z
1/2+x,1/2-y,z
loop_
_atom_site_type_symbol
_atom_site_label
_atom_site_fract_x
_atom_site_fract_y
_atom_site_fract_z
Si Si1 0.662778 0.596567 0.061489
Si Si2 0.334654 0.592466 0.367190
Si Si3 0.536616 0.056745 0.631816
Si Si4 0.144711 0.695805 0.650518
Si Si5 0.157872 0.304743 0.135186
O O1 0.821866 0.589949 0.688380
O O2 0.666781 0.652122 0.111424
O O3 0.787211 0.565517 0.978857
O O4 0.433514 0.580796 0.355157
O O5 0.106053 0.571769 0.669685
O O6 0.318645 0.651794 0.381226
O O7 0.500000 0.573469 0.000000
O O8 0.592638 0.000000 0.520571
O O9 0.250000 0.750000 0.500000
O O10 0.986364 0.690537 0.771374
O O11 0.000000 0.687805 0.000000
O O12 0.000000 0.310065 0.500000
O O13 0.250000 0.250000 0.000000
#
# Coordination Sequence:
#
# PCOD9176122 Si02
#       5
#     8   8   8   8   8
#     4  10  18  34  55  85 127 157 206 260 316 369
#     4  10  20  36  59  89 128 162 209 265 316 381
#     4  10  19  34  60  93 129 165 207 272 330 369
#     4  12  24  41  61  91 130 173 216 263 321 385
#     4  12  22  38  60  87 125 166 209 259 314 376
#
# _framework density 23.338014999999999
#
# number of rings (size 3 to 8) (size 9 to 14) (size 15 to 20)
#    0.000    1.200    4.000    5.400    0.000    4.400 
#    0.000    0.000    0.000    0.600    0.000    1.400 
#    0.000    0.000    0.000    0.000    0.000    0.000 
#
# Total GULP energy -111730.436975 kJ/mol
# GULP energy per Si atom -5586.521849 kJ/mol
# Density = 2.328490 g / cm^3
# Si number density = 23.338015 Si / 1000 Ang^3
#
#
#
# Elastic Constant Matrix: (Units=GPa)
#
#
# Indices 1 2 3 4 5 6 
#
# 1 251.5139 30.0254 38.7855 -0.0056 -37.9953 0.0013
# 2 30.0254 119.6837 -0.8303 -0.0062 -7.4010 0.0021
# 3 38.7855 -0.8303 37.9827 0.0045 4.3519 -0.0009
# 4 -0.0056 -0.0062 0.0045 18.0185 -0.0015 -6.3475
# 5 -37.9953 -7.4010 4.3519 -0.0015 40.1646 0.0006
# 6 0.0013 0.0021 -0.0009 -6.3475 0.0006 20.3679
#
#
#
# Elastic Compliance Matrix: (Units=1/GPa)
#
#
# Indices 1 2 3 4 5 6 
#
# 1 0.006172 -0.001203 -0.007060 0.000004 0.006382 0.000000
# 2 -0.001203 0.008686 0.001382 0.000002 0.000313 0.000000
# 3 -0.007060 0.001382 0.034735 -0.000012 -0.010188 -0.000002
# 4 0.000004 0.000002 -0.000012 0.062343 0.000007 0.019428
# 5 0.006382 0.000313 -0.010188 0.000007 0.032097 0.000000
# 6 0.000000 0.000000 -0.000002 0.019428 0.000000 0.055151
#
#
# Mechanical properties :
#
#
# Convention : Reuss Voigt Hill
#
# Bulk Modulus (GPa) = 27.90847 60.57128 44.23988
# Shear Modulus (GPa) = 22.23307 38.45686 30.34496
#
# Velocity S-wave (km/s) = 3.08986 4.06374 3.60979
# Velocity P-wave (km/s) = 4.97132 6.93029 6.03087
#
# Compressibility (1/GPa) = 0.03583141
#
# Stress axis : x y z
#
# Youngs Moduli (GPa) = 162.00955 115.12709 28.78941
#
# Poissons Ratio (x) = 0.13848 0.20327
# Poissons Ratio (y) = 0.19487 -0.03979
# Poissons Ratio (z) = 1.14387 -0.15913
#
# Static dielectric constant tensor:
#      x y z
#    x 1.901520 0.000000 -0.044060 
#    y 0.000000 1.899130 -0.000010 
#    z -0.044060 -0.000010 1.867810 
# 
# From -- ./inp_files/68451.got.cif
#   From: 2010.05.17/outbox.cif.g08.bks.cpg/sg12_35_cif.got.tgz:68451.got - 2010.06.03 13:09:07.
