data_PCOD9176544
_publ_section_title
;
Structure prediction by ZEFSAII (Michael W. Deem and Ramdas Pophale) SiO2 
 PCOD9176544
Probable space group: C 2/M
;
_chemical_formula_sum "Si O2"
_cell_formula_units_Z 44
_cell_length_a 17.148817
_cell_length_b 15.196554
_cell_length_c 8.141329
_cell_angle_alpha 90.000000
_cell_angle_beta 95.178995
_cell_angle_gamma 90.000000
_cell_volume 2112.992610
_symmetry_space_group_name_H-M "C 2/M"
_symmetry_group_IT_number 12
_symmetry_cell_setting 'monoclinic'
loop_
_space_group_symop_operation_xyz
x,y,z
-x,y,-z
-x,-y,-z
x,-y,z
1/2+x,1/2+y,z
1/2-x,1/2+y,-z
1/2-x,1/2-y,-z
1/2+x,1/2-y,z
loop_
_atom_site_type_symbol
_atom_site_label
_atom_site_fract_x
_atom_site_fract_y
_atom_site_fract_z
Si Si1 0.153995 0.685421 0.563178
Si Si2 0.321810 0.306547 0.738572
Si Si3 0.759521 0.000000 0.166994
Si Si4 0.780393 0.500000 0.495217
Si Si5 0.173770 0.000000 0.172939
Si Si6 0.031161 0.600592 0.745500
Si Si7 0.624518 0.139335 0.093445
O O1 0.226543 0.696364 0.705574
O O2 0.154876 0.764035 0.432682
O O3 0.175387 0.592128 0.481854
O O4 0.070979 0.668759 0.630336
O O5 0.356001 0.403812 0.776713
O O6 0.352501 0.240773 0.883284
O O7 0.702536 0.916765 0.132167
O O8 0.782106 0.000000 0.365233
O O9 0.816783 0.000000 0.021927
O O10 0.752502 0.500000 0.300534
O O11 0.036461 0.500000 0.686446
O O12 0.943560 0.619960 0.786537
O O13 0.084997 0.609966 0.917212
#
# Coordination Sequence:
#
# PCOD9176544 Si02
#       7
#     8   8   4   4   4   8   8
#     4  10  20  36  59  83 121 159 196 248 307 358
#     4  10  22  39  55  84 119 162 207 255 289 358
#     4  12  20  34  61  90 122 167 190 243 320 377
#     4  10  18  35  55  89 120 151 192 249 299 377
#     4  10  24  40  58  80 127 163 211 265 295 332
#     4  11  21  36  61  90 130 161 182 252 328 371
#     4  11  21  36  56  91 128 157 200 239 307 392
#
# _framework density 20.823544999999999
#
# number of rings (size 3 to 8) (size 9 to 14) (size 15 to 20)
#    0.000    1.455    4.545    2.727    0.000    3.636 
#    0.000    1.818    0.000    4.364    0.000    0.000 
#    0.000    0.000    0.000    0.000    0.000    0.000 
#
# Total GULP energy -122678.029132 kJ/mol
# GULP energy per Si atom -5576.274051 kJ/mol
# Density = 2.077615 g / cm^3
# Si number density = 20.823545 Si / 1000 Ang^3
#
#
#
# Elastic Constant Matrix: (Units=GPa)
#
#
# Indices 1 2 3 4 5 6 
#
# 1 42.6811 14.1696 14.4845 0.0000 -8.3697 0.0000
# 2 14.1696 147.6150 0.7873 0.0000 -11.8403 0.0000
# 3 14.4845 0.7873 60.9100 0.0000 -10.6412 0.0000
# 4 0.0000 0.0000 0.0000 31.3792 0.0000 -10.1535
# 5 -8.3697 -11.8403 -10.6412 0.0000 35.8891 0.0000
# 6 0.0000 0.0000 0.0000 -10.1535 0.0000 0.6156
#
#
#
# Elastic Compliance Matrix: (Units=1/GPa)
#
#
# Indices 1 2 3 4 5 6 
#
# 1 0.026856 -0.002240 -0.005687 0.000000 0.003838 0.000000
# 2 -0.002240 0.007152 0.000803 0.000000 0.002075 0.000000
# 3 -0.005687 0.000803 0.018534 0.000000 0.004434 0.000000
# 4 0.000000 0.000000 0.000000 -0.007348 0.000000 -0.121197
# 5 0.003838 0.002075 0.004434 0.000000 0.030758 0.000000
# 6 0.000000 0.000000 0.000000 -0.121197 0.000000 -0.374559
#
#
# Mechanical properties :
#
#
# Convention : Reuss Voigt Hill
#
# Bulk Modulus (GPa) = 26.11393 34.45431 30.28412
# Shear Modulus (GPa) = -18.40977 28.36108 4.97566
#
# Velocity S-wave (km/s) = -2.97658 3.69449 1.54746
# Velocity P-wave (km/s) = 0.86858 5.89753 4.21517
#
# Compressibility (1/GPa) = 0.03829373
#
# Stress axis : x y z
#
# Youngs Moduli (GPa) = 37.23609 139.83018 53.95412
#
# Poissons Ratio (x) = 0.31318 0.30683
# Poissons Ratio (y) = 0.08340 -0.04331
# Poissons Ratio (z) = 0.21176 -0.11224
#
# Static dielectric constant tensor:
#      x y z
#    x 1.743230 0.000000 0.009640 
#    y 0.000000 1.776090 0.000000 
#    z 0.009640 0.000000 1.865860 
# 
# From -- ./inp_files/73172.got.cif
#   From: 2010.05.17/outbox.cif.g08.bks.cpg/sg12_37_cif.got.tgz:73172.got - 2010.06.03 13:09:07.
