data_PCOD9176260
_publ_section_title
;
Structure prediction by ZEFSAII (Michael W. Deem and Ramdas Pophale) SiO2 
 PCOD9176260
Probable space group: C 2/M
;
_chemical_formula_sum "Si O2"
_cell_formula_units_Z 56
_cell_length_a 23.225814
_cell_length_b 29.142486
_cell_length_c 12.337092
_cell_angle_alpha 90.000000
_cell_angle_beta 156.290152
_cell_angle_gamma 90.000000
_cell_volume 3357.762575
_symmetry_space_group_name_H-M "C 2/M"
_symmetry_group_IT_number 12
_symmetry_cell_setting 'monoclinic'
loop_
_space_group_symop_operation_xyz
x,y,z
-x,y,-z
-x,-y,-z
x,-y,z
1/2+x,1/2+y,z
1/2-x,1/2+y,-z
1/2-x,1/2-y,-z
1/2+x,1/2-y,z
loop_
_atom_site_type_symbol
_atom_site_label
_atom_site_fract_x
_atom_site_fract_y
_atom_site_fract_z
Si Si1 0.867448 0.553374 0.035320
Si Si2 0.023402 0.825331 0.711115
Si Si3 0.459423 0.382732 0.051425
Si Si4 0.807598 0.446613 0.456697
Si Si5 0.233193 0.855735 0.880183
Si Si6 0.402323 0.227929 0.227449
Si Si7 0.272386 0.447060 0.439994
O O1 0.837853 0.500000 0.014196
O O2 0.038034 0.560657 0.330325
O O3 0.787302 0.592272 0.965777
O O4 0.815212 0.559766 0.820974
O O5 0.052604 0.843222 0.880947
O O6 0.144358 0.844897 0.836861
O O7 0.023621 0.770119 0.706866
O O8 0.875692 0.844015 0.405208
O O9 0.589499 0.415138 0.314277
O O10 0.500000 0.367056 0.000000
O O11 0.315504 0.412891 0.796566
O O12 0.766303 0.500000 0.367851
O O13 0.817037 0.440241 0.603518
O O14 0.362995 0.819188 0.100391
O O15 0.500000 0.218251 0.500000
O O16 0.250000 0.250000 0.000000
O O17 0.320570 0.500000 0.524032
#
# Coordination Sequence:
#
# PCOD9176260 Si02
#       7
#     8   8   8   8   8   8   8
#     4  10  19  32  50  78 113 145 174 215 274 326
#     4  10  19  36  56  81 110 133 179 230 266 315
#     4  10  19  32  54  78 106 143 178 222 272 318
#     4   9  18  31  47  74 107 142 190 229 252 302
#     4  10  20  35  57  82 109 141 177 223 267 317
#     4  10  18  34  58  83 101 131 176 223 264 301
#     4   9  16  29  51  73 100 144 189 224 258 305
#
# _framework density 16.677772000000001
#
# number of rings (size 3 to 8) (size 9 to 14) (size 15 to 20)
#    0.000    2.286    4.286    0.857    0.000    5.714 
#    0.000    2.857    0.000    4.714    0.000    0.000 
#    0.000    0.000    0.000    0.000    0.000    0.000 
#
# Total GULP energy -155999.942795 kJ/mol
# GULP energy per Si atom -5571.426528 kJ/mol
# Density = 1.663981 g / cm^3
# Si number density = 16.677772 Si / 1000 Ang^3
#
#
#
# Elastic Constant Matrix: (Units=GPa)
#
#
# Indices 1 2 3 4 5 6 
#
# 1 46.8542 47.1125 34.8525 0.0000 -11.0803 0.0000
# 2 47.1125 113.6952 47.2074 0.0000 -0.8427 0.0000
# 3 34.8525 47.2074 78.8561 0.0000 -4.1719 0.0000
# 4 0.0000 0.0000 0.0000 26.2212 0.0000 -2.9935
# 5 -11.0803 -0.8427 -4.1719 0.0000 18.3472 0.0000
# 6 0.0000 0.0000 0.0000 -2.9935 0.0000 19.3093
#
#
#
# Elastic Compliance Matrix: (Units=1/GPa)
#
#
# Indices 1 2 3 4 5 6 
#
# 1 0.055133 -0.017514 -0.012312 0.000000 0.029692 0.000000
# 2 -0.017514 0.017289 -0.003165 0.000000 -0.010502 0.000000
# 3 -0.012312 -0.003165 0.019856 0.000000 -0.003066 0.000000
# 4 0.000000 0.000000 0.000000 0.038824 0.000000 0.006019
# 5 0.029692 -0.010502 -0.003066 0.000000 0.071256 0.000000
# 6 0.000000 0.000000 0.000000 0.006019 0.000000 0.052722
#
#
# Mechanical properties :
#
#
# Convention : Reuss Voigt Hill
#
# Bulk Modulus (GPa) = 38.02866 55.30559 46.66712
# Shear Modulus (GPa) = 15.15950 20.12441 17.64196
#
# Velocity S-wave (km/s) = 3.01817 3.47747 3.25593
# Velocity P-wave (km/s) = 5.91585 7.02545 6.49439
#
# Compressibility (1/GPa) = 0.02629596
#
# Stress axis : x y z
#
# Youngs Moduli (GPa) = 18.13803 57.84032 50.36372
#
# Poissons Ratio (x) = 1.01299 0.62008
# Poissons Ratio (y) = 0.31766 0.15941
# Poissons Ratio (z) = 0.22332 0.18307
#
# Static dielectric constant tensor:
#      x y z
#    x 1.565480 0.000000 0.006630 
#    y 0.000000 1.562910 0.000000 
#    z 0.006630 0.000000 1.559440 
# 
# From -- ./inp_files/125201.got.cif
#   From: 2010.05.17/outbox.cif.g08.bks.cpg/sg12_63_cif.got.tgz:125201.got - 2010.06.03 13:09:07.
