data_PCOD9176456
_publ_section_title
;
Structure prediction by ZEFSAII (Michael W. Deem and Ramdas Pophale) SiO2 
 PCOD9176456
Probable space group: C 2/M
;
_chemical_formula_sum "Si O2"
_cell_formula_units_Z 56
_cell_length_a 14.471035
_cell_length_b 16.638937
_cell_length_c 12.878399
_cell_angle_alpha 90.000000
_cell_angle_beta 120.415900
_cell_angle_gamma 90.000000
_cell_volume 2674.128688
_symmetry_space_group_name_H-M "C 2/M"
_symmetry_group_IT_number 12
_symmetry_cell_setting 'monoclinic'
loop_
_space_group_symop_operation_xyz
x,y,z
-x,y,-z
-x,-y,-z
x,-y,z
1/2+x,1/2+y,z
1/2-x,1/2+y,-z
1/2-x,1/2-y,-z
1/2+x,1/2-y,z
loop_
_atom_site_type_symbol
_atom_site_label
_atom_site_fract_x
_atom_site_fract_y
_atom_site_fract_z
Si Si1 0.967325 0.405070 0.774683
Si Si2 0.114928 0.901907 0.103235
Si Si3 0.365540 0.792677 0.541511
Si Si4 0.788747 0.597834 0.033501
Si Si5 0.738824 0.095085 0.212890
Si Si6 0.605687 0.629048 0.515417
Si Si7 0.776053 0.090778 0.629101
O O1 0.965395 0.500000 0.740443
O O2 0.918335 0.345897 0.660625
O O3 0.885281 0.399450 0.824200
O O4 0.088110 0.382181 0.872587
O O5 0.208554 0.876023 0.078440
O O6 0.143338 0.878535 0.236888
O O7 0.111199 0.000000 0.098871
O O8 0.000000 0.872288 0.000000
O O9 0.250000 0.750000 0.500000
O O10 0.432411 0.715739 0.548280
O O11 0.329519 0.855027 0.433202
O O12 0.785364 0.500000 0.027562
O O13 0.750324 0.625649 0.898060
O O14 0.810623 0.135931 0.342262
O O15 0.767779 0.000000 0.232993
O O16 0.500000 0.587577 0.500000
O O17 0.666909 0.590750 0.451579
O O18 0.746182 0.000000 0.637995
#
# Coordination Sequence:
#
# PCOD9176456 Si02
#       7
#     8   8   8   8   8   8   8
#     4  10  18  34  62  93 119 151 200 252 305 357
#     4   9  19  35  55  81 116 155 193 242 298 350
#     4  10  20  37  57  79 119 160 189 240 301 360
#     4   9  19  33  55  90 123 153 193 246 307 362
#     4  10  19  34  59  90 124 154 193 251 304 355
#     4  11  24  37  57  88 123 161 201 242 306 369
#     4  10  20  37  63  87 112 151 203 253 299 350
#
# _framework density 20.941400999999999
#
# number of rings (size 3 to 8) (size 9 to 14) (size 15 to 20)
#    0.000    2.143    2.857    1.286    2.000    4.000 
#    0.000    0.000    6.286    6.000    0.000    0.000 
#    0.000    0.000    0.000    0.000    0.000    0.000 
#
# Total GULP energy -156113.512031 kJ/mol
# GULP energy per Si atom -5575.482573 kJ/mol
# Density = 2.089374 g / cm^3
# Si number density = 20.941401 Si / 1000 Ang^3
#
#
#
# Elastic Constant Matrix: (Units=GPa)
#
#
# Indices 1 2 3 4 5 6 
#
# 1 75.5492 -6.1243 34.3964 0.0000 0.8377 0.0000
# 2 -6.1243 53.0892 13.7408 0.0000 -6.6213 0.0000
# 3 34.3964 13.7408 148.2309 0.0000 -4.7909 0.0000
# 4 0.0000 0.0000 0.0000 -20.3880 0.0000 7.2034
# 5 0.8377 -6.6213 -4.7909 0.0000 18.6465 0.0000
# 6 0.0000 0.0000 0.0000 7.2034 0.0000 2.9463
#
#
#
# Elastic Compliance Matrix: (Units=1/GPa)
#
#
# Indices 1 2 3 4 5 6 
#
# 1 0.015185 0.002644 -0.003792 0.000000 -0.000718 0.000000
# 2 0.002644 0.020560 -0.002306 0.000000 0.006589 0.000000
# 3 -0.003792 -0.002306 0.007884 0.000000 0.001377 0.000000
# 4 0.000000 0.000000 0.000000 -0.026316 0.000000 0.064340
# 5 -0.000718 0.006589 0.001377 0.000000 0.056355 0.000000
# 6 0.000000 0.000000 0.000000 0.064340 0.000000 0.182104
#
#
# Mechanical properties :
#
#
# Convention : Reuss Voigt Hill
#
# Bulk Modulus (GPa) = 27.23290 40.09944 33.66617
# Shear Modulus (GPa) = 18.18700 15.89805 17.04252
#
# Velocity S-wave (km/s) = 2.95018 2.75829 2.85585
# Velocity P-wave (km/s) = 4.96360 5.41610 5.19478
#
# Compressibility (1/GPa) = 0.03672029
#
# Stress axis : x y z
#
# Youngs Moduli (GPa) = 65.85421 48.63818 126.83217
#
# Poissons Ratio (x) = -0.12858 0.48093
# Poissons Ratio (y) = -0.17410 0.29252
# Poissons Ratio (z) = 0.24971 0.11218
#
# Static dielectric constant tensor:
#      x y z
#    x 1.771500 0.000000 -0.014940 
#    y 0.000000 1.808130 0.000000 
#    z -0.014940 0.000000 1.735720 
# 
# From -- ./inp_files/146225.got.cif
#   From: 2010.05.17/outbox.cif.g08.bks.cpg/sg12_74_cif.got.tgz:146225.got - 2010.06.03 13:09:07.
