data_PCOD9176022
_publ_section_title
;
Structure prediction by ZEFSAII (Michael W. Deem and Ramdas Pophale) SiO2 
 PCOD9176022
Probable space group: C 2/M
;
_chemical_formula_sum "Si O2"
_cell_formula_units_Z 64
_cell_length_a 16.543160
_cell_length_b 32.344170
_cell_length_c 8.726315
_cell_angle_alpha 90.000000
_cell_angle_beta 134.908845
_cell_angle_gamma 90.000000
_cell_volume 3306.893542
_symmetry_space_group_name_H-M "C 2/M"
_symmetry_group_IT_number 12
_symmetry_cell_setting 'monoclinic'
loop_
_space_group_symop_operation_xyz
x,y,z
-x,y,-z
-x,-y,-z
x,-y,z
1/2+x,1/2+y,z
1/2-x,1/2+y,-z
1/2-x,1/2-y,-z
1/2+x,1/2-y,z
loop_
_atom_site_type_symbol
_atom_site_label
_atom_site_fract_x
_atom_site_fract_y
_atom_site_fract_z
Si Si1 0.834607 0.765884 0.980790
Si Si2 0.208935 0.707233 0.523366
Si Si3 0.192107 0.874936 0.499048
Si Si4 0.961384 0.314870 0.110083
Si Si5 0.723422 0.876476 0.034546
Si Si6 0.162891 0.452428 0.355877
Si Si7 0.909475 0.453310 0.101897
Si Si8 0.541418 0.341487 0.732170
O O1 0.935731 0.795278 0.176541
O O2 0.887124 0.725449 0.971641
O O3 0.750000 0.750000 0.000000
O O4 0.761001 0.790988 0.761283
O O5 0.250000 0.750000 0.500000
O O6 0.256058 0.666915 0.500436
O O7 0.073389 0.701303 0.344103
O O8 0.243889 0.916635 0.495005
O O9 0.056297 0.867522 0.313921
O O10 0.231901 0.877081 0.729565
O O11 0.881176 0.344372 0.101435
O O12 0.000000 0.335218 0.000000
O O13 0.669853 0.920375 0.921204
O O14 0.834777 0.862760 0.092508
O O15 0.196650 0.500000 0.437399
O O16 0.043777 0.442565 0.282130
O O17 0.128798 0.452611 0.128928
O O18 0.895817 0.500000 0.139662
O O19 0.500000 0.338534 0.500000
#
# Coordination Sequence:
#
# PCOD9176022 Si02
#       8
#     8   8   8   8   8   8   8   8
#     4  12  26  41  55  80 114 147 184 236 283 332
#     4  12  24  37  58  86 109 144 194 232 278 338
#     4  10  19  33  55  78 112 151 187 235 280 334
#     4  12  22  36  60  81 107 146 185 233 276 326
#     4  10  18  34  51  80 111 147 189 226 281 336
#     4   8  14  26  47  81 111 141 184 234 286 331
#     4   8  14  24  46  76 113 145 176 230 285 331
#     4  10  23  38  55  75 110 154 189 228 287 341
#
# _framework density 19.353511999999998
#
# number of rings (size 3 to 8) (size 9 to 14) (size 15 to 20)
#    0.000    1.750    3.750    2.250    5.250    0.000 
#    0.000    0.625    0.000    3.750    0.000    2.625 
#    0.000    3.000    0.000    0.000    0.000    0.000 
#
# Total GULP energy -178569.159912 kJ/mol
# GULP energy per Si atom -5580.286247 kJ/mol
# Density = 1.930946 g / cm^3
# Si number density = 19.353512 Si / 1000 Ang^3
#
#
#
# Elastic Constant Matrix: (Units=GPa)
#
#
# Indices 1 2 3 4 5 6 
#
# 1 70.6059 56.8448 30.1527 0.0000 36.1944 0.0000
# 2 56.8448 135.0017 32.0471 0.0000 31.7430 0.0000
# 3 30.1527 32.0471 62.1577 0.0000 26.9605 0.0000
# 4 0.0000 0.0000 0.0000 25.5703 0.0000 13.6432
# 5 36.1944 31.7430 26.9605 0.0000 31.3116 0.0000
# 6 0.0000 0.0000 0.0000 13.6432 0.0000 26.3777
#
#
#
# Elastic Compliance Matrix: (Units=1/GPa)
#
#
# Indices 1 2 3 4 5 6 
#
# 1 0.040451 -0.008021 0.002022 0.000000 -0.040370 0.000000
# 2 -0.008021 0.011370 -0.001585 0.000000 -0.000891 0.000000
# 3 0.002022 -0.001585 0.025923 0.000000 -0.023051 0.000000
# 4 0.000000 0.000000 0.000000 0.054014 0.000000 -0.027938
# 5 -0.040370 -0.000891 -0.023051 0.000000 0.099353 0.000000
# 6 0.000000 0.000000 0.000000 -0.027938 0.000000 0.052361
#
#
# Mechanical properties :
#
#
# Convention : Reuss Voigt Hill
#
# Bulk Modulus (GPa) = 15.98020 56.20604 36.09312
# Shear Modulus (GPa) = 15.64954 26.56663 21.10808
#
# Velocity S-wave (km/s) = 2.84670 3.70902 3.30610
# Velocity P-wave (km/s) = 4.36805 6.88820 5.76746
#
# Compressibility (1/GPa) = 0.06257742
#
# Stress axis : x y z
#
# Youngs Moduli (GPa) = 24.72103 87.94871 38.57632
#
# Poissons Ratio (x) = 0.70541 -0.07802
# Poissons Ratio (y) = 0.19828 0.06115
# Poissons Ratio (z) = -0.05000 0.13941
#
# Static dielectric constant tensor:
#      x y z
#    x 1.705050 0.000000 0.017930 
#    y 0.000000 1.678960 0.000000 
#    z 0.017930 0.000000 1.708230 
# 
# From -- ./inp_files/80752.got.cif
#   From: 2010.05.17/outbox.cif.g08.bks.cpg/sg12_41_cif.got.tgz:80752.got - 2010.06.03 13:09:07.
