data_PCOD9176033
_publ_section_title
;
Structure prediction by ZEFSAII (Michael W. Deem and Ramdas Pophale) SiO2 
 PCOD9176033
Probable space group: C 2/M
;
_chemical_formula_sum "Si O2"
_cell_formula_units_Z 52
_cell_length_a 14.227776
_cell_length_b 10.981701
_cell_length_c 19.417581
_cell_angle_alpha 90.000000
_cell_angle_beta 60.523834
_cell_angle_gamma 90.000000
_cell_volume 2641.196405
_symmetry_space_group_name_H-M "C 2/M"
_symmetry_group_IT_number 12
_symmetry_cell_setting 'monoclinic'
loop_
_space_group_symop_operation_xyz
x,y,z
-x,y,-z
-x,-y,-z
x,-y,z
1/2+x,1/2+y,z
1/2-x,1/2+y,-z
1/2-x,1/2-y,-z
1/2+x,1/2-y,z
loop_
_atom_site_type_symbol
_atom_site_label
_atom_site_fract_x
_atom_site_fract_y
_atom_site_fract_z
Si Si1 0.586119 0.359591 0.373960
Si Si2 0.666474 0.643182 0.503325
Si Si3 0.181427 0.630490 0.963458
Si Si4 0.500000 0.317240 0.000000
Si Si5 0.951015 0.130236 0.171358
Si Si6 0.631657 0.206144 0.132642
Si Si7 0.194070 0.365928 0.258593
O O1 0.606962 0.500000 0.343754
O O2 0.455518 0.343708 0.422230
O O3 0.639924 0.347837 0.430894
O O4 0.636787 0.250923 0.311710
O O5 0.701272 0.500000 0.504072
O O6 0.750000 0.750000 0.500000
O O7 0.151595 0.500000 0.946072
O O8 0.162276 0.634748 0.052332
O O9 0.105102 0.733694 0.962270
O O10 0.301422 0.668371 0.900973
O O11 0.491885 0.377825 0.077203
O O12 0.822781 0.144173 0.219988
O O13 0.009195 0.249082 0.179812
O O14 0.977268 0.000000 0.195995
O O15 0.667906 0.138643 0.187164
O O16 0.161020 0.500000 0.298024
#
# Coordination Sequence:
#
# PCOD9176033 Si02
#       7
#     8   8   8   4   8   8   8
#     4   9  21  41  62  89 125 163 194 232 285 350
#     4   9  19  39  67  96 126 157 196 235 279 337
#     4  10  19  32  51  75 103 138 189 249 304 357
#     4  10  18  34  52  76 100 138 192 248 304 352
#     4  10  21  36  55  77 106 146 197 244 298 358
#     4  10  21  36  52  76 106 147 192 242 302 356
#     4  11  23  40  58  84 120 157 196 247 296 347
#
# _framework density 19.688048999999999
#
# number of rings (size 3 to 8) (size 9 to 14) (size 15 to 20)
#    0.000    2.154    1.538    2.308    0.000    3.692 
#    0.000    7.692    0.000    0.000    0.000    0.000 
#    0.000    0.000    0.000    0.000    0.000    0.000 
#
# Total GULP energy -144821.934277 kJ/mol
# GULP energy per Si atom -5570.074395 kJ/mol
# Density = 1.964324 g / cm^3
# Si number density = 19.688049 Si / 1000 Ang^3
#
#
#
# Elastic Constant Matrix: (Units=GPa)
#
#
# Indices 1 2 3 4 5 6 
#
# 1 82.9425 48.5253 10.0396 0.0000 -13.6345 0.0000
# 2 48.5253 151.7962 42.5679 0.0000 -16.5462 0.0000
# 3 10.0396 42.5679 32.9335 0.0000 -8.9225 0.0000
# 4 0.0000 0.0000 0.0000 -14.6104 0.0000 15.5236
# 5 -13.6345 -16.5462 -8.9225 0.0000 15.8357 0.0000
# 6 0.0000 0.0000 0.0000 15.5236 0.0000 72.2011
#
#
#
# Elastic Compliance Matrix: (Units=1/GPa)
#
#
# Indices 1 2 3 4 5 6 
#
# 1 0.016510 -0.005475 0.005128 0.000000 0.011384 0.000000
# 2 -0.005475 0.012353 -0.014254 0.000000 0.000162 0.000000
# 3 0.005128 -0.014254 0.052382 0.000000 0.019036 0.000000
# 4 0.000000 0.000000 0.000000 -0.055716 0.000000 0.011979
# 5 0.011384 0.000162 0.019036 0.000000 0.083845 0.000000
# 6 0.000000 0.000000 0.000000 0.011979 0.000000 0.011275
#
#
# Mechanical properties :
#
#
# Convention : Reuss Voigt Hill
#
# Bulk Modulus (GPa) = 19.21482 52.21531 35.71507
# Shear Modulus (GPa) = 29.90481 25.78789 27.84635
#
# Velocity S-wave (km/s) = 3.90158 3.62308 3.76490
# Velocity P-wave (km/s) = 5.48427 6.63936 6.08927
#
# Compressibility (1/GPa) = 0.05204315
#
# Stress axis : x y z
#
# Youngs Moduli (GPa) = 60.56803 80.95361 19.09067
#
# Poissons Ratio (x) = 0.44322 -0.09789
# Poissons Ratio (y) = 0.33161 0.27211
# Poissons Ratio (z) = -0.31058 1.15388
#
# Static dielectric constant tensor:
#      x y z
#    x 1.749540 0.000000 0.000770 
#    y 0.000000 1.760290 0.000000 
#    z 0.000770 0.000000 1.686150 
# 
# From -- ./inp_files/309762.got.cif
#   From: 2010.05.17/outbox.cif.g08.bks.cpg/sg12_155_cif.got.tgz:309762.got - 2010.06.03 13:09:07.
