data_PCOD9176395
_publ_section_title
;
Structure prediction by ZEFSAII (Michael W. Deem and Ramdas Pophale) SiO2 
 PCOD9176395
Probable space group: C 2/M
;
_chemical_formula_sum "Si O2"
_cell_formula_units_Z 56
_cell_length_a 15.920504
_cell_length_b 20.243754
_cell_length_c 7.399336
_cell_angle_alpha 90.000000
_cell_angle_beta 69.755522
_cell_angle_gamma 90.000000
_cell_volume 2237.419761
_symmetry_space_group_name_H-M "C 2/M"
_symmetry_group_IT_number 12
_symmetry_cell_setting 'monoclinic'
loop_
_space_group_symop_operation_xyz
x,y,z
-x,y,-z
-x,-y,-z
x,-y,z
1/2+x,1/2+y,z
1/2-x,1/2+y,-z
1/2-x,1/2-y,-z
1/2+x,1/2-y,z
loop_
_atom_site_type_symbol
_atom_site_label
_atom_site_fract_x
_atom_site_fract_y
_atom_site_fract_z
Si Si1 0.101039 0.251685 0.359326
Si Si2 0.087918 0.392460 0.198366
Si Si3 0.784386 0.074550 0.027412
Si Si4 0.714794 0.634769 0.384288
Si Si5 0.077608 0.175396 0.035623
Si Si6 0.454759 0.428405 0.336639
Si Si7 0.895837 0.421710 0.236499
O O1 0.096912 0.328339 0.317204
O O2 0.173582 0.209227 0.419042
O O3 0.121217 0.223213 0.145905
O O4 0.000000 0.232591 0.500000
O O5 0.181708 0.428629 0.166294
O O6 0.986558 0.419359 0.286246
O O7 0.092141 0.390061 0.973342
O O8 0.820977 0.000000 0.000069
O O9 0.787620 0.103717 0.818835
O O10 0.843491 0.128166 0.092581
O O11 0.645917 0.591057 0.546925
O O12 0.814860 0.621429 0.376064
O O13 0.010207 0.124119 0.183073
O O14 0.000000 0.218780 0.000000
O O15 0.500000 0.429935 0.500000
O O16 0.460456 0.500000 0.247576
O O17 0.872739 0.500000 0.229629
#
# Coordination Sequence:
#
# PCOD9176395 Si02
#       7
#     8   8   8   8   8   8   8
#     4  11  22  42  60  84 127 163 209 239 296 381
#     4  10  21  36  59  87 118 164 198 248 300 345
#     4  10  19  35  59  86 117 154 202 245 300 364
#     4  10  18  34  60  90 116 161 200 249 300 358
#     4  11  23  36  57  88 125 160 197 249 305 358
#     4  11  18  32  57  86 120 160 198 243 309 369
#     4  10  20  37  64  98 124 149 208 266 307 353
#
# _framework density 25.028831
#
# number of rings (size 3 to 8) (size 9 to 14) (size 15 to 20)
#    0.000    1.571    4.286    4.286    2.000    6.286 
#    0.000    2.143    0.000    5.571    0.000    0.000 
#    0.000    0.000    0.000    0.000    0.000    0.000 
#
# Total GULP energy -156115.723113 kJ/mol
# GULP energy per Si atom -5575.561540 kJ/mol
# Density = 2.497186 g / cm^3
# Si number density = 25.028831 Si / 1000 Ang^3
#
#
#
# Elastic Constant Matrix: (Units=GPa)
#
#
# Indices 1 2 3 4 5 6 
#
# 1 142.7579 17.9778 35.6230 0.0000 -37.4569 0.0000
# 2 17.9778 103.0593 25.0393 0.0000 -16.2970 0.0000
# 3 35.6230 25.0393 47.5750 0.0000 -12.9148 0.0000
# 4 0.0000 0.0000 0.0000 23.8472 0.0000 -41.1823
# 5 -37.4569 -16.2970 -12.9148 0.0000 42.1853 0.0000
# 6 0.0000 0.0000 0.0000 -41.1823 0.0000 69.1544
#
#
#
# Elastic Compliance Matrix: (Units=1/GPa)
#
#
# Indices 1 2 3 4 5 6 
#
# 1 0.010475 0.000909 -0.006218 0.000000 0.007748 0.000000
# 2 0.000909 0.011501 -0.005790 0.000000 0.003478 0.000000
# 3 -0.006218 -0.005790 0.029029 0.000000 0.001129 0.000000
# 4 0.000000 0.000000 0.000000 -1.476293 0.000000 -0.879151
# 5 0.007748 0.003478 0.001129 0.000000 0.032274 0.000000
# 6 0.000000 0.000000 0.000000 -0.879151 0.000000 -0.509085
#
#
# Mechanical properties :
#
#
# Convention : Reuss Voigt Hill
#
# Bulk Modulus (GPa) = 34.71372 50.07470 42.39421
# Shear Modulus (GPa) = -2.67337 41.35418 19.34040
#
# Velocity S-wave (km/s) = -1.03462 4.06921 2.78281
# Velocity P-wave (km/s) = 3.53162 6.49063 5.22497
#
# Compressibility (1/GPa) = 0.02880705
#
# Stress axis : x y z
#
# Youngs Moduli (GPa) = 95.46386 86.94742 34.44788
#
# Poissons Ratio (x) = -0.07902 0.21421
# Poissons Ratio (y) = -0.08676 0.19944
# Poissons Ratio (z) = 0.59364 0.50340
#
# Static dielectric constant tensor:
#      x y z
#    x 1.384510 0.000000 -0.218230 
#    y 0.000000 1.979190 0.000000 
#    z -0.218230 0.000000 1.916240 
# 
# From -- ./inp_files/77382.got.cif
#   From: 2010.05.17/outbox.cif.g08.bks.cpg/sg12_39_cif.got.tgz:77382.got - 2010.06.03 13:09:07.
