data_PCOD9176227
_publ_section_title
;
Structure prediction by ZEFSAII (Michael W. Deem and Ramdas Pophale) SiO2 
 PCOD9176227
Probable space group: C 2/M
;
_chemical_formula_sum "Si O2"
_cell_formula_units_Z 36
_cell_length_a 17.207350
_cell_length_b 20.313434
_cell_length_c 8.985579
_cell_angle_alpha 90.000000
_cell_angle_beta 38.356505
_cell_angle_gamma 90.000000
_cell_volume 1949.045864
_symmetry_space_group_name_H-M "C 2/M"
_symmetry_group_IT_number 12
_symmetry_cell_setting 'monoclinic'
loop_
_space_group_symop_operation_xyz
x,y,z
-x,y,-z
-x,-y,-z
x,-y,z
1/2+x,1/2+y,z
1/2-x,1/2+y,-z
1/2-x,1/2-y,-z
1/2+x,1/2-y,z
loop_
_atom_site_type_symbol
_atom_site_label
_atom_site_fract_x
_atom_site_fract_y
_atom_site_fract_z
Si Si1 0.236553 0.188194 0.311699
Si Si2 0.500000 0.266083 0.500000
Si Si3 0.822303 0.578187 0.666803
Si Si4 0.648040 0.328412 0.773419
Si Si5 0.932106 0.642757 0.797011
O O1 0.284844 0.262779 0.265533
O O2 0.192381 0.162393 0.537235
O O3 0.118307 0.192872 0.378406
O O4 0.348955 0.148177 0.067746
O O5 0.458745 0.216455 0.694597
O O6 0.821512 0.500000 0.666798
O O7 0.695381 0.611044 0.801013
O O8 0.857877 0.605367 0.776804
O O9 0.934368 0.606771 0.394441
O O10 0.500000 0.319343 0.000000
#
# Coordination Sequence:
#
# PCOD9176227 Si02
#       5
#     8   4   8   8   8
#     4  11  22  35  60  91 122 144 196 241 299 349
#     4  10  18  34  57  88 119 148 180 236 298 352
#     4  10  22  42  61  83 117 160 200 236 287 344
#     4  11  24  37  56  89 123 158 182 243 300 350
#     4  10  19  36  62  89 111 152 198 243 284 339
#
# _framework density 18.470576000000001
#
# number of rings (size 3 to 8) (size 9 to 14) (size 15 to 20)
#    0.000    1.778    4.444    3.333    6.222    0.444 
#    0.000    3.333    0.000    1.333    0.000    0.000 
#    0.000    0.000    0.000    0.000    0.000    0.000 
#
# Total GULP energy -100553.642708 kJ/mol
# GULP energy per Si atom -5586.313484 kJ/mol
# Density = 1.842854 g / cm^3
# Si number density = 18.470576 Si / 1000 Ang^3
#
#
#
# Elastic Constant Matrix: (Units=GPa)
#
#
# Indices 1 2 3 4 5 6 
#
# 1 46.4466 2.6381 18.4089 0.0000 -19.9318 0.0000
# 2 2.6381 36.5881 -6.0073 0.0000 4.0742 0.0000
# 3 18.4089 -6.0073 89.8025 -0.0001 15.5440 0.0000
# 4 0.0000 0.0000 -0.0001 5.8241 0.0000 -2.7858
# 5 -19.9318 4.0742 15.5440 0.0000 28.2142 0.0000
# 6 0.0000 0.0000 0.0000 -2.7858 0.0000 8.0088
#
#
#
# Elastic Compliance Matrix: (Units=1/GPa)
#
#
# Indices 1 2 3 4 5 6 
#
# 1 0.050818 -0.012287 -0.019633 -0.000001 0.048491 0.000000
# 2 -0.012287 0.031411 0.007636 0.000000 -0.017423 0.000000
# 3 -0.019633 0.007636 0.020188 0.000000 -0.026094 0.000000
# 4 -0.000001 0.000000 0.000000 0.205972 -0.000001 0.071647
# 5 0.048491 -0.017423 -0.026094 -0.000001 0.086591 0.000000
# 6 0.000000 0.000000 0.000000 0.071647 0.000000 0.149785
#
#
# Mechanical properties :
#
#
# Convention : Reuss Voigt Hill
#
# Bulk Modulus (GPa) = 18.57057 22.54628 20.55842
# Shear Modulus (GPa) = 8.17952 18.92926 13.55439
#
# Velocity S-wave (km/s) = 2.10666 3.20477 2.71188
# Velocity P-wave (km/s) = 3.99917 5.09188 4.57824
#
# Compressibility (1/GPa) = 0.05384864
#
# Stress axis : x y z
#
# Youngs Moduli (GPa) = 19.67791 31.83591 49.53553
#
# Poissons Ratio (x) = 0.39118 0.97252
# Poissons Ratio (y) = 0.24179 -0.37824
# Poissons Ratio (z) = 0.38633 -0.24309
#
# Static dielectric constant tensor:
#      x y z
#    x 1.646710 0.000000 0.002630 
#    y 0.000000 1.607690 0.000000 
#    z 0.002630 0.000000 1.651330 
# 
# From -- ./inp_files/50152.got.cif
#   From: 2010.05.17/outbox.cif.g08.bks.cpg/sg12_26_cif.got.tgz:50152.got - 2010.06.03 13:09:07.
