data_PCOD9176356
_publ_section_title
;
Structure prediction by ZEFSAII (Michael W. Deem and Ramdas Pophale) SiO2 
 PCOD9176356
Probable space group: C 2/M
;
_chemical_formula_sum "Si O2"
_cell_formula_units_Z 40
_cell_length_a 17.341018
_cell_length_b 17.937100
_cell_length_c 8.087739
_cell_angle_alpha 90.000000
_cell_angle_beta 130.680589
_cell_angle_gamma 90.000000
_cell_volume 1907.772672
_symmetry_space_group_name_H-M "C 2/M"
_symmetry_group_IT_number 12
_symmetry_cell_setting 'monoclinic'
loop_
_space_group_symop_operation_xyz
x,y,z
-x,y,-z
-x,-y,-z
x,-y,z
1/2+x,1/2+y,z
1/2-x,1/2+y,-z
1/2-x,1/2-y,-z
1/2+x,1/2-y,z
loop_
_atom_site_type_symbol
_atom_site_label
_atom_site_fract_x
_atom_site_fract_y
_atom_site_fract_z
Si Si1 0.322594 0.837973 0.940934
Si Si2 0.618371 0.500000 0.482718
Si Si3 0.667490 0.500000 0.191624
Si Si4 0.500000 0.761428 0.000000
Si Si5 0.729630 0.000000 0.017630
Si Si6 0.880646 0.780750 0.289362
Si Si7 0.033525 0.877262 0.843265
O O1 0.212839 0.806061 0.726141
O O2 0.323541 0.924609 0.990487
O O3 0.406776 0.811992 0.926664
O O4 0.348973 0.793101 0.146368
O O5 0.692569 0.500000 0.423030
O O6 0.667308 0.500000 0.729687
O O7 0.546228 0.428899 0.359840
O O8 0.746303 0.500000 0.146849
O O9 0.595079 0.427894 0.060342
O O10 0.517983 0.699582 0.167828
O O11 0.879572 0.848290 0.156589
O O12 0.000000 0.774804 0.500000
#
# Coordination Sequence:
#
# PCOD9176356 Si02
#       7
#     8   4   4   4   4   8   8
#     4  10  23  40  63  91 134 175 218 281 318 394
#     4  11  22  34  63 103 128 167 213 274 353 402
#     4  11  20  36  61  95 135 166 202 281 344 389
#     4  10  20  40  62  84 134 178 210 268 328 380
#     4  12  24  42  61  96 133 177 222 267 331 390
#     4  10  20  38  64  95 124 170 224 269 338 395
#     4  10  18  34  59  93 128 162 208 276 344 385
#
# _framework density 20.96686
#
# number of rings (size 3 to 8) (size 9 to 14) (size 15 to 20)
#    0.000    1.600    4.000    1.800    0.000    1.200 
#    0.000   13.500    0.000    0.000    0.000    0.000 
#    0.000    0.000    0.000    0.000    0.000    0.000 
#
# Total GULP energy -111413.218378 kJ/mol
# GULP energy per Si atom -5570.660919 kJ/mol
# Density = 2.091914 g / cm^3
# Si number density = 20.966860 Si / 1000 Ang^3
#
#
#
# Elastic Constant Matrix: (Units=GPa)
#
#
# Indices 1 2 3 4 5 6 
#
# 1 152.2949 63.3091 17.7769 0.0000 20.7153 0.0000
# 2 63.3091 153.9728 20.5776 0.0000 16.0617 0.0000
# 3 17.7769 20.5776 41.2127 0.0000 10.6846 0.0000
# 4 0.0000 0.0000 0.0000 21.5815 0.0000 3.1661
# 5 20.7153 16.0617 10.6846 0.0000 30.4747 0.0000
# 6 0.0000 0.0000 0.0000 3.1661 0.0000 44.1246
#
#
#
# Elastic Compliance Matrix: (Units=1/GPa)
#
#
# Indices 1 2 3 4 5 6 
#
# 1 0.008431 -0.002912 -0.001204 0.000000 -0.003774 0.000000
# 2 -0.002912 0.008172 -0.002443 0.000000 -0.001471 0.000000
# 3 -0.001204 -0.002443 0.028003 0.000000 -0.007712 0.000000
# 4 0.000000 0.000000 0.000000 0.046829 0.000000 -0.003360
# 5 -0.003774 -0.001471 -0.007712 0.000000 0.038859 0.000000
# 6 0.000000 0.000000 0.000000 -0.003360 0.000000 0.022904
#
#
# Mechanical properties :
#
#
# Convention : Reuss Voigt Hill
#
# Bulk Modulus (GPa) = 31.75851 61.20082 46.47967
# Shear Modulus (GPa) = 28.27885 35.62394 31.95139
#
# Velocity S-wave (km/s) = 3.67650 4.12644 3.90795
# Velocity P-wave (km/s) = 5.76213 7.20805 6.52526
#
# Compressibility (1/GPa) = 0.03148762
#
# Stress axis : x y z
#
# Youngs Moduli (GPa) = 118.61662 122.37164 35.71061
#
# Poissons Ratio (x) = 0.35632 0.04300
# Poissons Ratio (y) = 0.34539 0.08723
# Poissons Ratio (z) = 0.14284 0.29893
#
# Static dielectric constant tensor:
#      x y z
#    x 1.877640 0.000000 -0.082280 
#    y 0.000000 1.762820 0.000000 
#    z -0.082280 0.000000 1.838120 
# 
# From -- ./inp_files/75560.got.cif
#   From: 2010.05.17/outbox.cif.g08.bks.cpg/sg12_38_cif.got.tgz:75560.got - 2010.06.03 13:09:07.
