data_PCOD9176035
_publ_section_title
;
Structure prediction by ZEFSAII (Michael W. Deem and Ramdas Pophale) SiO2 
 PCOD9176035
Probable space group: C 2/M
;
_chemical_formula_sum "Si O2"
_cell_formula_units_Z 40
_cell_length_a 8.523987
_cell_length_b 18.577827
_cell_length_c 11.904241
_cell_angle_alpha 90.000000
_cell_angle_beta 101.509470
_cell_angle_gamma 90.000000
_cell_volume 1847.215227
_symmetry_space_group_name_H-M "C 2/M"
_symmetry_group_IT_number 12
_symmetry_cell_setting 'monoclinic'
loop_
_space_group_symop_operation_xyz
x,y,z
-x,y,-z
-x,-y,-z
x,-y,z
1/2+x,1/2+y,z
1/2-x,1/2+y,-z
1/2-x,1/2-y,-z
1/2+x,1/2-y,z
loop_
_atom_site_type_symbol
_atom_site_label
_atom_site_fract_x
_atom_site_fract_y
_atom_site_fract_z
Si Si1 0.452014 0.176215 0.668061
Si Si2 0.335927 0.417576 0.418494
Si Si3 0.075219 0.918178 0.833387
Si Si4 0.804087 0.810756 0.743456
Si Si5 0.146426 0.680488 0.102583
O O1 0.316117 0.133056 0.583408
O O2 0.636399 0.167878 0.665399
O O3 0.405815 0.260671 0.672218
O O4 0.433496 0.149557 0.794726
O O5 0.500000 0.393235 0.500000
O O6 0.304461 0.500000 0.450728
O O7 0.371526 0.418644 0.290256
O O8 0.909568 0.875032 0.806146
O O9 0.213315 0.872789 0.915672
O O10 0.062001 0.000000 0.870449
O O11 0.772412 0.754170 0.841041
O O12 0.000000 0.694235 0.000000
#
# Coordination Sequence:
#
# PCOD9176035 Si02
#       5
#     8   8   8   8   8
#     4   9  18  32  53  76 105 134 178 215 258 308
#     4   9  18  35  56  77 105 143 178 211 263 321
#     4  10  20  35  54  78 110 140 172 223 268 306
#     4  10  18  34  52  78 107 135 179 215 262 315
#     4   9  18  34  57  79 101 144 180 214 258 322
#
# _framework density 21.654216999999999
#
# number of rings (size 3 to 8) (size 9 to 14) (size 15 to 20)
#    1.200    1.400    2.000    0.000    0.000    4.400 
#    0.000    5.000    0.000    7.800    0.000    0.000 
#    0.000    0.000    0.000    0.000    0.000    0.000 
#
# Total GULP energy -111533.271872 kJ/mol
# GULP energy per Si atom -5576.663594 kJ/mol
# Density = 2.160493 g / cm^3
# Si number density = 21.654217 Si / 1000 Ang^3
#
#
#
# Elastic Constant Matrix: (Units=GPa)
#
#
# Indices 1 2 3 4 5 6 
#
# 1 92.0016 49.4981 35.6880 0.0000 40.9368 0.0000
# 2 49.4981 132.9111 23.1613 0.0000 29.4316 0.0000
# 3 35.6880 23.1613 87.3640 0.0000 29.5048 0.0000
# 4 0.0000 0.0000 0.0000 13.4907 0.0000 13.5132
# 5 40.9368 29.4316 29.5048 0.0000 41.5854 0.0000
# 6 0.0000 0.0000 0.0000 13.5132 0.0000 28.3962
#
#
#
# Elastic Compliance Matrix: (Units=1/GPa)
#
#
# Indices 1 2 3 4 5 6 
#
# 1 0.021115 -0.003826 -0.001980 0.000000 -0.016672 0.000000
# 2 -0.003826 0.009622 0.000052 0.000000 -0.003080 0.000000
# 3 -0.001980 0.000052 0.015250 0.000000 -0.008907 0.000000
# 4 0.000000 0.000000 0.000000 0.141642 0.000000 -0.067405
# 5 -0.016672 -0.003080 -0.008907 0.000000 0.048959 0.000000
# 6 0.000000 0.000000 0.000000 -0.067405 0.000000 0.067293
#
#
# Mechanical properties :
#
#
# Convention : Reuss Voigt Hill
#
# Bulk Modulus (GPa) = 29.00443 58.77462 43.88953
# Shear Modulus (GPa) = 15.29614 30.28976 22.79295
#
# Velocity S-wave (km/s) = 2.66067 3.74410 3.24788
# Velocity P-wave (km/s) = 4.78145 6.77439 5.86322
#
# Compressibility (1/GPa) = 0.03447749
#
# Stress axis : x y z
#
# Youngs Moduli (GPa) = 47.36066 103.93092 65.57551
#
# Poissons Ratio (x) = 0.39769 0.12986
# Poissons Ratio (y) = 0.18122 -0.00344
# Poissons Ratio (z) = 0.09379 -0.00545
#
# Static dielectric constant tensor:
#      x y z
#    x 1.802690 0.000000 -0.061860 
#    y 0.000000 1.787400 0.000000 
#    z -0.061860 0.000000 1.810010 
# 
# From -- ./inp_files/196281.got.cif
#   From: 2010.05.17/outbox.cif.g08.bks.cpg/sg12_99_cif.got.tgz:196281.got - 2010.06.03 13:09:07.
