data_PCOD9176005
_publ_section_title
;
Structure prediction by ZEFSAII (Michael W. Deem and Ramdas Pophale) SiO2 
 PCOD9176005
Probable space group: C 2/M
;
_chemical_formula_sum "Si O2"
_cell_formula_units_Z 64
_cell_length_a 9.383340
_cell_length_b 27.519774
_cell_length_c 14.212765
_cell_angle_alpha 90.000000
_cell_angle_beta 75.882635
_cell_angle_gamma 90.000000
_cell_volume 3559.280676
_symmetry_space_group_name_H-M "C 2/M"
_symmetry_group_IT_number 12
_symmetry_cell_setting 'monoclinic'
loop_
_space_group_symop_operation_xyz
x,y,z
-x,y,-z
-x,-y,-z
x,-y,z
1/2+x,1/2+y,z
1/2-x,1/2+y,-z
1/2-x,1/2-y,-z
1/2+x,1/2-y,z
loop_
_atom_site_type_symbol
_atom_site_label
_atom_site_fract_x
_atom_site_fract_y
_atom_site_fract_z
Si Si1 0.506302 0.105492 0.684435
Si Si2 0.592905 0.200368 0.579028
Si Si3 0.107406 0.443571 0.852464
Si Si4 0.029941 0.090799 0.646994
Si Si5 0.768253 0.444582 0.978951
Si Si6 0.888453 0.809000 0.431871
Si Si7 0.268923 0.442439 0.556287
Si Si8 0.198738 0.058091 0.789212
O O1 0.516282 0.162615 0.660826
O O2 0.591997 0.090679 0.765690
O O3 0.605307 0.078927 0.589873
O O4 0.341931 0.084898 0.722084
O O5 0.500000 0.206345 0.500000
O O6 0.740776 0.178313 0.511821
O O7 0.624034 0.255085 0.610053
O O8 0.145246 0.500000 0.822262
O O9 0.938915 0.445889 0.917373
O O10 0.214483 0.424668 0.918028
O O11 0.060728 0.148422 0.644542
O O12 0.150833 0.069281 0.554767
O O13 0.061687 0.068338 0.743509
O O14 0.876486 0.079086 0.620407
O O15 0.716540 0.500000 0.000252
O O16 0.683878 0.424942 0.900733
O O17 0.000000 0.807698 0.500000
O O18 0.263648 0.500000 0.569712
O O19 0.227893 0.000000 0.786983
#
# Coordination Sequence:
#
# PCOD9176005 Si02
#       8
#     8   8   8   8   8   8   8   8
#     4  11  19  29  45  69  93 116 145 184 229 265
#     4  10  20  31  46  65  87 111 146 193 230 253
#     4   8  13  24  42  62  89 119 146 174 213 267
#     4  11  19  33  46  60  84 123 160 185 213 259
#     4   7  12  24  41  62  87 118 148 175 210 260
#     4  10  18  34  49  59  79 118 157 188 219 257
#     4  11  21  31  43  61  90 125 156 175 210 266
#     4  10  19  29  45  70  97 119 145 182 224 265
#
# _framework density 17.981162000000001
#
# number of rings (size 3 to 8) (size 9 to 14) (size 15 to 20)
#    0.000    2.250    2.500    4.875    0.000    0.000 
#    0.000    1.250    0.000    0.750    0.000    4.375 
#    0.000    2.000    0.000    0.625    0.000    0.000 
#
# Total GULP energy -178227.064925 kJ/mol
# GULP energy per Si atom -5569.595779 kJ/mol
# Density = 1.794024 g / cm^3
# Si number density = 17.981162 Si / 1000 Ang^3
#
#
#
# Elastic Constant Matrix: (Units=GPa)
#
#
# Indices 1 2 3 4 5 6 
#
# 1 28.1256 -9.9481 9.3919 0.0000 13.5730 0.0000
# 2 -9.9481 99.1970 13.4727 0.0000 2.1037 0.0000
# 3 9.3919 13.4727 48.8206 0.0000 27.0672 0.0000
# 4 0.0000 0.0000 0.0000 -85.7770 0.0000 197.4682
# 5 13.5730 2.1037 27.0672 0.0000 32.2009 0.0000
# 6 0.0000 0.0000 0.0000 197.4682 0.0000 -414.1772
#
#
#
# Elastic Compliance Matrix: (Units=1/GPa)
#
#
# Indices 1 2 3 4 5 6 
#
# 1 0.047176 0.004993 0.001409 0.000000 -0.021395 0.000000
# 2 0.004993 0.011189 -0.004637 0.000000 0.001062 0.000000
# 3 0.001409 -0.004637 0.040551 0.000000 -0.034377 0.000000
# 4 0.000000 0.000000 0.000000 0.119470 0.000000 0.056960
# 5 -0.021395 0.001062 -0.034377 0.000000 0.068901 0.000000
# 6 0.000000 0.000000 0.000000 0.056960 0.000000 0.024742
#
#
# Mechanical properties :
#
#
# Convention : Reuss Voigt Hill
#
# Bulk Modulus (GPa) = 9.76128 22.44179 16.10154
# Shear Modulus (GPa) = 14.59224 -82.66888 -34.03832
#
# Velocity S-wave (km/s) = 2.85183 -6.78786 -4.35558
# Velocity P-wave (km/s) = 4.03538 6.99469 4.03989
#
# Compressibility (1/GPa) = 0.10244557
#
# Stress axis : x y z
#
# Youngs Moduli (GPa) = 21.19737 89.37324 24.66010
#
# Poissons Ratio (x) = -0.44628 -0.03474
# Poissons Ratio (y) = -0.10585 0.11436
# Poissons Ratio (z) = -0.02986 0.41445
#
# Static dielectric constant tensor:
#      x y z
#    x 1.665100 0.000000 0.015670 
#    y 0.000000 1.634940 0.000000 
#    z 0.015670 0.000000 1.661310 
# 
# From -- ./inp_files/199819.got.cif
#   From: 2010.05.17/outbox.cif.g08.bks.cpg/sg12_100_cif.got.tgz:199819.got - 2010.06.03 13:09:07.
