data_PCOD9176305
_publ_section_title
;
Structure prediction by ZEFSAII (Michael W. Deem and Ramdas Pophale) SiO2 
 PCOD9176305
Probable space group: C 2/M
;
_chemical_formula_sum "Si O2"
_cell_formula_units_Z 64
_cell_length_a 20.031242
_cell_length_b 7.590054
_cell_length_c 24.823093
_cell_angle_alpha 90.000000
_cell_angle_beta 127.548251
_cell_angle_gamma 90.000000
_cell_volume 2992.226111
_symmetry_space_group_name_H-M "C 2/M"
_symmetry_group_IT_number 12
_symmetry_cell_setting 'monoclinic'
loop_
_space_group_symop_operation_xyz
x,y,z
-x,y,-z
-x,-y,-z
x,-y,z
1/2+x,1/2+y,z
1/2-x,1/2+y,-z
1/2-x,1/2-y,-z
1/2+x,1/2-y,z
loop_
_atom_site_type_symbol
_atom_site_label
_atom_site_fract_x
_atom_site_fract_y
_atom_site_fract_z
Si Si1 0.865826 0.286539 0.296629
Si Si2 0.825902 0.787565 0.791658
Si Si3 0.594412 0.284490 0.059119
Si Si4 0.746698 0.211537 0.934776
Si Si5 0.422494 0.215688 0.209480
Si Si6 0.406253 0.783692 0.436630
Si Si7 0.740506 0.798916 0.557698
Si Si8 0.609375 0.202021 0.292202
O O1 0.872035 0.500000 0.300822
O O2 0.768879 0.241842 0.239403
O O3 0.915244 0.229014 0.268243
O O4 0.891076 0.223156 0.367988
O O5 0.884100 0.731641 0.869388
O O6 0.847100 0.711758 0.744268
O O7 0.830456 0.000000 0.788727
O O8 0.595058 0.500000 0.057724
O O9 0.669454 0.225672 0.055834
O O10 0.500000 0.226028 0.000000
O O11 0.659130 0.275983 0.864566
O O12 0.746473 0.000000 0.928423
O O13 0.750000 0.250000 0.000000
O O14 0.515251 0.275030 0.237506
O O15 0.420025 0.000000 0.205514
O O16 0.500000 0.734298 0.500000
O O17 0.333774 0.716412 0.441872
O O18 0.402803 0.000000 0.433490
O O19 0.750000 0.750000 0.500000
O O20 0.828215 0.783834 0.633177
O O21 0.715317 0.000000 0.543137
O O22 0.600046 0.000000 0.305087
#
# Coordination Sequence:
#
# PCOD9176305 Si02
#       8
#     8   8   8   8   8   8   8   8
#     4   9  15  30  55  78 100 135 185 232 263 304
#     4  10  18  34  59  81 105 140 185 236 279 321
#     4   9  18  32  54  83 109 140 185 233 281 330
#     4  10  20  36  55  79 112 146 184 232 280 332
#     4   9  19  34  54  79 109 147 189 227 268 325
#     4   9  18  31  54  85 108 133 178 225 262 311
#     4  11  23  40  60  85 116 148 183 227 277 329
#     4  11  23  37  56  83 114 149 185 225 276 333
#
# _framework density 21.388756999999998
#
# number of rings (size 3 to 8) (size 9 to 14) (size 15 to 20)
#    0.000    2.250    2.500    0.750    3.500    0.000 
#    0.000    1.250    0.000    5.250    0.000    0.000 
#    0.000    0.000    0.000    0.000    0.000    0.000 
#
# Total GULP energy -178574.047759 kJ/mol
# GULP energy per Si atom -5580.438992 kJ/mol
# Density = 2.134008 g / cm^3
# Si number density = 21.388757 Si / 1000 Ang^3
#
#
#
# Elastic Constant Matrix: (Units=GPa)
#
#
# Indices 1 2 3 4 5 6 
#
# 1 61.6749 -2.4623 5.2062 0.0000 -4.9300 0.0000
# 2 -2.4623 36.1697 -4.9977 0.0000 0.4870 0.0000
# 3 5.2062 -4.9977 113.3197 0.0000 -10.6686 0.0000
# 4 0.0000 0.0000 0.0000 14.1015 0.0000 -9.7680
# 5 -4.9300 0.4870 -10.6686 0.0000 36.4734 0.0000
# 6 0.0000 0.0000 0.0000 -9.7680 0.0000 10.7868
#
#
#
# Elastic Compliance Matrix: (Units=1/GPa)
#
#
# Indices 1 2 3 4 5 6 
#
# 1 0.016463 0.001022 -0.000517 0.000000 0.002060 0.000000
# 2 0.001022 0.027880 0.001193 0.000000 0.000115 0.000000
# 3 -0.000517 0.001193 0.009145 0.000000 0.002589 0.000000
# 4 0.000000 0.000000 0.000000 0.190258 0.000000 0.172289
# 5 0.002060 0.000115 0.002589 0.000000 0.028452 0.000000
# 6 0.000000 0.000000 0.000000 0.172289 0.000000 0.248722
#
#
# Mechanical properties :
#
#
# Convention : Reuss Voigt Hill
#
# Bulk Modulus (GPa) = 17.57974 22.96185 20.27079
# Shear Modulus (GPa) = 9.31991 26.50020 17.91005
#
# Velocity S-wave (km/s) = 2.08970 3.52373 2.89685
# Velocity P-wave (km/s) = 3.74959 5.22631 4.54829
#
# Compressibility (1/GPa) = 0.05688368
#
# Stress axis : x y z
#
# Youngs Moduli (GPa) = 60.74150 35.86753 109.35254
#
# Poissons Ratio (x) = -0.03664 0.05657
# Poissons Ratio (y) = -0.06205 -0.13051
# Poissons Ratio (z) = 0.03142 -0.04281
#
# Static dielectric constant tensor:
#      x y z
#    x 1.766120 0.000000 0.011110 
#    y 0.000000 1.747420 0.000000 
#    z 0.011110 0.000000 1.745250 
# 
# From -- ./inp_files/346250.got.cif
#   From: 2010.05.17/outbox.cif.g08.bks.cpg/sg12_174_cif.got.tgz:346250.got - 2010.06.03 13:09:07.
