data_PCOD9176264
_publ_section_title
;
Structure prediction by ZEFSAII (Michael W. Deem and Ramdas Pophale) SiO2 
 PCOD9176264
Probable space group: C 2/M
;
_chemical_formula_sum "Si O2"
_cell_formula_units_Z 40
_cell_length_a 14.293774
_cell_length_b 12.338112
_cell_length_c 24.328057
_cell_angle_alpha 90.000000
_cell_angle_beta 24.212705
_cell_angle_gamma 90.000000
_cell_volume 1759.622818
_symmetry_space_group_name_H-M "C 2/M"
_symmetry_group_IT_number 12
_symmetry_cell_setting 'monoclinic'
loop_
_space_group_symop_operation_xyz
x,y,z
-x,y,-z
-x,-y,-z
x,-y,z
1/2+x,1/2+y,z
1/2-x,1/2+y,-z
1/2-x,1/2-y,-z
1/2+x,1/2-y,z
loop_
_atom_site_type_symbol
_atom_site_label
_atom_site_fract_x
_atom_site_fract_y
_atom_site_fract_z
Si Si1 0.720160 0.279050 0.275570
Si Si2 0.551580 0.500000 0.383804
Si Si3 0.949633 0.265430 0.267424
Si Si4 0.619758 0.124677 0.994748
Si Si5 0.603907 0.121845 0.507103
Si Si6 0.104312 0.500000 0.698402
O O1 0.581854 0.388075 0.335531
O O2 0.775017 0.282005 0.310936
O O3 0.574168 0.169407 0.352833
O O4 0.958589 0.296916 0.117094
O O5 0.317348 0.500000 0.542459
O O6 0.767082 0.500000 0.311138
O O7 0.805581 0.208803 0.392306
O O8 0.030500 0.387446 0.236502
O O9 0.140745 0.183013 0.143948
O O10 0.639659 0.000000 0.005751
O O11 0.500000 0.116832 0.000000
O O12 0.500000 0.113994 0.500000
O O13 0.675685 0.000000 0.482867
#
# Coordination Sequence:
#
# PCOD9176264 Si02
#       6
#     8   4   8   8   8   4
#     4  10  18  34  58  83 110 139 184 231 269 328
#     4   9  14  28  55  86 108 131 177 228 279 323
#     4  10  19  34  57  85 110 140 183 228 274 326
#     4  11  24  40  55  75 111 155 192 227 270 324
#     4   9  17  30  54  86 114 137 170 227 285 326
#     4   9  16  28  55  86 110 135 169 230 285 321
#
# _framework density 22.732143000000001
#
# number of rings (size 3 to 8) (size 9 to 14) (size 15 to 20)
#    0.000    2.200    3.000    1.200    0.000    0.800 
#    1.800    1.500    0.000    0.000    0.000    0.000 
#    0.000    0.000    0.000    0.000    0.000    0.000 
#
# Total GULP energy -111558.466548 kJ/mol
# GULP energy per Si atom -5577.923327 kJ/mol
# Density = 2.268040 g / cm^3
# Si number density = 22.732143 Si / 1000 Ang^3
#
#
#
# Elastic Constant Matrix: (Units=GPa)
#
#
# Indices 1 2 3 4 5 6 
#
# 1 23.5336 5.1182 -43.0807 0.0235 -52.7860 0.0048
# 2 5.1182 163.2429 55.8171 0.0058 -16.8105 0.0038
# 3 -43.0807 55.8171 68.5133 0.0275 -26.1385 0.0134
# 4 0.0235 0.0058 0.0275 29.2064 0.0292 3.9509
# 5 -52.7860 -16.8105 -26.1385 0.0292 -74.4016 0.0049
# 6 0.0048 0.0038 0.0134 3.9509 0.0049 14.5609
#
#
#
# Elastic Compliance Matrix: (Units=1/GPa)
#
#
# Indices 1 2 3 4 5 6 
#
# 1 0.023853 -0.007385 0.013400 -0.000009 -0.019962 -0.000009
# 2 -0.007385 0.010761 -0.010881 0.000007 0.006631 0.000006
# 3 0.013400 -0.010881 0.025746 -0.000015 -0.016093 -0.000016
# 4 -0.000009 0.000007 -0.000015 0.035544 0.000023 -0.009644
# 5 -0.019962 0.006631 -0.016093 0.000023 0.004878 0.000012
# 6 -0.000009 0.000006 -0.000016 -0.009644 0.000012 0.071294
#
#
# Mechanical properties :
#
#
# Convention : Reuss Voigt Hill
#
# Bulk Modulus (GPa) = 19.75220 32.33321 26.04270
# Shear Modulus (GPa) = 25.16576 9.70216 17.43396
#
# Velocity S-wave (km/s) = 3.33086 2.06816 2.77235
# Velocity P-wave (km/s) = 4.84776 4.46738 4.66145
#
# Compressibility (1/GPa) = 0.05062727
#
# Stress axis : x y z
#
# Youngs Moduli (GPa) = 41.92321 92.93177 38.84119
#
# Poissons Ratio (x) = 0.68632 -0.52046
# Poissons Ratio (y) = 0.30961 0.42261
# Poissons Ratio (z) = -0.56176 1.01115
#
# Static dielectric constant tensor:
#      x y z
#    x 1.884980 0.000000 0.012670 
#    y 0.000000 1.899500 0.000030 
#    z 0.012670 0.000030 1.756100 
# 
# From -- ./inp_files/153316.got.cif
#   From: 2010.05.17/outbox.cif.g08.bks.cpg/sg12_77_cif.got.tgz:153316.got - 2010.06.03 13:09:07.
