data_PCOD9176400
_publ_section_title
;
Structure prediction by ZEFSAII (Michael W. Deem and Ramdas Pophale) SiO2 
 PCOD9176400
Probable space group: C 2/M
;
_chemical_formula_sum "Si O2"
_cell_formula_units_Z 56
_cell_length_a 28.788218
_cell_length_b 18.103853
_cell_length_c 17.711738
_cell_angle_alpha 90.000000
_cell_angle_beta 19.426349
_cell_angle_gamma 90.000000
_cell_volume 3070.170637
_symmetry_space_group_name_H-M "C 2/M"
_symmetry_group_IT_number 12
_symmetry_cell_setting 'monoclinic'
loop_
_space_group_symop_operation_xyz
x,y,z
-x,y,-z
-x,-y,-z
x,-y,z
1/2+x,1/2+y,z
1/2-x,1/2+y,-z
1/2-x,1/2-y,-z
1/2+x,1/2-y,z
loop_
_atom_site_type_symbol
_atom_site_label
_atom_site_fract_x
_atom_site_fract_y
_atom_site_fract_z
Si Si1 0.479741 0.327104 0.228800
Si Si2 0.795293 0.295393 0.715723
Si Si3 0.846815 0.214208 0.789209
Si Si4 0.411294 0.841244 0.385387
Si Si5 0.615386 0.647172 0.464868
Si Si6 0.302310 0.081005 0.064872
Si Si7 0.134592 0.087747 0.739039
O O1 0.441985 0.240905 0.304795
O O2 0.441817 0.367661 0.365027
O O3 0.397764 0.365095 0.286375
O O4 0.644490 0.331298 0.958021
O O5 0.850852 0.273886 0.714159
O O6 0.895414 0.335947 0.501745
O O7 0.776655 0.216225 0.702345
O O8 0.765492 0.143735 0.882372
O O9 0.986544 0.180321 0.612635
O O10 0.750000 0.250000 0.000000
O O11 0.268323 0.875726 0.574039
O O12 0.539889 0.892836 0.164505
O O13 0.701420 0.583695 0.292417
O O14 0.299612 0.000000 0.035020
O O15 0.156517 0.000000 0.690495
O O16 0.000000 0.093820 0.000000
#
# Coordination Sequence:
#
# PCOD9176400 Si02
#       7
#     8   8   8   8   8   8   8
#     4  11  20  39  63  90 115 152 209 256 296 359
#     4  10  18  34  60  91 116 148 205 250 292 348
#     4  11  19  37  63  92 122 157 203 251 296 357
#     4  11  21  40  63  88 119 157 204 254 303 358
#     4  10  21  35  59  89 122 158 196 247 303 354
#     4  11  23  38  58  88 125 161 197 241 309 376
#     4  11  24  40  60  86 119 160 203 255 315 365
#
# _framework density 18.240029
#
# number of rings (size 3 to 8) (size 9 to 14) (size 15 to 20)
#    0.000    1.286    5.714    3.429    0.000    1.714 
#    0.000    0.714    0.000    4.286    0.000    0.000 
#    0.000    0.000    0.000    0.000    0.000    0.000 
#
# Total GULP energy -155969.473077 kJ/mol
# GULP energy per Si atom -5570.338324 kJ/mol
# Density = 1.819851 g / cm^3
# Si number density = 18.240029 Si / 1000 Ang^3
#
#
#
# Elastic Constant Matrix: (Units=GPa)
#
#
# Indices 1 2 3 4 5 6 
#
# 1 105.2106 21.2942 47.4909 0.0000 4.5037 0.0001
# 2 21.2942 64.7597 33.4433 -0.0001 -2.5491 -0.0001
# 3 47.4909 33.4433 120.8357 0.0000 -3.0279 -0.0001
# 4 0.0000 -0.0001 0.0000 3.6161 -0.0001 6.4601
# 5 4.5037 -2.5491 -3.0279 -0.0001 27.8982 0.0000
# 6 0.0001 -0.0001 -0.0001 6.4601 0.0000 5.7801
#
#
#
# Elastic Compliance Matrix: (Units=1/GPa)
#
#
# Indices 1 2 3 4 5 6 
#
# 1 0.011894 -0.001825 -0.004233 0.000000 -0.002546 0.000000
# 2 -0.001825 0.018331 -0.004319 0.000000 0.001501 0.000001
# 3 -0.004233 -0.004319 0.011172 0.000000 0.001501 0.000000
# 4 0.000000 0.000000 0.000000 -0.277470 -0.000001 0.310113
# 5 -0.002546 0.001501 0.001501 -0.000001 0.036556 0.000001
# 6 0.000000 0.000001 0.000000 0.310113 0.000001 -0.173589
#
#
# Mechanical properties :
#
#
# Convention : Reuss Voigt Hill
#
# Bulk Modulus (GPa) = 48.44103 55.02921 51.73512
# Shear Modulus (GPa) = -14.47299 20.03071 2.77886
#
# Velocity S-wave (km/s) = -2.81992 3.31746 1.23564
# Velocity P-wave (km/s) = 4.00157 6.70142 5.51913
#
# Compressibility (1/GPa) = 0.02064365
#
# Stress axis : x y z
#
# Youngs Moduli (GPa) = 84.07611 54.55216 89.50691
#
# Poissons Ratio (x) = 0.09956 0.37891
# Poissons Ratio (y) = 0.15344 0.38654
# Poissons Ratio (z) = 0.35592 0.23559
#
# Static dielectric constant tensor:
#      x y z
#    x 1.651130 0.000000 0.024380 
#    y 0.000000 1.609550 0.000000 
#    z 0.024380 0.000000 1.704320 
# 
# From -- ./inp_files/296899.got.cif
#   From: 2010.05.17/outbox.cif.g08.bks.cpg/sg12_149_cif.got.tgz:296899.got - 2010.06.03 13:09:07.
