data_PCOD9176249
_publ_section_title
;
Structure prediction by ZEFSAII (Michael W. Deem and Ramdas Pophale) SiO2 
 PCOD9176249
Probable space group: C 2/M
;
_chemical_formula_sum "Si O2"
_cell_formula_units_Z 32
_cell_length_a 10.257988
_cell_length_b 15.466434
_cell_length_c 14.574656
_cell_angle_alpha 90.000000
_cell_angle_beta 30.160866
_cell_angle_gamma 90.000000
_cell_volume 1161.785191
_symmetry_space_group_name_H-M "C 2/M"
_symmetry_group_IT_number 12
_symmetry_cell_setting 'monoclinic'
loop_
_space_group_symop_operation_xyz
x,y,z
-x,y,-z
-x,-y,-z
x,-y,z
1/2+x,1/2+y,z
1/2-x,1/2+y,-z
1/2-x,1/2-y,-z
1/2+x,1/2-y,z
loop_
_atom_site_type_symbol
_atom_site_label
_atom_site_fract_x
_atom_site_fract_y
_atom_site_fract_z
Si Si1 0.409473 0.767701 0.749233
Si Si2 0.536661 0.406788 0.369007
Si Si3 0.905048 0.644785 0.934256
Si Si4 0.372377 0.407461 0.178889
O O1 0.554142 0.681615 0.625313
O O2 0.510978 0.829740 0.768005
O O3 0.316019 0.825133 0.719258
O O4 0.178244 0.726976 0.954220
O O5 0.500000 0.404938 0.500000
O O6 0.436889 0.500000 0.395794
O O7 0.850806 0.402651 0.169969
O O8 0.625589 0.600143 0.089270
O O9 0.241263 0.500000 0.275259
O O10 0.500000 0.410753 0.000000
#
# Coordination Sequence:
#
# PCOD9176249 Si02
#       4
#     8   8   8   8
#     4  10  20  36  57  82 107 134 176 225 270 317
#     4  11  24  38  52  76 111 149 185 218 259 316
#     4  10  18  34  58  80 105 138 175 221 272 314
#     4   9  17  30  52  81 106 128 164 216 268 316
#
# _framework density 27.543818000000002
#
# number of rings (size 3 to 8) (size 9 to 14) (size 15 to 20)
#    0.000    2.000    0.000    7.500    0.000    5.000 
#    0.000    3.750    0.000    0.750    0.000    0.000 
#    0.000   12.000    0.000    0.000    0.000    0.000 
#
# Total GULP energy -89265.260975 kJ/mol
# GULP energy per Si atom -5579.078811 kJ/mol
# Density = 2.748113 g / cm^3
# Si number density = 27.543818 Si / 1000 Ang^3
#
#
#
# Elastic Constant Matrix: (Units=GPa)
#
#
# Indices 1 2 3 4 5 6 
#
# 1 66.7319 21.4791 -0.5564 0.0128 -10.6063 -0.0069
# 2 21.4791 200.0005 7.6315 -0.0070 -11.6662 -0.0022
# 3 -0.5564 7.6315 76.3253 0.0013 20.1630 -0.0082
# 4 0.0128 -0.0070 0.0013 3.5710 -0.0134 -0.0956
# 5 -10.6063 -11.6662 20.1630 -0.0134 46.2931 0.0065
# 6 -0.0069 -0.0022 -0.0082 -0.0956 0.0065 21.7022
#
#
#
# Elastic Compliance Matrix: (Units=1/GPa)
#
#
# Indices 1 2 3 4 5 6 
#
# 1 0.016029 -0.001486 -0.000685 -0.000047 0.003596 0.000003
# 2 -0.001486 0.005275 -0.000903 0.000021 0.001382 -0.000001
# 3 -0.000685 -0.000903 0.015017 -0.000031 -0.006925 0.000007
# 4 -0.000047 0.000021 -0.000031 0.280067 0.000089 0.001233
# 5 0.003596 0.001382 -0.006925 0.000089 0.025790 -0.000009
# 6 0.000003 -0.000001 0.000007 0.001233 -0.000009 0.046084
#
#
# Mechanical properties :
#
#
# Convention : Reuss Voigt Hill
#
# Bulk Modulus (GPa) = 33.14189 44.46290 38.80239
# Shear Modulus (GPa) = 12.36196 35.28015 23.82106
#
# Velocity S-wave (km/s) = 2.12081 3.58281 2.94401
# Velocity P-wave (km/s) = 4.24920 5.77001 5.06699
#
# Compressibility (1/GPa) = 0.03017329
#
# Stress axis : x y z
#
# Youngs Moduli (GPa) = 62.38535 189.58648 66.59318
#
# Poissons Ratio (x) = 0.28165 0.04559
# Poissons Ratio (y) = 0.09268 0.06016
# Poissons Ratio (z) = 0.04271 0.17127
#
# Static dielectric constant tensor:
#      x y z
#    x 2.254250 0.000010 -0.009740 
#    y 0.000010 2.296380 0.000000 
#    z -0.009740 0.000000 2.162160 
# 
# From -- ./inp_files/262647.got.cif
#   From: 2010.05.17/outbox.cif.g08.bks.cpg/sg12_132_cif.got.tgz:262647.got - 2010.06.03 13:09:07.
