data_PCOD9176144
_publ_section_title
;
Structure prediction by ZEFSAII (Michael W. Deem and Ramdas Pophale) SiO2 
 PCOD9176144
Probable space group: C 2/M
;
_chemical_formula_sum "Si O2"
_cell_formula_units_Z 56
_cell_length_a 23.682275
_cell_length_b 17.699846
_cell_length_c 9.156339
_cell_angle_alpha 90.000000
_cell_angle_beta 122.768408
_cell_angle_gamma 90.000000
_cell_volume 3227.313333
_symmetry_space_group_name_H-M "C 2/M"
_symmetry_group_IT_number 12
_symmetry_cell_setting 'monoclinic'
loop_
_space_group_symop_operation_xyz
x,y,z
-x,y,-z
-x,-y,-z
x,-y,z
1/2+x,1/2+y,z
1/2-x,1/2+y,-z
1/2-x,1/2-y,-z
1/2+x,1/2-y,z
loop_
_atom_site_type_symbol
_atom_site_label
_atom_site_fract_x
_atom_site_fract_y
_atom_site_fract_z
Si Si1 0.154247 0.798983 0.455164
Si Si2 0.130645 0.280714 0.885031
Si Si3 0.784488 0.587919 0.104217
Si Si4 0.722353 0.699397 0.251785
Si Si5 0.660130 0.629807 0.753580
Si Si6 0.993586 0.229219 0.818590
Si Si7 0.473075 0.584815 0.305737
O O1 0.213300 0.744723 0.597232
O O2 0.177504 0.824733 0.327175
O O3 0.147751 0.866417 0.563753
O O4 0.082508 0.757636 0.340263
O O5 0.176898 0.254655 0.087134
O O6 0.152055 0.361154 0.852074
O O7 0.149383 0.216233 0.792952
O O8 0.052921 0.274181 0.820157
O O9 0.797474 0.500000 0.148628
O O10 0.748176 0.630440 0.188648
O O11 0.732341 0.599120 0.897637
O O12 0.606214 0.585054 0.774352
O O13 0.008720 0.142183 0.795675
O O14 0.000000 0.240785 0.000000
O O15 0.500000 0.614583 0.500000
O O16 0.497973 0.500000 0.318159
#
# Coordination Sequence:
#
# PCOD9176144 Si02
#       7
#     8   8   8   8   8   8   8
#     4  11  19  34  60  83 109 139 189 234 277 314
#     4  10  19  36  58  82 110 141 191 232 269 330
#     4  11  21  37  57  83 116 149 182 231 286 332
#     4  10  20  36  59  82 111 142 184 237 276 330
#     4  10  18  34  56  81 107 143 191 223 266 325
#     4  11  22  35  55  82 107 146 190 228 277 331
#     4  10  20  32  48  74 111 146 176 217 267 326
#
# _framework density 17.351894999999999
#
# number of rings (size 3 to 8) (size 9 to 14) (size 15 to 20)
#    0.000    1.571    5.714    1.286    0.000    0.286 
#    0.000    2.143    0.000    2.143    0.000    0.000 
#    0.000    0.000    0.000    0.000    0.000    0.000 
#
# Total GULP energy -156112.144579 kJ/mol
# GULP energy per Si atom -5575.433735 kJ/mol
# Density = 1.731240 g / cm^3
# Si number density = 17.351895 Si / 1000 Ang^3
#
#
#
# Elastic Constant Matrix: (Units=GPa)
#
#
# Indices 1 2 3 4 5 6 
#
# 1 109.3536 31.5953 33.6961 0.0000 1.4308 0.0000
# 2 31.5953 73.7119 8.1736 0.0000 -6.7557 0.0000
# 3 33.6961 8.1736 59.2135 0.0000 -2.7218 0.0000
# 4 0.0000 0.0000 0.0000 11.4558 0.0000 -0.1447
# 5 1.4308 -6.7557 -2.7218 0.0000 35.9988 0.0000
# 6 0.0000 0.0000 0.0000 -0.1447 0.0000 8.6397
#
#
#
# Elastic Compliance Matrix: (Units=1/GPa)
#
#
# Indices 1 2 3 4 5 6 
#
# 1 0.012600 -0.004845 -0.006589 0.000000 -0.001908 0.000000
# 2 -0.004845 0.015859 0.000716 0.000000 0.003223 0.000000
# 3 -0.006589 0.000716 0.020629 0.000000 0.001956 0.000000
# 4 0.000000 0.000000 0.000000 0.087310 0.000000 0.001462
# 5 -0.001908 0.003223 0.001956 0.000000 0.028607 0.000000
# 6 0.000000 0.000000 0.000000 0.001462 0.000000 0.115769
#
#
# Mechanical properties :
#
#
# Convention : Reuss Voigt Hill
#
# Bulk Modulus (GPa) = 36.16406 43.24545 39.70476
# Shear Modulus (GPa) = 16.05513 22.47313 19.26413
#
# Velocity S-wave (km/s) = 3.04512 3.60271 3.33559
# Velocity P-wave (km/s) = 5.76632 6.50252 6.14545
#
# Compressibility (1/GPa) = 0.02765176
#
# Stress axis : x y z
#
# Youngs Moduli (GPa) = 79.36654 63.05566 48.47635
#
# Poissons Ratio (x) = 0.30550 0.31941
# Poissons Ratio (y) = 0.38453 -0.03471
# Poissons Ratio (z) = 0.52294 -0.04515
#
# Static dielectric constant tensor:
#      x y z
#    x 1.634130 0.000000 0.015720 
#    y 0.000000 1.581760 0.000000 
#    z 0.015720 0.000000 1.626370 
# 
# From -- ./inp_files/96945.got.cif
#   From: 2010.05.17/outbox.cif.g08.bks.cpg/sg12_49_cif.got.tgz:96945.got - 2010.06.03 13:09:07.
