data_PCOD9176341
_publ_section_title
;
Structure prediction by ZEFSAII (Michael W. Deem and Ramdas Pophale) SiO2 
 PCOD9176341
Probable space group: C 2/M
;
_chemical_formula_sum "Si O2"
_cell_formula_units_Z 48
_cell_length_a 7.520083
_cell_length_b 19.117221
_cell_length_c 15.719313
_cell_angle_alpha 90.000000
_cell_angle_beta 119.548197
_cell_angle_gamma 90.000000
_cell_volume 1965.942617
_symmetry_space_group_name_H-M "C 2/M"
_symmetry_group_IT_number 12
_symmetry_cell_setting 'monoclinic'
loop_
_space_group_symop_operation_xyz
x,y,z
-x,y,-z
-x,-y,-z
x,-y,z
1/2+x,1/2+y,z
1/2-x,1/2+y,-z
1/2-x,1/2-y,-z
1/2+x,1/2-y,z
loop_
_atom_site_type_symbol
_atom_site_label
_atom_site_fract_x
_atom_site_fract_y
_atom_site_fract_z
Si Si1 0.027074 0.273986 0.106107
Si Si2 0.281623 0.639380 0.850778
Si Si3 0.447314 0.916797 0.653888
Si Si4 0.714211 0.000000 0.933078
Si Si5 0.818848 0.170270 0.525121
Si Si6 0.861966 0.868631 0.268902
Si Si7 0.771114 0.000000 0.146323
O O1 0.028538 0.190307 0.119389
O O2 0.230471 0.306177 0.197224
O O3 0.850050 0.312149 0.116057
O O4 0.000000 0.290906 0.000000
O O5 0.298797 0.567061 0.904267
O O6 0.148603 0.621633 0.736453
O O7 0.358653 0.881507 0.547998
O O8 0.279306 0.901077 0.688412
O O9 0.476389 0.000000 0.652701
O O10 0.464076 0.000000 0.873616
O O11 0.763018 0.000000 0.043572
O O12 0.750000 0.250000 0.500000
O O13 0.000000 0.160393 0.500000
O O14 0.925780 0.155417 0.640111
O O15 0.880900 0.931206 0.206634
#
# Coordination Sequence:
#
# PCOD9176341 Si02
#       7
#     8   8   8   4   8   8   4
#     4  11  22  36  57  87 120 155 196 241 291 345
#     4  11  21  38  60  88 116 156 198 243 291 348
#     4  10  18  34  59  87 112 148 192 242 286 339
#     4  11  20  36  60  82 121 157 199 236 294 349
#     4  10  22  36  57  87 116 147 185 239 294 340
#     4  10  19  33  55  87 118 142 194 242 288 332
#     4  11  18  32  58  85 115 149 200 246 279 332
#
# _framework density 24.415766999999999
#
# number of rings (size 3 to 8) (size 9 to 14) (size 15 to 20)
#    0.000    1.500    5.000    2.500    1.167    1.000 
#    0.000    0.417    0.000    2.500    4.333    0.000 
#    0.000    0.000    0.000    0.000    0.000    0.000 
#
# Total GULP energy -134522.089432 kJ/mol
# GULP energy per Si atom -5605.087060 kJ/mol
# Density = 2.436020 g / cm^3
# Si number density = 24.415767 Si / 1000 Ang^3
#
#
#
# Elastic Constant Matrix: (Units=GPa)
#
#
# Indices 1 2 3 4 5 6 
#
# 1 74.0669 30.7844 26.3322 0.0000 -0.9947 0.0000
# 2 30.7844 196.2120 75.6204 0.0000 -1.1472 0.0000
# 3 26.3322 75.6204 212.8672 0.0000 14.1823 0.0000
# 4 0.0000 0.0000 0.0000 33.2636 0.0000 -2.6778
# 5 -0.9947 -1.1472 14.1823 0.0000 18.0536 0.0000
# 6 0.0000 0.0000 0.0000 -2.6778 0.0000 25.3375
#
#
#
# Elastic Compliance Matrix: (Units=1/GPa)
#
#
# Indices 1 2 3 4 5 6 
#
# 1 0.014734 -0.001802 -0.001297 0.000000 0.001716 0.000000
# 2 -0.001802 0.006204 -0.002111 0.000000 0.001954 0.000000
# 3 -0.001297 -0.002111 0.005932 0.000000 -0.004866 0.000000
# 4 0.000000 0.000000 0.000000 0.030321 0.000000 0.003204
# 5 0.001716 0.001954 -0.004866 0.000000 0.059432 0.000000
# 6 0.000000 0.000000 0.000000 0.003204 0.000000 0.039806
#
#
# Mechanical properties :
#
#
# Convention : Reuss Voigt Hill
#
# Bulk Modulus (GPa) = 60.78688 83.18002 71.98345
# Shear Modulus (GPa) = 29.01350 38.69154 33.85252
#
# Velocity S-wave (km/s) = 3.45093 3.98514 3.72762
# Velocity P-wave (km/s) = 6.38977 7.43756 6.93348
#
# Compressibility (1/GPa) = 0.01645092
#
# Stress axis : x y z
#
# Youngs Moduli (GPa) = 67.86867 161.17686 168.56485
#
# Poissons Ratio (x) = 0.29042 0.21861
# Poissons Ratio (y) = 0.12229 0.35590
# Poissons Ratio (z) = 0.08802 0.34030
#
# Static dielectric constant tensor:
#      x y z
#    x 2.087320 0.000000 -0.042390 
#    y 0.000000 1.869950 0.000000 
#    z -0.042390 0.000000 1.966580 
# 
# From -- ./inp_files/305709.got.cif
#   From: 2010.05.17/outbox.cif.g08.bks.cpg/sg12_153_cif.got.tgz:305709.got - 2010.06.03 13:09:07.
