data_PCOD9176267
_publ_section_title
;
Structure prediction by ZEFSAII (Michael W. Deem and Ramdas Pophale) SiO2 
 PCOD9176267
Probable space group: C 2/M
;
_chemical_formula_sum "Si O2"
_cell_formula_units_Z 44
_cell_length_a 15.001870
_cell_length_b 10.422166
_cell_length_c 32.035410
_cell_angle_alpha 90.000000
_cell_angle_beta 148.937497
_cell_angle_gamma 90.000000
_cell_volume 2584.404628
_symmetry_space_group_name_H-M "C 2/M"
_symmetry_group_IT_number 12
_symmetry_cell_setting 'monoclinic'
loop_
_space_group_symop_operation_xyz
x,y,z
-x,y,-z
-x,-y,-z
x,-y,z
1/2+x,1/2+y,z
1/2-x,1/2+y,-z
1/2-x,1/2-y,-z
1/2+x,1/2-y,z
loop_
_atom_site_type_symbol
_atom_site_label
_atom_site_fract_x
_atom_site_fract_y
_atom_site_fract_z
Si Si1 0.348038 0.000000 0.880196
Si Si2 0.944132 0.145520 0.807116
Si Si3 0.893222 0.000000 0.414699
Si Si4 0.022080 0.000000 0.375661
Si Si5 0.294157 0.000000 0.415699
Si Si6 0.170171 0.783836 0.753625
Si Si7 0.737209 0.000000 0.055553
Si Si8 0.136951 0.259676 0.312780
O O1 0.263632 0.877775 0.824010
O O2 0.300230 0.000000 0.909785
O O3 0.555206 0.000000 0.959691
O O4 0.811510 0.197839 0.787718
O O5 0.936262 0.231200 0.762688
O O6 0.892364 0.000000 0.773951
O O7 0.137939 0.122217 0.902148
O O8 0.773071 0.874133 0.365447
O O9 0.000000 0.000000 0.500000
O O10 0.014226 0.000000 0.422213
O O11 0.920328 0.123766 0.316877
O O12 0.206806 0.000000 0.426700
O O13 0.500000 0.000000 0.500000
O O14 0.224017 0.872197 0.364570
O O15 0.019522 0.711531 0.718216
#
# Coordination Sequence:
#
# PCOD9176267 Si02
#       8
#     4   8   4   4   4   8   4   8
#     4  10  18  34  58  84 114 149 191 233 282 320
#     4  10  19  35  56  82 111 145 196 226 274 329
#     4  12  25  40  54  86 121 144 175 244 302 332
#     4   9  20  37  58  80 101 147 194 215 277 350
#     4  10  20  40  60  77 103 147 189 233 280 340
#     4  10  19  35  60  80 108 152 187 229 273 338
#     4   9  19  33  54  88 114 145 196 237 267 329
#     4  11  21  39  58  81 112 145 193 232 279 339
#
# _framework density 17.025198
#
# number of rings (size 3 to 8) (size 9 to 14) (size 15 to 20)
#    0.545    1.273    4.545    1.091    1.273    0.727 
#    3.273    2.727    0.000    0.000    0.000    3.818 
#    0.000    0.000    0.000    0.000    0.000    0.000 
#
# Total GULP energy -122623.143884 kJ/mol
# GULP energy per Si atom -5573.779267 kJ/mol
# Density = 1.698645 g / cm^3
# Si number density = 17.025198 Si / 1000 Ang^3
#
#
#
# Elastic Constant Matrix: (Units=GPa)
#
#
# Indices 1 2 3 4 5 6 
#
# 1 104.1070 16.4427 30.3785 0.0000 17.1196 0.0000
# 2 16.4427 52.3013 2.7731 0.0000 7.5230 0.0000
# 3 30.3785 2.7731 69.0332 0.0000 14.2773 0.0000
# 4 0.0000 0.0000 0.0000 12.2469 0.0000 9.6787
# 5 17.1196 7.5230 14.2773 0.0000 33.3610 0.0000
# 6 0.0000 0.0000 0.0000 9.6787 0.0000 15.9745
#
#
#
# Elastic Compliance Matrix: (Units=1/GPa)
#
#
# Indices 1 2 3 4 5 6 
#
# 1 0.011952 -0.003011 -0.004400 0.000000 -0.003571 0.000000
# 2 -0.003011 0.020521 0.001249 0.000000 -0.003617 0.000000
# 3 -0.004400 0.001249 0.017513 0.000000 -0.005519 0.000000
# 4 0.000000 0.000000 0.000000 0.156672 0.000000 -0.094925
# 5 -0.003571 -0.003617 -0.005519 0.000000 0.034985 0.000000
# 6 0.000000 0.000000 0.000000 -0.094925 0.000000 0.120114
#
#
# Mechanical properties :
#
#
# Convention : Reuss Voigt Hill
#
# Bulk Modulus (GPa) = 26.55211 36.07001 31.31106
# Shear Modulus (GPa) = 12.93208 24.03961 18.48585
#
# Velocity S-wave (km/s) = 2.75905 3.76174 3.29871
# Velocity P-wave (km/s) = 5.07734 6.33244 5.73930
#
# Compressibility (1/GPa) = 0.03766178
#
# Stress axis : x y z
#
# Youngs Moduli (GPa) = 83.66627 48.73170 57.09951
#
# Poissons Ratio (x) = 0.14671 0.25124
# Poissons Ratio (y) = 0.25188 -0.07129
# Poissons Ratio (z) = 0.36814 -0.06084
#
# Static dielectric constant tensor:
#      x y z
#    x 1.575190 0.000000 0.009330 
#    y 0.000000 1.561980 0.000000 
#    z 0.009330 0.000000 1.565060 
# 
# From -- ./inp_files/375951.got.cif
#   From: 2010.05.17/outbox.cif.g08.bks.cpg/sg12_188_cif.got.tgz:375951.got - 2010.06.03 13:09:07.
