data_PCOD9176366
_publ_section_title
;
Structure prediction by ZEFSAII (Michael W. Deem and Ramdas Pophale) SiO2 
 PCOD9176366
Probable space group: C 2/M
;
_chemical_formula_sum "Si O2"
_cell_formula_units_Z 64
_cell_length_a 14.986267
_cell_length_b 8.947436
_cell_length_c 34.094171
_cell_angle_alpha 90.000000
_cell_angle_beta 135.872959
_cell_angle_gamma 90.000000
_cell_volume 3183.013158
_symmetry_space_group_name_H-M "C 2/M"
_symmetry_group_IT_number 12
_symmetry_cell_setting 'monoclinic'
loop_
_space_group_symop_operation_xyz
x,y,z
-x,y,-z
-x,-y,-z
x,-y,z
1/2+x,1/2+y,z
1/2-x,1/2+y,-z
1/2-x,1/2-y,-z
1/2+x,1/2-y,z
loop_
_atom_site_type_symbol
_atom_site_label
_atom_site_fract_x
_atom_site_fract_y
_atom_site_fract_z
Si Si1 0.125377 0.678097 0.365103
Si Si2 0.602332 0.679565 0.194330
Si Si3 0.145988 0.678021 0.128955
Si Si4 0.485044 0.181620 0.396843
Si Si5 0.082775 0.830262 0.985713
Si Si6 0.195231 0.819793 0.309910
Si Si7 0.367453 0.825046 0.482498
Si Si8 0.697077 0.320594 0.899326
O O1 0.124675 0.500000 0.361144
O O2 0.112402 0.751862 0.318666
O O3 0.258148 0.732007 0.426751
O O4 0.018767 0.723631 0.363247
O O5 0.613025 0.500000 0.194673
O O6 0.673397 0.751871 0.179852
O O7 0.654115 0.724128 0.253294
O O8 0.451658 0.718963 0.145167
O O9 0.144889 0.500000 0.131127
O O10 0.243649 0.720757 0.124664
O O11 0.006186 0.737255 0.071545
O O12 0.342388 0.228744 0.362974
O O13 0.592137 0.231814 0.461637
O O14 0.486531 0.000000 0.399561
O O15 0.216320 0.756407 0.040177
O O16 0.098984 0.000000 0.976566
O O17 0.000000 0.834272 0.000000
O O18 0.189646 0.000000 0.310554
O O19 0.500000 0.820651 0.500000
O O20 0.327526 0.000000 0.471569
O O21 0.710006 0.500000 0.907095
#
# Coordination Sequence:
#
# PCOD9176366 Si02
#       8
#     8   8   8   8   8   8   8   8
#     4  11  22  35  55  85 115 139 175 230 278 314
#     4  10  22  38  58  80 104 141 189 231 263 317
#     4  10  20  35  56  80 112 146 175 220 279 329
#     4   9  19  36  57  81 110 145 181 219 268 325
#     4   9  17  31  54  83 111 141 181 223 264 322
#     4  10  21  41  60  75 104 148 190 222 265 326
#     4  10  18  34  60  82 109 150 184 212 261 332
#     4   9  19  36  55  80 112 144 177 220 277 327
#
# _framework density 20.106736000000001
#
# number of rings (size 3 to 8) (size 9 to 14) (size 15 to 20)
#    0.000    2.250    1.250    1.500    0.000    4.750 
#    0.000    1.875    0.000    0.000    0.000    0.000 
#    0.000    0.000    0.000    0.000    0.000    0.000 
#
# Total GULP energy -178713.768476 kJ/mol
# GULP energy per Si atom -5584.805265 kJ/mol
# Density = 2.006097 g / cm^3
# Si number density = 20.106736 Si / 1000 Ang^3
#
#
#
# Elastic Constant Matrix: (Units=GPa)
#
#
# Indices 1 2 3 4 5 6 
#
# 1 64.8190 14.4888 11.8880 0.0000 -25.6182 0.0000
# 2 14.4888 21.0815 8.9596 0.0000 -10.4450 0.0000
# 3 11.8880 8.9596 54.8677 0.0000 -30.4651 0.0000
# 4 0.0000 0.0000 0.0000 27.8021 0.0000 -9.5639
# 5 -25.6182 -10.4450 -30.4651 0.0000 37.6056 0.0000
# 6 0.0000 0.0000 0.0000 -9.5639 0.0000 20.5155
#
#
#
# Elastic Compliance Matrix: (Units=1/GPa)
#
#
# Indices 1 2 3 4 5 6 
#
# 1 0.024009 -0.009935 0.007215 0.000000 0.019441 0.000000
# 2 -0.009935 0.059140 -0.003893 0.000000 0.006504 0.000000
# 3 0.007215 -0.003893 0.035310 0.000000 0.032439 0.000000
# 4 0.000000 0.000000 0.000000 0.042838 0.000000 0.019970
# 5 0.019441 0.006504 0.032439 0.000000 0.067922 0.000000
# 6 0.000000 0.000000 0.000000 0.019970 0.000000 0.058054
#
#
# Mechanical properties :
#
#
# Convention : Reuss Voigt Hill
#
# Bulk Modulus (GPa) = 9.50275 23.49346 16.49811
# Shear Modulus (GPa) = 14.89975 24.21340 19.55657
#
# Velocity S-wave (km/s) = 2.72514 3.47399 3.12210
# Velocity P-wave (km/s) = 3.82600 5.27268 4.60649
#
# Compressibility (1/GPa) = 0.10523266
#
# Stress axis : x y z
#
# Youngs Moduli (GPa) = 41.65156 16.90898 28.32075
#
# Poissons Ratio (x) = 0.16799 -0.20434
# Poissons Ratio (y) = 0.41380 0.11026
# Poissons Ratio (z) = -0.30052 0.06583
#
# Static dielectric constant tensor:
#      x y z
#    x 1.732990 0.000000 -0.026210 
#    y 0.000000 1.677780 0.000000 
#    z -0.026210 0.000000 1.707470 
# 
# From -- ./inp_files/375576.got.cif
#   From: 2010.05.17/outbox.cif.g08.bks.cpg/sg12_188_cif.got.tgz:375576.got - 2010.06.03 13:09:07.
