data_PCOD9176726
_publ_section_title
;
Structure prediction by ZEFSAII (Michael W. Deem and Ramdas Pophale) SiO2 
 PCOD9176726
Probable space group: C 2/M
;
_chemical_formula_sum "Si O2"
_cell_formula_units_Z 40
_cell_length_a 10.105461
_cell_length_b 24.267244
_cell_length_c 11.042655
_cell_angle_alpha 90.000000
_cell_angle_beta 39.016554
_cell_angle_gamma 90.000000
_cell_volume 1704.813205
_symmetry_space_group_name_H-M "C 2/M"
_symmetry_group_IT_number 12
_symmetry_cell_setting 'monoclinic'
loop_
_space_group_symop_operation_xyz
x,y,z
-x,y,-z
-x,-y,-z
x,-y,z
1/2+x,1/2+y,z
1/2-x,1/2+y,-z
1/2-x,1/2-y,-z
1/2+x,1/2-y,z
loop_
_atom_site_type_symbol
_atom_site_label
_atom_site_fract_x
_atom_site_fract_y
_atom_site_fract_z
Si Si1 0.552489 0.684174 0.244829
Si Si2 0.424091 0.195173 0.798687
Si Si3 0.757305 0.621233 0.714986
Si Si4 0.688134 0.117992 0.763802
Si Si5 0.824766 0.500000 0.732083
Si Si6 0.086400 0.500000 0.798404
O O1 0.487257 0.747337 0.314041
O O2 0.399164 0.648619 0.269518
O O3 0.618355 0.646025 0.308051
O O4 0.777317 0.698223 0.021204
O O5 0.272336 0.164023 0.814075
O O6 0.610663 0.155597 0.708571
O O7 0.709324 0.558502 0.790335
O O8 0.000000 0.620101 0.500000
O O9 0.715238 0.056236 0.697524
O O10 0.500000 0.114941 0.000000
O O11 0.000000 0.500000 0.500000
O O12 0.922274 0.500000 0.800318
O O13 0.000000 0.500000 0.000000
#
# Coordination Sequence:
#
# PCOD9176726 Si02
#       6
#     8   8   8   8   4   4
#     4  10  21  36  60  92 117 155 205 261 313 370
#     4  10  19  38  61  85 121 156 198 259 317 372
#     4  11  23  39  60  85 125 167 210 253 312 377
#     4   9  18  32  56  83 115 148 195 252 311 360
#     4  10  22  41  63  84 127 176 210 256 320 377
#     4  10  18  35  62  89 118 157 205 265 319 364
#
# _framework density 23.462980999999999
#
# number of rings (size 3 to 8) (size 9 to 14) (size 15 to 20)
#    0.000    2.000    2.000    1.800    0.000    4.800 
#    0.000    4.000    0.000    2.400    0.000    0.000 
#    0.000    0.000    0.000    0.000    0.000    0.000 
#
# Total GULP energy -111626.332991 kJ/mol
# GULP energy per Si atom -5581.316650 kJ/mol
# Density = 2.340958 g / cm^3
# Si number density = 23.462981 Si / 1000 Ang^3
#
#
#
# Elastic Constant Matrix: (Units=GPa)
#
#
# Indices 1 2 3 4 5 6 
#
# 1 186.2096 118.1697 -7.8365 0.0000 -7.5234 0.0000
# 2 118.1697 284.6373 -0.4847 0.0000 -11.2450 0.0000
# 3 -7.8365 -0.4847 59.6139 0.0000 -6.2854 0.0000
# 4 0.0000 0.0000 0.0000 59.5176 0.0000 -111.3968
# 5 -7.5234 -11.2450 -6.2854 0.0000 28.5771 0.0000
# 6 0.0000 0.0000 0.0000 -111.3968 0.0000 270.8393
#
#
#
# Elastic Compliance Matrix: (Units=1/GPa)
#
#
# Indices 1 2 3 4 5 6 
#
# 1 0.007370 -0.003019 0.001048 0.000000 0.000983 0.000000
# 2 -0.003019 0.004807 -0.000248 0.000000 0.001042 0.000000
# 3 0.001048 -0.000248 0.017331 0.000000 0.003990 0.000000
# 4 0.000000 0.000000 0.000000 0.072993 0.000000 0.030022
# 5 0.000983 0.001042 0.003990 0.000000 0.036540 0.000000
# 6 0.000000 0.000000 0.000000 0.030022 0.000000 0.016040
#
#
# Mechanical properties :
#
#
# Convention : Reuss Voigt Hill
#
# Bulk Modulus (GPa) = 39.88792 83.35088 61.61940
# Shear Modulus (GPa) = 29.78379 99.82763 64.80571
#
# Velocity S-wave (km/s) = 3.56672 6.52987 5.26121
# Velocity P-wave (km/s) = 5.83089 9.61529 7.95151
#
# Compressibility (1/GPa) = 0.02507025
#
# Stress axis : x y z
#
# Youngs Moduli (GPa) = 135.68409 208.01167 57.69994
#
# Poissons Ratio (x) = 0.62802 -0.06046
# Poissons Ratio (y) = 0.40965 0.01430
# Poissons Ratio (z) = -0.14218 0.05156
#
# Static dielectric constant tensor:
#      x y z
#    x 1.895000 0.000000 0.151570 
#    y 0.000000 1.985000 0.000000 
#    z 0.151570 0.000000 2.298300 
# 
# From -- ./inp_files/79778.got.cif
#   From: 2010.05.17/outbox.cif.g08.bks.cpg/sg12_40_cif.got.tgz:79778.got - 2010.06.03 13:09:07.
