data_PCOD9176067
_publ_section_title
;
Structure prediction by ZEFSAII (Michael W. Deem and Ramdas Pophale) SiO2 
 PCOD9176067
Probable space group: C 2/M
;
_chemical_formula_sum "Si O2"
_cell_formula_units_Z 44
_cell_length_a 23.816687
_cell_length_b 16.078947
_cell_length_c 8.314304
_cell_angle_alpha 90.000000
_cell_angle_beta 133.464721
_cell_angle_gamma 90.000000
_cell_volume 2310.897411
_symmetry_space_group_name_H-M "C 2/M"
_symmetry_group_IT_number 12
_symmetry_cell_setting 'monoclinic'
loop_
_space_group_symop_operation_xyz
x,y,z
-x,y,-z
-x,-y,-z
x,-y,z
1/2+x,1/2+y,z
1/2-x,1/2+y,-z
1/2-x,1/2-y,-z
1/2+x,1/2-y,z
loop_
_atom_site_type_symbol
_atom_site_label
_atom_site_fract_x
_atom_site_fract_y
_atom_site_fract_z
Si Si1 0.863352 0.000000 0.816111
Si Si2 0.586582 0.157342 0.227031
Si Si3 0.092890 0.822598 0.036448
Si Si4 0.189892 0.500000 0.446476
Si Si5 0.735847 0.500000 0.074460
Si Si6 0.550047 0.259284 0.444445
Si Si7 0.692033 0.325905 0.909696
O O1 0.903574 0.911634 0.868775
O O2 0.842039 0.000000 0.966455
O O3 0.779070 0.000000 0.566895
O O4 0.607481 0.243061 0.177351
O O5 0.644968 0.082885 0.309435
O O6 0.582508 0.182510 0.406094
O O7 0.500000 0.134038 0.000000
O O8 0.156855 0.821772 0.020930
O O9 0.009949 0.807726 0.788934
O O10 0.198619 0.500000 0.658972
O O11 0.733503 0.414655 0.973307
O O12 0.500000 0.231853 0.500000
O O13 0.620077 0.314705 0.647589
O O14 0.750000 0.250000 0.000000
#
# Coordination Sequence:
#
# PCOD9176067 Si02
#       7
#     4   8   8   4   4   8   8
#     4   8  18  34  52  79 108 144 174 223 269 317
#     4  10  20  36  57  81 107 144 183 226 270 324
#     4   9  19  36  55  79 111 141 184 220 272 325
#     4  10  19  34  54  80 110 144 182 223 273 315
#     4   8  18  32  48  76 105 138 178 209 269 311
#     4   9  19  34  56  81 106 144 181 218 277 324
#     4  10  18  34  54  78 109 143 178 226 265 320
#
# _framework density 19.040222
#
# number of rings (size 3 to 8) (size 9 to 14) (size 15 to 20)
#    0.545    2.182    0.000    1.364    0.000    1.455 
#    0.000   10.000    0.000    4.364    0.000    0.000 
#    0.000    0.000    0.000    0.000    0.000    0.000 
#
# Total GULP energy -122594.283398 kJ/mol
# GULP energy per Si atom -5572.467427 kJ/mol
# Density = 1.899689 g / cm^3
# Si number density = 19.040222 Si / 1000 Ang^3
#
#
#
# Elastic Constant Matrix: (Units=GPa)
#
#
# Indices 1 2 3 4 5 6 
#
# 1 40.9461 42.5897 18.6906 0.0000 6.5033 0.0000
# 2 42.5897 167.9318 60.2671 0.0000 10.0655 0.0000
# 3 18.6906 60.2671 61.9556 0.0000 -1.1416 0.0000
# 4 0.0000 0.0000 0.0000 18.5612 0.0000 5.6455
# 5 6.5033 10.0655 -1.1416 0.0000 17.4999 0.0000
# 6 0.0000 0.0000 0.0000 5.6455 0.0000 25.9808
#
#
#
# Elastic Compliance Matrix: (Units=1/GPa)
#
#
# Indices 1 2 3 4 5 6 
#
# 1 0.034846 -0.006832 -0.004037 0.000000 -0.009283 0.000000
# 2 -0.006832 0.011128 -0.008845 0.000000 -0.004439 0.000000
# 3 -0.004037 -0.008845 0.026116 0.000000 0.008292 0.000000
# 4 0.000000 0.000000 0.000000 0.057689 0.000000 -0.012536
# 5 -0.009283 -0.004439 0.008292 0.000000 0.063687 0.000000
# 6 0.000000 0.000000 0.000000 -0.012536 0.000000 0.041214
#
#
# Mechanical properties :
#
#
# Convention : Reuss Voigt Hill
#
# Bulk Modulus (GPa) = 30.61856 57.10315 43.86086
# Shear Modulus (GPa) = 17.54413 22.36078 19.95246
#
# Velocity S-wave (km/s) = 3.03879 3.43067 3.24066
# Velocity P-wave (km/s) = 5.33181 6.76377 6.09002
#
# Compressibility (1/GPa) = 0.03265992
#
# Stress axis : x y z
#
# Youngs Moduli (GPa) = 28.69771 89.86367 38.29109
#
# Poissons Ratio (x) = 0.61395 0.15460
# Poissons Ratio (y) = 0.19606 0.33870
# Poissons Ratio (z) = 0.11586 0.79488
#
# Static dielectric constant tensor:
#      x y z
#    x 1.694330 0.000000 -0.007910 
#    y 0.000000 1.648840 0.000000 
#    z -0.007910 0.000000 1.665100 
# 
# From -- ./inp_files/104833.got.cif
#   From: 2010.05.17/outbox.cif.g08.bks.cpg/sg12_53_cif.got.tgz:104833.got - 2010.06.03 13:09:07.
