data_PCOD9176056
_publ_section_title
;
Structure prediction by ZEFSAII (Michael W. Deem and Ramdas Pophale) SiO2 
 PCOD9176056
Probable space group: C 2/M
;
_chemical_formula_sum "Si O2"
_cell_formula_units_Z 56
_cell_length_a 9.145219
_cell_length_b 27.730647
_cell_length_c 14.210757
_cell_angle_alpha 90.000000
_cell_angle_beta 120.810416
_cell_angle_gamma 90.000000
_cell_volume 3095.260027
_symmetry_space_group_name_H-M "C 2/M"
_symmetry_group_IT_number 12
_symmetry_cell_setting 'monoclinic'
loop_
_space_group_symop_operation_xyz
x,y,z
-x,y,-z
-x,-y,-z
x,-y,z
1/2+x,1/2+y,z
1/2-x,1/2+y,-z
1/2-x,1/2-y,-z
1/2+x,1/2-y,z
loop_
_atom_site_type_symbol
_atom_site_label
_atom_site_fract_x
_atom_site_fract_y
_atom_site_fract_z
Si Si1 0.194953 0.219640 0.096827
Si Si2 0.183896 0.363979 0.392521
Si Si3 0.885963 0.703727 0.344218
Si Si4 0.301548 0.172249 0.955523
Si Si5 0.366651 0.380823 0.262210
Si Si6 0.883785 0.201178 0.583532
Si Si7 0.383916 0.445741 0.556207
O O1 0.237664 0.209770 0.218038
O O2 0.259136 0.274318 0.099095
O O3 0.279915 0.178773 0.059835
O O4 0.000000 0.219686 0.000000
O O5 0.222225 0.378875 0.297137
O O6 0.316848 0.320893 0.463007
O O7 0.237885 0.407358 0.480567
O O8 0.998887 0.342695 0.353666
O O9 0.786874 0.702410 0.409412
O O10 0.013853 0.749150 0.382358
O O11 0.206738 0.131189 0.864699
O O12 0.500000 0.167903 0.000000
O O13 0.492133 0.337266 0.328783
O O14 0.487974 0.426783 0.320569
O O15 0.500000 0.445653 0.500000
O O16 0.323634 0.500000 0.553783
#
# Coordination Sequence:
#
# PCOD9176056 Si02
#       7
#     8   8   8   8   8   8   8
#     4  10  21  32  47  66  94 134 175 213 242 279
#     4  10  21  33  50  75 103 131 166 204 251 305
#     4  12  22  33  49  70 102 138 174 211 247 291
#     4  10  19  31  48  67  95 130 175 212 244 283
#     4  10  18  34  54  73 100 134 170 208 252 304
#     4  11  22  33  47  70 102 139 173 204 243 299
#     4   8  16  32  55  80 103 128 161 205 259 317
#
# _framework density 18.092179999999999
#
# number of rings (size 3 to 8) (size 9 to 14) (size 15 to 20)
#    0.000    1.857    1.429    4.714    4.000    1.143 
#    0.000    0.000    0.000    7.286    0.000    1.000 
#    0.000    5.714    0.000    0.000    0.000    0.000 
#
# Total GULP energy -156135.791837 kJ/mol
# GULP energy per Si atom -5576.278280 kJ/mol
# Density = 1.805100 g / cm^3
# Si number density = 18.092180 Si / 1000 Ang^3
#
#
#
# Elastic Constant Matrix: (Units=GPa)
#
#
# Indices 1 2 3 4 5 6 
#
# 1 56.8278 13.8970 -12.0882 0.0000 6.4660 0.0000
# 2 13.8970 86.1980 16.3913 0.0000 7.7935 0.0000
# 3 -12.0882 16.3913 74.3864 0.0000 -0.5879 0.0000
# 4 0.0000 0.0000 0.0000 17.9513 0.0000 2.7188
# 5 6.4660 7.7935 -0.5879 0.0000 22.4182 0.0000
# 6 0.0000 0.0000 0.0000 2.7188 0.0000 12.9424
#
#
#
# Elastic Compliance Matrix: (Units=1/GPa)
#
#
# Indices 1 2 3 4 5 6 
#
# 1 0.019807 -0.003552 0.003967 0.000000 -0.004374 0.000000
# 2 -0.003552 0.013171 -0.003508 0.000000 -0.003646 0.000000
# 3 0.003967 -0.003508 0.014865 0.000000 0.000465 0.000000
# 4 0.000000 0.000000 0.000000 0.057537 0.000000 -0.012087
# 5 -0.004374 -0.003646 0.000465 0.000000 0.047148 0.000000
# 6 0.000000 0.000000 0.000000 -0.012087 0.000000 0.079805
#
#
# Mechanical properties :
#
#
# Convention : Reuss Voigt Hill
#
# Bulk Modulus (GPa) = 24.00645 28.20139 26.10392
# Shear Modulus (GPa) = 19.80947 23.94317 21.87632
#
# Velocity S-wave (km/s) = 3.31255 3.64180 3.48107
# Velocity P-wave (km/s) = 5.28473 5.77106 5.53324
#
# Compressibility (1/GPa) = 0.04165547
#
# Stress axis : x y z
#
# Youngs Moduli (GPa) = 50.48666 75.92615 67.27341
#
# Poissons Ratio (x) = 0.26971 -0.26687
# Poissons Ratio (y) = 0.17934 0.23601
# Poissons Ratio (z) = -0.20028 0.26637
#
# Static dielectric constant tensor:
#      x y z
#    x 1.688930 0.000000 -0.021380 
#    y 0.000000 1.622730 0.000000 
#    z -0.021380 0.000000 1.647840 
# 
# From -- ./inp_files/185127.got.cif
#   From: 2010.05.17/outbox.cif.g08.bks.cpg/sg12_93_cif.got.tgz:185127.got - 2010.06.03 13:09:07.
