data_PCOD9176844
_publ_section_title
;
Structure prediction by ZEFSAII (Michael W. Deem and Ramdas Pophale) SiO2 
 PCOD9176844
Probable space group: C 2/M
;
_chemical_formula_sum "Si O2"
_cell_formula_units_Z 40
_cell_length_a 9.136243
_cell_length_b 13.785515
_cell_length_c 17.332617
_cell_angle_alpha 90.000000
_cell_angle_beta 115.358496
_cell_angle_gamma 90.000000
_cell_volume 1972.663446
_symmetry_space_group_name_H-M "C 2/M"
_symmetry_group_IT_number 12
_symmetry_cell_setting 'monoclinic'
loop_
_space_group_symop_operation_xyz
x,y,z
-x,y,-z
-x,-y,-z
x,-y,z
1/2+x,1/2+y,z
1/2-x,1/2+y,-z
1/2-x,1/2-y,-z
1/2+x,1/2-y,z
loop_
_atom_site_type_symbol
_atom_site_label
_atom_site_fract_x
_atom_site_fract_y
_atom_site_fract_z
Si Si1 0.168057 0.717183 0.561654
Si Si2 0.297450 0.105754 0.828134
Si Si3 0.829203 0.210732 0.939648
Si Si4 0.918114 0.607758 0.229561
Si Si5 0.979174 0.195048 0.329157
O O1 0.250000 0.750000 0.500000
O O2 0.101505 0.802830 0.603450
O O3 0.330285 0.671007 0.635106
O O4 0.000000 0.663661 0.500000
O O5 0.355037 0.192129 0.895331
O O6 0.418878 0.103938 0.783796
O O7 0.122927 0.131646 0.753577
O O8 0.298219 0.000000 0.866224
O O9 0.719071 0.142081 0.861918
O O10 0.750000 0.250000 0.000000
O O11 0.000000 0.164265 0.000000
O O12 0.884560 0.500000 0.252883
O O13 0.947730 0.692657 0.297594
#
# Coordination Sequence:
#
# PCOD9176844 Si02
#       5
#     8   8   8   8   8
#     4   9  18  32  58  85 112 149 184 218 282 334
#     4  10  21  36  59  84 108 151 193 222 274 339
#     4  11  22  38  57  82 114 147 185 236 281 325
#     4  10  21  36  58  84 111 149 189 228 278 329
#     4  10  18  36  58  83 112 148 185 232 270 327
#
# _framework density 20.277152000000001
#
# number of rings (size 3 to 8) (size 9 to 14) (size 15 to 20)
#    0.000    2.000    4.000    0.000    0.000    1.600 
#    0.000    3.000    0.000   24.000    0.000    0.000 
#    0.000    0.000    0.000    0.000    0.000    0.000 
#
# Total GULP energy -111368.212979 kJ/mol
# GULP energy per Si atom -5568.410649 kJ/mol
# Density = 2.023100 g / cm^3
# Si number density = 20.277152 Si / 1000 Ang^3
#
#
#
# Elastic Constant Matrix: (Units=GPa)
#
#
# Indices 1 2 3 4 5 6 
#
# 1 101.5252 0.4489 26.3283 0.0000 28.8213 0.0000
# 2 0.4489 80.4059 6.2914 0.0000 5.1113 0.0000
# 3 26.3283 6.2914 74.2883 0.0000 31.1828 0.0000
# 4 0.0000 0.0000 0.0000 0.7976 0.0000 -0.3865
# 5 28.8213 5.1113 31.1828 0.0000 60.4379 0.0000
# 6 0.0000 0.0000 0.0000 -0.3865 0.0000 13.3578
#
#
#
# Elastic Compliance Matrix: (Units=1/GPa)
#
#
# Indices 1 2 3 4 5 6 
#
# 1 0.011705 0.000397 -0.002329 0.000000 -0.004414 0.000000
# 2 0.000397 0.012554 -0.000866 0.000000 -0.000804 0.000000
# 3 -0.002329 -0.000866 0.017695 0.000000 -0.007946 0.000000
# 4 0.000000 0.000000 0.000000 1.271640 0.000000 0.036792
# 5 -0.004414 -0.000804 -0.007946 0.000000 0.022818 0.000000
# 6 0.000000 0.000000 0.000000 0.036792 0.000000 0.075927
#
#
# Mechanical properties :
#
#
# Convention : Reuss Voigt Hill
#
# Bulk Modulus (GPa) = 27.50488 35.81738 31.66113
# Shear Modulus (GPa) = 3.49637 29.79538 16.64588
#
# Velocity S-wave (km/s) = 1.31455 3.83744 2.86827
# Velocity P-wave (km/s) = 3.98722 6.11039 5.15921
#
# Compressibility (1/GPa) = 0.03635718
#
# Stress axis : x y z
#
# Youngs Moduli (GPa) = 85.43331 79.65845 56.51233
#
# Poissons Ratio (x) = -0.03166 0.13164
# Poissons Ratio (y) = -0.03396 0.04897
# Poissons Ratio (z) = 0.19901 0.06902
#
# Static dielectric constant tensor:
#      x y z
#    x 1.758770 0.000000 0.025090 
#    y 0.000000 1.721150 0.000000 
#    z 0.025090 0.000000 1.745380 
# 
# From -- ./inp_files/194536.got.cif
#   From: 2010.05.17/outbox.cif.g08.bks.cpg/sg12_98_cif.got.tgz:194536.got - 2010.06.03 13:09:07.
