data_PCOD9176677
_publ_section_title
;
Structure prediction by ZEFSAII (Michael W. Deem and Ramdas Pophale) SiO2 
 PCOD9176677
Probable space group: C 2/M
;
_chemical_formula_sum "Si O2"
_cell_formula_units_Z 64
_cell_length_a 19.629744
_cell_length_b 10.756880
_cell_length_c 23.475553
_cell_angle_alpha 90.000000
_cell_angle_beta 134.344621
_cell_angle_gamma 90.000000
_cell_volume 3544.974254
_symmetry_space_group_name_H-M "C 2/M"
_symmetry_group_IT_number 12
_symmetry_cell_setting 'monoclinic'
loop_
_space_group_symop_operation_xyz
x,y,z
-x,y,-z
-x,-y,-z
x,-y,z
1/2+x,1/2+y,z
1/2-x,1/2+y,-z
1/2-x,1/2-y,-z
1/2+x,1/2-y,z
loop_
_atom_site_type_symbol
_atom_site_label
_atom_site_fract_x
_atom_site_fract_y
_atom_site_fract_z
Si Si1 0.368445 0.646327 0.385164
Si Si2 0.292657 0.143711 0.064835
Si Si3 0.176134 0.862162 0.516032
Si Si4 0.518440 0.854556 0.209845
Si Si5 0.168908 0.357573 0.199863
Si Si6 0.608771 0.201731 0.374061
Si Si7 0.238684 0.140314 0.164453
Si Si8 0.064276 0.365208 0.650502
O O1 0.398715 0.500000 0.400686
O O2 0.356402 0.694790 0.442829
O O3 0.263738 0.648844 0.294750
O O4 0.431802 0.744241 0.387278
O O5 0.406618 0.160968 0.135418
O O6 0.250801 0.155572 0.104082
O O7 0.275320 0.000000 0.035700
O O8 0.250000 0.250000 0.000000
O O9 0.291027 0.862135 0.582069
O O10 0.140833 0.808858 0.435942
O O11 0.138982 0.000000 0.497892
O O12 0.579104 0.834693 0.188336
O O13 0.558459 0.771420 0.284654
O O14 0.534490 0.000000 0.236393
O O15 0.163560 0.500000 0.174582
O O16 0.179927 0.251413 0.158932
O O17 0.529461 0.133930 0.365568
O O18 0.344048 0.144977 0.254402
O O19 0.201490 0.000000 0.154196
O O20 0.071700 0.500000 0.624853
#
# Coordination Sequence:
#
# PCOD9176677 Si02
#       8
#     8   8   8   8   8   8   8   8
#     4   9  18  34  54  75 107 145 180 226 278 323
#     4  10  21  38  61  88 115 144 177 222 274 325
#     4  10  21  36  52  75 109 146 184 232 283 323
#     4  10  18  35  61  82 104 142 189 228 267 323
#     4   9  17  31  57  84 105 139 188 228 262 313
#     4  11  20  33  56  79 104 143 189 231 272 325
#     4   9  18  34  56  81 112 144 175 217 273 326
#     4  10  19  33  55  80 104 138 185 229 268 321
#
# _framework density 18.053728
#
# number of rings (size 3 to 8) (size 9 to 14) (size 15 to 20)
#    0.000    2.250    2.500    1.125    0.000    1.500 
#    0.000    8.125    0.000    3.750    0.000    0.000 
#    0.000    0.000    0.000    0.000    0.000    0.000 
#
# Total GULP energy -178267.137737 kJ/mol
# GULP energy per Si atom -5570.848054 kJ/mol
# Density = 1.801264 g / cm^3
# Si number density = 18.053728 Si / 1000 Ang^3
#
#
#
# Elastic Constant Matrix: (Units=GPa)
#
#
# Indices 1 2 3 4 5 6 
#
# 1 104.2805 65.0495 36.6652 0.0000 -15.0935 0.0000
# 2 65.0495 110.0949 57.7392 0.0000 -17.1773 0.0000
# 3 36.6652 57.7392 67.8606 0.0000 -10.2014 0.0000
# 4 0.0000 0.0000 0.0000 -28.5377 0.0000 -24.1549
# 5 -15.0935 -17.1773 -10.2014 0.0000 13.6800 0.0000
# 6 0.0000 0.0000 0.0000 -24.1549 0.0000 14.1952
#
#
#
# Elastic Compliance Matrix: (Units=1/GPa)
#
#
# Indices 1 2 3 4 5 6 
#
# 1 0.015744 -0.007769 -0.000847 0.000000 0.006985 0.000000
# 2 -0.007769 0.022008 -0.013135 0.000000 0.009268 0.000000
# 3 -0.000847 -0.013135 0.026748 0.000000 0.002520 0.000000
# 4 0.000000 0.000000 0.000000 -0.014360 0.000000 -0.024434
# 5 0.006985 0.009268 0.002520 0.000000 0.094323 0.000000
# 6 0.000000 0.000000 0.000000 -0.024434 0.000000 0.028868
#
#
# Mechanical properties :
#
#
# Convention : Reuss Voigt Hill
#
# Bulk Modulus (GPa) = 47.61892 66.79375 57.20634
# Shear Modulus (GPa) = 22.33834 8.05297 15.19565
#
# Velocity S-wave (km/s) = 3.52138 2.11429 2.90434
# Velocity P-wave (km/s) = 6.55492 6.56032 6.55762
#
# Compressibility (1/GPa) = 0.02100006
#
# Stress axis : x y z
#
# Youngs Moduli (GPa) = 63.51537 45.43896 37.38615
#
# Poissons Ratio (x) = 0.35300 0.03165
# Poissons Ratio (y) = 0.49343 0.49105
# Poissons Ratio (z) = 0.05378 0.59682
#
# Static dielectric constant tensor:
#      x y z
#    x 1.613090 0.000000 0.008640 
#    y 0.000000 1.646100 0.000000 
#    z 0.008640 0.000000 1.611890 
# 
# From -- ./inp_files/315756.got.cif
#   From: 2010.05.17/outbox.cif.g08.bks.cpg/sg12_158_cif.got.tgz:315756.got - 2010.06.03 13:09:07.
