data_PCOD9176949
_publ_section_title
;
Structure prediction by ZEFSAII (Michael W. Deem and Ramdas Pophale) SiO2 
 PCOD9176949
Probable space group: C 2/M
;
_chemical_formula_sum "Si O2"
_cell_formula_units_Z 48
_cell_length_a 11.198968
_cell_length_b 27.002146
_cell_length_c 14.104026
_cell_angle_alpha 90.000000
_cell_angle_beta 27.784338
_cell_angle_gamma 90.000000
_cell_volume 1988.109254
_symmetry_space_group_name_H-M "C 2/M"
_symmetry_group_IT_number 12
_symmetry_cell_setting 'monoclinic'
loop_
_space_group_symop_operation_xyz
x,y,z
-x,y,-z
-x,-y,-z
x,-y,z
1/2+x,1/2+y,z
1/2-x,1/2+y,-z
1/2-x,1/2-y,-z
1/2+x,1/2-y,z
loop_
_atom_site_type_symbol
_atom_site_label
_atom_site_fract_x
_atom_site_fract_y
_atom_site_fract_z
Si Si1 0.526644 0.621204 0.181941
Si Si2 0.399742 0.106687 0.167703
Si Si3 0.269666 0.713414 0.756327
Si Si4 0.475019 0.734322 0.237439
Si Si5 0.736675 0.057825 0.545968
Si Si6 0.279049 0.056039 0.734716
O O1 0.419420 0.676558 0.258442
O O2 0.413005 0.589752 0.350711
O O3 0.432700 0.593800 0.152911
O O4 0.832364 0.626069 0.975894
O O5 0.227175 0.153853 0.258912
O O6 0.269814 0.074690 0.340571
O O7 0.500000 0.081131 0.000000
O O8 0.473889 0.736676 0.685654
O O9 0.226852 0.734823 0.682119
O O10 0.000000 0.722259 0.000000
O O11 0.750000 0.750000 0.000000
O O12 0.444962 0.063356 0.712277
O O13 0.805721 0.000000 0.488593
O O14 0.500000 0.059352 0.500000
O O15 0.178427 0.000000 0.800902
#
# Coordination Sequence:
#
# PCOD9176949 Si02
#       6
#     8   8   8   8   8   8
#     4  11  20  38  68  94 125 177 209 258 336 391
#     4  11  22  41  62  90 131 171 215 266 323 382
#     4   9  18  36  59  88 130 165 206 269 322 377
#     4  10  18  36  63  95 127 170 214 264 330 387
#     4  10  24  43  64  95 132 168 218 275 321 384
#     4   8  17  37  61  90 129 165 210 272 323 377
#
# _framework density 24.143540999999999
#
# number of rings (size 3 to 8) (size 9 to 14) (size 15 to 20)
#    0.000    2.167    5.000    1.500    0.000    4.333 
#    3.000    3.333    0.000    0.000    0.000    0.000 
#    0.000    0.000    0.000    0.000    0.000    0.000 
#
# Total GULP energy -134095.298819 kJ/mol
# GULP energy per Si atom -5587.304117 kJ/mol
# Density = 2.408859 g / cm^3
# Si number density = 24.143541 Si / 1000 Ang^3
#
#
#
# Elastic Constant Matrix: (Units=GPa)
#
#
# Indices 1 2 3 4 5 6 
#
# 1 192.8144 64.3955 41.9071 -0.0001 15.7622 0.0001
# 2 64.3955 111.3419 30.0412 0.0000 12.7231 0.0000
# 3 41.9071 30.0412 84.1397 -0.0001 26.3475 0.0003
# 4 -0.0001 0.0000 -0.0001 20.6806 0.0001 0.9955
# 5 15.7622 12.7231 26.3475 0.0001 51.3963 -0.0001
# 6 0.0001 0.0000 0.0003 0.9955 -0.0001 58.1562
#
#
#
# Elastic Compliance Matrix: (Units=1/GPa)
#
#
# Indices 1 2 3 4 5 6 
#
# 1 0.006774 -0.003323 -0.002138 0.000000 -0.000159 0.000000
# 2 -0.003323 0.011594 -0.002269 0.000000 -0.000688 0.000000
# 3 -0.002138 -0.002269 0.015937 0.000000 -0.006953 0.000000
# 4 0.000000 0.000000 0.000000 0.048394 0.000000 -0.000828
# 5 -0.000159 -0.000688 -0.006953 0.000000 0.023240 0.000000
# 6 0.000000 0.000000 0.000000 -0.000828 0.000000 0.017209
#
#
# Mechanical properties :
#
#
# Convention : Reuss Voigt Hill
#
# Bulk Modulus (GPa) = 53.06286 73.44261 63.25274
# Shear Modulus (GPa) = 34.50929 42.84344 38.67637
#
# Velocity S-wave (km/s) = 3.78476 4.21709 4.00676
# Velocity P-wave (km/s) = 6.41288 7.36186 6.90369
#
# Compressibility (1/GPa) = 0.01884557
#
# Stress axis : x y z
#
# Youngs Moduli (GPa) = 147.63159 86.25241 62.74724
#
# Poissons Ratio (x) = 0.28659 0.13413
# Poissons Ratio (y) = 0.49053 0.14238
# Poissons Ratio (z) = 0.31558 0.19572
#
# Static dielectric constant tensor:
#      x y z
#    x 1.969710 0.000000 -0.001220 
#    y 0.000000 1.846130 0.000000 
#    z -0.001220 0.000000 1.984320 
# 
# From -- ./inp_files/209319.got.cif
#   From: 2010.05.17/outbox.cif.g08.bks.cpg/sg12_105_cif.got.tgz:209319.got - 2010.06.03 13:09:07.
