data_PCOD9176147
_publ_section_title
;
Structure prediction by ZEFSAII (Michael W. Deem and Ramdas Pophale) SiO2 
 PCOD9176147
Probable space group: C 2/M
;
_chemical_formula_sum "Si O2"
_cell_formula_units_Z 56
_cell_length_a 22.467468
_cell_length_b 21.935197
_cell_length_c 10.000985
_cell_angle_alpha 90.000000
_cell_angle_beta 40.769438
_cell_angle_gamma 90.000000
_cell_volume 3218.568458
_symmetry_space_group_name_H-M "C 2/M"
_symmetry_group_IT_number 12
_symmetry_cell_setting 'monoclinic'
loop_
_space_group_symop_operation_xyz
x,y,z
-x,y,-z
-x,-y,-z
x,-y,z
1/2+x,1/2+y,z
1/2-x,1/2+y,-z
1/2-x,1/2-y,-z
1/2+x,1/2-y,z
loop_
_atom_site_type_symbol
_atom_site_label
_atom_site_fract_x
_atom_site_fract_y
_atom_site_fract_z
Si Si1 0.931208 0.149813 0.238800
Si Si2 0.721717 0.889999 0.837736
Si Si3 0.350696 0.000000 0.210413
Si Si4 0.265512 0.820336 0.437574
Si Si5 0.575762 0.573240 0.483612
Si Si6 0.038137 0.500000 0.724457
Si Si7 0.050050 0.293464 0.772996
Si Si8 0.532027 0.118770 0.295997
O O1 0.825987 0.143291 0.371452
O O2 0.947947 0.106246 0.336188
O O3 0.937254 0.221227 0.272060
O O4 0.000000 0.139746 0.000000
O O5 0.720741 0.830018 0.745212
O O6 0.822065 0.902757 0.724355
O O7 0.700794 0.941561 0.760838
O O8 0.639768 0.892370 0.083791
O O9 0.374567 0.000000 0.326399
O O10 0.448542 0.000000 0.970997
O O11 0.250000 0.750000 0.500000
O O12 0.357567 0.832411 0.362022
O O13 0.500000 0.587056 0.500000
O O14 0.579795 0.500000 0.492539
O O15 0.024447 0.560140 0.659728
O O16 0.993546 0.324469 0.753303
O O17 0.000000 0.298779 0.000000
O O18 0.500000 0.130361 0.500000
#
# Coordination Sequence:
#
# PCOD9176147 Si02
#       8
#     8   8   4   8   8   4   8   8
#     4   9  20  36  58  85 112 139 186 248 286 320
#     4  10  18  34  56  81 111 142 190 228 273 339
#     4   9  16  28  55  80  98 141 182 228 260 322
#     4   9  17  31  56  81 106 142 185 230 275 320
#     4  10  21  39  62  80 106 151 194 234 285 338
#     4   9  19  30  48  78 113 146 184 215 268 325
#     4  10  18  34  58  83 113 151 187 225 276 344
#     4  11  22  34  52  81 123 155 178 221 279 343
#
# _framework density 17.399039999999999
#
# number of rings (size 3 to 8) (size 9 to 14) (size 15 to 20)
#    0.000    2.286    2.143    1.071    2.000    0.857 
#    2.571    0.000    0.000    3.429    0.000    0.000 
#    0.000    0.000    0.000    0.000    0.000    0.000 
#
# Total GULP energy -155929.687237 kJ/mol
# GULP energy per Si atom -5568.917401 kJ/mol
# Density = 1.735944 g / cm^3
# Si number density = 17.399040 Si / 1000 Ang^3
#
#
#
# Elastic Constant Matrix: (Units=GPa)
#
#
# Indices 1 2 3 4 5 6 
#
# 1 123.4677 39.9161 57.0973 0.0000 -11.3395 0.0000
# 2 39.9161 65.6137 36.3040 0.0000 8.7089 0.0000
# 3 57.0973 36.3040 110.8081 0.0000 -1.3554 0.0000
# 4 0.0000 0.0000 0.0000 9.9193 0.0000 -13.9030
# 5 -11.3395 8.7089 -1.3554 0.0000 27.6936 0.0000
# 6 0.0000 0.0000 0.0000 -13.9030 0.0000 9.4834
#
#
#
# Elastic Compliance Matrix: (Units=1/GPa)
#
#
# Indices 1 2 3 4 5 6 
#
# 1 0.012838 -0.006263 -0.004478 0.000000 0.007007 0.000000
# 2 -0.006263 0.022782 -0.004359 0.000000 -0.009942 0.000000
# 3 -0.004478 -0.004359 0.012762 0.000000 0.000162 0.000000
# 4 0.000000 0.000000 0.000000 -0.095573 0.000000 -0.140115
# 5 0.007007 -0.009942 0.000162 0.000000 0.042113 0.000000
# 6 0.000000 0.000000 0.000000 -0.140115 0.000000 -0.099967
#
#
# Mechanical properties :
#
#
# Convention : Reuss Voigt Hill
#
# Bulk Modulus (GPa) = 54.99354 62.94716 58.97035
# Shear Modulus (GPa) = -72.68897 20.52407 -26.08245
#
# Velocity S-wave (km/s) = -6.47057 3.43827 -3.87599
# Velocity P-wave (km/s) = 4.91411 7.21244 3.73302
#
# Compressibility (1/GPa) = 0.01818395
#
# Stress axis : x y z
#
# Youngs Moduli (GPa) = 77.89254 43.89473 78.35827
#
# Poissons Ratio (x) = 0.27490 0.35087
# Poissons Ratio (y) = 0.48781 0.34153
# Poissons Ratio (z) = 0.34878 0.19132
#
# Static dielectric constant tensor:
#      x y z
#    x 1.608390 0.000000 -0.044300 
#    y 0.000000 1.632500 0.000000 
#    z -0.044300 0.000000 1.597850 
# 
# From -- ./inp_files/90360.got.cif
#   From: 2010.05.17/outbox.cif.g08.bks.cpg/sg12_46_cif.got.tgz:90360.got - 2010.06.03 13:09:07.
