data_PCOD9176598
_publ_section_title
;
Structure prediction by ZEFSAII (Michael W. Deem and Ramdas Pophale) SiO2 
 PCOD9176598
Probable space group: C 2/M
;
_chemical_formula_sum "Si O2"
_cell_formula_units_Z 44
_cell_length_a 13.645849
_cell_length_b 17.685478
_cell_length_c 17.579053
_cell_angle_alpha 90.000000
_cell_angle_beta 148.826159
_cell_angle_gamma 90.000000
_cell_volume 2196.026984
_symmetry_space_group_name_H-M "C 2/M"
_symmetry_group_IT_number 12
_symmetry_cell_setting 'monoclinic'
loop_
_space_group_symop_operation_xyz
x,y,z
-x,y,-z
-x,-y,-z
x,-y,z
1/2+x,1/2+y,z
1/2-x,1/2+y,-z
1/2-x,1/2-y,-z
1/2+x,1/2-y,z
loop_
_atom_site_type_symbol
_atom_site_label
_atom_site_fract_x
_atom_site_fract_y
_atom_site_fract_z
Si Si1 0.943571 0.255662 0.320322
Si Si2 0.681879 0.000000 0.541993
Si Si3 0.055784 0.500000 0.305183
Si Si4 0.568526 0.500000 0.706690
Si Si5 0.419012 0.000000 0.052223
Si Si6 0.716139 0.132014 0.218960
Si Si7 0.500000 0.865577 0.500000
Si Si8 0.298121 0.164723 0.620139
O O1 0.760227 0.201467 0.191118
O O2 0.936364 0.315116 0.385724
O O3 0.120582 0.201559 0.460144
O O4 0.013544 0.298003 0.291039
O O5 0.511566 0.000000 0.365560
O O6 0.659477 0.923833 0.575461
O O7 0.873393 0.000000 0.621604
O O8 0.176366 0.575542 0.373320
O O9 0.908613 0.500000 0.137248
O O10 0.617499 0.571863 0.687162
O O11 0.726759 0.500000 0.878492
O O12 0.535801 0.924303 0.105247
O O13 0.728075 0.173472 0.307761
#
# Coordination Sequence:
#
# PCOD9176598 Si02
#       8
#     8   4   4   4   4   8   4   8
#     4  11  20  32  53  85 128 157 184 248 310 344
#     4  11  23  37  63  93 115 162 206 238 298 359
#     4  10  18  35  58  86 113 148 205 242 286 354
#     4  11  23  40  62  86 120 159 199 257 298 356
#     4   9  22  40  59  84 124 156 199 254 300 348
#     4  10  19  33  57  82 108 159 200 233 295 351
#     4  11  22  38  56  87 134 154 190 251 300 358
#     4  10  20  31  50  85 124 151 190 241 300 352
#
# _framework density 20.036183000000001
#
# number of rings (size 3 to 8) (size 9 to 14) (size 15 to 20)
#    0.000    1.636    3.636    2.727    2.545    2.182 
#    0.000    5.455    0.000   21.818    0.000    0.000 
#    0.000    0.000    0.000    0.000    0.000    0.000 
#
# Total GULP energy -122550.026578 kJ/mol
# GULP energy per Si atom -5570.455754 kJ/mol
# Density = 1.999058 g / cm^3
# Si number density = 20.036183 Si / 1000 Ang^3
#
#
#
# Elastic Constant Matrix: (Units=GPa)
#
#
# Indices 1 2 3 4 5 6 
#
# 1 122.8005 47.4042 19.2526 0.0031 -3.5332 0.0019
# 2 47.4042 122.1782 8.7075 0.0133 2.8389 0.0083
# 3 19.2526 8.7075 40.5095 0.0279 -2.8719 0.0233
# 4 0.0031 0.0133 0.0279 -1.6053 0.0064 9.0268
# 5 -3.5332 2.8389 -2.8719 0.0064 21.5298 0.0080
# 6 0.0019 0.0083 0.0233 9.0268 0.0080 5.6186
#
#
#
# Elastic Compliance Matrix: (Units=1/GPa)
#
#
# Indices 1 2 3 4 5 6 
#
# 1 0.010252 -0.003734 -0.003953 0.000002 0.001648 0.000013
# 2 -0.003734 0.009711 -0.000451 0.000001 -0.001954 -0.000010
# 3 -0.003953 -0.000451 0.026874 -0.000017 0.002996 -0.000086
# 4 0.000002 0.000001 -0.000017 -0.062082 -0.000021 0.099741
# 5 0.001648 -0.001954 0.002996 -0.000021 0.047375 -0.000044
# 6 0.000013 -0.000010 -0.000086 0.099741 -0.000044 0.017738
#
#
# Mechanical properties :
#
#
# Convention : Reuss Voigt Hill
#
# Bulk Modulus (GPa) = 32.72235 48.46854 40.59544
# Shear Modulus (GPa) = 65.50414 19.11687 42.31051
#
# Velocity S-wave (km/s) = 5.72398 3.09223 4.60031
# Velocity P-wave (km/s) = 7.74934 6.08212 6.96579
#
# Compressibility (1/GPa) = 0.03056015
#
# Stress axis : x y z
#
# Youngs Moduli (GPa) = 97.54261 102.97428 37.21121
#
# Poissons Ratio (x) = 0.38453 0.14709
# Poissons Ratio (y) = 0.36425 0.01679
# Poissons Ratio (z) = 0.38557 0.04646
#
# Static dielectric constant tensor:
#      x y z
#    x 1.758120 0.000000 -0.021810 
#    y 0.000000 1.752830 -0.000010 
#    z -0.021810 -0.000010 1.745690 
# 
# From -- ./inp_files/271540.got.cif
#   From: 2010.05.17/outbox.cif.g08.bks.cpg/sg12_136_cif.got.tgz:271540.got - 2010.06.03 13:09:07.
