data_PCOD9176969
_publ_section_title
;
Structure prediction by ZEFSAII (Michael W. Deem and Ramdas Pophale) SiO2 
 PCOD9176969
Probable space group: C 2/M
;
_chemical_formula_sum "Si O2"
_cell_formula_units_Z 48
_cell_length_a 18.420149
_cell_length_b 14.527843
_cell_length_c 8.175514
_cell_angle_alpha 90.000000
_cell_angle_beta 75.873945
_cell_angle_gamma 90.000000
_cell_volume 2121.651834
_symmetry_space_group_name_H-M "C 2/M"
_symmetry_group_IT_number 12
_symmetry_cell_setting 'monoclinic'
loop_
_space_group_symop_operation_xyz
x,y,z
-x,y,-z
-x,-y,-z
x,-y,z
1/2+x,1/2+y,z
1/2-x,1/2+y,-z
1/2-x,1/2-y,-z
1/2+x,1/2-y,z
loop_
_atom_site_type_symbol
_atom_site_label
_atom_site_fract_x
_atom_site_fract_y
_atom_site_fract_z
Si Si1 0.694146 0.707547 0.899137
Si Si2 0.022757 0.000000 0.797076
Si Si3 0.353871 0.000000 0.739513
Si Si4 0.462452 0.689409 0.695955
Si Si5 0.511126 0.000000 0.696770
Si Si6 0.326048 0.500000 0.122177
Si Si7 0.663345 0.201167 0.380893
Si Si8 0.082788 0.689235 0.762062
O O1 0.661388 0.604798 0.953533
O O2 0.749412 0.698101 0.710838
O O3 0.630702 0.781472 0.891586
O O4 0.750000 0.750000 0.000000
O O5 0.985253 0.087022 0.731027
O O6 0.114466 0.000000 0.756606
O O7 0.000000 0.000000 0.000000
O O8 0.363659 0.097786 0.644889
O O9 0.426426 0.000000 0.816299
O O10 0.265296 0.000000 0.828701
O O11 0.500000 0.709674 0.500000
O O12 0.378530 0.724247 0.711810
O O13 0.507415 0.751787 0.797297
O O14 0.500000 0.000000 0.500000
O O15 0.556224 0.912900 0.738227
O O16 0.635678 0.217859 0.579176
#
# Coordination Sequence:
#
# PCOD9176969 Si02
#       8
#     8   4   4   8   4   4   8   8
#     4  11  25  42  63  84 128 170 211 260 305 372
#     4  12  25  41  66  85 120 168 211 251 305 369
#     4  10  18  36  64  95 127 163 185 258 319 374
#     4  10  21  38  62  93 123 153 201 258 304 368
#     4  12  18  35  66 105 131 153 203 260 323 370
#     4  10  24  44  60  84 126 166 209 245 323 360
#     4  10  20  37  64  94 124 158 205 248 321 363
#     4  11  20  37  64  95 126 159 203 257 305 379
#
# _framework density 22.623881999999998
#
# number of rings (size 3 to 8) (size 9 to 14) (size 15 to 20)
#    0.000    1.333    5.000    1.250    2.333    0.667 
#    0.000    0.833    0.000    2.000    0.000    0.000 
#    0.000    0.000    0.000    0.000    0.000    0.000 
#
# Total GULP energy -133733.584656 kJ/mol
# GULP energy per Si atom -5572.232694 kJ/mol
# Density = 2.257239 g / cm^3
# Si number density = 22.623882 Si / 1000 Ang^3
#
#
#
# Elastic Constant Matrix: (Units=GPa)
#
#
# Indices 1 2 3 4 5 6 
#
# 1 135.1851 74.6524 37.6085 0.0000 19.9483 0.0000
# 2 74.6524 188.0674 13.2528 0.0000 47.7062 0.0000
# 3 37.6085 13.2528 48.4691 0.0000 11.5447 0.0000
# 4 0.0000 0.0000 0.0000 1.4960 0.0000 8.8901
# 5 19.9483 47.7062 11.5447 0.0000 49.0924 0.0000
# 6 0.0000 0.0000 0.0000 8.8901 0.0000 50.4967
#
#
#
# Elastic Compliance Matrix: (Units=1/GPa)
#
#
# Indices 1 2 3 4 5 6 
#
# 1 0.012055 -0.004580 -0.008469 0.000000 0.001544 0.000000
# 2 -0.004580 0.008801 0.002904 0.000000 -0.007375 0.000000
# 3 -0.008469 0.002904 0.027820 0.000000 -0.005923 0.000000
# 4 0.000000 0.000000 0.000000-14.461519 0.000000 2.545988
# 5 0.001544 -0.007375 -0.005923 0.000000 0.028302 0.000000
# 6 0.000000 0.000000 0.000000 2.545988 0.000000 -0.428424
#
#
# Mechanical properties :
#
#
# Convention : Reuss Voigt Hill
#
# Bulk Modulus (GPa) = 35.22950 69.19434 52.21192
# Shear Modulus (GPa) = -0.33822 36.63087 18.14632
#
# Velocity S-wave (km/s) = -0.38707 4.02820 2.83519
# Velocity P-wave (km/s) = 3.92503 7.23092 5.81774
#
# Compressibility (1/GPa) = 0.02838530
#
# Stress axis : x y z
#
# Youngs Moduli (GPa) = 82.95577 113.62028 35.94568
#
# Poissons Ratio (x) = 0.52036 0.30442
# Poissons Ratio (y) = 0.37992 -0.10437
# Poissons Ratio (z) = 0.70255 -0.32991
#
# Static dielectric constant tensor:
#      x y z
#    x 1.897910 0.000000 -0.067510 
#    y 0.000000 1.946070 0.000000 
#    z -0.067510 0.000000 1.907450 
# 
# From -- ./inp_files/73697.got.cif
#   From: 2010.05.17/outbox.cif.g08.bks.cpg/sg12_37_cif.got.tgz:73697.got - 2010.06.03 13:09:07.
