data_PCOD9176839
_publ_section_title
;
Structure prediction by ZEFSAII (Michael W. Deem and Ramdas Pophale) SiO2 
 PCOD9176839
Probable space group: C 2/M
;
_chemical_formula_sum "Si O2"
_cell_formula_units_Z 48
_cell_length_a 8.343968
_cell_length_b 12.260289
_cell_length_c 22.967854
_cell_angle_alpha 90.000000
_cell_angle_beta 108.191406
_cell_angle_gamma 90.000000
_cell_volume 2232.163470
_symmetry_space_group_name_H-M "C 2/M"
_symmetry_group_IT_number 12
_symmetry_cell_setting 'monoclinic'
loop_
_space_group_symop_operation_xyz
x,y,z
-x,y,-z
-x,-y,-z
x,-y,z
1/2+x,1/2+y,z
1/2-x,1/2+y,-z
1/2-x,1/2-y,-z
1/2+x,1/2-y,z
loop_
_atom_site_type_symbol
_atom_site_label
_atom_site_fract_x
_atom_site_fract_y
_atom_site_fract_z
Si Si1 0.208389 0.375541 0.640509
Si Si2 0.894105 0.669884 0.671649
Si Si3 0.003523 0.124908 0.931682
Si Si4 0.160913 0.801526 0.545353
Si Si5 0.855265 0.290163 0.141821
Si Si6 0.784471 0.378858 0.787596
O O1 0.240838 0.500000 0.628832
O O2 0.374747 0.302145 0.668606
O O3 0.113983 0.304118 0.580150
O O4 0.083056 0.368760 0.681388
O O5 0.780477 0.634157 0.603254
O O6 0.809603 0.631960 0.721358
O O7 0.813722 0.140981 0.886025
O O8 0.119990 0.208091 0.909526
O O9 0.058286 0.000000 0.929657
O O10 0.000000 0.148220 0.000000
O O11 0.250000 0.750000 0.500000
O O12 0.000000 0.860317 0.500000
O O13 0.829463 0.213488 0.195523
O O14 0.025769 0.359084 0.166574
O O15 0.723434 0.500000 0.795291
#
# Coordination Sequence:
#
# PCOD9176839 Si02
#       6
#     8   8   8   8   8   8
#     4  10  21  38  60  81 108 146 183 225 291 345
#     4  10  21  37  58  84 112 145 189 239 282 343
#     4  10  20  37  60  88 123 158 193 236 285 333
#     4  10  18  36  58  80 113 140 180 240 284 342
#     4  10  22  37  59  89 118 153 199 239 278 334
#     4  11  22  39  60  82 116 155 193 238 289 339
#
# _framework density 21.503800999999999
#
# number of rings (size 3 to 8) (size 9 to 14) (size 15 to 20)
#    1.000    0.833    1.667    3.000    0.000    0.333 
#    0.000    7.500    0.000   11.500    0.000    0.000 
#    0.000    0.000    0.000    0.000    0.000    0.000 
#
# Total GULP energy -133873.519937 kJ/mol
# GULP energy per Si atom -5578.063331 kJ/mol
# Density = 2.145486 g / cm^3
# Si number density = 21.503801 Si / 1000 Ang^3
#
#
#
# Elastic Constant Matrix: (Units=GPa)
#
#
# Indices 1 2 3 4 5 6 
#
# 1 26.8894 -6.0038 -12.2704 0.0000 -3.5215 0.0000
# 2 -6.0038 85.8887 8.4871 0.0000 -1.3036 0.0000
# 3 -12.2704 8.4871 92.7178 0.0000 -14.0359 0.0000
# 4 0.0000 0.0000 0.0000 8.6517 0.0000 1.7373
# 5 -3.5215 -1.3036 -14.0359 0.0000 31.9382 0.0000
# 6 0.0000 0.0000 0.0000 1.7373 0.0000 7.7160
#
#
#
# Elastic Compliance Matrix: (Units=1/GPa)
#
#
# Indices 1 2 3 4 5 6 
#
# 1 0.041641 0.002389 0.006430 0.000000 0.007514 0.000000
# 2 0.002389 0.011886 -0.000705 0.000000 0.000439 0.000000
# 3 0.006430 -0.000705 0.012645 0.000000 0.006237 0.000000
# 4 0.000000 0.000000 0.000000 0.121057 0.000000 -0.027256
# 5 0.007514 0.000439 0.006237 0.000000 0.034898 0.000000
# 6 0.000000 0.000000 0.000000 -0.027256 0.000000 0.135738
#
#
# Mechanical properties :
#
#
# Convention : Reuss Voigt Hill
#
# Bulk Modulus (GPa) = 12.13591 20.65797 16.39694
# Shear Modulus (GPa) = 13.54629 24.01338 18.77984
#
# Velocity S-wave (km/s) = 2.51260 3.34534 2.95842
# Velocity P-wave (km/s) = 3.75146 4.95472 4.39446
#
# Compressibility (1/GPa) = 0.08240008
#
# Stress axis : x y z
#
# Youngs Moduli (GPa) = 24.01475 84.12995 79.08192
#
# Poissons Ratio (x) = -0.20103 -0.50847
# Poissons Ratio (y) = -0.05738 0.05579
# Poissons Ratio (z) = -0.15441 0.05935
#
# Static dielectric constant tensor:
#      x y z
#    x 1.834040 0.000000 0.073890 
#    y 0.000000 1.764640 0.000000 
#    z 0.073890 0.000000 1.890260 
# 
# From -- ./inp_files/332036.got.cif
#   From: 2010.05.17/outbox.cif.g08.bks.cpg/sg12_167_cif.got.tgz:332036.got - 2010.06.03 13:09:07.
