data_PCOD9176572
_publ_section_title
;
Structure prediction by ZEFSAII (Michael W. Deem and Ramdas Pophale) SiO2 
 PCOD9176572
Probable space group: C 2/M
;
_chemical_formula_sum "Si O2"
_cell_formula_units_Z 48
_cell_length_a 19.995310
_cell_length_b 22.550638
_cell_length_c 10.846693
_cell_angle_alpha 90.000000
_cell_angle_beta 154.792577
_cell_angle_gamma 90.000000
_cell_volume 2082.995867
_symmetry_space_group_name_H-M "C 2/M"
_symmetry_group_IT_number 12
_symmetry_cell_setting 'monoclinic'
loop_
_space_group_symop_operation_xyz
x,y,z
-x,y,-z
-x,-y,-z
x,-y,z
1/2+x,1/2+y,z
1/2-x,1/2+y,-z
1/2-x,1/2-y,-z
1/2+x,1/2-y,z
loop_
_atom_site_type_symbol
_atom_site_label
_atom_site_fract_x
_atom_site_fract_y
_atom_site_fract_z
Si Si1 0.673453 0.435623 0.351042
Si Si2 0.816289 0.789496 0.932745
Si Si3 0.153360 0.402545 0.596366
Si Si4 0.708551 0.932139 0.963292
Si Si5 0.675905 0.682274 0.779228
Si Si6 0.873009 0.196665 0.676171
O O1 0.687210 0.500000 0.440234
O O2 0.792448 0.435482 0.434915
O O3 0.693437 0.370698 0.446676
O O4 0.500000 0.434045 0.000000
O O5 0.757001 0.806959 0.970858
O O6 0.001957 0.796273 0.226993
O O7 0.717668 0.835504 0.687045
O O8 0.773250 0.721002 0.846393
O O9 0.232378 0.426949 0.854477
O O10 0.968696 0.409482 0.307628
O O11 0.723708 0.000000 0.023937
O O12 0.816631 0.887932 0.221234
O O13 0.500000 0.704348 0.500000
O O14 0.750000 0.250000 0.500000
O O15 0.000000 0.198254 0.000000
#
# Coordination Sequence:
#
# PCOD9176572 Si02
#       6
#     8   8   8   8   8   8
#     4  10  19  34  57  87 119 150 189 241 299 351
#     4  10  22  38  57  85 118 148 202 239 297 346
#     4  10  18  35  57  87 113 143 190 246 292 337
#     4  10  21  35  57  85 113 151 192 240 296 346
#     4  10  24  36  57  82 113 160 190 246 290 352
#     4  11  24  40  61  90 122 161 197 247 299 357
#
# _framework density 23.043733
#
# number of rings (size 3 to 8) (size 9 to 14) (size 15 to 20)
#    0.000    1.833    3.333    2.000   11.667    0.333 
#    0.000    0.000    0.000    0.500    0.000    0.000 
#    0.000    0.000    0.000    0.000    0.000    0.000 
#
# Total GULP energy -133839.726426 kJ/mol
# GULP energy per Si atom -5576.655268 kJ/mol
# Density = 2.299128 g / cm^3
# Si number density = 23.043733 Si / 1000 Ang^3
#
#
#
# Elastic Constant Matrix: (Units=GPa)
#
#
# Indices 1 2 3 4 5 6 
#
# 1 48.9401 32.6278 9.0824 0.0000 27.9780 0.0000
# 2 32.6278 237.2644 49.3865 0.0000 25.5182 0.0000
# 3 9.0824 49.3865 28.2129 0.0000 18.9789 0.0000
# 4 0.0000 0.0000 0.0000 54.5877 0.0000 9.3280
# 5 27.9780 25.5182 18.9789 0.0000 32.3941 0.0000
# 6 0.0000 0.0000 0.0000 9.3280 0.0000 25.0371
#
#
#
# Elastic Compliance Matrix: (Units=1/GPa)
#
#
# Indices 1 2 3 4 5 6 
#
# 1 0.057753 -0.009892 0.044622 0.000000 -0.068230 0.000000
# 2 -0.009892 0.008461 -0.021274 0.000000 0.014342 0.000000
# 3 0.044622 -0.021274 0.120439 0.000000 -0.092343 0.000000
# 4 0.000000 0.000000 0.000000 0.019565 0.000000 -0.007289
# 5 -0.068230 0.014342 -0.092343 0.000000 0.132602 0.000000
# 6 0.000000 0.000000 0.000000 -0.007289 0.000000 0.042656
#
#
# Mechanical properties :
#
#
# Convention : Reuss Voigt Hill
#
# Bulk Modulus (GPa) = 4.68242 55.17901 29.93071
# Shear Modulus (GPa) = 11.74397 37.29183 24.51790
#
# Velocity S-wave (km/s) = 2.25997 4.02718 3.26540
# Velocity P-wave (km/s) = 2.97427 6.75438 5.21862
#
# Compressibility (1/GPa) = 0.21356472
#
# Stress axis : x y z
#
# Youngs Moduli (GPa) = 17.31525 118.19477 8.30297
#
# Poissons Ratio (x) = 1.16915 -0.37050
# Poissons Ratio (y) = 0.17128 0.17664
# Poissons Ratio (z) = -0.77264 2.51447
#
# Static dielectric constant tensor:
#      x y z
#    x 2.041450 0.000000 -0.053220 
#    y 0.000000 2.000580 0.000000 
#    z -0.053220 0.000000 1.863240 
# 
# From -- ./inp_files/132483.got.cif
#   From: 2010.05.17/outbox.cif.g08.bks.cpg/sg12_67_cif.got.tgz:132483.got - 2010.06.03 13:09:07.
