data_PCOD9176957
_publ_section_title
;
Structure prediction by ZEFSAII (Michael W. Deem and Ramdas Pophale) SiO2 
 PCOD9176957
Probable space group: C 2/M
;
_chemical_formula_sum "Si O2"
_cell_formula_units_Z 64
_cell_length_a 31.718832
_cell_length_b 8.639494
_cell_length_c 20.296554
_cell_angle_alpha 90.000000
_cell_angle_beta 143.194747
_cell_angle_gamma 90.000000
_cell_volume 3332.153149
_symmetry_space_group_name_H-M "C 2/M"
_symmetry_group_IT_number 12
_symmetry_cell_setting 'monoclinic'
loop_
_space_group_symop_operation_xyz
x,y,z
-x,y,-z
-x,-y,-z
x,-y,z
1/2+x,1/2+y,z
1/2-x,1/2+y,-z
1/2-x,1/2-y,-z
1/2+x,1/2-y,z
loop_
_atom_site_type_symbol
_atom_site_label
_atom_site_fract_x
_atom_site_fract_y
_atom_site_fract_z
Si Si1 0.837065 0.186651 0.769352
Si Si2 0.169156 0.312995 0.754785
Si Si3 0.412363 0.313155 0.229100
Si Si4 0.070033 0.812863 0.989894
Si Si5 0.677139 0.311909 0.006451
Si Si6 0.578666 0.816425 0.241687
Si Si7 0.820092 0.687227 0.383131
Si Si8 0.567114 0.314531 0.373319
O O1 0.859342 0.256137 0.727716
O O2 0.759356 0.231607 0.696195
O O3 0.838909 0.000000 0.767458
O O4 0.893675 0.232408 0.896094
O O5 0.168768 0.500000 0.755644
O O6 0.108428 0.251030 0.725981
O O7 0.244434 0.258934 0.878325
O O8 0.164646 0.264802 0.673007
O O9 0.410906 0.500000 0.229131
O O10 0.489254 0.265322 0.299942
O O11 0.354838 0.259665 0.103014
O O12 0.994496 0.740690 0.882042
O O13 0.062655 0.000000 0.980161
O O14 0.123199 0.770015 0.997281
O O15 0.678851 0.500000 0.007583
O O16 0.581962 0.749528 0.319294
O O17 0.579858 0.000000 0.246072
O O18 0.823636 0.500000 0.389976
O O19 0.875541 0.756327 0.503180
O O20 0.567439 0.500000 0.370622
#
# Coordination Sequence:
#
# PCOD9176957 Si02
#       8
#     8   8   8   8   8   8   8   8
#     4  10  21  39  65  90 117 159 200 235 288 357
#     4  10  20  36  61  90 120 153 191 239 295 350
#     4  10  21  37  59  86 118 154 196 243 288 346
#     4  10  18  36  64  89 118 159 199 233 283 356
#     4   9  16  33  60  87 117 153 193 235 284 347
#     4  12  25  39  59  90 125 154 190 246 301 348
#     4  10  22  41  63  88 117 152 199 251 295 342
#     4  11  24  43  64  83 112 158 206 247 291 351
#
# _framework density 19.206800000000001
#
# number of rings (size 3 to 8) (size 9 to 14) (size 15 to 20)
#    0.000    1.750    2.500    2.250    0.000    5.000 
#    0.000    3.125    0.000    0.000    0.000    0.000 
#    0.000    0.000    0.000    0.000    0.000    0.000 
#
# Total GULP energy -178818.209572 kJ/mol
# GULP energy per Si atom -5588.069049 kJ/mol
# Density = 1.916308 g / cm^3
# Si number density = 19.206800 Si / 1000 Ang^3
#
#
#
# Elastic Constant Matrix: (Units=GPa)
#
#
# Indices 1 2 3 4 5 6 
#
# 1 164.2931 35.6818 67.3027 0.0000 -41.4807 0.0000
# 2 35.6818 22.1010 33.4973 0.0000 -8.9443 0.0000
# 3 67.3027 33.4973 136.4915 0.0000 -29.4307 0.0000
# 4 0.0000 0.0000 0.0000 26.6800 0.0000 -1.4033
# 5 -41.4807 -8.9443 -29.4307 0.0000 9.9635 0.0000
# 6 0.0000 0.0000 0.0000 -1.4033 0.0000 28.1054
#
#
#
# Elastic Compliance Matrix: (Units=1/GPa)
#
#
# Indices 1 2 3 4 5 6 
#
# 1 -0.013696 0.006639 -0.016211 0.000000 -0.098945 0.000000
# 2 0.006639 0.073346 -0.003076 0.000000 0.084396 0.000000
# 3 -0.016211 -0.003076 0.002553 0.000000 -0.062710 0.000000
# 4 0.000000 0.000000 0.000000 0.037580 0.000000 0.001876
# 5 -0.098945 0.084396 -0.062710 0.000000 -0.421041 0.000000
# 6 0.000000 0.000000 0.000000 0.001876 0.000000 0.035674
#
#
# Mechanical properties :
#
#
# Convention : Reuss Voigt Hill
#
# Bulk Modulus (GPa) = 27.09519 66.20547 46.65033
# Shear Modulus (GPa) = -20.16249 25.37668 2.60709
#
# Velocity S-wave (km/s) = -3.24351 3.63882 1.16633
# Velocity P-wave (km/s) = 0.33249 7.22491 5.11419
#
# Compressibility (1/GPa) = 0.03690692
#
# Stress axis : x y z
#
# Youngs Moduli (GPa) = -73.01413 13.63402 391.67983
#
# Poissons Ratio (x) = -0.09051 6.34940
# Poissons Ratio (y) = 0.48473 1.20488
# Poissons Ratio (z) = -1.18361 0.04194
#
# Static dielectric constant tensor:
#      x y z
#    x 1.658140 0.000000 0.002340 
#    y 0.000000 1.654560 0.000000 
#    z 0.002340 0.000000 1.650030 
# 
# From -- ./inp_files/295493.got.cif
#   From: 2010.05.17/outbox.cif.g08.bks.cpg/sg12_148_cif.got.tgz:295493.got - 2010.06.03 13:09:07.
