data_PCOD9176406
_publ_section_title
;
Structure prediction by ZEFSAII (Michael W. Deem and Ramdas Pophale) SiO2 
 PCOD9176406
Probable space group: C 2/M
;
_chemical_formula_sum "Si O2"
_cell_formula_units_Z 56
_cell_length_a 25.034239
_cell_length_b 8.733273
_cell_length_c 17.899281
_cell_angle_alpha 90.000000
_cell_angle_beta 49.492197
_cell_angle_gamma 90.000000
_cell_volume 2975.377056
_symmetry_space_group_name_H-M "C 2/M"
_symmetry_group_IT_number 12
_symmetry_cell_setting 'monoclinic'
loop_
_space_group_symop_operation_xyz
x,y,z
-x,y,-z
-x,-y,-z
x,-y,z
1/2+x,1/2+y,z
1/2-x,1/2+y,-z
1/2-x,1/2-y,-z
1/2+x,1/2-y,z
loop_
_atom_site_type_symbol
_atom_site_label
_atom_site_fract_x
_atom_site_fract_y
_atom_site_fract_z
Si Si1 0.904432 0.814852 0.814334
Si Si2 0.562758 0.317074 0.050940
Si Si3 0.839213 0.682804 0.160087
Si Si4 0.309724 0.686117 0.766670
Si Si5 0.596940 0.317534 0.755865
Si Si6 0.423006 0.684624 0.538607
Si Si7 0.442496 0.817903 0.361921
O O1 0.897612 0.775248 0.907761
O O2 0.841873 0.764128 0.816822
O O3 0.978262 0.748064 0.718385
O O4 0.910648 0.000000 0.804769
O O5 0.568347 0.500000 0.033814
O O6 0.481170 0.282055 0.140728
O O7 0.596322 0.232407 0.950870
O O8 0.837165 0.500000 0.168705
O O9 0.767930 0.737886 0.184441
O O10 0.848860 0.754450 0.232950
O O11 0.308257 0.500000 0.769876
O O12 0.364576 0.729941 0.652044
O O13 0.602059 0.500000 0.744373
O O14 0.599551 0.243330 0.671831
O O15 0.500000 0.726760 0.500000
O O16 0.421602 0.500000 0.532380
O O17 0.412670 0.758117 0.467246
O O18 0.444921 0.000000 0.358399
#
# Coordination Sequence:
#
# PCOD9176406 Si02
#       7
#     8   8   8   8   8   8   8
#     4   9  17  35  57  78 107 148 189 218 257 322
#     4   9  19  34  56  80 104 140 189 230 261 316
#     4  11  22  35  53  80 114 144 177 228 280 316
#     4   9  19  35  55  80 110 146 185 221 262 322
#     4  10  21  39  60  78 103 144 192 225 259 323
#     4  10  18  34  61  82 104 146 190 215 254 326
#     4  11  21  33  54  87 117 134 169 232 287 314
#
# _framework density 18.821142999999999
#
# number of rings (size 3 to 8) (size 9 to 14) (size 15 to 20)
#    0.000    2.143    1.429    3.429    0.000    5.429 
#    0.000    3.571    0.000    0.000    0.000    0.000 
#    0.000    0.000    0.000    0.000    0.000    0.000 
#
# Total GULP energy -156325.144690 kJ/mol
# GULP energy per Si atom -5583.040882 kJ/mol
# Density = 1.877831 g / cm^3
# Si number density = 18.821143 Si / 1000 Ang^3
#
#
#
# Elastic Constant Matrix: (Units=GPa)
#
#
# Indices 1 2 3 4 5 6 
#
# 1 112.0711 21.5282 8.2751 -0.0001 30.0120 -0.0003
# 2 21.5282 26.3667 11.6442 0.0043 10.3481 0.0028
# 3 8.2751 11.6442 29.0382 0.0007 19.5998 0.0001
# 4 -0.0001 0.0043 0.0007 -36.9983 0.0002 -25.2242
# 5 30.0120 10.3481 19.5998 0.0002 28.3458 0.0001
# 6 -0.0003 0.0028 0.0001 -25.2242 0.0001 5.6387
#
#
#
# Elastic Compliance Matrix: (Units=1/GPa)
#
#
# Indices 1 2 3 4 5 6 
#
# 1 0.016451 -0.010965 0.016433 -0.000001 -0.024778 0.000000
# 2 -0.010965 0.054284 -0.024570 0.000006 0.008781 0.000000
# 3 0.016433 -0.024570 0.084937 -0.000003 -0.067159 0.000001
# 4 -0.000001 0.000006 -0.000003 -0.006674 0.000001 -0.029855
# 5 -0.024778 0.008781 -0.067159 0.000001 0.104745 -0.000001
# 6 0.000000 0.000000 0.000001 -0.029855 -0.000001 0.043791
#
#
# Mechanical properties :
#
#
# Convention : Reuss Voigt Hill
#
# Bulk Modulus (GPa) = 8.51294 27.81901 18.16597
# Shear Modulus (GPa) = 13.33710 7.79914 10.56812
#
# Velocity S-wave (km/s) = 2.66489 2.03785 2.37218
# Velocity P-wave (km/s) = 3.74189 4.51109 4.14437
#
# Compressibility (1/GPa) = 0.11746830
#
# Stress axis : x y z
#
# Youngs Moduli (GPa) = 60.78578 18.42169 11.77341
#
# Poissons Ratio (x) = 0.20199 -0.19347
# Poissons Ratio (y) = 0.66652 0.28927
# Poissons Ratio (z) = -0.99889 0.45262
#
# Static dielectric constant tensor:
#      x y z
#    x 1.676920 0.000000 0.007750 
#    y 0.000000 1.630060 0.000000 
#    z 0.007750 0.000000 1.622720 
# 
# From -- ./inp_files/287314.got.cif
#   From: 2010.05.17/outbox.cif.g08.bks.cpg/sg12_144_cif.got.tgz:287314.got - 2010.06.03 13:09:07.
