data_PCOD9176230
_publ_section_title
;
Structure prediction by ZEFSAII (Michael W. Deem and Ramdas Pophale) SiO2 
 PCOD9176230
Probable space group: C 2/M
;
_chemical_formula_sum "Si O2"
_cell_formula_units_Z 52
_cell_length_a 12.155279
_cell_length_b 18.137863
_cell_length_c 15.027151
_cell_angle_alpha 90.000000
_cell_angle_beta 123.444579
_cell_angle_gamma 90.000000
_cell_volume 2764.471040
_symmetry_space_group_name_H-M "C 2/M"
_symmetry_group_IT_number 12
_symmetry_cell_setting 'monoclinic'
loop_
_space_group_symop_operation_xyz
x,y,z
-x,y,-z
-x,-y,-z
x,-y,z
1/2+x,1/2+y,z
1/2-x,1/2+y,-z
1/2-x,1/2-y,-z
1/2+x,1/2-y,z
loop_
_atom_site_type_symbol
_atom_site_label
_atom_site_fract_x
_atom_site_fract_y
_atom_site_fract_z
Si Si1 0.372550 0.759243 0.119520
Si Si2 0.000000 0.114770 0.500000
Si Si3 0.333214 0.085255 0.188265
Si Si4 0.675462 0.418987 0.418178
Si Si5 0.871951 0.229192 0.320425
Si Si6 0.456314 0.864675 0.580092
Si Si7 0.368372 0.667461 0.776213
O O1 0.376904 0.847905 0.141267
O O2 0.346039 0.720656 0.203854
O O3 0.504287 0.717282 0.143721
O O4 0.250000 0.750000 0.000000
O O5 0.923762 0.075405 0.544520
O O6 0.896546 0.163061 0.397108
O O7 0.451824 0.088550 0.313121
O O8 0.199216 0.115789 0.177505
O O9 0.317726 0.000000 0.150839
O O10 0.719988 0.500000 0.408605
O O11 0.802226 0.377268 0.513008
O O12 0.611219 0.379506 0.304336
O O13 0.750396 0.277226 0.300406
O O14 0.002667 0.280235 0.383248
O O15 0.500000 0.882609 0.500000
#
# Coordination Sequence:
#
# PCOD9176230 Si02
#       7
#     8   4   8   8   8   8   8
#     4  10  22  41  62  87 117 157 204 252 312 369
#     4  12  23  34  52  82 127 152 208 224 305 364
#     4  10  22  38  61  97 127 150 204 263 313 359
#     4  12  23  34  53  82 129 167 197 242 303 376
#     4  10  21  35  58  90 111 150 195 258 287 365
#     4  10  18  34  57  90 118 154 194 239 308 365
#     4  10  20  37  61  86 116 157 200 251 309 360
#
# _framework density 18.810110000000002
#
# number of rings (size 3 to 8) (size 9 to 14) (size 15 to 20)
#    0.000    1.846    5.385    1.154    4.308    4.308 
#    0.000    2.308    0.000    0.000    0.000    4.308 
#    0.000    0.000    0.000    0.000    0.000    0.000 
#
# Total GULP energy -144794.283879 kJ/mol
# GULP energy per Si atom -5569.010918 kJ/mol
# Density = 1.876730 g / cm^3
# Si number density = 18.810110 Si / 1000 Ang^3
#
#
#
# Elastic Constant Matrix: (Units=GPa)
#
#
# Indices 1 2 3 4 5 6 
#
# 1 51.1260 11.3203 3.0547 0.0000 17.3592 0.0000
# 2 11.3203 81.9464 38.9152 0.0000 12.6065 0.0000
# 3 3.0547 38.9152 82.6636 0.0000 21.3081 0.0000
# 4 0.0000 0.0000 0.0000 -101.3782 0.0000 113.1201
# 5 17.3592 12.6065 21.3081 0.0000 16.4270 0.0000
# 6 0.0000 0.0000 0.0000 113.1201 0.0000 -105.5600
#
#
#
# Elastic Compliance Matrix: (Units=1/GPa)
#
#
# Indices 1 2 3 4 5 6 
#
# 1 0.039479 -0.003746 0.015500 0.000000 -0.058950 0.000000
# 2 -0.003746 0.016223 -0.007977 0.000000 0.001856 0.000000
# 3 0.015500 -0.007977 0.026928 0.000000 -0.045187 0.000000
# 4 0.000000 0.000000 0.000000 0.050395 0.000000 0.054004
# 5 -0.058950 0.001856 -0.045187 0.000000 0.180360 0.000000
# 6 0.000000 0.000000 0.000000 0.054004 0.000000 0.048398
#
#
# Mechanical properties :
#
#
# Convention : Reuss Voigt Hill
#
# Bulk Modulus (GPa) = 11.08850 35.81293 23.45071
# Shear Modulus (GPa) = 13.01102 -27.27252 -7.13075
#
# Velocity S-wave (km/s) = 2.63288 -3.81187 -1.94914
# Velocity P-wave (km/s) = 3.89236 0.54154 2.72555
#
# Compressibility (1/GPa) = 0.09018356
#
# Stress axis : x y z
#
# Youngs Moduli (GPa) = 25.33023 61.63944 37.13657
#
# Poissons Ratio (x) = 0.23088 -0.57562
# Poissons Ratio (y) = 0.09488 0.29625
# Poissons Ratio (z) = -0.39262 0.49172
#
# Static dielectric constant tensor:
#      x y z
#    x 1.701660 0.000000 -0.008640 
#    y 0.000000 1.701840 0.000000 
#    z -0.008640 0.000000 1.637780 
# 
# From -- ./inp_files/207761.got.cif
#   From: 2010.05.17/outbox.cif.g08.bks.cpg/sg12_104_cif.got.tgz:207761.got - 2010.06.03 13:09:07.
