data_PCOD9176805
_publ_section_title
;
Structure prediction by ZEFSAII (Michael W. Deem and Ramdas Pophale) SiO2 
 PCOD9176805
Probable space group: C 2/M
;
_chemical_formula_sum "Si O2"
_cell_formula_units_Z 48
_cell_length_a 20.302729
_cell_length_b 13.863521
_cell_length_c 11.782829
_cell_angle_alpha 90.000000
_cell_angle_beta 42.594927
_cell_angle_gamma 90.000000
_cell_volume 2244.630257
_symmetry_space_group_name_H-M "C 2/M"
_symmetry_group_IT_number 12
_symmetry_cell_setting 'monoclinic'
loop_
_space_group_symop_operation_xyz
x,y,z
-x,y,-z
-x,-y,-z
x,-y,z
1/2+x,1/2+y,z
1/2-x,1/2+y,-z
1/2-x,1/2-y,-z
1/2+x,1/2-y,z
loop_
_atom_site_type_symbol
_atom_site_label
_atom_site_fract_x
_atom_site_fract_y
_atom_site_fract_z
Si Si1 0.107537 0.326554 0.895041
Si Si2 0.463799 0.297231 0.426081
Si Si3 0.853830 0.298255 0.897927
Si Si4 0.135195 0.606108 0.349201
Si Si5 0.654835 0.396677 0.810116
Si Si6 0.280606 0.352423 0.515191
O O1 0.106762 0.208795 0.880615
O O2 0.187829 0.374433 0.711165
O O3 0.139001 0.340262 0.985491
O O4 0.000000 0.361232 0.000000
O O5 0.500000 0.340938 0.500000
O O6 0.558191 0.278830 0.229019
O O7 0.418269 0.192911 0.518682
O O8 0.376343 0.348685 0.472236
O O9 0.873039 0.375106 0.774082
O O10 0.750000 0.250000 0.000000
O O11 0.100500 0.500000 0.426646
O O12 0.248487 0.612091 0.236541
O O13 0.606555 0.500000 0.902886
O O14 0.691320 0.405699 0.634743
O O15 0.250000 0.250000 0.500000
#
# Coordination Sequence:
#
# PCOD9176805 Si02
#       6
#     8   8   8   8   8   8
#     4  11  21  34  58  84 112 141 182 228 279 323
#     4  10  19  33  57  80 108 145 186 223 263 325
#     4  11  20  34  53  83 114 142 177 227 277 324
#     4  10  20  36  58  83 109 145 185 225 269 322
#     4  10  20  36  58  80 109 144 186 228 267 322
#     4  10  18  36  56  79 107 147 187 220 265 326
#
# _framework density 21.384369
#
# number of rings (size 3 to 8) (size 9 to 14) (size 15 to 20)
#    0.000    1.667    5.000    3.000    0.000    3.333 
#    0.000    0.833    0.000    1.500    0.000    0.000 
#    0.000    0.000    0.000    0.000    0.000    0.000 
#
# Total GULP energy -133835.256905 kJ/mol
# GULP energy per Si atom -5576.469038 kJ/mol
# Density = 2.133570 g / cm^3
# Si number density = 21.384369 Si / 1000 Ang^3
#
#
#
# Elastic Constant Matrix: (Units=GPa)
#
#
# Indices 1 2 3 4 5 6 
#
# 1 152.0040 -8.8363 46.7475 0.0000 -5.6975 0.0000
# 2 -8.8363 46.4346 -19.9525 0.0000 1.1307 0.0000
# 3 46.7475 -19.9525 84.4163 0.0000 -4.5806 0.0000
# 4 0.0000 0.0000 0.0000 7.7327 0.0000 4.6992
# 5 -5.6975 1.1307 -4.5806 0.0000 53.4537 0.0000
# 6 0.0000 0.0000 0.0000 4.6992 0.0000 70.6442
#
#
#
# Elastic Compliance Matrix: (Units=1/GPa)
#
#
# Indices 1 2 3 4 5 6 
#
# 1 0.007948 -0.000422 -0.004476 0.000000 0.000473 0.000000
# 2 -0.000422 0.023993 0.005902 0.000000 -0.000047 0.000000
# 3 -0.004476 0.005902 0.015760 0.000000 0.000749 0.000000
# 4 0.000000 0.000000 0.000000 0.134768 0.000000 -0.008965
# 5 0.000473 -0.000047 0.000749 0.000000 0.018823 0.000000
# 6 0.000000 0.000000 0.000000 -0.008965 0.000000 0.014752
#
#
# Mechanical properties :
#
#
# Convention : Reuss Voigt Hill
#
# Bulk Modulus (GPa) = 20.11686 35.41914 27.76800
# Shear Modulus (GPa) = 21.68201 44.02588 32.85394
#
# Velocity S-wave (km/s) = 3.18766 4.54231 3.92389
# Velocity P-wave (km/s) = 4.79332 6.64147 5.79159
#
# Compressibility (1/GPa) = 0.04970955
#
# Stress axis : x y z
#
# Youngs Moduli (GPa) = 125.81107 41.67964 63.45078
#
# Poissons Ratio (x) = 0.01760 0.28399
# Poissons Ratio (y) = 0.05311 -0.37449
# Poissons Ratio (z) = 0.56310 -0.24600
#
# Static dielectric constant tensor:
#      x y z
#    x 1.783080 0.000000 -0.021510 
#    y 0.000000 1.790110 0.000000 
#    z -0.021510 0.000000 1.802960 
# 
# From -- ./inp_files/167540.got.cif
#   From: 2010.05.17/outbox.cif.g08.bks.cpg/sg12_84_cif.got.tgz:167540.got - 2010.06.03 13:09:07.
