data_PCOD9176649
_publ_section_title
;
Structure prediction by ZEFSAII (Michael W. Deem and Ramdas Pophale) SiO2 
 PCOD9176649
Probable space group: C 2/M
;
_chemical_formula_sum "Si O2"
_cell_formula_units_Z 64
_cell_length_a 20.107390
_cell_length_b 7.599027
_cell_length_c 19.543881
_cell_angle_alpha 90.000000
_cell_angle_beta 93.664881
_cell_angle_gamma 90.000000
_cell_volume 2980.131657
_symmetry_space_group_name_H-M "C 2/M"
_symmetry_group_IT_number 12
_symmetry_cell_setting 'monoclinic'
loop_
_space_group_symop_operation_xyz
x,y,z
-x,y,-z
-x,-y,-z
x,-y,z
1/2+x,1/2+y,z
1/2-x,1/2+y,-z
1/2-x,1/2-y,-z
1/2+x,1/2-y,z
loop_
_atom_site_type_symbol
_atom_site_label
_atom_site_fract_x
_atom_site_fract_y
_atom_site_fract_z
Si Si1 0.050662 0.704260 0.558187
Si Si2 0.956093 0.295303 0.289268
Si Si3 0.338777 0.298235 0.184109
Si Si4 0.301782 0.709878 0.443695
Si Si5 0.401039 0.289509 0.759145
Si Si6 0.244987 0.710229 0.295057
Si Si7 0.588141 0.284709 0.940538
Si Si8 0.934245 0.785966 0.910234
O O1 0.030289 0.500000 0.566120
O O2 0.050334 0.780432 0.634683
O O3 0.125755 0.713009 0.536515
O O4 0.000000 0.783734 0.500000
O O5 0.935310 0.500000 0.288309
O O6 0.906766 0.202551 0.233098
O O7 0.032259 0.282672 0.270904
O O8 0.318402 0.500000 0.169485
O O9 0.283393 0.217703 0.230692
O O10 0.359523 0.219518 0.112341
O O11 0.309373 0.500000 0.439716
O O12 0.250000 0.750000 0.500000
O O13 0.275395 0.777006 0.368379
O O14 0.407451 0.500000 0.759881
O O15 0.333285 0.242229 0.716567
O O16 0.399920 0.227415 0.838107
O O17 0.256140 0.500000 0.296041
O O18 0.589335 0.500000 0.938830
O O19 0.512373 0.234086 0.915287
O O20 0.597276 0.228878 0.019769
O O21 0.933533 0.000000 0.911025
#
# Coordination Sequence:
#
# PCOD9176649 Si02
#       8
#     8   8   8   8   8   8   8   8
#     4  10  23  42  62  86 116 149 184 229 285 338
#     4  11  22  36  58  85 116 146 183 236 287 333
#     4  10  18  35  60  83 108 146 194 234 275 337
#     4  11  24  42  63  86 116 152 191 232 275 335
#     4  11  22  36  57  83 114 150 193 235 275 335
#     4  10  23  40  57  80 115 152 186 230 284 333
#     4   8  13  25  51  81 108 139 183 233 280 329
#     4   8  14  26  48  81 111 140 182 234 279 325
#
# _framework density 21.475562
#
# number of rings (size 3 to 8) (size 9 to 14) (size 15 to 20)
#    0.000    2.125    2.500    1.875    1.750    2.250 
#    0.000    0.625    0.000    2.250    0.000    0.000 
#    0.000    0.000    0.000    0.000    0.000    0.000 
#
# Total GULP energy -178699.219938 kJ/mol
# GULP energy per Si atom -5584.350623 kJ/mol
# Density = 2.142668 g / cm^3
# Si number density = 21.475562 Si / 1000 Ang^3
#
#
#
# Elastic Constant Matrix: (Units=GPa)
#
#
# Indices 1 2 3 4 5 6 
#
# 1 75.6870 -19.2385 16.9554 0.0000 -3.9400 0.0000
# 2 -19.2385 53.2404 -2.8903 0.0000 0.1100 0.0000
# 3 16.9554 -2.8903 90.3034 0.0000 -16.9486 0.0000
# 4 0.0000 0.0000 0.0000 -2.1579 0.0000 -9.2920
# 5 -3.9400 0.1100 -16.9486 0.0000 37.9739 0.0000
# 6 0.0000 0.0000 0.0000 -9.2920 0.0000 8.7677
#
#
#
# Elastic Compliance Matrix: (Units=1/GPa)
#
#
# Indices 1 2 3 4 5 6 
#
# 1 0.015174 0.005341 -0.002604 0.000000 0.000397 0.000000
# 2 0.005341 0.020697 -0.000270 0.000000 0.000374 0.000000
# 3 -0.002604 -0.000270 0.012555 0.000000 0.005334 0.000000
# 4 0.000000 0.000000 0.000000 -0.083294 0.000000 -0.088275
# 5 0.000397 0.000374 0.005334 0.000000 0.028755 0.000000
# 6 0.000000 0.000000 0.000000 -0.088275 0.000000 0.020500
#
#
# Mechanical properties :
#
#
# Convention : Reuss Voigt Hill
#
# Bulk Modulus (GPa) = 18.74055 23.20935 20.97495
# Shear Modulus (GPa) = 183.55111 23.87701 103.71406
#
# Velocity S-wave (km/s) = 9.25502 3.33802 6.95693
# Velocity P-wave (km/s) = 11.08839 5.06826 8.62090
#
# Compressibility (1/GPa) = 0.05336024
#
# Stress axis : x y z
#
# Youngs Moduli (GPa) = 65.90309 48.31564 79.64860
#
# Poissons Ratio (x) = -0.25805 0.20737
# Poissons Ratio (y) = -0.35198 0.02153
# Poissons Ratio (z) = 0.17159 0.01306
#
# Static dielectric constant tensor:
#      x y z
#    x 1.733780 0.000000 -0.015450 
#    y 0.000000 1.838840 0.000000 
#    z -0.015450 0.000000 1.808470 
# 
# From -- ./inp_files/314061.got.cif
#   From: 2010.05.17/outbox.cif.g08.bks.cpg/sg12_158_cif.got.tgz:314061.got - 2010.06.03 13:09:07.
