data_PCOD9176629
_publ_section_title
;
Structure prediction by ZEFSAII (Michael W. Deem and Ramdas Pophale) SiO2 
 PCOD9176629
Probable space group: C 2/M
;
_chemical_formula_sum "Si O2"
_cell_formula_units_Z 48
_cell_length_a 20.107388
_cell_length_b 15.606789
_cell_length_c 9.042289
_cell_angle_alpha 90.000000
_cell_angle_beta 104.708034
_cell_angle_gamma 90.000000
_cell_volume 2744.595389
_symmetry_space_group_name_H-M "C 2/M"
_symmetry_group_IT_number 12
_symmetry_cell_setting 'monoclinic'
loop_
_space_group_symop_operation_xyz
x,y,z
-x,y,-z
-x,-y,-z
x,-y,z
1/2+x,1/2+y,z
1/2-x,1/2+y,-z
1/2-x,1/2-y,-z
1/2+x,1/2-y,z
loop_
_atom_site_type_symbol
_atom_site_label
_atom_site_fract_x
_atom_site_fract_y
_atom_site_fract_z
Si Si1 0.927662 0.000000 0.372494
Si Si2 0.183981 0.695495 0.406520
Si Si3 0.561974 0.334458 0.826275
Si Si4 0.401542 0.669673 0.816612
Si Si5 0.197159 0.500000 0.441715
Si Si6 0.423839 0.000000 0.391942
Si Si7 0.423658 0.815187 0.384594
Si Si8 0.154132 0.000000 0.374180
O O1 0.925958 0.917894 0.266240
O O2 0.000000 0.000000 0.500000
O O3 0.870399 0.000000 0.468478
O O4 0.250000 0.750000 0.500000
O O5 0.144945 0.750412 0.259555
O O6 0.199055 0.595844 0.369899
O O7 0.131205 0.692688 0.514913
O O8 0.480409 0.320643 0.807621
O O9 0.587751 0.255505 0.744564
O O10 0.596244 0.341565 0.005943
O O11 0.374106 0.584490 0.720983
O O12 0.128563 0.500000 0.500847
O O13 0.263949 0.500000 0.583213
O O14 0.500000 0.000000 0.500000
O O15 0.416133 0.909427 0.308969
O O16 0.500000 0.805856 0.500000
#
# Coordination Sequence:
#
# PCOD9176629 Si02
#       8
#     4   8   8   8   4   4   8   4
#     4  12  21  33  57  90 117 154 197 238 281 341
#     4  11  21  37  61  86 112 151 199 241 288 342
#     4  11  22  36  56  88 122 152 189 237 297 351
#     4  11  22  37  57  86 121 155 186 240 299 347
#     4  10  22  35  59  87 112 146 194 245 284 334
#     4   8  18  34  58  83 104 138 191 247 286 316
#     4  10  18  35  59  85 109 144 197 241 277 341
#     4  12  21  36  61  82 117 157 195 238 284 345
#
# _framework density 17.488916
#
# number of rings (size 3 to 8) (size 9 to 14) (size 15 to 20)
#    0.000    1.333    5.000    2.000    0.000    1.333 
#    0.000    1.667    0.000    2.000    0.000    0.000 
#    0.000    0.000    0.000    0.000    0.000    0.000 
#
# Total GULP energy -133824.821871 kJ/mol
# GULP energy per Si atom -5576.034245 kJ/mol
# Density = 1.744911 g / cm^3
# Si number density = 17.488916 Si / 1000 Ang^3
#
#
#
# Elastic Constant Matrix: (Units=GPa)
#
#
# Indices 1 2 3 4 5 6 
#
# 1 75.7804 19.0568 25.6431 0.0000 11.4926 0.0000
# 2 19.0568 186.0436 75.9712 0.0000 -1.2871 0.0000
# 3 25.6431 75.9712 111.1466 0.0000 -0.3641 0.0000
# 4 0.0000 0.0000 0.0000 -21.6732 0.0000 -7.1886
# 5 11.4926 -1.2871 -0.3641 0.0000 22.1877 0.0000
# 6 0.0000 0.0000 0.0000 -7.1886 0.0000 25.0546
#
#
#
# Elastic Compliance Matrix: (Units=1/GPa)
#
#
# Indices 1 2 3 4 5 6 
#
# 1 0.015676 -0.000242 -0.003478 0.000000 -0.008191 0.000000
# 2 -0.000242 0.007463 -0.005043 0.000000 0.000476 0.000000
# 3 -0.003478 -0.005043 0.013253 0.000000 0.001726 0.000000
# 4 0.000000 0.000000 0.000000 -0.042130 0.000000 -0.012088
# 5 -0.008191 0.000476 0.001726 0.000000 0.049369 0.000000
# 6 0.000000 0.000000 0.000000 -0.012088 0.000000 0.036445
#
#
# Mechanical properties :
#
#
# Convention : Reuss Voigt Hill
#
# Bulk Modulus (GPa) = 53.01106 68.25697 60.63401
# Shear Modulus (GPa) = 48.12816 21.93377 35.03097
#
# Velocity S-wave (km/s) = 5.25157 3.54524 4.48039
# Velocity P-wave (km/s) = 8.19445 7.47474 7.84286
#
# Compressibility (1/GPa) = 0.01886399
#
# Stress axis : x y z
#
# Youngs Moduli (GPa) = 63.79160 133.99985 75.45715
#
# Poissons Ratio (x) = 0.03245 0.26244
# Poissons Ratio (y) = 0.01545 0.38057
# Poissons Ratio (z) = 0.22187 0.67583
#
# Static dielectric constant tensor:
#      x y z
#    x 1.599640 0.000000 0.006650 
#    y 0.000000 1.594050 0.000000 
#    z 0.006650 0.000000 1.542530 
# 
# From -- ./inp_files/85762.got.cif
#   From: 2010.05.17/outbox.cif.g08.bks.cpg/sg12_43_cif.got.tgz:85762.got - 2010.06.03 13:09:07.
