data_PCOD9176418
_publ_section_title
;
Structure prediction by ZEFSAII (Michael W. Deem and Ramdas Pophale) SiO2 
 PCOD9176418
Probable space group: C 2/M
;
_chemical_formula_sum "Si O2"
_cell_formula_units_Z 50
_cell_length_a 20.045033
_cell_length_b 7.418705
_cell_length_c 17.346681
_cell_angle_alpha 90.000000
_cell_angle_beta 121.419109
_cell_angle_gamma 90.000000
_cell_volume 2201.365702
_symmetry_space_group_name_H-M "C 2/M"
_symmetry_group_IT_number 12
_symmetry_cell_setting 'monoclinic'
loop_
_space_group_symop_operation_xyz
x,y,z
-x,y,-z
-x,-y,-z
x,-y,z
1/2+x,1/2+y,z
1/2-x,1/2+y,-z
1/2-x,1/2-y,-z
1/2+x,1/2-y,z
loop_
_atom_site_type_symbol
_atom_site_label
_atom_site_fract_x
_atom_site_fract_y
_atom_site_fract_z
Si Si1 0.758359 0.785065 0.914977
Si Si2 0.390854 0.292123 0.884231
Si Si3 0.563125 0.220039 0.367292
Si Si4 0.806366 0.283112 0.675355
Si Si5 0.000000 0.500000 0.000000
Si Si6 0.627206 0.208406 0.565931
Si Si7 0.609370 0.779461 0.729091
O O1 0.838902 0.719850 0.925067
O O2 0.682825 0.716334 0.823232
O O3 0.760639 0.000000 0.904735
O O4 0.750000 0.750000 0.000000
O O5 0.412944 0.500000 0.908511
O O6 0.334794 0.280282 0.776235
O O7 0.463057 0.158707 0.921636
O O8 0.630316 0.278044 0.349257
O O9 0.581750 0.284163 0.465190
O O10 0.475700 0.272253 0.290975
O O11 0.565683 0.000000 0.370135
O O12 0.804091 0.500000 0.674540
O O13 0.719575 0.216800 0.604891
O O14 0.615398 0.284005 0.644262
O O15 0.602409 0.000000 0.556610
O O16 0.612722 0.000000 0.730748
#
# Coordination Sequence:
#
# PCOD9176418 Si02
#       7
#     8   8   8   8   2   8   8
#     4  10  22  39  64  95 125 165 217 271 326 395
#     4  11  24  45  67  98 131 171 220 268 326 399
#     4   9  19  32  55  93 125 160 217 267 319 383
#     4  11  21  36  58  90 129 172 213 258 323 390
#     4  12  26  44  72  98 128 174 216 270 336 382
#     4  10  18  34  61  87 120 167 212 265 321 384
#     4   9  17  34  58  86 120 158 206 269 321 379
#
# _framework density 22.713173000000001
#
# number of rings (size 3 to 8) (size 9 to 14) (size 15 to 20)
#    0.000    1.920    2.400    1.680    1.120    3.200 
#    2.880    0.800    0.000    5.760    0.000    0.000 
#    0.000    0.000    0.000    0.000    0.000    0.000 
#
# Total GULP energy -139521.187438 kJ/mol
# GULP energy per Si atom -5580.847498 kJ/mol
# Density = 2.266148 g / cm^3
# Si number density = 22.713173 Si / 1000 Ang^3
#
#
#
# Elastic Constant Matrix: (Units=GPa)
#
#
# Indices 1 2 3 4 5 6 
#
# 1 84.0865 -5.0285 14.8680 0.0000 -4.6385 0.0000
# 2 -5.0285 106.5118 9.8847 -0.0001 6.4592 0.0001
# 3 14.8680 9.8847 76.8527 0.0000 -4.6881 0.0000
# 4 0.0000 -0.0001 0.0000 90.5812 0.0000 -40.9655
# 5 -4.6385 6.4592 -4.6881 0.0000 39.1311 0.0000
# 6 0.0000 0.0001 0.0000 -40.9655 0.0000 30.3392
#
#
#
# Elastic Compliance Matrix: (Units=1/GPa)
#
#
# Indices 1 2 3 4 5 6 
#
# 1 0.012426 0.000749 -0.002436 0.000000 0.001058 0.000000
# 2 0.000749 0.009664 -0.001491 0.000000 -0.001685 0.000000
# 3 -0.002436 -0.001491 0.013773 0.000000 0.001607 0.000000
# 4 0.000000 0.000000 0.000000 0.028355 0.000000 0.038286
# 5 0.001058 -0.001685 0.001607 0.000000 0.026151 0.000000
# 6 0.000000 0.000000 0.000000 0.038286 0.000000 0.084656
#
#
# Mechanical properties :
#
#
# Convention : Reuss Voigt Hill
#
# Bulk Modulus (GPa) = 33.88912 34.09995 33.99453
# Shear Modulus (GPa) = 26.14830 48.52544 37.33687
#
# Velocity S-wave (km/s) = 3.39667 4.62718 4.05883
# Velocity P-wave (km/s) = 5.50782 6.60255 6.07987
#
# Compressibility (1/GPa) = 0.02950800
#
# Stress axis : x y z
#
# Youngs Moduli (GPa) = 80.47446 103.47151 72.60636
#
# Poissons Ratio (x) = -0.07745 0.17685
# Poissons Ratio (y) = -0.06024 0.10823
# Poissons Ratio (z) = 0.19602 0.15424
#
# Static dielectric constant tensor:
#      x y z
#    x 1.872660 0.000000 0.008590 
#    y 0.000000 1.865620 0.000000 
#    z 0.008590 0.000000 1.818920 
# 
# From -- ./inp_files/275791.got.cif
#   From: 2010.05.17/outbox.cif.g08.bks.cpg/sg12_138_cif.got.tgz:275791.got - 2010.06.03 13:09:07.
