data_PCOD9176701
_publ_section_title
;
Structure prediction by ZEFSAII (Michael W. Deem and Ramdas Pophale) SiO2 
 PCOD9176701
Probable space group: C 2/M
;
_chemical_formula_sum "Si O2"
_cell_formula_units_Z 60
_cell_length_a 8.057544
_cell_length_b 26.762835
_cell_length_c 18.248625
_cell_angle_alpha 90.000000
_cell_angle_beta 135.514030
_cell_angle_gamma 90.000000
_cell_volume 2757.518945
_symmetry_space_group_name_H-M "C 2/M"
_symmetry_group_IT_number 12
_symmetry_cell_setting 'monoclinic'
loop_
_space_group_symop_operation_xyz
x,y,z
-x,y,-z
-x,-y,-z
x,-y,z
1/2+x,1/2+y,z
1/2-x,1/2+y,-z
1/2-x,1/2-y,-z
1/2+x,1/2-y,z
loop_
_atom_site_type_symbol
_atom_site_label
_atom_site_fract_x
_atom_site_fract_y
_atom_site_fract_z
Si Si1 0.107724 0.574405 0.920473
Si Si2 0.440588 0.284042 0.894067
Si Si3 0.712783 0.863752 0.716553
Si Si4 0.926850 0.941274 0.562629
Si Si5 0.442727 0.944661 0.722199
Si Si6 0.618049 0.444531 0.849959
Si Si7 0.000000 0.622713 0.500000
Si Si8 0.062332 0.678219 0.945723
O O1 0.126649 0.552320 0.846334
O O2 0.862208 0.557808 0.881293
O O3 0.101463 0.634096 0.902610
O O4 0.310030 0.561494 0.042015
O O5 0.271712 0.319814 0.793722
O O6 0.404091 0.224691 0.870631
O O7 0.500000 0.292610 0.000000
O O8 0.701957 0.296202 0.948476
O O9 0.526533 0.902296 0.693740
O O10 0.611769 0.848236 0.605108
O O11 0.944581 0.898693 0.777383
O O12 0.715993 0.910191 0.533206
O O13 0.000000 0.931452 0.500000
O O14 0.188077 0.932344 0.678436
O O15 0.872274 0.000000 0.553577
O O16 0.422102 0.000000 0.681513
O O17 0.511321 0.500000 0.804344
O O18 0.000000 0.648659 0.000000
#
# Coordination Sequence:
#
# PCOD9176701 Si02
#       8
#     8   8   8   8   8   8   4   8
#     4  11  19  36  57  86 122 161 204 259 324 396
#     4  10  21  37  60  91 121 155 206 267 327 387
#     4  12  24  39  57  89 126 169 221 266 322 386
#     4  10  21  40  61  88 120 165 230 285 317 368
#     4  11  23  37  57  87 128 171 215 267 325 385
#     4  11  22  35  54  84 125 166 209 251 312 384
#     4  12  25  40  66  90 126 178 224 278 329 382
#     4  10  18  35  61  88 115 155 204 261 321 382
#
# _framework density 21.758689
#
# number of rings (size 3 to 8) (size 9 to 14) (size 15 to 20)
#    0.000    1.200    4.000    3.800    0.000    2.667 
#    0.000    1.333    0.000    0.000    1.733   14.933 
#    0.000    0.000    0.000    0.000    0.000    0.000 
#
# Total GULP energy -167130.222672 kJ/mol
# GULP energy per Si atom -5571.007422 kJ/mol
# Density = 2.170917 g / cm^3
# Si number density = 21.758689 Si / 1000 Ang^3
#
#
#
# Elastic Constant Matrix: (Units=GPa)
#
#
# Indices 1 2 3 4 5 6 
#
# 1 56.8995 13.5948 16.7048 0.0000 1.6465 0.0000
# 2 13.5948 141.8483 26.4432 0.0000 -7.7150 0.0000
# 3 16.7048 26.4432 114.0884 0.0000 -26.4833 0.0000
# 4 0.0000 0.0000 0.0000 12.1877 0.0000 0.8760
# 5 1.6465 -7.7150 -26.4833 0.0000 40.9504 0.0000
# 6 0.0000 0.0000 0.0000 0.8760 0.0000 18.2749
#
#
#
# Elastic Compliance Matrix: (Units=1/GPa)
#
#
# Indices 1 2 3 4 5 6 
#
# 1 0.018924 -0.001391 -0.003160 0.000000 -0.003067 0.000000
# 2 -0.001391 0.007474 -0.001399 0.000000 0.000559 0.000000
# 3 -0.003160 -0.001399 0.011202 0.000000 0.007108 0.000000
# 4 0.000000 0.000000 0.000000 0.082334 0.000000 -0.003947
# 5 -0.003067 0.000559 0.007108 0.000000 0.029245 0.000000
# 6 0.000000 0.000000 0.000000 -0.003947 0.000000 0.054909
#
#
# Mechanical properties :
#
#
# Convention : Reuss Voigt Hill
#
# Bulk Modulus (GPa) = 38.91132 47.36910 43.14021
# Shear Modulus (GPa) = 22.26618 31.35548 26.81083
#
# Velocity S-wave (km/s) = 3.20241 3.80024 3.51406
# Velocity P-wave (km/s) = 5.62102 6.40884 6.02782
#
# Compressibility (1/GPa) = 0.02569946
#
# Stress axis : x y z
#
# Youngs Moduli (GPa) = 52.84350 133.79144 89.26918
#
# Poissons Ratio (x) = 0.18615 0.28211
# Poissons Ratio (y) = 0.07352 0.12487
# Poissons Ratio (z) = 0.16700 0.18715
#
# Static dielectric constant tensor:
#      x y z
#    x 1.973190 0.000000 0.001080 
#    y 0.000000 1.830160 0.000000 
#    z 0.001080 0.000000 1.894030 
# 
# From -- ./inp_files/302785.got.cif
#   From: 2010.05.17/outbox.cif.g08.bks.cpg/sg12_152_cif.got.tgz:302785.got - 2010.06.03 13:09:07.
