data_PCOD9176673
_publ_section_title
;
Structure prediction by ZEFSAII (Michael W. Deem and Ramdas Pophale) SiO2 
 PCOD9176673
Probable space group: C 2/M
;
_chemical_formula_sum "Si O2"
_cell_formula_units_Z 48
_cell_length_a 10.263549
_cell_length_b 22.369196
_cell_length_c 14.500770
_cell_angle_alpha 90.000000
_cell_angle_beta 46.549151
_cell_angle_gamma 90.000000
_cell_volume 2416.876433
_symmetry_space_group_name_H-M "C 2/M"
_symmetry_group_IT_number 12
_symmetry_cell_setting 'monoclinic'
loop_
_space_group_symop_operation_xyz
x,y,z
-x,y,-z
-x,-y,-z
x,-y,z
1/2+x,1/2+y,z
1/2-x,1/2+y,-z
1/2-x,1/2-y,-z
1/2+x,1/2-y,z
loop_
_atom_site_type_symbol
_atom_site_label
_atom_site_fract_x
_atom_site_fract_y
_atom_site_fract_z
Si Si1 0.698022 0.113012 0.436639
Si Si2 0.403298 0.184832 0.334209
Si Si3 0.816358 0.396473 0.893873
Si Si4 0.307579 0.000000 0.048999
Si Si5 0.000000 0.808213 0.000000
Si Si6 0.933311 0.000000 0.305193
Si Si7 0.678523 0.500000 0.850499
Si Si8 0.257253 0.776376 0.719948
O O1 0.500000 0.090883 0.500000
O O2 0.679680 0.148216 0.541331
O O3 0.753181 0.160406 0.329875
O O4 0.836516 0.059726 0.385836
O O5 0.504683 0.140914 0.212787
O O6 0.560624 0.223170 0.308777
O O7 0.265855 0.225856 0.345478
O O8 0.651605 0.350529 0.970770
O O9 0.790168 0.441327 0.820345
O O10 0.800066 0.440739 0.988361
O O11 0.500000 0.000000 0.000000
O O12 0.148229 0.000000 0.201214
O O13 0.096216 0.772123 0.872013
O O14 0.888787 0.000000 0.218694
O O15 0.500000 0.500000 0.000000
#
# Coordination Sequence:
#
# PCOD9176673 Si02
#       8
#     8   8   8   4   4   4   4   8
#     4  10  21  37  62  93 127 155 210 263 308 371
#     4  10  22  40  59  90 120 170 206 260 304 372
#     4  10  19  35  58  85 122 156 203 255 316 365
#     4  11  23  40  57  87 134 168 195 244 318 391
#     4  10  18  35  60  94 112 149 212 270 308 372
#     4  12  20  36  63  98 117 159 201 260 317 368
#     4  11  16  29  60  87 113 149 192 255 323 360
#     4  10  21  37  60  87 128 160 208 257 315 363
#
# _framework density 19.860344999999999
#
# number of rings (size 3 to 8) (size 9 to 14) (size 15 to 20)
#    0.000    1.667    2.500    4.750    0.000    4.000 
#    7.500    0.000    0.000    1.000    0.000    0.000 
#    0.000    0.000    0.000    0.000    0.000    0.000 
#
# Total GULP energy -134027.126158 kJ/mol
# GULP energy per Si atom -5584.463590 kJ/mol
# Density = 1.981514 g / cm^3
# Si number density = 19.860345 Si / 1000 Ang^3
#
#
#
# Elastic Constant Matrix: (Units=GPa)
#
#
# Indices 1 2 3 4 5 6 
#
# 1 52.3890 28.0231 24.8524 0.0000 -3.0280 0.0000
# 2 28.0231 61.7012 25.7154 0.0000 -4.6922 0.0000
# 3 24.8524 25.7154 102.3840 0.0000 -0.6397 0.0000
# 4 0.0000 0.0000 0.0000 6.5268 0.0000 -0.6556
# 5 -3.0280 -4.6922 -0.6397 0.0000 20.0126 0.0000
# 6 0.0000 0.0000 0.0000 -0.6556 0.0000 19.1752
#
#
#
# Elastic Compliance Matrix: (Units=1/GPa)
#
#
# Indices 1 2 3 4 5 6 
#
# 1 0.026519 -0.010336 -0.003832 0.000000 0.001467 0.000000
# 2 -0.010336 0.022473 -0.003113 0.000000 0.003606 0.000000
# 3 -0.003832 -0.003113 0.011473 0.000000 -0.000943 0.000000
# 4 0.000000 0.000000 0.000000 0.153742 0.000000 0.005256
# 5 0.001467 0.003606 -0.000943 0.000000 0.051006 0.000000
# 6 0.000000 0.000000 0.000000 0.005256 0.000000 0.052330
#
#
# Mechanical properties :
#
#
# Convention : Reuss Voigt Hill
#
# Bulk Modulus (GPa) = 38.60427 41.51735 40.06081
# Shear Modulus (GPa) = 13.86041 18.33513 16.09777
#
# Velocity S-wave (km/s) = 2.64463 3.04172 2.85010
# Velocity P-wave (km/s) = 5.36708 5.76941 5.57188
#
# Compressibility (1/GPa) = 0.02590387
#
# Stress axis : x y z
#
# Youngs Moduli (GPa) = 37.70848 44.49783 87.15857
#
# Poissons Ratio (x) = 0.45992 0.33400
# Poissons Ratio (y) = 0.38974 0.27133
# Poissons Ratio (z) = 0.14450 0.13852
#
# Static dielectric constant tensor:
#      x y z
#    x 1.694380 0.000000 -0.026040 
#    y 0.000000 1.716360 0.000000 
#    z -0.026040 0.000000 1.792070 
# 
# From -- ./inp_files/207984.got.cif
#   From: 2010.05.17/outbox.cif.g08.bks.cpg/sg12_104_cif.got.tgz:207984.got - 2010.06.03 13:09:07.
