data_PCOD9176612
_publ_section_title
;
Structure prediction by ZEFSAII (Michael W. Deem and Ramdas Pophale) SiO2 
 PCOD9176612
Probable space group: C 2/M
;
_chemical_formula_sum "Si O2"
_cell_formula_units_Z 48
_cell_length_a 15.165988
_cell_length_b 8.016025
_cell_length_c 28.546472
_cell_angle_alpha 90.000000
_cell_angle_beta 138.220650
_cell_angle_gamma 90.000000
_cell_volume 2312.215978
_symmetry_space_group_name_H-M "C 2/M"
_symmetry_group_IT_number 12
_symmetry_cell_setting 'monoclinic'
loop_
_space_group_symop_operation_xyz
x,y,z
-x,y,-z
-x,-y,-z
x,-y,z
1/2+x,1/2+y,z
1/2-x,1/2+y,-z
1/2-x,1/2-y,-z
1/2+x,1/2-y,z
loop_
_atom_site_type_symbol
_atom_site_label
_atom_site_fract_x
_atom_site_fract_y
_atom_site_fract_z
Si Si1 0.608486 0.803073 0.006398
Si Si2 0.585727 0.806326 0.671435
Si Si3 0.356238 0.194065 0.743434
Si Si4 0.657935 0.795910 0.367759
Si Si5 0.600381 0.695605 0.899085
Si Si6 0.422395 0.302492 0.518342
O O1 0.760304 0.737135 0.066661
O O2 0.618176 0.000000 0.020803
O O3 0.500000 0.732741 0.000000
O O4 0.567622 0.779853 0.935946
O O5 0.723146 0.712715 0.720563
O O6 0.485708 0.743881 0.671471
O O7 0.500981 0.788909 0.590169
O O8 0.615637 0.000000 0.691739
O O9 0.322054 0.257279 0.677717
O O10 0.479877 0.282591 0.815975
O O11 0.391144 0.000000 0.753079
O O12 0.774683 0.739663 0.448633
O O13 0.664530 0.000000 0.371658
O O14 0.619879 0.500000 0.916916
O O15 0.500000 0.288481 0.500000
O O16 0.419374 0.500000 0.529220
#
# Coordination Sequence:
#
# PCOD9176612 Si02
#       6
#     8   8   8   8   8   8
#     4   9  19  38  63  89 118 151 186 221 265 326
#     4  11  22  36  55  83 112 139 185 242 289 327
#     4  11  22  40  59  77 110 155 191 222 276 339
#     4   9  20  37  56  78 108 147 187 230 280 339
#     4  10  21  37  58  88 120 147 183 230 274 318
#     4  10  18  35  59  78 105 146 189 227 279 345
#
# _framework density 20.759305000000001
#
# number of rings (size 3 to 8) (size 9 to 14) (size 15 to 20)
#    0.000    2.000    1.667    2.000    0.000    2.667 
#    0.000    7.500    0.000    0.000    0.000    0.000 
#    0.000    0.000    0.000    0.000    0.000    0.000 
#
# Total GULP energy -133994.806483 kJ/mol
# GULP energy per Si atom -5583.116937 kJ/mol
# Density = 2.071206 g / cm^3
# Si number density = 20.759305 Si / 1000 Ang^3
#
#
#
# Elastic Constant Matrix: (Units=GPa)
#
#
# Indices 1 2 3 4 5 6 
#
# 1 118.1076 6.5623 21.8978 0.0000 18.5134 0.0000
# 2 6.5623 12.6537 -7.1570 0.0000 1.7023 0.0000
# 3 21.8978 -7.1570 79.9550 0.0000 20.8741 0.0000
# 4 0.0000 0.0000 0.0000 27.2915 0.0000 -1.7961
# 5 18.5134 1.7023 20.8741 0.0000 15.3758 0.0000
# 6 0.0000 0.0000 0.0000 -1.7961 0.0000 13.8820
#
#
#
# Elastic Compliance Matrix: (Units=1/GPa)
#
#
# Indices 1 2 3 4 5 6 
#
# 1 0.010618 -0.003879 -0.000046 0.000000 -0.012293 0.000000
# 2 -0.003879 0.094626 0.017114 0.000000 -0.029041 0.000000
# 3 -0.000046 0.017114 0.022510 0.000000 -0.032399 0.000000
# 4 0.000000 0.000000 0.000000 0.036956 0.000000 0.004782
# 5 -0.012293 -0.029041 -0.032399 0.000000 0.127039 0.000000
# 6 0.000000 0.000000 0.000000 0.004782 0.000000 0.072654
#
#
# Mechanical properties :
#
#
# Convention : Reuss Voigt Hill
#
# Bulk Modulus (GPa) = 6.48786 28.14694 17.31740
# Shear Modulus (GPa) = 12.84020 23.93741 18.38881
#
# Velocity S-wave (km/s) = 2.48972 3.39941 2.97949
# Velocity P-wave (km/s) = 3.37594 5.38480 4.49406
#
# Compressibility (1/GPa) = 0.15413395
#
# Stress axis : x y z
#
# Youngs Moduli (GPa) = 94.18180 10.56789 44.42444
#
# Poissons Ratio (x) = 0.04099 0.00203
# Poissons Ratio (y) = 0.36529 -0.76029
# Poissons Ratio (z) = 0.00431 -0.18086
#
# Static dielectric constant tensor:
#      x y z
#    x 1.762820 0.000000 0.014970 
#    y 0.000000 1.760130 0.000000 
#    z 0.014970 0.000000 1.708360 
# 
# From -- ./inp_files/308589.got.cif
#   From: 2010.05.17/outbox.cif.g08.bks.cpg/sg12_155_cif.got.tgz:308589.got - 2010.06.03 13:09:07.
