data_PCOD9176460
_publ_section_title
;
Structure prediction by ZEFSAII (Michael W. Deem and Ramdas Pophale) SiO2 
 PCOD9176460
Probable space group: C 2/M
;
_chemical_formula_sum "Si O2"
_cell_formula_units_Z 40
_cell_length_a 15.205231
_cell_length_b 13.113779
_cell_length_c 9.905112
_cell_angle_alpha 90.000000
_cell_angle_beta 112.081960
_cell_angle_gamma 90.000000
_cell_volume 1830.183422
_symmetry_space_group_name_H-M "C 2/M"
_symmetry_group_IT_number 12
_symmetry_cell_setting 'monoclinic'
loop_
_space_group_symop_operation_xyz
x,y,z
-x,y,-z
-x,-y,-z
x,-y,z
1/2+x,1/2+y,z
1/2-x,1/2+y,-z
1/2-x,1/2-y,-z
1/2+x,1/2-y,z
loop_
_atom_site_type_symbol
_atom_site_label
_atom_site_fract_x
_atom_site_fract_y
_atom_site_fract_z
Si Si1 0.892588 0.884160 0.392066
Si Si2 0.304731 0.621236 0.894181
Si Si3 0.754869 0.118372 0.566452
Si Si4 0.116946 0.731068 0.853539
Si Si5 0.451690 0.118980 0.620536
O O1 0.826580 0.880538 0.484533
O O2 0.862857 0.805859 0.260966
O O3 0.000000 0.863075 0.500000
O O4 0.889775 0.000000 0.336133
O O5 0.325743 0.500000 0.917930
O O6 0.297407 0.652849 0.732854
O O7 0.201143 0.647352 0.899011
O O8 0.376111 0.696074 0.013251
O O9 0.654058 0.162347 0.460867
O O10 0.730469 0.000000 0.583067
O O11 0.016979 0.679254 0.762803
O O12 0.500000 0.122677 0.500000
O O13 0.447788 0.000000 0.659427
#
# Coordination Sequence:
#
# PCOD9176460 Si02
#       5
#     8   8   8   8   8
#     4  10  22  40  61  89 124 161 205 256 305 360
#     4  10  21  38  60  88 124 165 204 247 305 369
#     4   9  19  38  65  90 118 160 206 255 305 357
#     4  11  21  35  60  93 122 161 201 251 312 361
#     4  10  18  34  62  95 124 153 202 257 304 361
#
# _framework density 21.855732
#
# number of rings (size 3 to 8) (size 9 to 14) (size 15 to 20)
#    0.000    2.000    2.000    1.800    0.000    0.800 
#    0.000    1.000    4.400    4.800    0.000   12.600 
#    0.000    0.000    0.000    0.000    0.000    0.000 
#
# Total GULP energy -111830.846554 kJ/mol
# GULP energy per Si atom -5591.542328 kJ/mol
# Density = 2.180599 g / cm^3
# Si number density = 21.855732 Si / 1000 Ang^3
#
#
#
# Elastic Constant Matrix: (Units=GPa)
#
#
# Indices 1 2 3 4 5 6 
#
# 1 76.8121 -11.6673 42.9746 0.0000 13.9775 0.0000
# 2 -11.6673 109.4988 54.7507 0.0000 11.6699 0.0000
# 3 42.9746 54.7507 149.7140 0.0000 26.7886 0.0000
# 4 0.0000 0.0000 0.0000 -23.5982 0.0000 61.5109
# 5 13.9775 11.6699 26.7886 0.0000 23.0958 0.0000
# 6 0.0000 0.0000 0.0000 61.5109 0.0000 -23.3249
#
#
#
# Elastic Compliance Matrix: (Units=1/GPa)
#
#
# Indices 1 2 3 4 5 6 
#
# 1 0.018685 0.005865 -0.006252 0.000000 -0.007020 0.000000
# 2 0.005865 0.013041 -0.005853 0.000000 -0.003350 0.000000
# 3 -0.006252 -0.005853 0.011872 0.000000 -0.007029 0.000000
# 4 0.000000 0.000000 0.000000 0.007214 0.000000 0.019025
# 5 -0.007020 -0.003350 -0.007029 0.000000 0.057392 0.000000
# 6 0.000000 0.000000 0.000000 0.019025 0.000000 0.007299
#
#
# Mechanical properties :
#
#
# Convention : Reuss Voigt Hill
#
# Bulk Modulus (GPa) = 32.13582 56.46009 44.29796
# Shear Modulus (GPa) = 36.13829 11.89902 24.01865
#
# Velocity S-wave (km/s) = 4.07073 2.33584 3.31866
# Velocity P-wave (km/s) = 6.06877 5.75882 5.91583
#
# Compressibility (1/GPa) = 0.03111792
#
# Stress axis : x y z
#
# Youngs Moduli (GPa) = 53.51854 76.67962 84.22846
#
# Poissons Ratio (x) = -0.44975 0.52663
# Poissons Ratio (y) = -0.31390 0.49303
# Poissons Ratio (z) = 0.33462 0.44884
#
# Static dielectric constant tensor:
#      x y z
#    x 1.784700 0.000000 0.023710 
#    y 0.000000 1.873070 0.000000 
#    z 0.023710 0.000000 1.773060 
# 
# From -- ./inp_files/58978.got.cif
#   From: 2010.05.17/outbox.cif.g08.bks.cpg/sg12_30_cif.got.tgz:58978.got - 2010.06.03 13:09:07.
