data_PCOD9176794
_publ_section_title
;
Structure prediction by ZEFSAII (Michael W. Deem and Ramdas Pophale) SiO2 
 PCOD9176794
Probable space group: C 2/M
;
_chemical_formula_sum "Si O2"
_cell_formula_units_Z 48
_cell_length_a 5.104366
_cell_length_b 25.536184
_cell_length_c 19.239712
_cell_angle_alpha 90.000000
_cell_angle_beta 107.575866
_cell_angle_gamma 90.000000
_cell_volume 2390.749876
_symmetry_space_group_name_H-M "C 2/M"
_symmetry_group_IT_number 12
_symmetry_cell_setting 'monoclinic'
loop_
_space_group_symop_operation_xyz
x,y,z
-x,y,-z
-x,-y,-z
x,-y,z
1/2+x,1/2+y,z
1/2-x,1/2+y,-z
1/2-x,1/2-y,-z
1/2+x,1/2-y,z
loop_
_atom_site_type_symbol
_atom_site_label
_atom_site_fract_x
_atom_site_fract_y
_atom_site_fract_z
Si Si1 0.911277 0.500000 0.788335
Si Si2 0.763672 0.109690 0.230761
Si Si3 0.764485 0.887743 0.068758
Si Si4 0.583959 0.283023 0.113883
Si Si5 0.195857 0.668211 0.731411
Si Si6 0.528971 0.500000 0.892544
Si Si7 0.653736 0.783894 0.576508
O O1 0.224885 0.500000 0.837272
O O2 0.824357 0.553853 0.745819
O O3 0.733881 0.500000 0.844179
O O4 0.671911 0.112996 0.142675
O O5 0.597570 0.152562 0.260676
O O6 0.087656 0.120150 0.253593
O O7 0.972246 0.838957 0.079068
O O8 0.905167 0.944383 0.066463
O O9 0.500000 0.881841 0.000000
O O10 0.841541 0.259581 0.094052
O O11 0.670259 0.292432 0.201560
O O12 0.172652 0.688304 0.651736
O O13 0.500000 0.812324 0.500000
O O14 0.452723 0.734498 0.575638
#
# Coordination Sequence:
#
# PCOD9176794 Si02
#       7
#     4   8   8   8   8   4   8
#     4  10  18  36  55  80 109 132 177 232 279 334
#     4  10  21  35  56  80 106 142 182 228 279 325
#     4  10  22  40  58  80 109 143 189 238 286 336
#     4  11  22  36  54  76 106 145 181 218 266 323
#     4  11  20  36  56  80 109 144 184 220 263 328
#     4  10  21  38  60  80 104 138 178 240 302 336
#     4  10  20  34  55  84 115 144 175 218 269 319
#
# _framework density 20.077382
#
# number of rings (size 3 to 8) (size 9 to 14) (size 15 to 20)
#    0.000    1.667    0.000    7.250    0.000    2.000 
#    0.000   23.333    0.000    0.000    0.000    3.500 
#    0.000    0.000    0.000    0.000    0.000    0.000 
#
# Total GULP energy -134134.209178 kJ/mol
# GULP energy per Si atom -5588.925382 kJ/mol
# Density = 2.003168 g / cm^3
# Si number density = 20.077382 Si / 1000 Ang^3
#
#
#
# Elastic Constant Matrix: (Units=GPa)
#
#
# Indices 1 2 3 4 5 6 
#
# 1 74.9469 -6.5672 -7.6059 0.0000 -3.4003 0.0000
# 2 -6.5672 78.2477 10.3763 0.0000 3.7903 0.0000
# 3 -7.6059 10.3763 99.1684 0.0000 -9.1162 0.0000
# 4 0.0000 0.0000 0.0000 -22.0171 0.0000 167.4226
# 5 -3.4003 3.7903 -9.1162 0.0000 29.8009 0.0000
# 6 0.0000 0.0000 0.0000 167.4226 0.0000 -756.3805
#
#
#
# Elastic Compliance Matrix: (Units=1/GPa)
#
#
# Indices 1 2 3 4 5 6 
#
# 1 0.013616 0.000909 0.001113 0.000000 0.001778 0.000000
# 2 0.000909 0.013152 -0.001493 0.000000 -0.002026 0.000000
# 3 0.001113 -0.001493 0.010654 0.000000 0.003576 0.000000
# 4 0.000000 0.000000 0.000000 0.066483 0.000000 0.014716
# 5 0.001778 -0.002026 0.003576 0.000000 0.035110 0.000000
# 6 0.000000 0.000000 0.000000 0.014716 0.000000 0.001935
#
#
# Mechanical properties :
#
#
# Convention : Reuss Voigt Hill
#
# Bulk Modulus (GPa) = 25.98714 27.19662 26.59188
# Shear Modulus (GPa) = 32.73963 -132.64203 -49.95120
#
# Velocity S-wave (km/s) = 4.04254 -8.13688 -4.99333
# Velocity P-wave (km/s) = 5.89585 8.64310 4.46889
#
# Compressibility (1/GPa) = 0.03848057
#
# Stress axis : x y z
#
# Youngs Moduli (GPa) = 73.44280 76.03243 93.86061
#
# Poissons Ratio (x) = -0.06912 -0.10444
# Poissons Ratio (y) = -0.06677 0.14010
# Poissons Ratio (z) = -0.08172 0.11349
#
# Static dielectric constant tensor:
#      x y z
#    x 1.704450 0.000000 0.003300 
#    y 0.000000 1.786520 0.000000 
#    z 0.003300 0.000000 1.714410 
# 
# From -- ./inp_files/253254.got.cif
#   From: 2010.05.17/outbox.cif.g08.bks.cpg/sg12_127_cif.got.tgz:253254.got - 2010.06.03 13:09:07.
