data_PCOD9176114
_publ_section_title
;
Structure prediction by ZEFSAII (Michael W. Deem and Ramdas Pophale) SiO2 
 PCOD9176114
Probable space group: C 2/M
;
_chemical_formula_sum "Si O2"
_cell_formula_units_Z 52
_cell_length_a 15.304538
_cell_length_b 19.137599
_cell_length_c 14.222493
_cell_angle_alpha 90.000000
_cell_angle_beta 140.475764
_cell_angle_gamma 90.000000
_cell_volume 2651.042470
_symmetry_space_group_name_H-M "C 2/M"
_symmetry_group_IT_number 12
_symmetry_cell_setting 'monoclinic'
loop_
_space_group_symop_operation_xyz
x,y,z
-x,y,-z
-x,-y,-z
x,-y,z
1/2+x,1/2+y,z
1/2-x,1/2+y,-z
1/2-x,1/2-y,-z
1/2+x,1/2-y,z
loop_
_atom_site_type_symbol
_atom_site_label
_atom_site_fract_x
_atom_site_fract_y
_atom_site_fract_z
Si Si1 0.000000 0.310948 0.500000
Si Si2 0.606432 0.701326 0.314636
Si Si3 0.605348 0.660067 0.004998
Si Si4 0.663275 0.920626 0.115390
Si Si5 0.735652 0.227461 0.235685
Si Si6 0.645504 0.918413 0.879915
Si Si7 0.388032 0.154362 0.591663
O O1 0.884596 0.261530 0.360011
O O2 0.930359 0.359108 0.519990
O O3 0.670193 0.742895 0.277637
O O4 0.576720 0.764076 0.360408
O O5 0.722974 0.652260 0.457198
O O6 0.477715 0.663681 0.161499
O O7 0.650454 0.736733 0.079888
O O8 0.745652 0.619086 0.099001
O O9 0.500000 0.633337 0.000000
O O10 0.731226 0.855559 0.224985
O O11 0.707063 0.000000 0.176489
O O12 0.500000 0.916504 0.000000
O O13 0.685784 0.909739 0.022552
O O14 0.490540 0.889488 0.740229
O O15 0.645758 0.000000 0.858567
#
# Coordination Sequence:
#
# PCOD9176114 Si02
#       7
#     4   8   8   8   8   8   8
#     4  10  20  30  54  82 108 138 180 234 266 330
#     4   9  20  33  58  85 110 141 183 237 285 335
#     4  10  20  36  58  83 112 145 191 242 280 325
#     4  10  21  36  56  83 113 143 183 231 279 340
#     4  10  18  34  55  82 109 141 183 226 282 330
#     4  11  23  37  58  83 113 154 195 228 280 341
#     4  10  19  36  53  82 115 141 186 236 279 334
#
# _framework density 19.614927000000002
#
# number of rings (size 3 to 8) (size 9 to 14) (size 15 to 20)
#    0.000    2.000    1.538    3.231    2.154    1.538 
#    0.000    1.538    0.000    0.000    0.000    0.000 
#    0.000    0.000    0.000    0.000    0.000    0.000 
#
# Total GULP energy -144920.479523 kJ/mol
# GULP energy per Si atom -5573.864597 kJ/mol
# Density = 1.957028 g / cm^3
# Si number density = 19.614927 Si / 1000 Ang^3
#
#
#
# Elastic Constant Matrix: (Units=GPa)
#
#
# Indices 1 2 3 4 5 6 
#
# 1 55.3146 7.6892 -8.6858 0.0000 6.0817 0.0000
# 2 7.6892 62.6334 13.4263 0.0000 10.9668 0.0000
# 3 -8.6858 13.4263 88.9947 0.0000 14.4898 0.0000
# 4 0.0000 0.0000 0.0000 18.7181 0.0000 -2.2887
# 5 6.0817 10.9668 14.4898 0.0000 13.3465 0.0000
# 6 0.0000 0.0000 0.0000 -2.2887 0.0000 14.5399
#
#
#
# Elastic Compliance Matrix: (Units=1/GPa)
#
#
# Indices 1 2 3 4 5 6 
#
# 1 0.020332 -0.001142 0.004266 0.000000 -0.012959 0.000000
# 2 -0.001142 0.018724 -0.000627 0.000000 -0.014185 0.000000
# 3 0.004266 -0.000627 0.014553 0.000000 -0.017229 0.000000
# 4 0.000000 0.000000 0.000000 0.054473 0.000000 0.008575
# 5 -0.012959 -0.014185 -0.017229 0.000000 0.111191 0.000000
# 6 0.000000 0.000000 0.000000 0.008575 0.000000 0.070126
#
#
# Mechanical properties :
#
#
# Convention : Reuss Voigt Hill
#
# Bulk Modulus (GPa) = 17.06342 25.75579 21.40961
# Shear Modulus (GPa) = 16.45075 22.28842 19.36958
#
# Velocity S-wave (km/s) = 2.89915 3.37456 3.14585
# Velocity P-wave (km/s) = 4.46372 5.32379 4.91262
#
# Compressibility (1/GPa) = 0.05860488
#
# Stress axis : x y z
#
# Youngs Moduli (GPa) = 49.18403 53.40695 68.71594
#
# Poissons Ratio (x) = 0.06097 -0.29317
# Poissons Ratio (y) = 0.05615 0.04306
# Poissons Ratio (z) = -0.20984 0.03347
#
# Static dielectric constant tensor:
#      x y z
#    x 1.746540 0.000000 -0.017580 
#    y 0.000000 1.648280 0.000000 
#    z -0.017580 0.000000 1.729540 
# 
# From -- ./inp_files/216863.got.cif
#   From: 2010.05.17/outbox.cif.g08.bks.cpg/sg12_109_cif.got.tgz:216863.got - 2010.06.03 13:09:07.
