data_PCOD9176571
_publ_section_title
;
Structure prediction by ZEFSAII (Michael W. Deem and Ramdas Pophale) SiO2 
 PCOD9176571
Probable space group: C 2/M
;
_chemical_formula_sum "Si O2"
_cell_formula_units_Z 64
_cell_length_a 24.606620
_cell_length_b 19.769423
_cell_length_c 16.660278
_cell_angle_alpha 90.000000
_cell_angle_beta 156.312669
_cell_angle_gamma 90.000000
_cell_volume 3255.959577
_symmetry_space_group_name_H-M "C 2/M"
_symmetry_group_IT_number 12
_symmetry_cell_setting 'monoclinic'
loop_
_space_group_symop_operation_xyz
x,y,z
-x,y,-z
-x,-y,-z
x,-y,z
1/2+x,1/2+y,z
1/2-x,1/2+y,-z
1/2-x,1/2-y,-z
1/2+x,1/2-y,z
loop_
_atom_site_type_symbol
_atom_site_label
_atom_site_fract_x
_atom_site_fract_y
_atom_site_fract_z
Si Si1 0.061847 0.373956 0.663232
Si Si2 0.344226 0.077692 0.044611
Si Si3 0.576591 0.181525 0.983621
Si Si4 0.708724 0.173640 0.330504
Si Si5 0.561951 0.423854 0.321232
Si Si6 0.046905 0.243194 0.412134
Si Si7 0.149342 0.808702 0.987509
Si Si8 0.532348 0.393176 0.629754
O O1 0.000000 0.406880 0.500000
O O2 0.963016 0.313760 0.557882
O O3 0.085474 0.418663 0.773585
O O4 0.204148 0.338060 0.833540
O O5 0.193370 0.106446 0.853451
O O6 0.336821 0.000000 0.007396
O O7 0.411768 0.126407 0.070676
O O8 0.419771 0.195324 0.791665
O O9 0.646159 0.251851 0.051627
O O10 0.648923 0.154695 0.162000
O O11 0.821202 0.230628 0.463792
O O12 0.792385 0.112444 0.483388
O O13 0.559248 0.500000 0.285891
O O14 0.452009 0.372159 0.135259
O O15 0.523535 0.425816 0.364356
O O16 0.917702 0.230400 0.179306
O O17 0.034513 0.181203 0.457455
O O18 0.500000 0.424248 0.500000
#
# Coordination Sequence:
#
# PCOD9176571 Si02
#       8
#     8   8   8   8   8   8   8   8
#     4  12  22  36  58  83 117 156 196 244 299 348
#     4  12  24  37  54  83 120 158 196 241 295 358
#     4  11  21  39  59  87 123 151 198 239 299 360
#     4   9  22  37  60  89 117 153 190 243 296 355
#     4  10  21  37  57  85 117 154 201 238 292 360
#     4  10  18  35  57  87 111 144 192 240 291 353
#     4  10  20  36  62  85 115 155 193 250 295 350
#     4  10  19  32  56  85 114 144 185 236 296 359
#
# _framework density 19.656264
#
# number of rings (size 3 to 8) (size 9 to 14) (size 15 to 20)
#    0.000    1.750    3.750    4.125    0.000    5.250 
#    0.000    1.250    0.000    0.000    0.000    1.750 
#    0.000    0.125    0.000    0.000    0.000    0.000 
#
# Total GULP energy -178605.007459 kJ/mol
# GULP energy per Si atom -5581.406483 kJ/mol
# Density = 1.961153 g / cm^3
# Si number density = 19.656264 Si / 1000 Ang^3
#
#
#
# Elastic Constant Matrix: (Units=GPa)
#
#
# Indices 1 2 3 4 5 6 
#
# 1 46.0874 11.7186 22.3419 0.0000 9.6249 0.0000
# 2 11.7186 90.0883 -4.2765 0.0000 14.7401 0.0000
# 3 22.3419 -4.2765 64.0415 0.0000 10.5519 0.0000
# 4 0.0000 0.0000 0.0000 -6.5333 0.0000 1.1980
# 5 9.6249 14.7401 10.5519 0.0000 32.3715 0.0000
# 6 0.0000 0.0000 0.0000 1.1980 0.0000 -5.3658
#
#
#
# Elastic Compliance Matrix: (Units=1/GPa)
#
#
# Indices 1 2 3 4 5 6 
#
# 1 0.027880 -0.003472 -0.009355 0.000000 -0.003659 0.000000
# 2 -0.003472 0.012625 0.002992 0.000000 -0.005692 0.000000
# 3 -0.009355 0.002992 0.019914 0.000000 -0.005072 0.000000
# 4 0.000000 0.000000 0.000000 -0.159595 0.000000 -0.035632
# 5 -0.003659 -0.005692 -0.005072 0.000000 0.036224 0.000000
# 6 0.000000 0.000000 0.000000 -0.035632 0.000000 -0.194319
#
#
# Mechanical properties :
#
#
# Convention : Reuss Voigt Hill
#
# Bulk Modulus (GPa) = 24.54051 28.86502 26.70277
# Shear Modulus (GPa) = -22.31969 15.45668 -3.43150
#
# Velocity S-wave (km/s) = -3.37337 2.80723 -1.32270
# Velocity P-wave (km/s) = 1.63124 5.02237 3.35881
#
# Compressibility (1/GPa) = 0.04074895
#
# Stress axis : x y z
#
# Youngs Moduli (GPa) = 35.86789 79.20676 50.21548
#
# Poissons Ratio (x) = 0.27501 0.46979
# Poissons Ratio (y) = 0.12453 -0.15025
# Poissons Ratio (z) = 0.33556 -0.23700
#
# Static dielectric constant tensor:
#      x y z
#    x 1.705250 0.000000 -0.030800 
#    y 0.000000 1.691480 0.000000 
#    z -0.030800 0.000000 1.730380 
# 
# From -- ./inp_files/294183.got.cif
#   From: 2010.05.17/outbox.cif.g08.bks.cpg/sg12_148_cif.got.tgz:294183.got - 2010.06.03 13:09:07.
