data_PCOD9176024
_publ_section_title
;
Structure prediction by ZEFSAII (Michael W. Deem and Ramdas Pophale) SiO2 
 PCOD9176024
Probable space group: C 2/M
;
_chemical_formula_sum "Si O2"
_cell_formula_units_Z 56
_cell_length_a 30.647310
_cell_length_b 19.446597
_cell_length_c 8.426410
_cell_angle_alpha 90.000000
_cell_angle_beta 139.357790
_cell_angle_gamma 90.000000
_cell_volume 3271.010289
_symmetry_space_group_name_H-M "C 2/M"
_symmetry_group_IT_number 12
_symmetry_cell_setting 'monoclinic'
loop_
_space_group_symop_operation_xyz
x,y,z
-x,y,-z
-x,-y,-z
x,-y,z
1/2+x,1/2+y,z
1/2-x,1/2+y,-z
1/2-x,1/2-y,-z
1/2+x,1/2-y,z
loop_
_atom_site_type_symbol
_atom_site_label
_atom_site_fract_x
_atom_site_fract_y
_atom_site_fract_z
Si Si1 0.676182 0.286792 0.297464
Si Si2 0.963194 0.425106 0.231280
Si Si3 0.831851 0.423519 0.057484
Si Si4 0.722346 0.665476 0.102539
Si Si5 0.939093 0.685241 0.924822
Si Si6 0.713298 0.683617 0.731255
Si Si7 0.646791 0.920645 0.523685
O O1 0.750000 0.250000 0.500000
O O2 0.615317 0.233507 0.141813
O O3 0.673442 0.327109 0.457721
O O4 0.676976 0.327048 0.133255
O O5 0.978626 0.500000 0.202371
O O6 0.000000 0.420609 0.500000
O O7 0.884937 0.422071 0.062858
O O8 0.976341 0.362710 0.154031
O O9 0.800058 0.500000 0.971462
O O10 0.780065 0.362047 0.899741
O O11 0.868041 0.416793 0.328472
O O12 0.686146 0.663433 0.830827
O O13 0.767407 0.735465 0.213444
O O14 0.775680 0.604222 0.271861
O O15 0.897161 0.632424 0.698170
O O16 0.000000 0.721612 0.000000
O O17 0.638817 0.000000 0.450769
#
# Coordination Sequence:
#
# PCOD9176024 Si02
#       7
#     8   8   8   8   8   8   8
#     4  10  18  34  52  69  92 126 169 210 250 299
#     4  10  20  33  45  61  93 141 179 203 238 289
#     4   9  18  30  47  72  99 129 171 211 245 292
#     4   9  17  30  50  73  92 130 170 204 253 293
#     4  12  23  34  47  71  99 133 174 211 253 292
#     4   9  16  29  50  69  94 125 163 207 257 293
#     4  10  19  32  49  72 104 136 170 208 246 292
#
# _framework density 17.120093000000001
#
# number of rings (size 3 to 8) (size 9 to 14) (size 15 to 20)
#    0.000    2.143    2.857    3.000    0.000    2.286 
#    2.571    0.000    0.000    0.000    0.000    0.000 
#    0.000    2.286    0.000    7.143    0.000    0.000 
#
# Total GULP energy -155936.881943 kJ/mol
# GULP energy per Si atom -5569.174355 kJ/mol
# Density = 1.708113 g / cm^3
# Si number density = 17.120093 Si / 1000 Ang^3
#
#
#
# Elastic Constant Matrix: (Units=GPa)
#
#
# Indices 1 2 3 4 5 6 
#
# 1 103.8972 15.8591 24.9803 0.0000 -7.3329 0.0000
# 2 15.8591 30.0824 14.3438 0.0000 8.6858 0.0000
# 3 24.9803 14.3438 40.6631 0.0000 -8.6525 0.0000
# 4 0.0000 0.0000 0.0000 16.5200 0.0000 -4.3275
# 5 -7.3329 8.6858 -8.6525 0.0000 28.8740 0.0000
# 6 0.0000 0.0000 0.0000 -4.3275 0.0000 3.8422
#
#
#
# Elastic Compliance Matrix: (Units=1/GPa)
#
#
# Indices 1 2 3 4 5 6 
#
# 1 0.011730 -0.004664 -0.004944 0.000000 0.002901 0.000000
# 2 -0.004664 0.052041 -0.020374 0.000000 -0.022945 0.000000
# 3 -0.004944 -0.020374 0.038295 0.000000 0.016349 0.000000
# 4 0.000000 0.000000 0.000000 0.085866 0.000000 0.096710
# 5 0.002901 -0.022945 0.016349 0.000000 0.047171 0.000000
# 6 0.000000 0.000000 0.000000 0.096710 0.000000 0.369190
#
#
# Mechanical properties :
#
#
# Convention : Reuss Voigt Hill
#
# Bulk Modulus (GPa) = 23.75194 31.66768 27.70981
# Shear Modulus (GPa) = 7.37146 17.81121 12.59134
#
# Velocity S-wave (km/s) = 2.07728 3.22897 2.71490
# Velocity P-wave (km/s) = 4.43365 5.69554 5.10375
#
# Compressibility (1/GPa) = 0.04210183
#
# Stress axis : x y z
#
# Youngs Moduli (GPa) = 85.25010 19.21572 26.11309
#
# Poissons Ratio (x) = 0.08963 0.12909
# Poissons Ratio (y) = 0.39764 0.53203
# Poissons Ratio (z) = 0.42144 0.39150
#
# Static dielectric constant tensor:
#      x y z
#    x 1.640130 0.000000 -0.040400 
#    y 0.000000 1.572540 0.000000 
#    z -0.040400 0.000000 1.601350 
# 
# From -- ./inp_files/113396.got.cif
#   From: 2010.05.17/outbox.cif.g08.bks.cpg/sg12_57_cif.got.tgz:113396.got - 2010.06.03 13:09:07.
