data_PCOD9176057
_publ_section_title
;
Structure prediction by ZEFSAII (Michael W. Deem and Ramdas Pophale) SiO2 
 PCOD9176057
Probable space group: C 2/M
;
_chemical_formula_sum "Si O2"
_cell_formula_units_Z 40
_cell_length_a 23.537204
_cell_length_b 13.274376
_cell_length_c 18.531371
_cell_angle_alpha 90.000000
_cell_angle_beta 154.795722
_cell_angle_gamma 90.000000
_cell_volume 2465.641753
_symmetry_space_group_name_H-M "C 2/M"
_symmetry_group_IT_number 12
_symmetry_cell_setting 'monoclinic'
loop_
_space_group_symop_operation_xyz
x,y,z
-x,y,-z
-x,-y,-z
x,-y,z
1/2+x,1/2+y,z
1/2-x,1/2+y,-z
1/2-x,1/2-y,-z
1/2+x,1/2-y,z
loop_
_atom_site_type_symbol
_atom_site_label
_atom_site_fract_x
_atom_site_fract_y
_atom_site_fract_z
Si Si1 0.820823 0.181732 0.976582
Si Si2 0.349616 0.120413 0.355419
Si Si3 0.616047 0.384197 0.354175
Si Si4 0.152400 0.311873 0.485147
Si Si5 0.863695 0.614169 0.103290
O O1 0.828129 0.300330 0.004211
O O2 0.969365 0.137897 0.153937
O O3 0.752633 0.158719 0.822421
O O4 0.731161 0.132053 0.936622
O O5 0.500000 0.139056 0.500000
O O6 0.329895 0.172474 0.409787
O O7 0.334490 0.000000 0.346948
O O8 0.625778 0.500000 0.388018
O O9 0.726469 0.359793 0.420588
O O10 0.639285 0.304213 0.445129
O O11 0.014589 0.365196 0.302858
O O12 0.849721 0.500000 0.061470
#
# Coordination Sequence:
#
# PCOD9176057 Si02
#       5
#     8   8   8   8   8
#     4  10  21  32  51  79 104 132 173 214 256 304
#     4  11  20  33  53  77 106 135 168 217 262 301
#     4  10  20  36  54  77 107 137 171 215 257 299
#     4  10  21  34  55  80 103 137 177 208 252 316
#     4  10  18  34  54  73 101 139 176 209 247 305
#
# _framework density 16.222957000000001
#
# number of rings (size 3 to 8) (size 9 to 14) (size 15 to 20)
#    0.000    1.800    2.000    3.600    0.000    0.800 
#    0.000    3.000    0.000    1.200    0.000    8.400 
#    0.000    0.000    0.000    0.000    0.000    0.000 
#
# Total GULP energy -111653.315576 kJ/mol
# GULP energy per Si atom -5582.665779 kJ/mol
# Density = 1.618603 g / cm^3
# Si number density = 16.222957 Si / 1000 Ang^3
#
#
#
# Elastic Constant Matrix: (Units=GPa)
#
#
# Indices 1 2 3 4 5 6 
#
# 1 96.0534 50.9256 71.6295 0.0000 -7.8950 0.0000
# 2 50.9256 143.6412 49.0517 0.0000 -5.3153 0.0000
# 3 71.6295 49.0517 114.1427 0.0000 7.5372 0.0000
# 4 0.0000 0.0000 0.0000 -3.6439 0.0000 -9.2390
# 5 -7.8950 -5.3153 7.5372 0.0000 37.2675 0.0000
# 6 0.0000 0.0000 0.0000 -9.2390 0.0000 2.7349
#
#
#
# Elastic Compliance Matrix: (Units=1/GPa)
#
#
# Indices 1 2 3 4 5 6 
#
# 1 0.022567 -0.003220 -0.013240 0.000000 0.006999 0.000000
# 2 -0.003220 0.008753 -0.001802 0.000000 0.000931 0.000000
# 3 -0.013240 -0.001802 0.018291 0.000000 -0.006761 0.000000
# 4 0.000000 0.000000 0.000000 -0.028690 0.000000 -0.096921
# 5 0.006999 0.000931 -0.006761 0.000000 0.029816 0.000000
# 6 0.000000 0.000000 0.000000 -0.096921 0.000000 0.038226
#
#
# Mechanical properties :
#
#
# Convention : Reuss Voigt Hill
#
# Bulk Modulus (GPa) = 76.41919 77.45011 76.93465
# Shear Modulus (GPa) = 38.50602 19.42041 28.96321
#
# Velocity S-wave (km/s) = 4.87720 3.46366 4.22989
# Velocity P-wave (km/s) = 8.88391 7.99003 8.44880
#
# Compressibility (1/GPa) = 0.01308572
#
# Stress axis : x y z
#
# Youngs Moduli (GPa) = 44.31260 114.24120 54.67316
#
# Poissons Ratio (x) = 0.36791 0.72387
# Poissons Ratio (y) = 0.14271 0.09853
# Poissons Ratio (z) = 0.58670 0.20588
#
# Static dielectric constant tensor:
#      x y z
#    x 1.515760 0.000000 0.021430 
#    y 0.000000 1.551210 0.000000 
#    z 0.021430 0.000000 1.527910 
# 
# From -- ./inp_files/59096.got.cif
#   From: 2010.05.17/outbox.cif.g08.bks.cpg/sg12_30_cif.got.tgz:59096.got - 2010.06.03 13:09:07.
