data_PCOD9177181
_publ_section_title
;
Structure prediction by ZEFSAII (Michael W. Deem and Ramdas Pophale) SiO2 
 PCOD9177181
Probable space group: C 2/M
;
_chemical_formula_sum "Si O2"
_cell_formula_units_Z 58
_cell_length_a 8.295482
_cell_length_b 17.642697
_cell_length_c 18.056309
_cell_angle_alpha 90.000000
_cell_angle_beta 84.584790
_cell_angle_gamma 90.000000
_cell_volume 2630.831066
_symmetry_space_group_name_H-M "C 2/M"
_symmetry_group_IT_number 12
_symmetry_cell_setting 'monoclinic'
loop_
_space_group_symop_operation_xyz
x,y,z
-x,y,-z
-x,-y,-z
x,-y,z
1/2+x,1/2+y,z
1/2-x,1/2+y,-z
1/2-x,1/2-y,-z
1/2+x,1/2-y,z
loop_
_atom_site_type_symbol
_atom_site_label
_atom_site_fract_x
_atom_site_fract_y
_atom_site_fract_z
Si Si1 0.526696 0.913714 0.663843
Si Si2 0.001492 0.164687 0.735203
Si Si3 0.717287 0.732395 0.086108
Si Si4 0.397186 0.630721 0.120455
Si Si5 0.172884 0.914423 0.603642
Si Si6 0.177897 0.669352 0.527967
Si Si7 0.126135 0.673189 0.786900
Si Si8 0.500000 0.500000 0.000000
O O1 0.346163 0.908085 0.638509
O O2 0.641530 0.855443 0.613483
O O3 0.528493 0.892368 0.750196
O O4 0.581981 0.000000 0.649555
O O5 0.077958 0.108979 0.794587
O O6 0.056752 0.142786 0.651422
O O7 0.060749 0.248111 0.756194
O O8 0.810696 0.162738 0.752539
O O9 0.549306 0.687972 0.099114
O O10 0.738575 0.815681 0.121918
O O11 0.847232 0.680808 0.125776
O O12 0.750000 0.750000 0.000000
O O13 0.419595 0.566128 0.058667
O O14 0.209181 0.891466 0.518119
O O15 0.113806 0.000000 0.612339
O O16 0.250000 0.750000 0.500000
O O17 0.000000 0.665306 0.500000
#
# Coordination Sequence:
#
# PCOD9177181 Si02
#       8
#     8   8   8   8   8   8   8   2
#     4  10  21  39  58  84 120 157 193 246 302 354
#     4  10  21  37  56  86 112 150 189 244 280 354
#     4  10  18  39  57  86 106 158 190 241 279 370
#     4  10  22  35  64  82 118 148 201 236 301 352
#     4  10  21  37  58  82 116 154 193 236 294 350
#     4  10  21  37  59  83 110 152 202 243 286 348
#     4  10  21  35  58  83 112 147 193 235 290 345
#     4  12  20  36  56  94 112 150 188 250 302 356
#
# _framework density 22.046264999999998
#
# number of rings (size 3 to 8) (size 9 to 14) (size 15 to 20)
#    0.000    1.931    1.379    2.069    0.966    6.621 
#    3.724    0.000    0.000    4.138    0.000    0.000 
#    0.000    0.000    0.000    0.000    0.000    0.000 
#
# Total GULP energy -161528.402660 kJ/mol
# GULP energy per Si atom -5569.944919 kJ/mol
# Density = 2.199609 g / cm^3
# Si number density = 22.046265 Si / 1000 Ang^3
#
#
#
# Elastic Constant Matrix: (Units=GPa)
#
#
# Indices 1 2 3 4 5 6 
#
# 1 26.0288 10.2113 -3.8144 0.0000 2.8614 0.0000
# 2 10.2113 78.1688 -2.5990 0.0000 -0.6262 0.0000
# 3 -3.8144 -2.5990 77.2993 0.0000 1.4705 0.0000
# 4 0.0000 0.0000 0.0000 35.6055 0.0000 -7.8178
# 5 2.8614 -0.6262 1.4705 0.0000 25.9828 0.0000
# 6 0.0000 0.0000 0.0000 -7.8178 0.0000 17.9271
#
#
#
# Elastic Compliance Matrix: (Units=1/GPa)
#
#
# Indices 1 2 3 4 5 6 
#
# 1 0.041340 -0.005374 0.001950 0.000000 -0.004792 0.000000
# 2 -0.005374 0.013508 0.000172 0.000000 0.000908 0.000000
# 3 0.001950 0.000172 0.013057 0.000000 -0.000950 0.000000
# 4 0.000000 0.000000 0.000000 0.031059 0.000000 0.013545
# 5 -0.004792 0.000908 -0.000950 0.000000 0.039090 0.000000
# 6 0.000000 0.000000 0.000000 0.013545 0.000000 0.061688
#
#
# Mechanical properties :
#
#
# Convention : Reuss Voigt Hill
#
# Bulk Modulus (GPa) = 16.28635 21.01032 18.64833
# Shear Modulus (GPa) = 22.05432 27.74969 24.90200
#
# Velocity S-wave (km/s) = 3.16629 3.55167 3.36450
# Velocity P-wave (km/s) = 4.55747 5.13517 4.85492
#
# Compressibility (1/GPa) = 0.06140112
#
# Stress axis : x y z
#
# Youngs Moduli (GPa) = 24.18970 74.03134 76.58842
#
# Poissons Ratio (x) = 0.39783 -0.14938
# Poissons Ratio (y) = 0.12999 -0.01315
# Poissons Ratio (z) = -0.04718 -0.01271
#
# Static dielectric constant tensor:
#      x y z
#    x 1.839420 0.000000 0.001800 
#    y 0.000000 1.812270 0.000000 
#    z 0.001800 0.000000 1.874100 
# 
# From -- ./inp_files/257110.got.cif
#   From: 2010.05.17/outbox.cif.g08.bks.cpg/sg12_129_cif.got.tgz:257110.got - 2010.06.03 13:09:07.
