data_PCOD9177112
_publ_section_title
;
Structure prediction by ZEFSAII (Michael W. Deem and Ramdas Pophale) SiO2 
 PCOD9177112
Probable space group: C 2/M
;
_chemical_formula_sum "Si O2"
_cell_formula_units_Z 40
_cell_length_a 15.158906
_cell_length_b 28.709093
_cell_length_c 9.459581
_cell_angle_alpha 90.000000
_cell_angle_beta 149.877501
_cell_angle_gamma 90.000000
_cell_volume 2066.015288
_symmetry_space_group_name_H-M "C 2/M"
_symmetry_group_IT_number 12
_symmetry_cell_setting 'monoclinic'
loop_
_space_group_symop_operation_xyz
x,y,z
-x,y,-z
-x,-y,-z
x,-y,z
1/2+x,1/2+y,z
1/2-x,1/2+y,-z
1/2-x,1/2-y,-z
1/2+x,1/2-y,z
loop_
_atom_site_type_symbol
_atom_site_label
_atom_site_fract_x
_atom_site_fract_y
_atom_site_fract_z
Si Si1 0.198620 0.183642 0.295296
Si Si2 0.186119 0.449227 0.339518
Si Si3 0.706959 0.786439 0.261920
Si Si4 0.804075 0.120270 0.273436
Si Si5 0.465329 0.900509 0.615044
O O1 0.206968 0.200799 0.468906
O O2 0.227144 0.232343 0.251128
O O3 0.348959 0.146676 0.467415
O O4 0.000000 0.165537 0.000000
O O5 0.272932 0.500000 0.444085
O O6 0.275899 0.406062 0.384180
O O7 0.144401 0.437474 0.443882
O O8 0.000000 0.451833 0.000000
O O9 0.778959 0.824410 0.254515
O O10 0.500000 0.794906 0.000000
O O11 0.000000 0.109005 0.500000
O O12 0.651770 0.104590 0.954285
O O13 0.500000 0.911699 0.500000
#
# Coordination Sequence:
#
# PCOD9177112 Si02
#       5
#     8   8   8   8   8
#     4  10  21  34  60  85 118 155 196 240 287 337
#     4   9  19  40  65  84 111 152 193 238 292 348
#     4  10  18  38  59  83 114 160 200 236 281 337
#     4  11  22  38  61  86 117 155 196 236 283 349
#     4  11  23  38  58  90 122 148 191 241 294 344
#
# _framework density 19.360942000000001
#
# number of rings (size 3 to 8) (size 9 to 14) (size 15 to 20)
#    0.000    1.800    4.000    0.600    2.800    1.600 
#    0.000    2.000    0.000    4.200    0.000    0.000 
#    0.000    0.000    0.000    0.000    0.000    0.000 
#
# Total GULP energy -111498.235889 kJ/mol
# GULP energy per Si atom -5574.911794 kJ/mol
# Density = 1.931688 g / cm^3
# Si number density = 19.360942 Si / 1000 Ang^3
#
#
#
# Elastic Constant Matrix: (Units=GPa)
#
#
# Indices 1 2 3 4 5 6 
#
# 1 83.6851 26.5684 26.6978 0.0000 -7.3075 0.0000
# 2 26.5684 81.8320 5.6646 0.0000 6.1457 0.0000
# 3 26.6978 5.6646 88.4314 0.0000 10.3091 0.0000
# 4 0.0000 0.0000 0.0000 6.2408 0.0000 -1.6143
# 5 -7.3075 6.1457 10.3091 0.0000 34.0465 0.0000
# 6 0.0000 0.0000 0.0000 -1.6143 0.0000 1.0358
#
#
#
# Elastic Compliance Matrix: (Units=1/GPa)
#
#
# Indices 1 2 3 4 5 6 
#
# 1 0.015739 -0.005197 -0.005102 0.000000 0.005861 0.000000
# 2 -0.005197 0.014130 0.001131 0.000000 -0.004009 0.000000
# 3 -0.005102 0.001131 0.013401 0.000000 -0.005357 0.000000
# 4 0.000000 0.000000 0.000000 0.268460 0.000000 0.418397
# 5 0.005861 -0.004009 -0.005357 0.000000 0.032975 0.000000
# 6 0.000000 0.000000 0.000000 0.418397 0.000000 1.617536
#
#
# Mechanical properties :
#
#
# Convention : Reuss Voigt Hill
#
# Bulk Modulus (GPa) = 40.10574 41.31221 40.70898
# Shear Modulus (GPa) = 2.51397 21.26579 11.88988
#
# Velocity S-wave (km/s) = 1.14074 3.31779 2.48083
# Velocity P-wave (km/s) = 4.74287 6.00510 5.41091
#
# Compressibility (1/GPa) = 0.02493409
#
# Stress axis : x y z
#
# Youngs Moduli (GPa) = 63.53658 70.77037 74.62373
#
# Poissons Ratio (x) = 0.36779 0.38073
# Poissons Ratio (y) = 0.33020 -0.08441
# Poissons Ratio (z) = 0.32417 -0.08005
#
# Static dielectric constant tensor:
#      x y z
#    x 1.666430 0.000000 -0.024490 
#    y 0.000000 1.717520 0.000000 
#    z -0.024490 0.000000 1.701570 
# 
# From -- ./inp_files/41885.got.cif
#   From: 2010.05.17/outbox.cif.g08.bks.cpg/sg12_21_cif.got.tgz:41885.got - 2010.06.03 13:09:07.
