data_PCOD9177316
_publ_section_title
;
Structure prediction by ZEFSAII (Michael W. Deem and Ramdas Pophale) SiO2 
 PCOD9177316
Probable space group: C 2/M
;
_chemical_formula_sum "Si O2"
_cell_formula_units_Z 56
_cell_length_a 27.983970
_cell_length_b 7.515746
_cell_length_c 15.027712
_cell_angle_alpha 90.000000
_cell_angle_beta 78.306725
_cell_angle_gamma 90.000000
_cell_volume 3095.040663
_symmetry_space_group_name_H-M "C 2/M"
_symmetry_group_IT_number 12
_symmetry_cell_setting 'monoclinic'
loop_
_space_group_symop_operation_xyz
x,y,z
-x,y,-z
-x,-y,-z
x,-y,z
1/2+x,1/2+y,z
1/2-x,1/2+y,-z
1/2-x,1/2-y,-z
1/2+x,1/2-y,z
loop_
_atom_site_type_symbol
_atom_site_label
_atom_site_fract_x
_atom_site_fract_y
_atom_site_fract_z
Si Si1 0.949049 0.705196 0.050912
Si Si2 0.185477 0.781784 0.205361
Si Si3 0.627040 0.783604 0.781240
Si Si4 0.182412 0.714526 0.593964
Si Si5 0.790070 0.788969 0.609392
Si Si6 0.207927 0.285561 0.896207
Si Si7 0.871138 0.203963 0.934949
O O1 0.959661 0.500000 0.070760
O O2 0.919942 0.783348 0.146564
O O3 0.910726 0.705951 0.983612
O O4 0.000000 0.787074 0.000000
O O5 0.186887 0.722499 0.307373
O O6 0.237360 0.726908 0.143556
O O7 0.141922 0.721894 0.157221
O O8 0.184154 0.000000 0.203716
O O9 0.640206 0.723818 0.676997
O O10 0.673951 0.740914 0.824555
O O11 0.623704 0.000000 0.781648
O O12 0.183591 0.500000 0.598438
O O13 0.179072 0.761292 0.491693
O O14 0.235438 0.781122 0.608902
O O15 0.783962 0.000000 0.624513
O O16 0.207817 0.500000 0.905113
O O17 0.179945 0.209350 0.991538
O O18 0.887055 0.000000 0.920509
#
# Coordination Sequence:
#
# PCOD9177316 Si02
#       7
#     8   8   8   8   8   8   8
#     4   9  18  33  51  67  82 107 143 177 213 263
#     4   9  16  27  42  59  84 121 153 171 203 253
#     4   8  13  24  44  63  81 108 140 172 209 251
#     4   9  15  25  40  59  82 111 143 175 210 243
#     4   9  16  26  40  57  82 117 149 175 200 240
#     4   9  15  27  43  58  82 119 153 174 197 244
#     4  10  19  28  41  64  89 112 140 176 216 255
#
# _framework density 18.093463
#
# number of rings (size 3 to 8) (size 9 to 14) (size 15 to 20)
#    0.000    3.000    1.429    1.714    0.000    0.286 
#    0.000    5.714    0.000    0.000    0.000    1.000 
#    0.000    8.000    0.000    0.000    0.000    0.000 
#
# Total GULP energy -155998.275560 kJ/mol
# GULP energy per Si atom -5571.366984 kJ/mol
# Density = 1.805228 g / cm^3
# Si number density = 18.093463 Si / 1000 Ang^3
#
#
#
# Elastic Constant Matrix: (Units=GPa)
#
#
# Indices 1 2 3 4 5 6 
#
# 1 59.9054 -4.0370 57.9667 0.0000 -15.0338 0.0000
# 2 -4.0370 42.4181 -8.0735 0.0000 0.1237 0.0000
# 3 57.9667 -8.0735 138.2621 0.0000 3.2095 0.0000
# 4 0.0000 0.0000 0.0000 9.7056 0.0000 -1.0585
# 5 -15.0338 0.1237 3.2095 0.0000 20.1275 0.0000
# 6 0.0000 0.0000 0.0000 -1.0585 0.0000 5.4231
#
#
#
# Elastic Compliance Matrix: (Units=1/GPa)
#
#
# Indices 1 2 3 4 5 6 
#
# 1 0.045004 0.000427 -0.019696 0.000000 0.036753 0.000000
# 2 0.000427 0.023847 0.001214 0.000000 -0.000021 0.000000
# 3 -0.019696 0.001214 0.015962 0.000000 -0.017264 0.000000
# 4 0.000000 0.000000 0.000000 0.105274 0.000000 0.020547
# 5 0.036753 -0.000021 -0.017264 0.000000 0.079888 0.000000
# 6 0.000000 0.000000 0.000000 0.020547 0.000000 0.188406
#
#
# Mechanical properties :
#
#
# Convention : Reuss Voigt Hill
#
# Bulk Modulus (GPa) = 20.53299 36.92199 28.72749
# Shear Modulus (GPa) = 9.78999 20.03320 14.91160
#
# Velocity S-wave (km/s) = 2.32863 3.33108 2.87390
# Velocity P-wave (km/s) = 4.31312 5.93678 5.18885
#
# Compressibility (1/GPa) = 0.04870212
#
# Stress axis : x y z
#
# Youngs Moduli (GPa) = 22.22017 41.93472 62.64882
#
# Poissons Ratio (x) = -0.01791 1.23395
# Poissons Ratio (y) = -0.00949 -0.07605
# Poissons Ratio (z) = 0.43765 -0.05090
#
# Static dielectric constant tensor:
#      x y z
#    x 1.600120 0.000000 -0.004510 
#    y 0.000000 1.666400 0.000000 
#    z -0.004510 0.000000 1.663690 
# 
# From -- ./inp_files/247774.got.cif
#   From: 2010.05.17/outbox.cif.g08.bks.cpg/sg12_124_cif.got.tgz:247774.got - 2010.06.03 13:09:07.
