data_PCOD9177809
_publ_section_title
;
Structure prediction by ZEFSAII (Michael W. Deem and Ramdas Pophale) SiO2 
 PCOD9177809
Probable space group: C 2/M
;
_chemical_formula_sum "Si O2"
_cell_formula_units_Z 64
_cell_length_a 14.078666
_cell_length_b 17.386750
_cell_length_c 16.409527
_cell_angle_alpha 90.000000
_cell_angle_beta 142.154984
_cell_angle_gamma 90.000000
_cell_volume 2464.393947
_symmetry_space_group_name_H-M "C 2/M"
_symmetry_group_IT_number 12
_symmetry_cell_setting 'monoclinic'
loop_
_space_group_symop_operation_xyz
x,y,z
-x,y,-z
-x,-y,-z
x,-y,z
1/2+x,1/2+y,z
1/2-x,1/2+y,-z
1/2-x,1/2-y,-z
1/2+x,1/2-y,z
loop_
_atom_site_type_symbol
_atom_site_label
_atom_site_fract_x
_atom_site_fract_y
_atom_site_fract_z
Si Si1 0.912037 0.084047 0.819201
Si Si2 0.160726 0.585944 0.250995
Si Si3 0.371954 0.774141 0.513469
Si Si4 0.244054 0.084430 0.495859
Si Si5 0.745622 0.083543 0.873552
Si Si6 0.648817 0.751342 0.225018
Si Si7 0.628802 0.586481 0.768499
Si Si8 0.316700 0.750139 0.181766
O O1 0.778673 0.086080 0.798351
O O2 0.913116 0.170360 0.783013
O O3 0.893324 0.000000 0.764866
O O4 0.082029 0.080504 0.973295
O O5 0.091249 0.500000 0.193667
O O6 0.223498 0.592309 0.385600
O O7 0.068224 0.666115 0.179360
O O8 0.292230 0.590565 0.268439
O O9 0.250000 0.750000 0.500000
O O10 0.348760 0.864668 0.506982
O O11 0.309137 0.743798 0.385688
O O12 0.534062 0.748874 0.658286
O O13 0.057893 0.091516 0.361507
O O14 0.292847 0.000000 0.508925
O O15 0.674803 0.165495 0.853020
O O16 0.670118 0.000000 0.841209
O O17 0.672813 0.742725 0.145402
O O18 0.668310 0.500000 0.826776
O O19 0.687612 0.663176 0.855378
#
# Coordination Sequence:
#
# PCOD9177809 Si02
#       8
#     8   8   8   8   8   8   8   8
#     4   8  15  30  52  75  96 121 160 207 247 287
#     4   9  16  27  44  66  91 122 164 205 237 277
#     4  12  21  31  43  68 105 134 162 195 238 292
#     4  10  19  30  43  62  90 132 170 199 235 279
#     4   8  15  30  52  75  96 121 160 207 247 287
#     4  10  19  31  50  72  98 131 162 198 246 294
#     4   9  16  27  44  66  91 122 164 205 237 277
#     4  10  19  31  50  72  98 131 162 198 246 294
#
# _framework density 25.969873
#
# number of rings (size 3 to 8) (size 9 to 14) (size 15 to 20)
#    0.000    2.500    2.500    1.500    0.000    4.500 
#    0.000    0.000    0.000    5.250    0.000    5.250 
#    0.000    0.000    0.000    0.000    0.000    0.000 
#
# Total GULP energy -178264.067114 kJ/mol
# GULP energy per Si atom -5570.752097 kJ/mol
# Density = 2.591076 g / cm^3
# Si number density = 25.969873 Si / 1000 Ang^3
#
#
#
# Elastic Constant Matrix: (Units=GPa)
#
#
# Indices 1 2 3 4 5 6 
#
# 1 93.1790 8.0550 8.1496 0.0003 4.6520 0.0002
# 2 8.0550 332.3862 8.9951 -0.0012 -0.3763 -0.0008
# 3 8.1496 8.9951 42.6048 -0.0035 7.1666 -0.0026
# 4 0.0003 -0.0012 -0.0035 11.5935 -0.0018 8.7816
# 5 4.6520 -0.3763 7.1666 -0.0018 14.8328 -0.0011
# 6 0.0002 -0.0008 -0.0026 8.7816 -0.0011 6.6122
#
#
#
# Elastic Compliance Matrix: (Units=1/GPa)
#
#
# Indices 1 2 3 4 5 6 
#
# 1 0.011027 -0.000227 -0.001609 0.000011 -0.002686 -0.000016
# 2 -0.000227 0.003033 -0.000677 -0.000006 0.000475 0.000008
# 3 -0.001609 -0.000677 0.025949 0.000050 -0.012050 -0.000059
# 4 0.000011 -0.000006 0.000050-14.463802 -0.000345 19.209041
# 5 -0.002686 0.000475 -0.012050 -0.000345 0.074095 0.000466
# 6 -0.000016 0.000008 -0.000059 19.209041 0.000466-25.359849
#
#
# Mechanical properties :
#
#
# Convention : Reuss Voigt Hill
#
# Bulk Modulus (GPa) = 28.58560 57.61882 43.10221
# Shear Modulus (GPa) = -0.12597 36.13906 18.00655
#
# Velocity S-wave (km/s) = -0.22048 3.73443 2.63604
# Velocity P-wave (km/s) = 3.31154 6.38980 5.08900
#
# Compressibility (1/GPa) = 0.03498265
#
# Stress axis : x y z
#
# Youngs Moduli (GPa) = 90.69051 329.71766 38.53670
#
# Poissons Ratio (x) = 0.07475 0.06202
# Poissons Ratio (y) = 0.02056 0.02608
# Poissons Ratio (z) = 0.14596 0.22318
#
# Static dielectric constant tensor:
#      x y z
#    x 2.093110 0.000000 0.009880 
#    y 0.000000 2.450030 0.000000 
#    z 0.009880 0.000000 2.057060 
# 
# From -- ./inp_files/317403.got.cif
#   From: 2010.05.17/outbox.cif.g08.bks.cpg/sg12_159_cif.got.tgz:317403.got - 2010.06.03 13:09:07.
