data_PCOD9177524
_publ_section_title
;
Structure prediction by ZEFSAII (Michael W. Deem and Ramdas Pophale) SiO2 
 PCOD9177524
Probable space group: C 2/M
;
_chemical_formula_sum "Si O2"
_cell_formula_units_Z 48
_cell_length_a 27.368344
_cell_length_b 8.837491
_cell_length_c 11.739456
_cell_angle_alpha 90.000000
_cell_angle_beta 90.062315
_cell_angle_gamma 90.000000
_cell_volume 2839.391122
_symmetry_space_group_name_H-M "C 2/M"
_symmetry_group_IT_number 12
_symmetry_cell_setting 'monoclinic'
loop_
_space_group_symop_operation_xyz
x,y,z
-x,y,-z
-x,-y,-z
x,-y,z
1/2+x,1/2+y,z
1/2-x,1/2+y,-z
1/2-x,1/2-y,-z
1/2+x,1/2-y,z
loop_
_atom_site_type_symbol
_atom_site_label
_atom_site_fract_x
_atom_site_fract_y
_atom_site_fract_z
Si Si1 0.056783 0.317528 0.998562
Si Si2 0.701587 0.670773 0.040251
Si Si3 0.627503 0.821753 0.201524
Si Si4 0.870234 0.830044 0.173956
Si Si5 0.299989 0.818839 0.359744
Si Si6 0.189023 0.818960 0.389831
O O1 0.060943 0.500000 0.994215
O O2 0.084247 0.252238 0.887445
O O3 0.083451 0.269910 0.117468
O O4 0.000000 0.275292 0.000000
O O5 0.708576 0.500000 0.087854
O O6 0.674458 0.782348 0.125403
O O7 0.750000 0.750000 0.000000
O O8 0.667510 0.657997 0.930381
O O9 0.642507 0.738027 0.317510
O O10 0.622125 0.000000 0.222279
O O11 0.839857 0.746103 0.272245
O O12 0.883697 0.000000 0.211287
O O13 0.242642 0.778240 0.335760
O O14 0.310718 0.754809 0.485425
O O15 0.302961 0.000000 0.359386
O O16 0.187678 0.000000 0.398951
#
# Coordination Sequence:
#
# PCOD9177524 Si02
#       6
#     8   8   8   8   8   8
#     4   9  19  36  56  76  98 127 164 206 253 303
#     4  10  19  29  43  66  97 130 162 197 239 289
#     4  10  19  31  49  72  98 128 163 202 245 294
#     4  10  20  32  48  72 100 129 163 204 249 295
#     4  10  20  33  50  72 101 138 174 204 238 286
#     4  10  20  33  50  73 103 137 171 205 241 286
#
# _framework density 16.905034000000001
#
# number of rings (size 3 to 8) (size 9 to 14) (size 15 to 20)
#    0.000    2.167    0.000    3.500    0.000    7.667 
#    0.000    0.000    0.000    1.000    0.000    7.000 
#    0.000    0.000    0.000    0.000    0.000    0.000 
#
# Total GULP energy -133702.032436 kJ/mol
# GULP energy per Si atom -5570.918018 kJ/mol
# Density = 1.686656 g / cm^3
# Si number density = 16.905034 Si / 1000 Ang^3
#
#
#
# Elastic Constant Matrix: (Units=GPa)
#
#
# Indices 1 2 3 4 5 6 
#
# 1 104.7872 38.0399 49.1217 0.0000 -3.7141 0.0000
# 2 38.0399 60.0594 34.0166 0.0000 -4.2750 0.0000
# 3 49.1217 34.0166 89.9463 0.0000 0.0073 0.0000
# 4 0.0000 0.0000 0.0000 31.4123 0.0000 -1.1791
# 5 -3.7141 -4.2750 0.0073 0.0000 24.6537 0.0000
# 6 0.0000 0.0000 0.0000 -1.1791 0.0000 19.9335
#
#
#
# Elastic Compliance Matrix: (Units=1/GPa)
#
#
# Indices 1 2 3 4 5 6 
#
# 1 0.014331 -0.005806 -0.005631 0.000000 0.001154 0.000000
# 2 -0.005806 0.023879 -0.005861 0.000000 0.003268 0.000000
# 3 -0.005631 -0.005861 0.016410 0.000000 -0.001869 0.000000
# 4 0.000000 0.000000 0.000000 0.031906 0.000000 0.001887
# 5 0.001154 0.003268 -0.001869 0.000000 0.041303 0.000000
# 6 0.000000 0.000000 0.000000 0.001887 0.000000 0.050278
#
#
# Mechanical properties :
#
#
# Convention : Reuss Voigt Hill
#
# Bulk Modulus (GPa) = 49.93609 55.23880 52.58744
# Shear Modulus (GPa) = 22.79187 24.10755 23.44971
#
# Velocity S-wave (km/s) = 3.67581 3.78041 3.72848
# Velocity P-wave (km/s) = 6.90063 7.19738 7.05057
#
# Compressibility (1/GPa) = 0.02002560
#
# Stress axis : x y z
#
# Youngs Moduli (GPa) = 69.77722 41.87760 60.93997
#
# Poissons Ratio (x) = 0.24312 0.34316
# Poissons Ratio (y) = 0.40509 0.35714
# Poissons Ratio (z) = 0.39293 0.24543
#
# Static dielectric constant tensor:
#      x y z
#    x 1.539190 0.000000 0.038930 
#    y 0.000000 1.554540 0.000000 
#    z 0.038930 0.000000 1.576810 
# 
# From -- ./inp_files/172326.got.cif
#   From: 2010.05.17/outbox.cif.g08.bks.cpg/sg12_87_cif.got.tgz:172326.got - 2010.06.03 13:09:07.
