data_PCOD9177720
_publ_section_title
;
Structure prediction by ZEFSAII (Michael W. Deem and Ramdas Pophale) SiO2 
 PCOD9177720
Probable space group: C 2/M
;
_chemical_formula_sum "Si O2"
_cell_formula_units_Z 56
_cell_length_a 22.014037
_cell_length_b 9.337777
_cell_length_c 16.472286
_cell_angle_alpha 90.000000
_cell_angle_beta 59.636651
_cell_angle_gamma 90.000000
_cell_volume 2921.634750
_symmetry_space_group_name_H-M "C 2/M"
_symmetry_group_IT_number 12
_symmetry_cell_setting 'monoclinic'
loop_
_space_group_symop_operation_xyz
x,y,z
-x,y,-z
-x,-y,-z
x,-y,z
1/2+x,1/2+y,z
1/2-x,1/2+y,-z
1/2-x,1/2-y,-z
1/2+x,1/2-y,z
loop_
_atom_site_type_symbol
_atom_site_label
_atom_site_fract_x
_atom_site_fract_y
_atom_site_fract_z
Si Si1 0.416192 0.669174 0.894410
Si Si2 0.835090 0.668960 0.622835
Si Si3 0.584054 0.670484 0.783032
Si Si4 0.208146 0.168011 0.597189
Si Si5 0.085831 0.664271 0.943758
Si Si6 0.036060 0.662568 0.565044
Si Si7 0.092484 0.171422 0.280254
O O1 0.405277 0.500000 0.916937
O O2 0.500697 0.691620 0.829499
O O3 0.385796 0.706950 0.826668
O O4 0.391630 0.759487 0.988173
O O5 0.849567 0.500000 0.628519
O O6 0.755818 0.682672 0.646110
O O7 0.885624 0.710613 0.512432
O O8 0.857358 0.759190 0.685833
O O9 0.595654 0.500000 0.784322
O O10 0.630544 0.719135 0.675016
O O11 0.607381 0.750343 0.848937
O O12 0.250000 0.250000 0.500000
O O13 0.205380 0.000000 0.577440
O O14 0.108770 0.500000 0.925627
O O15 0.000000 0.666467 0.000000
O O16 0.037143 0.500000 0.597309
O O17 0.000000 0.656868 0.500000
O O18 0.985444 0.764739 0.650014
O O19 0.090195 0.000000 0.289726
#
# Coordination Sequence:
#
# PCOD9177720 Si02
#       7
#     8   8   8   8   8   8   8
#     4   9  18  31  49  76 106 131 160 202 255 308
#     4   9  19  35  49  66  97 135 171 205 248 299
#     4   9  18  34  53  72 101 137 166 201 253 302
#     4  10  22  37  54  75 100 136 177 211 246 294
#     4   9  17  30  50  77 103 128 163 204 249 301
#     4   8  15  28  44  62  91 129 163 198 245 294
#     4  10  19  29  47  75 100 127 165 209 252 296
#
# _framework density 19.167352000000001
#
# number of rings (size 3 to 8) (size 9 to 14) (size 15 to 20)
#    0.000    2.857    0.000    1.714    2.000    6.571 
#    0.000    0.000    0.000    0.857    0.000    0.000 
#    0.000    0.000    0.000    0.000    0.000    0.000 
#
# Total GULP energy -156101.872035 kJ/mol
# GULP energy per Si atom -5575.066858 kJ/mol
# Density = 1.912373 g / cm^3
# Si number density = 19.167352 Si / 1000 Ang^3
#
#
#
# Elastic Constant Matrix: (Units=GPa)
#
#
# Indices 1 2 3 4 5 6 
#
# 1 23.1815 11.0067 3.7550 0.0000 9.6250 0.0000
# 2 11.0067 52.6385 45.9682 0.0000 19.4283 0.0000
# 3 3.7550 45.9682 94.8992 0.0000 22.9065 0.0000
# 4 0.0000 0.0000 0.0000 21.3907 0.0000 0.1118
# 5 9.6250 19.4283 22.9065 0.0000 30.7653 0.0000
# 6 0.0000 0.0000 0.0000 0.1118 0.0000 11.5105
#
#
#
# Elastic Compliance Matrix: (Units=1/GPa)
#
#
# Indices 1 2 3 4 5 6 
#
# 1 0.053822 -0.012294 0.007334 0.000000 -0.014535 0.000000
# 2 -0.012294 0.039013 -0.016327 0.000000 -0.008634 0.000000
# 3 0.007334 -0.016327 0.019775 0.000000 -0.006708 0.000000
# 4 0.000000 0.000000 0.000000 0.046752 0.000000 -0.000454
# 5 -0.014535 -0.008634 -0.006708 0.000000 0.047498 0.000000
# 6 0.000000 0.000000 0.000000 -0.000454 0.000000 0.086882
#
#
# Mechanical properties :
#
#
# Convention : Reuss Voigt Hill
#
# Bulk Modulus (GPa) = 14.27829 32.46431 23.37130
# Shear Modulus (GPa) = 13.90198 20.06592 16.98395
#
# Velocity S-wave (km/s) = 2.69605 3.23906 2.97995
# Velocity P-wave (km/s) = 4.14211 5.56442 4.90509
#
# Compressibility (1/GPa) = 0.07003639
#
# Stress axis : x y z
#
# Youngs Moduli (GPa) = 18.57967 25.63259 50.56903
#
# Poissons Ratio (x) = 0.31512 -0.37087
# Poissons Ratio (y) = 0.22842 0.82563
# Poissons Ratio (z) = -0.13626 0.41850
#
# Static dielectric constant tensor:
#      x y z
#    x 1.708320 0.000000 -0.012810 
#    y 0.000000 1.645910 0.000000 
#    z -0.012810 0.000000 1.671740 
# 
# From -- ./inp_files/291450.got.cif
#   From: 2010.05.17/outbox.cif.g08.bks.cpg/sg12_146_cif.got.tgz:291450.got - 2010.06.03 13:09:07.
