data_PCOD9177521
_publ_section_title
;
Structure prediction by ZEFSAII (Michael W. Deem and Ramdas Pophale) SiO2 
 PCOD9177521
Probable space group: C 2/M
;
_chemical_formula_sum "Si O2"
_cell_formula_units_Z 32
_cell_length_a 5.215003
_cell_length_b 30.116560
_cell_length_c 13.925935
_cell_angle_alpha 90.000000
_cell_angle_beta 137.031550
_cell_angle_gamma 90.000000
_cell_volume 1490.771315
_symmetry_space_group_name_H-M "C 2/M"
_symmetry_group_IT_number 12
_symmetry_cell_setting 'monoclinic'
loop_
_space_group_symop_operation_xyz
x,y,z
-x,y,-z
-x,-y,-z
x,-y,z
1/2+x,1/2+y,z
1/2-x,1/2+y,-z
1/2-x,1/2-y,-z
1/2+x,1/2-y,z
loop_
_atom_site_type_symbol
_atom_site_label
_atom_site_fract_x
_atom_site_fract_y
_atom_site_fract_z
Si Si1 0.443594 0.861418 0.597259
Si Si2 0.601560 0.950897 0.338793
Si Si3 0.376990 0.771931 0.670739
Si Si4 0.910846 0.446496 0.080419
O O1 0.500000 0.851964 0.500000
O O2 0.607745 0.909453 0.670172
O O3 0.554627 0.819555 0.692944
O O4 0.000000 0.865541 0.500000
O O5 0.660990 0.939019 0.243456
O O6 0.000000 0.955383 0.500000
O O7 0.412218 0.000000 0.292882
O O8 0.691072 0.736626 0.722927
O O9 0.000000 0.767905 0.500000
O O10 0.897649 0.500000 0.067696
O O11 0.500000 0.430981 0.000000
O O12 0.000000 0.428295 0.000000
#
# Coordination Sequence:
#
# PCOD9177521 Si02
#       4
#     8   8   8   8
#     4  10  19  29  43  66  95 126 160 197 239 289
#     4   9  19  34  51  73 103 136 167 201 244 294
#     4   9  15  25  41  60  86 121 155 190 238 289
#     4   9  18  33  51  69  92 126 167 207 243 281
#
# _framework density 21.465396999999999
#
# number of rings (size 3 to 8) (size 9 to 14) (size 15 to 20)
#    0.000    2.750    0.000    3.750    0.000    4.500 
#    0.000    7.500    0.000    0.000    0.000    0.000 
#    0.000    6.000    0.000    0.000    0.000    1.250 
#
# Total GULP energy -89078.180611 kJ/mol
# GULP energy per Si atom -5567.386288 kJ/mol
# Density = 2.141654 g / cm^3
# Si number density = 21.465397 Si / 1000 Ang^3
#
#
#
# Elastic Constant Matrix: (Units=GPa)
#
#
# Indices 1 2 3 4 5 6 
#
# 1 122.1332 29.5719 36.4970 0.0000 -25.4230 0.0000
# 2 29.5719 128.2196 0.4364 0.0000 -12.2900 0.0000
# 3 36.4970 0.4364 107.2951 0.0000 -16.0178 0.0000
# 4 0.0000 0.0000 0.0000 0.7620 0.0000 -11.3427
# 5 -25.4230 -12.2900 -16.0178 0.0000 13.6776 0.0000
# 6 0.0000 0.0000 0.0000 -11.3427 0.0000 18.0033
#
#
#
# Elastic Compliance Matrix: (Units=1/GPa)
#
#
# Indices 1 2 3 4 5 6 
#
# 1 0.013543 -0.000917 -0.001173 0.000000 0.022974 0.000000
# 2 -0.000917 0.008760 0.001450 0.000000 0.007865 0.000000
# 3 -0.001173 0.001450 0.011613 0.000000 0.012722 0.000000
# 4 0.000000 0.000000 0.000000 -0.156633 0.000000 -0.098684
# 5 0.022974 0.007865 0.012722 0.000000 0.137781 0.000000
# 6 0.000000 0.000000 0.000000 -0.098684 0.000000 -0.006629
#
#
# Mechanical properties :
#
#
# Convention : Reuss Voigt Hill
#
# Bulk Modulus (GPa) = 30.64212 54.51762 42.57987
# Shear Modulus (GPa) = 242.81690 25.89808 134.35749
#
# Velocity S-wave (km/s) = 10.64733 3.47724 7.92013
# Velocity P-wave (km/s) = 12.86314 6.44784 10.17436
#
# Compressibility (1/GPa) = 0.03263482
#
# Stress axis : x y z
#
# Youngs Moduli (GPa) = 73.84042 114.16080 86.11404
#
# Poissons Ratio (x) = 0.10472 0.10102
# Poissons Ratio (y) = 0.06774 -0.12491
# Poissons Ratio (z) = 0.08663 -0.16559
#
# Static dielectric constant tensor:
#      x y z
#    x 2.045990 0.000000 0.170240 
#    y 0.000000 1.930690 0.000000 
#    z 0.170240 0.000000 1.914980 
# 
# From -- ./inp_files/34580.got.cif
#   From: 2010.05.17/outbox.cif.g08.bks.cpg/sg12_18_cif.got.tgz:34580.got - 2010.06.03 13:09:07.
