data_PCOD9177015
_publ_section_title
;
Structure prediction by ZEFSAII (Michael W. Deem and Ramdas Pophale) SiO2 
 PCOD9177015
Probable space group: C 2/M
;
_chemical_formula_sum "Si O2"
_cell_formula_units_Z 64
_cell_length_a 22.582646
_cell_length_b 22.916925
_cell_length_c 8.781347
_cell_angle_alpha 90.000000
_cell_angle_beta 127.175596
_cell_angle_gamma 90.000000
_cell_volume 3621.051874
_symmetry_space_group_name_H-M "C 2/M"
_symmetry_group_IT_number 12
_symmetry_cell_setting 'monoclinic'
loop_
_space_group_symop_operation_xyz
x,y,z
-x,y,-z
-x,-y,-z
x,-y,z
1/2+x,1/2+y,z
1/2-x,1/2+y,-z
1/2-x,1/2-y,-z
1/2+x,1/2-y,z
loop_
_atom_site_type_symbol
_atom_site_label
_atom_site_fract_x
_atom_site_fract_y
_atom_site_fract_z
Si Si1 0.920827 0.630793 0.914440
Si Si2 0.180782 0.433212 0.449688
Si Si3 0.424838 0.739769 0.798161
Si Si4 0.626531 0.826653 0.845108
Si Si5 0.924449 0.220698 0.440140
Si Si6 0.087010 0.432552 0.600294
Si Si7 0.764167 0.214761 0.259581
Si Si8 0.727735 0.323365 0.379596
O O1 0.854782 0.588246 0.764388
O O2 0.911537 0.691713 0.808730
O O3 0.922459 0.651698 0.089827
O O4 0.000000 0.603495 0.000000
O O5 0.204698 0.500000 0.481662
O O6 0.113062 0.427935 0.465786
O O7 0.246663 0.389527 0.600914
O O8 0.434116 0.733182 0.633196
O O9 0.357165 0.699870 0.754409
O O10 0.500000 0.723476 0.000000
O O11 0.586294 0.778188 0.680486
O O12 0.636813 0.885110 0.764308
O O13 0.698906 0.799536 0.040654
O O14 0.841955 0.192775 0.311070
O O15 0.000000 0.190439 0.500000
O O16 0.099631 0.500000 0.666905
O O17 0.000000 0.419730 0.500000
O O18 0.768141 0.283358 0.314087
O O19 0.751459 0.189728 0.410407
#
# Coordination Sequence:
#
# PCOD9177015 Si02
#       8
#     8   8   8   8   8   8   8   8
#     4  11  20  32  53  80 109 142 183 220 264 322
#     4  11  22  37  55  76 105 150 192 225 264 315
#     4  10  20  36  57  80 110 145 182 221 280 330
#     4  12  20  33  52  83 109 144 183 219 274 326
#     4  11  22  32  49  77 114 141 174 219 267 336
#     4  10  22  38  52  72 111 155 191 228 265 308
#     4  10  20  34  55  78 110 146 175 220 284 330
#     4  10  18  37  56  77 109 140 182 233 269 321
#
# _framework density 17.674422
#
# number of rings (size 3 to 8) (size 9 to 14) (size 15 to 20)
#    0.000    1.375    2.500    6.000    0.000    0.750 
#    0.000    0.000    0.000    0.375    0.000    0.000 
#    0.000    3.000    0.000    0.125    0.000    0.000 
#
# Total GULP energy -178373.940961 kJ/mol
# GULP energy per Si atom -5574.185655 kJ/mol
# Density = 1.763419 g / cm^3
# Si number density = 17.674422 Si / 1000 Ang^3
#
#
#
# Elastic Constant Matrix: (Units=GPa)
#
#
# Indices 1 2 3 4 5 6 
#
# 1 70.1992 9.8156 17.9365 0.0000 13.3207 0.0000
# 2 9.8156 86.8324 25.9737 0.0000 12.7736 0.0000
# 3 17.9365 25.9737 85.7918 0.0000 13.9988 0.0000
# 4 0.0000 0.0000 0.0000 15.1489 0.0000 2.2105
# 5 13.3207 12.7736 13.9988 0.0000 31.6120 0.0000
# 6 0.0000 0.0000 0.0000 2.2105 0.0000 18.7619
#
#
#
# Elastic Compliance Matrix: (Units=1/GPa)
#
#
# Indices 1 2 3 4 5 6 
#
# 1 0.015938 -0.000283 -0.002338 0.000000 -0.005566 0.000000
# 2 -0.000283 0.013080 -0.003296 0.000000 -0.003706 0.000000
# 3 -0.002338 -0.003296 0.013759 0.000000 -0.003776 0.000000
# 4 0.000000 0.000000 0.000000 0.067166 0.000000 -0.007913
# 5 -0.005566 -0.003706 -0.003776 0.000000 0.037149 0.000000
# 6 0.000000 0.000000 0.000000 -0.007913 0.000000 0.054232
#
#
# Mechanical properties :
#
#
# Convention : Reuss Voigt Hill
#
# Bulk Modulus (GPa) = 32.31866 38.91942 35.61904
# Shear Modulus (GPa) = 22.37411 25.71107 24.04259
#
# Velocity S-wave (km/s) = 3.56181 3.81820 3.69223
# Velocity P-wave (km/s) = 5.93638 6.44253 6.19463
#
# Compressibility (1/GPa) = 0.03094188
#
# Stress axis : x y z
#
# Youngs Moduli (GPa) = 62.74137 76.45525 72.68010
#
# Poissons Ratio (x) = 0.02167 0.16994
# Poissons Ratio (y) = 0.01778 0.23954
# Poissons Ratio (z) = 0.14670 0.25199
#
# Static dielectric constant tensor:
#      x y z
#    x 1.679120 0.000000 -0.001330 
#    y 0.000000 1.593860 0.000000 
#    z -0.001330 0.000000 1.635960 
# 
# From -- ./inp_files/99671.got.cif
#   From: 2010.05.17/outbox.cif.g08.bks.cpg/sg12_50_cif.got.tgz:99671.got - 2010.06.03 13:09:07.
