data_PCOD9177798
_publ_section_title
;
Structure prediction by ZEFSAII (Michael W. Deem and Ramdas Pophale) SiO2 
 PCOD9177798
Probable space group: C 2/M
;
_chemical_formula_sum "Si O2"
_cell_formula_units_Z 64
_cell_length_a 29.108695
_cell_length_b 7.446699
_cell_length_c 21.824806
_cell_angle_alpha 90.000000
_cell_angle_beta 45.149146
_cell_angle_gamma 90.000000
_cell_volume 3353.895284
_symmetry_space_group_name_H-M "C 2/M"
_symmetry_group_IT_number 12
_symmetry_cell_setting 'monoclinic'
loop_
_space_group_symop_operation_xyz
x,y,z
-x,y,-z
-x,-y,-z
x,-y,z
1/2+x,1/2+y,z
1/2-x,1/2+y,-z
1/2-x,1/2-y,-z
1/2+x,1/2-y,z
loop_
_atom_site_type_symbol
_atom_site_label
_atom_site_fract_x
_atom_site_fract_y
_atom_site_fract_z
Si Si1 0.515719 0.206766 0.306373
Si Si2 0.864885 0.218597 0.466662
Si Si3 0.447337 0.788187 0.598273
Si Si4 0.480834 0.781346 0.212290
Si Si5 0.828875 0.793874 0.372891
Si Si6 0.183050 0.705746 0.751866
Si Si7 0.536893 0.780327 0.904562
Si Si8 0.320270 0.717431 0.642972
O O1 0.438201 0.213595 0.390422
O O2 0.545891 0.288485 0.339549
O O3 0.522666 0.282602 0.230999
O O4 0.537707 0.000000 0.282138
O O5 0.821391 0.277464 0.449334
O O6 0.840894 0.276501 0.555483
O O7 0.866426 0.000000 0.462979
O O8 0.500000 0.713904 0.500000
O O9 0.376117 0.769861 0.637385
O O10 0.462766 0.000000 0.589605
O O11 0.407222 0.716761 0.291750
O O12 0.497209 0.728873 0.127471
O O13 0.478818 0.000000 0.216672
O O14 0.804290 0.703868 0.333780
O O15 0.808775 0.000000 0.389232
O O16 0.178577 0.500000 0.776504
O O17 0.111800 0.783306 0.830972
O O18 0.247203 0.784405 0.722314
O O19 0.538200 0.000000 0.903626
O O20 0.500000 0.721460 0.000000
O O21 0.318373 0.500000 0.643722
#
# Coordination Sequence:
#
# PCOD9177798 Si02
#       8
#     8   8   8   8   8   8   8   8
#     4   9  16  27  42  59  82 109 139 175 210 243
#     4   9  17  27  39  57  80 108 142 175 204 238
#     4  10  19  30  43  61  82 107 144 185 215 239
#     4   8  14  25  42  63  85 109 134 164 205 249
#     4   9  16  26  40  58  81 109 140 170 200 239
#     4   9  18  31  43  59  84 111 138 170 207 248
#     4   8  13  24  45  69  87 103 129 167 207 247
#     4  10  20  31  42  57  81 112 145 177 209 246
#
# _framework density 19.08229
#
# number of rings (size 3 to 8) (size 9 to 14) (size 15 to 20)
#    0.000    3.000    1.250    1.125    0.000    2.250 
#    0.000    0.000    0.000    6.000    0.000    0.875 
#    0.000    0.000    0.000    0.000    0.000    0.000 
#
# Total GULP energy -178293.880410 kJ/mol
# GULP energy per Si atom -5571.683763 kJ/mol
# Density = 1.903886 g / cm^3
# Si number density = 19.082290 Si / 1000 Ang^3
#
#
#
# Elastic Constant Matrix: (Units=GPa)
#
#
# Indices 1 2 3 4 5 6 
#
# 1 162.7990 -3.7968 69.0646 0.0030 20.8565 -0.0007
# 2 -3.7968 62.3169 3.7721 0.0060 3.8851 -0.0214
# 3 69.0646 3.7721 83.9274 -0.0028 25.5324 -0.0021
# 4 0.0030 0.0060 -0.0028 0.7701 0.0040 -0.4751
# 5 20.8565 3.8851 25.5324 0.0040 27.3652 0.0001
# 6 -0.0007 -0.0214 -0.0021 -0.4751 0.0001 7.8430
#
#
#
# Elastic Compliance Matrix: (Units=1/GPa)
#
#
# Indices 1 2 3 4 5 6 
#
# 1 0.009506 0.001059 -0.007848 -0.000076 -0.000073 -0.000003
# 2 0.001059 0.016308 -0.000914 -0.000099 -0.002270 0.000038
# 3 -0.007848 -0.000914 0.023117 0.000214 -0.015457 0.000016
# 4 -0.000076 -0.000099 0.000214 1.349015 -0.000327 0.081721
# 5 -0.000073 -0.002270 -0.015457 -0.000327 0.051343 -0.000031
# 6 -0.000003 0.000038 0.000016 0.081721 -0.000031 0.132453
#
#
# Mechanical properties :
#
#
# Convention : Reuss Voigt Hill
#
# Bulk Modulus (GPa) = 29.82830 49.68033 39.75431
# Shear Modulus (GPa) = 3.10883 23.19588 13.15236
#
# Velocity S-wave (km/s) = 1.27777 3.49029 2.62819
# Velocity P-wave (km/s) = 4.22401 6.50647 5.48527
#
# Compressibility (1/GPa) = 0.03352521
#
# Stress axis : x y z
#
# Youngs Moduli (GPa) = 105.19765 61.31827 43.25882
#
# Poissons Ratio (x) = -0.06492 0.33949
# Poissons Ratio (y) = -0.11138 0.03953
# Poissons Ratio (z) = 0.82558 0.05603
#
# Static dielectric constant tensor:
#      x y z
#    x 1.702380 -0.000010 0.028350 
#    y -0.000010 1.714400 0.000000 
#    z 0.028350 0.000000 1.664890 
# 
# From -- ./inp_files/350906.got.cif
#   From: 2010.05.17/outbox.cif.g08.bks.cpg/sg12_176_cif.got.tgz:350906.got - 2010.06.03 13:09:07.
