data_PCOD9177700
_publ_section_title
;
Structure prediction by ZEFSAII (Michael W. Deem and Ramdas Pophale) SiO2 
 PCOD9177700
Probable space group: C 2/M
;
_chemical_formula_sum "Si O2"
_cell_formula_units_Z 64
_cell_length_a 22.923253
_cell_length_b 29.330514
_cell_length_c 9.189684
_cell_angle_alpha 90.000000
_cell_angle_beta 34.501644
_cell_angle_gamma 90.000000
_cell_volume 3499.795408
_symmetry_space_group_name_H-M "C 2/M"
_symmetry_group_IT_number 12
_symmetry_cell_setting 'monoclinic'
loop_
_space_group_symop_operation_xyz
x,y,z
-x,y,-z
-x,-y,-z
x,-y,z
1/2+x,1/2+y,z
1/2-x,1/2+y,-z
1/2-x,1/2-y,-z
1/2+x,1/2-y,z
loop_
_atom_site_type_symbol
_atom_site_label
_atom_site_fract_x
_atom_site_fract_y
_atom_site_fract_z
Si Si1 0.643043 0.205380 0.356169
Si Si2 0.950500 0.775134 0.259781
Si Si3 0.260889 0.172828 0.257784
Si Si4 0.632952 0.261125 0.083578
Si Si5 0.441023 0.950304 0.816180
Si Si6 0.684525 0.947472 0.367920
Si Si7 0.118626 0.397114 0.788321
Si Si8 0.678395 0.117161 0.140448
O O1 0.590523 0.225157 0.607013
O O2 0.616727 0.240382 0.278404
O O3 0.617474 0.154602 0.361518
O O4 0.766075 0.207689 0.119491
O O5 0.851614 0.808076 0.471712
O O6 0.038364 0.785059 0.199191
O O7 0.000000 0.775507 0.000000
O O8 0.314576 0.141411 0.268276
O O9 0.333215 0.216679 0.079161
O O10 0.256802 0.145538 0.112439
O O11 0.398551 0.938521 0.062883
O O12 0.405867 0.000000 0.838465
O O13 0.563658 0.950280 0.573154
O O14 0.398009 0.912044 0.800407
O O15 0.678450 0.917646 0.527225
O O16 0.734048 0.917476 0.136662
O O17 0.720908 0.000000 0.309242
O O18 0.000000 0.381737 0.000000
#
# Coordination Sequence:
#
# PCOD9177700 Si02
#       8
#     8   8   8   8   8   8   8   8
#     4   9  20  36  53  76 103 137 180 213 251 313
#     4  11  23  36  55  77 104 138 175 222 269 307
#     4   9  21  38  51  75 104 135 181 213 250 314
#     4   9  19  37  56  73 103 140 173 216 261 303
#     4   9  17  30  47  71 106 143 173 203 249 311
#     4  10  19  29  46  76 108 139 173 208 254 310
#     4   9  18  32  52  74 107 146 173 208 253 304
#     4  10  19  31  49  70 102 137 170 212 247 292
#
# _framework density 18.286781999999999
#
# number of rings (size 3 to 8) (size 9 to 14) (size 15 to 20)
#    0.000    2.500    0.000    2.250    0.000   13.000 
#    0.000    0.000    0.000    0.000    0.000    0.000 
#    0.000   59.000    0.000    0.000    0.000    0.000 
#
# Total GULP energy -178505.927908 kJ/mol
# GULP energy per Si atom -5578.310247 kJ/mol
# Density = 1.824516 g / cm^3
# Si number density = 18.286782 Si / 1000 Ang^3
#
#
#
# Elastic Constant Matrix: (Units=GPa)
#
#
# Indices 1 2 3 4 5 6 
#
# 1 81.1746 44.6308 40.3377 0.0000 3.8336 0.0000
# 2 44.6308 100.3004 40.3599 0.0000 5.9283 0.0000
# 3 40.3377 40.3599 85.3544 0.0000 9.8440 0.0000
# 4 0.0000 0.0000 0.0000 11.5788 0.0000 1.7582
# 5 3.8336 5.9283 9.8440 0.0000 30.5471 0.0000
# 6 0.0000 0.0000 0.0000 1.7582 0.0000 24.8446
#
#
#
# Elastic Compliance Matrix: (Units=1/GPa)
#
#
# Indices 1 2 3 4 5 6 
#
# 1 0.018512 -0.005837 -0.006077 0.000000 0.000768 0.000000
# 2 -0.005837 0.014162 -0.003848 0.000000 -0.000776 0.000000
# 3 -0.006077 -0.003848 0.016860 0.000000 -0.003924 0.000000
# 4 0.000000 0.000000 0.000000 0.087303 0.000000 -0.006178
# 5 0.000768 -0.000776 -0.003924 0.000000 0.034055 0.000000
# 6 0.000000 0.000000 0.000000 -0.006178 0.000000 0.040687
#
#
# Mechanical properties :
#
#
# Convention : Reuss Voigt Hill
#
# Bulk Modulus (GPa) = 55.52907 57.49846 56.51377
# Shear Modulus (GPa) = 20.07165 22.82750 21.44957
#
# Velocity S-wave (km/s) = 3.31661 3.53697 3.42856
# Velocity P-wave (km/s) = 6.71551 6.94198 6.82969
#
# Compressibility (1/GPa) = 0.01800858
#
# Stress axis : x y z
#
# Youngs Moduli (GPa) = 54.01844 70.61189 59.31205
#
# Poissons Ratio (x) = 0.41219 0.36044
# Poissons Ratio (y) = 0.31533 0.22825
# Poissons Ratio (z) = 0.32827 0.27173
#
# Static dielectric constant tensor:
#      x y z
#    x 1.661300 0.000000 0.038250 
#    y 0.000000 1.655530 0.000000 
#    z 0.038250 0.000000 1.650760 
# 
# From -- ./inp_files/100211.got.cif
#   From: 2010.05.17/outbox.cif.g08.bks.cpg/sg12_51_cif.got.tgz:100211.got - 2010.06.03 13:09:07.
