data_PCOD9177394
_publ_section_title
;
Structure prediction by ZEFSAII (Michael W. Deem and Ramdas Pophale) SiO2 
 PCOD9177394
Probable space group: C 2/M
;
_chemical_formula_sum "Si O2"
_cell_formula_units_Z 48
_cell_length_a 6.626035
_cell_length_b 14.288826
_cell_length_c 17.317937
_cell_angle_alpha 90.000000
_cell_angle_beta 81.233549
_cell_angle_gamma 90.000000
_cell_volume 1620.477638
_symmetry_space_group_name_H-M "C 2/M"
_symmetry_group_IT_number 12
_symmetry_cell_setting 'monoclinic'
loop_
_space_group_symop_operation_xyz
x,y,z
-x,y,-z
-x,-y,-z
x,-y,z
1/2+x,1/2+y,z
1/2-x,1/2+y,-z
1/2-x,1/2-y,-z
1/2+x,1/2-y,z
loop_
_atom_site_type_symbol
_atom_site_label
_atom_site_fract_x
_atom_site_fract_y
_atom_site_fract_z
Si Si1 0.611913 0.611943 0.645430
Si Si2 0.048123 0.886946 0.187026
Si Si3 0.112643 0.391247 0.150780
Si Si4 0.772812 0.612940 0.478631
Si Si5 0.724493 0.641022 0.016081
Si Si6 0.930188 0.388291 0.312009
O O1 0.579319 0.500000 0.639865
O O2 0.463054 0.645938 0.723080
O O3 0.627764 0.648204 0.556491
O O4 0.838816 0.621068 0.668626
O O5 0.834965 0.851509 0.161672
O O6 0.211194 0.871468 0.108997
O O7 0.042941 0.000000 0.193063
O O8 0.116675 0.500000 0.171858
O O9 0.952311 0.351722 0.222774
O O10 0.116412 0.393616 0.057881
O O11 0.741353 0.500000 0.475537
O O12 0.000000 0.624536 0.500000
O O13 0.789074 0.649520 0.389794
O O14 0.500000 0.607220 0.000000
O O15 0.750000 0.750000 0.000000
O O16 0.883456 0.500000 0.311687
#
# Coordination Sequence:
#
# PCOD9177394 Si02
#       6
#     8   8   8   8   8   8
#     4   7   9  13  23  42  67  91 114 142 178 217
#     4   8  13  22  37  55  72  93 125 160 187 215
#     4   8  13  22  37  55  72  93 125 160 187 215
#     4   7   8  10  18  36  65  94 111 131 174 223
#     4  10  19  29  41  57  77 100 126 156 190 226
#     4   7   9  13  23  42  67  91 114 142 178 217
#
# _framework density 29.620896999999999
#
# number of rings (size 3 to 8) (size 9 to 14) (size 15 to 20)
#    0.000    4.167    0.000    4.500    0.000    2.000 
#    0.000    0.000    0.000    2.000    0.000    1.167 
#    0.000    0.000    0.000    0.000    0.000   19.333 
#
# Total GULP energy -134098.487768 kJ/mol
# GULP energy per Si atom -5587.436990 kJ/mol
# Density = 2.955348 g / cm^3
# Si number density = 29.620897 Si / 1000 Ang^3
#
#
#
# Elastic Constant Matrix: (Units=GPa)
#
#
# Indices 1 2 3 4 5 6 
#
# 1 126.6341 -9.5984 145.0153 0.0000 -31.5165 0.0000
# 2 -9.5984 98.1445 18.2988 0.0000 -0.1705 0.0000
# 3 145.0153 18.2988 495.5997 0.0000 -23.6607 0.0000
# 4 0.0000 0.0000 0.0000 608.6893 0.0000 -92.4751
# 5 -31.5165 -0.1705 -23.6607 0.0000 103.1285 0.0000
# 6 0.0000 0.0000 0.0000 -92.4751 0.0000 11.5070
#
#
#
# Elastic Compliance Matrix: (Units=1/GPa)
#
#
# Indices 1 2 3 4 5 6 
#
# 1 0.013153 0.001995 -0.003771 0.000000 0.003158 0.000000
# 2 0.001995 0.010563 -0.000954 0.000000 0.000408 0.000000
# 3 -0.003771 -0.000954 0.003136 0.000000 -0.000435 0.000000
# 4 0.000000 0.000000 0.000000 -0.007436 0.000000 -0.059760
# 5 0.003158 0.000408 -0.000435 0.000000 0.010563 0.000000
# 6 0.000000 0.000000 0.000000 -0.059760 0.000000 -0.393351
#
#
# Mechanical properties :
#
#
# Convention : Reuss Voigt Hill
#
# Bulk Modulus (GPa) = 46.75120 114.20109 80.47615
# Shear Modulus (GPa) = -14.25389 182.44246 84.09428
#
# Velocity S-wave (km/s) = -2.19603 7.85660 5.33402
# Velocity P-wave (km/s) = 3.06388 10.99725 8.07239
#
# Compressibility (1/GPa) = 0.02138983
#
# Stress axis : x y z
#
# Youngs Moduli (GPa) = 76.02974 94.67192 318.89838
#
# Poissons Ratio (x) = -0.18887 1.20272
# Poissons Ratio (y) = -0.15168 0.30431
# Poissons Ratio (z) = 0.28674 0.09034
#
# Static dielectric constant tensor:
#      x y z
#    x 2.170170 0.000000 -0.084970 
#    y 0.000000 2.238940 0.000000 
#    z -0.084970 0.000000 2.260210 
# 
# From -- ./inp_files/261778.got.cif
#   From: 2010.05.17/outbox.cif.g08.bks.cpg/sg12_131_cif.got.tgz:261778.got - 2010.06.03 13:09:07.
