data_PCOD9177219
_publ_section_title
;
Structure prediction by ZEFSAII (Michael W. Deem and Ramdas Pophale) SiO2 
 PCOD9177219
Probable space group: C 2/M
;
_chemical_formula_sum "Si O2"
_cell_formula_units_Z 40
_cell_length_a 9.215067
_cell_length_b 24.527410
_cell_length_c 9.353841
_cell_angle_alpha 90.000000
_cell_angle_beta 117.279635
_cell_angle_gamma 90.000000
_cell_volume 1879.033578
_symmetry_space_group_name_H-M "C 2/M"
_symmetry_group_IT_number 12
_symmetry_cell_setting 'monoclinic'
loop_
_space_group_symop_operation_xyz
x,y,z
-x,y,-z
-x,-y,-z
x,-y,z
1/2+x,1/2+y,z
1/2-x,1/2+y,-z
1/2-x,1/2-y,-z
1/2+x,1/2-y,z
loop_
_atom_site_type_symbol
_atom_site_label
_atom_site_fract_x
_atom_site_fract_y
_atom_site_fract_z
Si Si1 0.755972 0.561270 0.538426
Si Si2 0.324526 0.814456 0.904057
Si Si3 0.500000 0.855904 0.500000
Si Si4 0.230725 0.197794 0.190249
Si Si5 0.399810 0.411385 0.248735
Si Si6 0.000000 0.104785 0.000000
O O1 0.796905 0.500000 0.507773
O O2 0.718790 0.559758 0.691036
O O3 0.582381 0.578640 0.389499
O O4 0.892546 0.604642 0.553625
O O5 0.342348 0.758248 0.823045
O O6 0.176456 0.850480 0.778772
O O7 0.500000 0.843277 0.000000
O O8 0.282563 0.802685 0.048985
O O9 0.620549 0.817306 0.642407
O O10 0.108557 0.146784 0.141691
O O11 0.402344 0.426524 0.080434
#
# Coordination Sequence:
#
# PCOD9177219 Si02
#       6
#     8   8   4   8   8   4
#     4  11  24  44  64  90 128 168 213 282 341 367
#     4  10  20  37  61  91 133 174 200 254 315 382
#     4  12  23  40  68  98 124 168 221 270 308 398
#     4  10  21  35  61  94 131 168 206 250 313 380
#     4  10  21  39  67  93 123 172 216 256 320 388
#     4  10  18  40  63  90 136 170 209 250 314 390
#
# _framework density 21.287538999999999
#
# number of rings (size 3 to 8) (size 9 to 14) (size 15 to 20)
#    0.000    1.600    3.000    2.700    0.000    1.600 
#    0.000    5.000    0.000    7.200    0.000    0.000 
#    0.000    0.000    0.000    0.000    0.000    0.000 
#
# Total GULP energy -111426.689975 kJ/mol
# GULP energy per Si atom -5571.334499 kJ/mol
# Density = 2.123909 g / cm^3
# Si number density = 21.287539 Si / 1000 Ang^3
#
#
#
# Elastic Constant Matrix: (Units=GPa)
#
#
# Indices 1 2 3 4 5 6 
#
# 1 73.8475 19.9256 4.2122 0.0000 -8.5002 0.0000
# 2 19.9256 64.4022 57.2126 0.0000 -4.0275 0.0000
# 3 4.2122 57.2126 78.3110 0.0000 11.6487 0.0000
# 4 0.0000 0.0000 0.0000 49.0700 0.0000 4.9685
# 5 -8.5002 -4.0275 11.6487 0.0000 41.5470 0.0000
# 6 0.0000 0.0000 0.0000 4.9685 0.0000 -0.0105
#
#
#
# Elastic Compliance Matrix: (Units=1/GPa)
#
#
# Indices 1 2 3 4 5 6 
#
# 1 0.016377 -0.012268 0.008098 0.000000 -0.000109 0.000000
# 2 -0.012268 0.062793 -0.047739 0.000000 0.016962 0.000000
# 3 0.008098 -0.047739 0.049727 0.000000 -0.016913 0.000000
# 4 0.000000 0.000000 0.000000 0.000418 0.000000 0.197144
# 5 -0.000109 0.016962 -0.016913 0.000000 0.030433 0.000000
# 6 0.000000 0.000000 0.000000 0.197144 0.000000 -1.947058
#
#
# Mechanical properties :
#
#
# Convention : Reuss Voigt Hill
#
# Bulk Modulus (GPa) = 39.87236 42.14016 41.00626
# Shear Modulus (GPa) = -2.98484 27.13531 12.07523
#
# Velocity S-wave (km/s) = -1.18541 3.57417 2.38427
# Velocity P-wave (km/s) = 4.11065 6.07220 5.18503
#
# Compressibility (1/GPa) = 0.02508003
#
# Stress axis : x y z
#
# Youngs Moduli (GPa) = 61.06107 15.92527 20.10977
#
# Poissons Ratio (x) = 0.19536 -0.16285
# Poissons Ratio (y) = 0.74907 0.96002
# Poissons Ratio (z) = -0.49446 0.76025
#
# Static dielectric constant tensor:
#      x y z
#    x 1.835700 0.000000 -0.017030 
#    y 0.000000 1.843760 0.000000 
#    z -0.017030 0.000000 1.764400 
# 
# From -- ./inp_files/41924.got.cif
#   From: 2010.05.17/outbox.cif.g08.bks.cpg/sg12_21_cif.got.tgz:41924.got - 2010.06.03 13:09:07.
