data_PCOD9177453
_publ_section_title
;
Structure prediction by ZEFSAII (Michael W. Deem and Ramdas Pophale) SiO2 
 PCOD9177453
Probable space group: C 2/M
;
_chemical_formula_sum "Si O2"
_cell_formula_units_Z 56
_cell_length_a 27.665281
_cell_length_b 9.222026
_cell_length_c 16.616472
_cell_angle_alpha 90.000000
_cell_angle_beta 115.217871
_cell_angle_gamma 90.000000
_cell_volume 3835.323985
_symmetry_space_group_name_H-M "C 2/M"
_symmetry_group_IT_number 12
_symmetry_cell_setting 'monoclinic'
loop_
_space_group_symop_operation_xyz
x,y,z
-x,y,-z
-x,-y,-z
x,-y,z
1/2+x,1/2+y,z
1/2-x,1/2+y,-z
1/2-x,1/2-y,-z
1/2+x,1/2-y,z
loop_
_atom_site_type_symbol
_atom_site_label
_atom_site_fract_x
_atom_site_fract_y
_atom_site_fract_z
Si Si1 0.941226 0.167048 0.000041
Si Si2 0.316066 0.327755 0.465500
Si Si3 0.988324 0.326280 0.180185
Si Si4 0.897131 0.672648 0.820685
Si Si5 0.912784 0.675177 0.455222
Si Si6 0.191323 0.327078 0.370644
Si Si7 0.487892 0.175789 0.363306
O O1 0.902828 0.244523 0.908803
O O2 0.926722 0.000000 0.001788
O O3 0.948892 0.249729 0.089444
O O4 0.000000 0.171858 0.000000
O O5 0.324666 0.500000 0.474130
O O6 0.357456 0.251837 0.435245
O O7 0.254010 0.301373 0.399117
O O8 0.323809 0.258673 0.559444
O O9 0.980169 0.500000 0.171343
O O10 0.982675 0.274664 0.268002
O O11 0.048910 0.299199 0.192584
O O12 0.895378 0.500000 0.834683
O O13 0.846585 0.713468 0.730371
O O14 0.906971 0.500000 0.452971
O O15 0.940218 0.716781 0.390014
O O16 0.956262 0.716735 0.554681
O O17 0.184028 0.500000 0.380264
O O18 0.488386 0.000000 0.361864
#
# Coordination Sequence:
#
# PCOD9177453 Si02
#       7
#     8   8   8   8   8   8   8
#     4   9  17  27  38  57  86 113 133 160 205 254
#     4  10  19  29  42  63  89 113 139 173 211 248
#     4   9  15  25  42  62  82 106 140 174 201 237
#     4   9  16  27  44  62  80 107 141 173 202 237
#     4   9  16  29  46  62  84 113 144 176 208 242
#     4   9  18  31  45  61  83 113 146 174 204 245
#     4   8  15  27  45  65  82 109 148 179 202 239
#
# _framework density 14.601114000000001
#
# number of rings (size 3 to 8) (size 9 to 14) (size 15 to 20)
#    0.000    3.000    0.000    2.571    0.000    5.143 
#    0.000    5.714    0.000    0.000    0.000    1.000 
#    0.000    0.000    0.000    0.000    0.000    0.000 
#
# Total GULP energy -155956.057428 kJ/mol
# GULP energy per Si atom -5569.859194 kJ/mol
# Density = 1.456788 g / cm^3
# Si number density = 14.601114 Si / 1000 Ang^3
#
#
#
# Elastic Constant Matrix: (Units=GPa)
#
#
# Indices 1 2 3 4 5 6 
#
# 1 64.0333 35.4591 46.9060 0.0000 -6.8165 0.0000
# 2 35.4591 37.6762 49.4739 0.0000 -1.7930 0.0000
# 3 46.9060 49.4739 145.1493 0.0000 -8.7360 0.0000
# 4 0.0000 0.0000 0.0000 15.4803 0.0000 1.3041
# 5 -6.8165 -1.7930 -8.7360 0.0000 20.9516 0.0000
# 6 0.0000 0.0000 0.0000 1.3041 0.0000 20.3106
#
#
#
# Elastic Compliance Matrix: (Units=1/GPa)
#
#
# Indices 1 2 3 4 5 6 
#
# 1 0.034036 -0.032327 0.000533 0.000000 0.008529 0.000000
# 2 -0.032327 0.078910 -0.017105 0.000000 -0.010897 0.000000
# 3 0.000533 -0.017105 0.012791 0.000000 0.004043 0.000000
# 4 0.000000 0.000000 0.000000 0.064950 0.000000 -0.004170
# 5 0.008529 -0.010897 0.004043 0.000000 0.051257 0.000000
# 6 0.000000 0.000000 0.000000 -0.004170 0.000000 0.049503
#
#
# Mechanical properties :
#
#
# Convention : Reuss Voigt Hill
#
# Bulk Modulus (GPa) = 35.79391 56.72633 46.26012
# Shear Modulus (GPa) = 12.54523 19.01648 15.78086
#
# Velocity S-wave (km/s) = 2.93439 3.61279 3.29112
# Velocity P-wave (km/s) = 6.00405 7.50587 6.79657
#
# Compressibility (1/GPa) = 0.02793771
#
# Stress axis : x y z
#
# Youngs Moduli (GPa) = 29.38085 12.67269 78.18066
#
# Poissons Ratio (x) = 0.40967 -0.04168
# Poissons Ratio (y) = 0.94980 1.33732
# Poissons Ratio (z) = -0.01566 0.21677
#
# Static dielectric constant tensor:
#      x y z
#    x 1.469520 0.000000 -0.001170 
#    y 0.000000 1.483970 0.000000 
#    z -0.001170 0.000000 1.475980 
# 
# From -- ./inp_files/237323.got.cif
#   From: 2010.05.17/outbox.cif.g08.bks.cpg/sg12_119_cif.got.tgz:237323.got - 2010.06.03 13:09:07.
