data_PCOD9177665
_publ_section_title
;
Structure prediction by ZEFSAII (Michael W. Deem and Ramdas Pophale) SiO2 
 PCOD9177665
Probable space group: C 2/M
;
_chemical_formula_sum "Si O2"
_cell_formula_units_Z 56
_cell_length_a 24.953650
_cell_length_b 7.402429
_cell_length_c 14.152894
_cell_angle_alpha 90.000000
_cell_angle_beta 57.051356
_cell_angle_gamma 90.000000
_cell_volume 2193.802537
_symmetry_space_group_name_H-M "C 2/M"
_symmetry_group_IT_number 12
_symmetry_cell_setting 'monoclinic'
loop_
_space_group_symop_operation_xyz
x,y,z
-x,y,-z
-x,-y,-z
x,-y,z
1/2+x,1/2+y,z
1/2-x,1/2+y,-z
1/2-x,1/2-y,-z
1/2+x,1/2-y,z
loop_
_atom_site_type_symbol
_atom_site_label
_atom_site_fract_x
_atom_site_fract_y
_atom_site_fract_z
Si Si1 0.743672 0.221782 0.703260
Si Si2 0.538169 0.291512 0.760243
Si Si3 0.652430 0.704568 0.533286
Si Si4 0.426455 0.781683 0.576088
Si Si5 0.102461 0.714668 0.879084
Si Si6 0.182155 0.795330 0.182902
Si Si7 0.601093 0.284138 0.102427
O O1 0.782610 0.284285 0.573368
O O2 0.670644 0.276302 0.772919
O O3 0.774710 0.283465 0.773724
O O4 0.747753 0.000000 0.699215
O O5 0.537489 0.500000 0.728984
O O6 0.602787 0.207988 0.654353
O O7 0.547631 0.289258 0.863889
O O8 0.469202 0.211929 0.800565
O O9 0.666492 0.500000 0.551098
O O10 0.609562 0.704434 0.479715
O O11 0.500000 0.732427 0.500000
O O12 0.388209 0.707679 0.701918
O O13 0.421278 0.000000 0.580836
O O14 0.097753 0.500000 0.875329
O O15 0.103978 0.756911 0.987881
O O16 0.163444 0.713677 0.099131
O O17 0.205397 0.000000 0.146941
O O18 0.601031 0.500000 0.117953
#
# Coordination Sequence:
#
# PCOD9177665 Si02
#       7
#     8   8   8   8   8   8   8
#     4   8  17  35  56  81 110 137 173 218 262 316
#     4  10  21  37  57  81 106 136 181 230 267 306
#     4   9  18  35  58  78 101 138 180 221 264 312
#     4  10  19  29  45  76 115 144 168 210 266 320
#     4  11  23  37  54  77 109 147 179 215 268 323
#     4   9  18  35  58  78 101 138 180 221 264 312
#     4  10  21  37  57  81 106 136 181 230 267 306
#
# _framework density 25.526454999999999
#
# number of rings (size 3 to 8) (size 9 to 14) (size 15 to 20)
#    0.000    2.429    0.000    3.000    0.000    6.857 
#    0.000    5.714    0.000    0.000    0.000    0.000 
#    0.000    0.000    0.000    0.000    0.000    0.000 
#
# Total GULP energy -156391.851683 kJ/mol
# GULP energy per Si atom -5585.423274 kJ/mol
# Density = 2.546836 g / cm^3
# Si number density = 25.526455 Si / 1000 Ang^3
#
#
#
# Elastic Constant Matrix: (Units=GPa)
#
#
# Indices 1 2 3 4 5 6 
#
# 1 103.1960 2.5904 9.3318 0.0000 7.6982 0.0000
# 2 2.5904 106.9191 -0.1003 0.0000 -3.2232 0.0000
# 3 9.3318 -0.1003 74.1652 0.0000 5.9785 0.0000
# 4 0.0000 0.0000 0.0000 -35.1256 0.0000 -45.3628
# 5 7.6982 -3.2232 5.9785 0.0000 43.1313 0.0000
# 6 0.0000 0.0000 0.0000 -45.3628 0.0000 -37.2667
#
#
#
# Elastic Compliance Matrix: (Units=1/GPa)
#
#
# Indices 1 2 3 4 5 6 
#
# 1 0.009921 -0.000291 -0.001117 0.000000 -0.001638 0.000000
# 2 -0.000291 0.009383 -0.000012 0.000000 0.000755 0.000000
# 3 -0.001117 -0.000012 0.013762 0.000000 -0.001709 0.000000
# 4 0.000000 0.000000 0.000000 0.049771 0.000000 -0.060583
# 5 -0.001638 0.000755 -0.001709 0.000000 0.023771 0.000000
# 6 0.000000 0.000000 0.000000 -0.060583 0.000000 0.046911
#
#
# Mechanical properties :
#
#
# Convention : Reuss Voigt Hill
#
# Bulk Modulus (GPa) = 33.08292 34.21380 33.64836
# Shear Modulus (GPa) = 30.04244 12.31168 21.17706
#
# Velocity S-wave (km/s) = 3.43434 2.19854 2.88342
# Velocity P-wave (km/s) = 5.35860 4.45838 4.92909
#
# Compressibility (1/GPa) = 0.03022708
#
# Stress axis : x y z
#
# Youngs Moduli (GPa) = 100.79895 106.57972 72.66559
#
# Poissons Ratio (x) = 0.03099 0.08114
# Poissons Ratio (y) = 0.02931 0.00084
# Poissons Ratio (z) = 0.11256 0.00123
#
# Static dielectric constant tensor:
#      x y z
#    x 1.999100 0.000000 -0.021050 
#    y 0.000000 1.983960 0.000000 
#    z -0.021050 0.000000 2.134780 
# 
# From -- ./inp_files/238265.got.cif
#   From: 2010.05.17/outbox.cif.g08.bks.cpg/sg12_120_cif.got.tgz:238265.got - 2010.06.03 13:09:07.
