data_PCOD9177973
_publ_section_title
;
Structure prediction by ZEFSAII (Michael W. Deem and Ramdas Pophale) SiO2 
 PCOD9177973
Probable space group: C 2/M
;
_chemical_formula_sum "Si O2"
_cell_formula_units_Z 48
_cell_length_a 28.543566
_cell_length_b 8.145632
_cell_length_c 24.553798
_cell_angle_alpha 90.000000
_cell_angle_beta 150.146546
_cell_angle_gamma 90.000000
_cell_volume 2841.790369
_symmetry_space_group_name_H-M "C 2/M"
_symmetry_group_IT_number 12
_symmetry_cell_setting 'monoclinic'
loop_
_space_group_symop_operation_xyz
x,y,z
-x,y,-z
-x,-y,-z
x,-y,z
1/2+x,1/2+y,z
1/2-x,1/2+y,-z
1/2-x,1/2-y,-z
1/2+x,1/2-y,z
loop_
_atom_site_type_symbol
_atom_site_label
_atom_site_fract_x
_atom_site_fract_y
_atom_site_fract_z
Si Si1 0.209552 0.198660 0.875274
Si Si2 0.106869 0.302189 0.329652
Si Si3 0.883118 0.193634 0.328389
Si Si4 0.787551 0.302101 0.454244
Si Si5 0.895428 0.698148 0.123524
Si Si6 0.905227 0.305879 0.469601
O O1 0.178159 0.256323 0.784097
O O2 0.135815 0.252703 0.847197
O O3 0.209854 0.000000 0.874601
O O4 0.312045 0.255830 0.999353
O O5 0.104179 0.500000 0.328848
O O6 0.150654 0.244549 0.431537
O O7 0.181145 0.252368 0.358446
O O8 0.000163 0.242151 0.215699
O O9 0.866547 0.276979 0.369889
O O10 0.993081 0.220565 0.425060
O O11 0.866521 0.000000 0.318307
O O12 0.788714 0.500000 0.455633
O O13 0.835450 0.246736 0.446544
O O14 0.896212 0.500000 0.121945
O O15 0.921479 0.500000 0.493509
#
# Coordination Sequence:
#
# PCOD9177973 Si02
#       6
#     8   8   8   8   8   8
#     4   9  18  30  45  67  93 119 146 180 220 261
#     4   9  17  29  46  66  88 115 144 177 218 261
#     4  10  19  30  45  67  93 118 146 181 221 262
#     4   9  18  30  44  65  90 114 143 180 219 260
#     4   9  17  30  47  67  91 118 149 181 216 262
#     4  10  19  31  47  66  89 118 150 182 219 262
#
# _framework density 16.890761000000001
#
# number of rings (size 3 to 8) (size 9 to 14) (size 15 to 20)
#    0.000    2.667    0.000    3.000    0.000    4.667 
#    0.000    3.333    0.000    1.000    0.000    7.000 
#    0.000    0.000    0.000    0.000    0.000    0.000 
#
# Total GULP energy -133795.967672 kJ/mol
# GULP energy per Si atom -5574.831986 kJ/mol
# Density = 1.685232 g / cm^3
# Si number density = 16.890761 Si / 1000 Ang^3
#
#
#
# Elastic Constant Matrix: (Units=GPa)
#
#
# Indices 1 2 3 4 5 6 
#
# 1 135.2571 -1.6286 61.4159 0.0000 11.4534 0.0000
# 2 -1.6286 7.1247 -1.4923 0.0000 1.9654 0.0000
# 3 61.4159 -1.4923 82.0531 0.0000 6.1443 0.0000
# 4 0.0000 0.0000 0.0000 12.0219 0.0000 1.7153
# 5 11.4534 1.9654 6.1443 0.0000 28.2002 0.0000
# 6 0.0000 0.0000 0.0000 1.7153 0.0000 24.3068
#
#
#
# Elastic Compliance Matrix: (Units=1/GPa)
#
#
# Indices 1 2 3 4 5 6 
#
# 1 0.011436 0.001688 -0.008308 0.000000 -0.002952 0.000000
# 2 0.001688 0.144300 0.002201 0.000000 -0.011222 0.000000
# 3 -0.008308 0.002201 0.018506 0.000000 -0.000811 0.000000
# 4 0.000000 0.000000 0.000000 0.084028 0.000000 -0.005930
# 5 -0.002952 -0.011222 -0.000811 0.000000 0.037619 0.000000
# 6 0.000000 0.000000 0.000000 -0.005930 0.000000 0.041559
#
#
# Mechanical properties :
#
#
# Convention : Reuss Voigt Hill
#
# Bulk Modulus (GPa) = 6.04575 37.89163 21.96869
# Shear Modulus (GPa) = 12.45577 23.98177 18.21877
#
# Velocity S-wave (km/s) = 2.71851 3.77213 3.28780
# Velocity P-wave (km/s) = 3.66618 6.43848 5.23903
#
# Compressibility (1/GPa) = 0.16540540
#
# Stress axis : x y z
#
# Youngs Moduli (GPa) = 87.44293 6.93000 54.03522
#
# Poissons Ratio (x) = -0.01170 0.44892
# Poissons Ratio (y) = -0.14764 -0.11893
# Poissons Ratio (z) = 0.72647 -0.01525
#
# Static dielectric constant tensor:
#      x y z
#    x 1.555990 0.000000 -0.006620 
#    y 0.000000 1.592160 0.000000 
#    z -0.006620 0.000000 1.582100 
# 
# From -- ./inp_files/351041.got.cif
#   From: 2010.05.17/outbox.cif.g08.bks.cpg/sg12_176_cif.got.tgz:351041.got - 2010.06.03 13:09:07.
