data_PCOD9177634
_publ_section_title
;
Structure prediction by ZEFSAII (Michael W. Deem and Ramdas Pophale) SiO2 
 PCOD9177634
Probable space group: C 2/M
;
_chemical_formula_sum "Si O2"
_cell_formula_units_Z 64
_cell_length_a 19.579133
_cell_length_b 21.246008
_cell_length_c 11.746359
_cell_angle_alpha 90.000000
_cell_angle_beta 126.163929
_cell_angle_gamma 90.000000
_cell_volume 3944.811169
_symmetry_space_group_name_H-M "C 2/M"
_symmetry_group_IT_number 12
_symmetry_cell_setting 'monoclinic'
loop_
_space_group_symop_operation_xyz
x,y,z
-x,y,-z
-x,-y,-z
x,-y,z
1/2+x,1/2+y,z
1/2-x,1/2+y,-z
1/2-x,1/2-y,-z
1/2+x,1/2-y,z
loop_
_atom_site_type_symbol
_atom_site_label
_atom_site_fract_x
_atom_site_fract_y
_atom_site_fract_z
Si Si1 0.183052 0.931044 0.420211
Si Si2 0.063014 0.292937 0.149666
Si Si3 0.833408 0.799032 0.912507
Si Si4 0.053859 0.234003 0.773621
Si Si5 0.693934 0.186137 0.459553
Si Si6 0.936676 0.136572 0.532703
Si Si7 0.598799 0.570959 0.092630
Si Si8 0.853362 0.261218 0.354722
O O1 0.247389 0.873893 0.468953
O O2 0.119997 0.913730 0.459900
O O3 0.129832 0.932079 0.252329
O O4 0.222187 0.000000 0.475003
O O5 0.103434 0.235908 0.115230
O O6 0.140231 0.324254 0.292158
O O7 0.005556 0.270178 0.197278
O O8 0.000000 0.327733 0.000000
O O9 0.847908 0.873630 0.913060
O O10 0.740187 0.775206 0.786644
O O11 0.863725 0.782227 0.069720
O O12 0.081616 0.269971 0.686045
O O13 0.998130 0.174087 0.680216
O O14 0.750000 0.250000 0.500000
O O15 0.641094 0.198271 0.523678
O O16 0.875109 0.189937 0.416813
O O17 0.000000 0.110794 0.500000
O O18 0.607169 0.500000 0.051427
O O19 0.500000 0.588025 0.000000
#
# Coordination Sequence:
#
# PCOD9177634 Si02
#       8
#     8   8   8   8   8   8   8   8
#     4  11  21  33  50  76 102 134 177 215 253 309
#     4  10  19  30  51  75 100 130 166 209 267 311
#     4  11  18  31  48  71 106 134 165 211 259 301
#     4  10  20  30  46  77 104 132 167 209 255 311
#     4  12  18  33  55  73 102 134 171 217 263 303
#     4  10  19  32  48  70 102 138 169 203 253 313
#     4  10  19  29  45  69  97 134 176 209 246 301
#     4  11  20  30  50  74 103 134 168 211 265 297
#
# _framework density 16.223844
#
# number of rings (size 3 to 8) (size 9 to 14) (size 15 to 20)
#    0.000    1.375    5.000    3.000    0.000    0.250 
#    0.000    0.000    0.000    1.125    0.000    2.625 
#    0.000    0.000    0.000    0.000    0.000    0.000 
#
# Total GULP energy -178237.939855 kJ/mol
# GULP energy per Si atom -5569.935620 kJ/mol
# Density = 1.618692 g / cm^3
# Si number density = 16.223844 Si / 1000 Ang^3
#
#
#
# Elastic Constant Matrix: (Units=GPa)
#
#
# Indices 1 2 3 4 5 6 
#
# 1 72.1910 25.9584 5.7159 0.0000 -17.4151 0.0000
# 2 25.9584 66.3821 16.2317 0.0000 0.4447 0.0000
# 3 5.7159 16.2317 98.3440 0.0000 3.7311 0.0000
# 4 0.0000 0.0000 0.0000 14.7116 0.0000 -0.4622
# 5 -17.4151 0.4447 3.7311 0.0000 30.0178 0.0000
# 6 0.0000 0.0000 0.0000 -0.4622 0.0000 12.4716
#
#
#
# Elastic Compliance Matrix: (Units=1/GPa)
#
#
# Indices 1 2 3 4 5 6 
#
# 1 0.019339 -0.007563 -0.000307 0.000000 0.011370 0.000000
# 2 -0.007563 0.018656 -0.002474 0.000000 -0.004357 0.000000
# 3 -0.000307 -0.002474 0.010650 0.000000 -0.001465 0.000000
# 4 0.000000 0.000000 0.000000 0.068053 0.000000 0.002522
# 5 0.011370 -0.004357 -0.001465 0.000000 0.040157 0.000000
# 6 0.000000 0.000000 0.000000 0.002522 0.000000 0.080276
#
#
# Mechanical properties :
#
#
# Convention : Reuss Voigt Hill
#
# Bulk Modulus (GPa) = 35.77091 36.96991 36.37041
# Shear Modulus (GPa) = 18.71689 24.04095 21.37892
#
# Velocity S-wave (km/s) = 3.40025 3.85363 3.63402
# Velocity P-wave (km/s) = 6.12469 6.52974 6.33045
#
# Compressibility (1/GPa) = 0.02795568
#
# Stress axis : x y z
#
# Youngs Moduli (GPa) = 51.70916 53.60159 93.89484
#
# Poissons Ratio (x) = 0.40542 0.02883
# Poissons Ratio (y) = 0.39110 0.23233
# Poissons Ratio (z) = 0.01588 0.13263
#
# Static dielectric constant tensor:
#      x y z
#    x 1.562100 0.000000 0.007380 
#    y 0.000000 1.530180 0.000000 
#    z 0.007380 0.000000 1.608310 
# 
# From -- ./inp_files/169458.got.cif
#   From: 2010.05.17/outbox.cif.g08.bks.cpg/sg12_85_cif.got.tgz:169458.got - 2010.06.03 13:09:07.
