data_PCOD9177163
_publ_section_title
;
Structure prediction by ZEFSAII (Michael W. Deem and Ramdas Pophale) SiO2 
 PCOD9177163
Probable space group: C 2/M
;
_chemical_formula_sum "Si O2"
_cell_formula_units_Z 30
_cell_length_a 9.590103
_cell_length_b 11.151935
_cell_length_c 14.850769
_cell_angle_alpha 90.000000
_cell_angle_beta 42.490514
_cell_angle_gamma 90.000000
_cell_volume 1072.821106
_symmetry_space_group_name_H-M "C 2/M"
_symmetry_group_IT_number 12
_symmetry_cell_setting 'monoclinic'
loop_
_space_group_symop_operation_xyz
x,y,z
-x,y,-z
-x,-y,-z
x,-y,z
1/2+x,1/2+y,z
1/2-x,1/2+y,-z
1/2-x,1/2-y,-z
1/2+x,1/2-y,z
loop_
_atom_site_type_symbol
_atom_site_label
_atom_site_fract_x
_atom_site_fract_y
_atom_site_fract_z
Si Si1 0.865318 0.500000 0.462624
Si Si2 0.957259 0.500000 0.807888
Si Si3 0.500000 0.000000 0.000000
Si Si4 0.485889 0.743138 0.412851
Si Si5 0.330189 0.303415 0.144210
Si Si6 0.006927 0.000000 0.789296
O O1 0.860565 0.500000 0.354981
O O2 0.013084 0.386549 0.408796
O O3 0.658276 0.500000 0.624959
O O4 0.024209 0.500000 0.877577
O O5 0.808138 0.387856 0.854283
O O6 0.762833 0.000000 0.889820
O O7 0.500000 0.679727 0.500000
O O8 0.250000 0.750000 0.500000
O O9 0.668473 0.709964 0.261589
O O10 0.434663 0.384072 0.173726
O O11 0.500000 0.241787 0.000000
#
# Coordination Sequence:
#
# PCOD9177163 Si02
#       6
#     4   4   2   8   8   4
#     4  10  21  43  70  94 125 189 220 259 338 419
#     4   9  19  31  59  98 134 159 224 271 329 395
#     4  12  20  32  52 104 148 154 212 306 324 376
#     4  11  23  43  69 100 133 171 227 279 330 403
#     4  10  18  38  65  94 124 183 219 264 332 422
#     4  11  19  35  67  96 135 167 228 268 341 406
#
# _framework density 27.963653999999998
#
# number of rings (size 3 to 8) (size 9 to 14) (size 15 to 20)
#    0.000    1.600    5.333    2.000    0.000    0.533 
#    9.600    1.333    2.933    0.000    0.000    0.000 
#    0.000    0.000    0.000    0.000    0.000    0.000 
#
# Total GULP energy -83579.283630 kJ/mol
# GULP energy per Si atom -5571.952242 kJ/mol
# Density = 2.790001 g / cm^3
# Si number density = 27.963654 Si / 1000 Ang^3
#
#
#
# Elastic Constant Matrix: (Units=GPa)
#
#
# Indices 1 2 3 4 5 6 
#
# 1 248.3960 3.1284 132.5532 0.0000 2.6028 0.0000
# 2 3.1284 36.3448 23.7983 0.0000 -11.4195 0.0000
# 3 132.5532 23.7983 368.4035 -0.0002 -0.6865 0.0000
# 4 0.0000 0.0000 -0.0002 17.7383 0.0001 -46.6576
# 5 2.6028 -11.4195 -0.6865 0.0001 67.2467 0.0000
# 6 0.0000 0.0000 0.0000 -46.6576 0.0000 -32.2206
#
#
#
# Elastic Compliance Matrix: (Units=1/GPa)
#
#
# Indices 1 2 3 4 5 6 
#
# 1 0.005004 0.000754 -0.001849 0.000000 -0.000085 0.000000
# 2 0.000754 0.030524 -0.002233 0.000000 0.005131 0.000000
# 3 -0.001849 -0.002233 0.003524 0.000000 -0.000272 0.000000
# 4 0.000000 0.000000 0.000000 0.011723 0.000000 -0.016976
# 5 -0.000085 0.005131 -0.000272 0.000000 0.015743 0.000000
# 6 0.000000 0.000000 0.000000 -0.016976 0.000000 -0.006454
#
#
# Mechanical properties :
#
#
# Convention : Reuss Voigt Hill
#
# Bulk Modulus (GPa) = 30.87031 108.01156 69.44093
# Shear Modulus (GPa) = 64.49979 43.46385 53.98182
#
# Velocity S-wave (km/s) = 4.80787 3.94674 4.39843
# Velocity P-wave (km/s) = 6.47181 7.71223 7.11909
#
# Compressibility (1/GPa) = 0.03239358
#
# Stress axis : x y z
#
# Youngs Moduli (GPa) = 199.83614 32.76096 283.80196
#
# Poissons Ratio (x) = -0.02469 0.52485
# Poissons Ratio (y) = -0.15060 0.63385
# Poissons Ratio (z) = 0.36956 0.07317
#
# Static dielectric constant tensor:
#      x y z
#    x 2.128060 0.000000 0.015700 
#    y 0.000000 1.359970 0.000000 
#    z 0.015700 0.000000 2.317740 
# 
# From -- ./inp_files/118454.got.cif
#   From: 2010.05.17/outbox.cif.g08.bks.cpg/sg12_60_cif.got.tgz:118454.got - 2010.06.03 13:09:07.
