data_PCOD9177717
_publ_section_title
;
Structure prediction by ZEFSAII (Michael W. Deem and Ramdas Pophale) SiO2 
 PCOD9177717
Probable space group: C 2/M
;
_chemical_formula_sum "Si O2"
_cell_formula_units_Z 64
_cell_length_a 23.786419
_cell_length_b 9.098870
_cell_length_c 17.284424
_cell_angle_alpha 90.000000
_cell_angle_beta 84.104309
_cell_angle_gamma 90.000000
_cell_volume 3721.072726
_symmetry_space_group_name_H-M "C 2/M"
_symmetry_group_IT_number 12
_symmetry_cell_setting 'monoclinic'
loop_
_space_group_symop_operation_xyz
x,y,z
-x,y,-z
-x,-y,-z
x,-y,z
1/2+x,1/2+y,z
1/2-x,1/2+y,-z
1/2-x,1/2-y,-z
1/2+x,1/2-y,z
loop_
_atom_site_type_symbol
_atom_site_label
_atom_site_fract_x
_atom_site_fract_y
_atom_site_fract_z
Si Si1 0.951693 0.826248 0.255473
Si Si2 0.564449 0.176022 0.465374
Si Si3 0.135967 0.332026 0.830485
Si Si4 0.775506 0.330095 0.326155
Si Si5 0.262911 0.177476 0.080096
Si Si6 0.065664 0.325003 0.285419
Si Si7 0.692755 0.824136 0.227655
Si Si8 0.367197 0.324451 0.410497
O O1 0.915711 0.767668 0.188169
O O2 0.914431 0.790719 0.337562
O O3 0.012521 0.753293 0.254757
O O4 0.957103 0.000000 0.250907
O O5 0.500000 0.207998 0.500000
O O6 0.569898 0.217535 0.375053
O O7 0.608143 0.259624 0.514044
O O8 0.573154 0.000000 0.472056
O O9 0.116790 0.500000 0.842293
O O10 0.180518 0.329515 0.752595
O O11 0.173492 0.288312 0.898830
O O12 0.762058 0.500000 0.345455
O O13 0.722161 0.241329 0.300654
O O14 0.809389 0.251804 0.390347
O O15 0.221557 0.245702 0.150513
O O16 0.257558 0.000000 0.079288
O O17 0.250000 0.250000 0.000000
O O18 0.055556 0.500000 0.284922
O O19 0.126051 0.295336 0.238663
O O20 0.702337 0.000000 0.223675
O O21 0.360257 0.500000 0.414897
#
# Coordination Sequence:
#
# PCOD9177717 Si02
#       8
#     8   8   8   8   8   8   8   8
#     4  10  19  29  47  74 102 133 171 215 258 299
#     4  10  19  32  50  70  97 135 178 221 264 312
#     4   8  16  30  49  74 103 132 165 203 246 299
#     4   9  17  31  51  72  97 132 172 213 259 311
#     4  10  20  35  58  86 111 138 168 204 251 302
#     4  10  21  35  51  72 101 140 177 212 260 313
#     4  10  20  35  54  77 106 136 171 212 254 307
#     4  10  19  30  47  73 101 129 169 223 272 309
#
# _framework density 17.199342000000001
#
# number of rings (size 3 to 8) (size 9 to 14) (size 15 to 20)
#    0.000    2.375    1.250    2.625    0.000    6.250 
#    0.000    0.625    0.000    0.750    0.000    5.250 
#    0.000    0.000    0.000    0.000    0.000    0.000 
#
# Total GULP energy -178497.900367 kJ/mol
# GULP energy per Si atom -5578.059386 kJ/mol
# Density = 1.716020 g / cm^3
# Si number density = 17.199342 Si / 1000 Ang^3
#
#
#
# Elastic Constant Matrix: (Units=GPa)
#
#
# Indices 1 2 3 4 5 6 
#
# 1 114.3994 69.9664 52.6230 0.0000 27.6943 0.0000
# 2 69.9664 69.6208 39.3544 0.0000 16.0394 0.0000
# 3 52.6230 39.3544 75.0485 0.0000 26.2890 0.0000
# 4 0.0000 0.0000 0.0000 24.4821 0.0000 9.9409
# 5 27.6943 16.0394 26.2890 0.0000 27.7493 0.0000
# 6 0.0000 0.0000 0.0000 9.9409 0.0000 30.0408
#
#
#
# Elastic Compliance Matrix: (Units=1/GPa)
#
#
# Indices 1 2 3 4 5 6 
#
# 1 0.026351 -0.022313 -0.003116 0.000000 -0.010450 0.000000
# 2 -0.022313 0.039423 -0.007253 0.000000 0.006353 0.000000
# 3 -0.003116 -0.007253 0.025077 0.000000 -0.016455 0.000000
# 4 0.000000 0.000000 0.000000 0.047186 0.000000 -0.015615
# 5 -0.010450 0.006353 -0.016455 0.000000 0.058383 0.000000
# 6 0.000000 0.000000 0.000000 -0.015615 0.000000 0.038455
#
#
# Mechanical properties :
#
#
# Convention : Reuss Voigt Hill
#
# Bulk Modulus (GPa) = 39.23409 64.77290 52.00350
# Shear Modulus (GPa) = 16.19510 22.92943 19.56227
#
# Velocity S-wave (km/s) = 3.07190 3.65520 3.37617
# Velocity P-wave (km/s) = 5.95340 7.45358 6.74533
#
# Compressibility (1/GPa) = 0.02548804
#
# Stress axis : x y z
#
# Youngs Moduli (GPa) = 37.94963 25.36563 39.87705
#
# Poissons Ratio (x) = 0.56598 0.12425
# Poissons Ratio (y) = 0.84676 0.28922
# Poissons Ratio (z) = 0.11824 0.18397
#
# Static dielectric constant tensor:
#      x y z
#    x 1.574710 0.000000 0.000080 
#    y 0.000000 1.573240 0.000000 
#    z 0.000080 0.000000 1.575470 
# 
# From -- ./inp_files/281418.got.cif
#   From: 2010.05.17/outbox.cif.g08.bks.cpg/sg12_141_cif.got.tgz:281418.got - 2010.06.03 13:09:07.
