data_PCOD9177535
_publ_section_title
;
Structure prediction by ZEFSAII (Michael W. Deem and Ramdas Pophale) SiO2 
 PCOD9177535
Probable space group: C 2/M
;
_chemical_formula_sum "Si O2"
_cell_formula_units_Z 56
_cell_length_a 24.150260
_cell_length_b 7.603099
_cell_length_c 16.291340
_cell_angle_alpha 90.000000
_cell_angle_beta 53.995461
_cell_angle_gamma 90.000000
_cell_volume 2419.925018
_symmetry_space_group_name_H-M "C 2/M"
_symmetry_group_IT_number 12
_symmetry_cell_setting 'monoclinic'
loop_
_space_group_symop_operation_xyz
x,y,z
-x,y,-z
-x,-y,-z
x,-y,z
1/2+x,1/2+y,z
1/2-x,1/2+y,-z
1/2-x,1/2-y,-z
1/2+x,1/2-y,z
loop_
_atom_site_type_symbol
_atom_site_label
_atom_site_fract_x
_atom_site_fract_y
_atom_site_fract_z
Si Si1 0.752836 0.289218 0.665638
Si Si2 0.391374 0.700614 0.228070
Si Si3 0.032914 0.208663 0.155428
Si Si4 0.011839 0.206759 0.613548
Si Si5 0.631400 0.712157 0.303990
Si Si6 0.172140 0.211369 0.088165
Si Si7 0.152210 0.703253 0.554865
O O1 0.746176 0.500000 0.662336
O O2 0.677025 0.219458 0.752285
O O3 0.810492 0.257164 0.682406
O O4 0.784535 0.222718 0.552187
O O5 0.398348 0.500000 0.191666
O O6 0.467365 0.782884 0.163395
O O7 0.368860 0.697934 0.344065
O O8 0.014405 0.222567 0.268633
O O9 0.110639 0.277062 0.082475
O O10 0.033760 0.000000 0.135734
O O11 0.947321 0.272962 0.616878
O O12 0.086312 0.290903 0.551536
O O13 0.022677 0.000000 0.586295
O O14 0.626451 0.500000 0.305722
O O15 0.656721 0.776437 0.193233
O O16 0.164818 0.000000 0.095544
O O17 0.250000 0.250000 0.000000
O O18 0.163150 0.500000 0.567068
#
# Coordination Sequence:
#
# PCOD9177535 Si02
#       7
#     8   8   8   8   8   8   8
#     4  10  21  32  44  66  96 127 159 196 237 271
#     4   9  17  32  50  65  88 127 167 197 224 266
#     4   7  12  26  48  68  87 113 149 188 221 259
#     4   8  15  30  48  64  86 122 161 193 226 271
#     4   9  19  34  50  68  93 124 158 190 226 277
#     4   9  17  31  52  77  96 112 140 183 232 281
#     4  10  19  29  43  68  96 121 156 204 243 268
#
# _framework density 23.141214000000002
#
# number of rings (size 3 to 8) (size 9 to 14) (size 15 to 20)
#    0.000    3.143    0.000    3.429    0.000    3.429 
#    0.000    8.571    0.000    0.857    0.000    6.000 
#    0.000    0.000    0.000    0.000    0.000    0.000 
#
# Total GULP energy -156085.492449 kJ/mol
# GULP energy per Si atom -5574.481873 kJ/mol
# Density = 2.308854 g / cm^3
# Si number density = 23.141214 Si / 1000 Ang^3
#
#
#
# Elastic Constant Matrix: (Units=GPa)
#
#
# Indices 1 2 3 4 5 6 
#
# 1 145.2123 11.4958 27.1098 0.0000 -51.2582 0.0000
# 2 11.4958 54.9989 1.7952 -0.0001 -7.7233 -0.0003
# 3 27.1098 1.7952 61.6831 -0.0001 -43.1326 0.0000
# 4 0.0000 -0.0001 -0.0001 12.0437 0.0000 -4.6319
# 5 -51.2582 -7.7233 -43.1326 0.0000 44.1023 0.0000
# 6 0.0000 -0.0003 0.0000 -4.6319 0.0000 24.0560
#
#
#
# Elastic Compliance Matrix: (Units=1/GPa)
#
#
# Indices 1 2 3 4 5 6 
#
# 1 0.017210 0.001418 0.020738 0.000000 0.040533 0.000000
# 2 0.001418 0.019368 0.007393 0.000000 0.012270 0.000000
# 3 0.020738 0.007393 0.077953 0.000001 0.101636 0.000000
# 4 0.000000 0.000000 0.000001 0.089671 0.000001 0.017266
# 5 0.040533 0.012270 0.101636 0.000001 0.171335 0.000000
# 6 0.000000 0.000000 0.000000 0.017266 0.000000 0.044894
#
#
# Mechanical properties :
#
#
# Convention : Reuss Voigt Hill
#
# Bulk Modulus (GPa) = 5.75941 38.07732 21.91837
# Shear Modulus (GPa) = 11.92723 30.80664 21.36693
#
# Velocity S-wave (km/s) = 2.27273 3.65258 3.04193
# Velocity P-wave (km/s) = 3.06289 5.85479 4.67225
#
# Compressibility (1/GPa) = 0.17362884
#
# Stress axis : x y z
#
# Youngs Moduli (GPa) = 58.10440 51.63269 12.82832
#
# Poissons Ratio (x) = -0.07320 -0.26603
# Poissons Ratio (y) = -0.08238 -0.09484
# Poissons Ratio (z) = -1.20497 -0.38174
#
# Static dielectric constant tensor:
#      x y z
#    x 1.970100 0.000000 -0.042750 
#    y 0.000000 1.893700 0.000000 
#    z -0.042750 0.000000 1.880300 
# 
# From -- ./inp_files/323550.got.cif
#   From: 2010.05.17/outbox.cif.g08.bks.cpg/sg12_162_cif.got.tgz:323550.got - 2010.06.03 13:09:07.
