data_PCOD9177828
_publ_section_title
;
Structure prediction by ZEFSAII (Michael W. Deem and Ramdas Pophale) SiO2 
 PCOD9177828
Probable space group: C 2/M
;
_chemical_formula_sum "Si O2"
_cell_formula_units_Z 56
_cell_length_a 8.588117
_cell_length_b 22.287667
_cell_length_c 19.802916
_cell_angle_alpha 90.000000
_cell_angle_beta 52.724506
_cell_angle_gamma 90.000000
_cell_volume 3016.191116
_symmetry_space_group_name_H-M "C 2/M"
_symmetry_group_IT_number 12
_symmetry_cell_setting 'monoclinic'
loop_
_space_group_symop_operation_xyz
x,y,z
-x,y,-z
-x,-y,-z
x,-y,z
1/2+x,1/2+y,z
1/2-x,1/2+y,-z
1/2-x,1/2-y,-z
1/2+x,1/2-y,z
loop_
_atom_site_type_symbol
_atom_site_label
_atom_site_fract_x
_atom_site_fract_y
_atom_site_fract_z
Si Si1 0.855283 0.429195 0.479271
Si Si2 0.620602 0.874320 0.673557
Si Si3 0.143079 0.704145 0.177463
Si Si4 0.582676 0.262617 0.403855
Si Si5 0.040167 0.068639 0.335291
Si Si6 0.468874 0.773877 0.936564
Si Si7 0.578456 0.310158 0.689072
O O1 0.894331 0.500000 0.461416
O O2 0.890304 0.399034 0.398672
O O3 0.631285 0.422988 0.563253
O O4 0.000000 0.406268 0.500000
O O5 0.419878 0.851321 0.759473
O O6 0.756269 0.815097 0.636620
O O7 0.749530 0.919164 0.685985
O O8 0.371258 0.720176 0.109423
O O9 0.033696 0.693382 0.134682
O O10 0.056650 0.766649 0.230635
O O11 0.500000 0.255459 0.500000
O O12 0.437193 0.285052 0.384062
O O13 0.698939 0.203611 0.349483
O O14 0.991998 0.121505 0.294776
O O15 0.024545 0.000000 0.315132
O O16 0.500000 0.807070 0.000000
O O17 0.250000 0.750000 0.000000
#
# Coordination Sequence:
#
# PCOD9177828 Si02
#       7
#     8   8   8   8   8   8   8
#     4  10  21  34  47  67  98 141 194 240 268 292
#     4  10  19  32  51  71  98 135 175 222 267 302
#     4  10  19  33  50  80 110 130 162 207 258 317
#     4  10  19  30  43  66  95 132 174 208 258 312
#     4  10  20  34  50  68  98 144 194 231 259 299
#     4   9  18  33  54  76 107 137 156 185 244 332
#     4  10  20  31  47  70 100 132 166 217 263 295
#
# _framework density 18.566464
#
# number of rings (size 3 to 8) (size 9 to 14) (size 15 to 20)
#    0.000    2.143    0.000    5.571    0.000    6.286 
#    0.000    0.000    0.000    0.000    0.000    0.000 
#    0.000  114.286    0.000    0.000    0.000    0.000 
#
# Total GULP energy -156156.703414 kJ/mol
# GULP energy per Si atom -5577.025122 kJ/mol
# Density = 1.852421 g / cm^3
# Si number density = 18.566464 Si / 1000 Ang^3
#
#
#
# Elastic Constant Matrix: (Units=GPa)
#
#
# Indices 1 2 3 4 5 6 
#
# 1 58.7694 20.5476 18.2074 0.0000 2.8932 0.0000
# 2 20.5476 87.6281 18.7370 0.0000 4.3888 0.0000
# 3 18.2074 18.7370 69.0292 0.0000 0.3835 0.0000
# 4 0.0000 0.0000 0.0000 -0.7978 0.0000 0.0136
# 5 2.8932 4.3888 0.3835 0.0000 37.9703 0.0000
# 6 0.0000 0.0000 0.0000 0.0136 0.0000 26.3784
#
#
#
# Elastic Compliance Matrix: (Units=1/GPa)
#
#
# Indices 1 2 3 4 5 6 
#
# 1 0.019642 -0.003660 -0.004182 0.000000 -0.001031 0.000000
# 2 -0.003660 0.012868 -0.002521 0.000000 -0.001183 0.000000
# 3 -0.004182 -0.002521 0.016271 0.000000 0.000446 0.000000
# 4 0.000000 0.000000 0.000000 -1.253435 0.000000 0.000646
# 5 -0.001031 -0.001183 0.000446 0.000000 0.026547 0.000000
# 6 0.000000 0.000000 0.000000 0.000646 0.000000 0.037909
#
#
# Mechanical properties :
#
#
# Convention : Reuss Voigt Hill
#
# Bulk Modulus (GPa) = 35.64257 36.71228 36.17742
# Shear Modulus (GPa) = -4.50402 23.23917 9.36758
#
# Velocity S-wave (km/s) = -1.55922 3.54174 2.24864
# Velocity P-wave (km/s) = 3.99968 6.04496 5.12538
#
# Compressibility (1/GPa) = 0.02805634
#
# Stress axis : x y z
#
# Youngs Moduli (GPa) = 50.91252 77.70993 61.45761
#
# Poissons Ratio (x) = 0.28441 0.25699
# Poissons Ratio (y) = 0.18634 0.15494
# Poissons Ratio (z) = 0.21289 0.19591
#
# Static dielectric constant tensor:
#      x y z
#    x 1.747690 0.000000 0.013260 
#    y 0.000000 1.664130 0.000000 
#    z 0.013260 0.000000 1.686700 
# 
# From -- ./inp_files/259135.got.cif
#   From: 2010.05.17/outbox.cif.g08.bks.cpg/sg12_130_cif.got.tgz:259135.got - 2010.06.03 13:09:07.
