data_PCOD9177362
_publ_section_title
;
Structure prediction by ZEFSAII (Michael W. Deem and Ramdas Pophale) SiO2 
 PCOD9177362
Probable space group: C 2/M
;
_chemical_formula_sum "Si O2"
_cell_formula_units_Z 48
_cell_length_a 20.206783
_cell_length_b 9.384829
_cell_length_c 15.537914
_cell_angle_alpha 90.000000
_cell_angle_beta 76.943904
_cell_angle_gamma 90.000000
_cell_volume 2870.395914
_symmetry_space_group_name_H-M "C 2/M"
_symmetry_group_IT_number 12
_symmetry_cell_setting 'monoclinic'
loop_
_space_group_symop_operation_xyz
x,y,z
-x,y,-z
-x,-y,-z
x,-y,z
1/2+x,1/2+y,z
1/2-x,1/2+y,-z
1/2-x,1/2-y,-z
1/2+x,1/2-y,z
loop_
_atom_site_type_symbol
_atom_site_label
_atom_site_fract_x
_atom_site_fract_y
_atom_site_fract_z
Si Si1 0.818612 0.668186 0.457048
Si Si2 0.072636 0.335010 0.087258
Si Si3 0.091167 0.334417 0.890668
Si Si4 0.444056 0.333779 0.740362
Si Si5 0.568071 0.832651 0.429830
Si Si6 0.607347 0.667087 0.718020
O O1 0.807342 0.500000 0.444683
O O2 0.750000 0.750000 0.500000
O O3 0.870125 0.681072 0.522222
O O4 0.853446 0.742270 0.364813
O O5 0.090532 0.500000 0.098396
O O6 0.086918 0.238718 0.165413
O O7 0.990792 0.331142 0.097666
O O8 0.104004 0.291602 0.985967
O O9 0.111651 0.500000 0.873077
O O10 0.120341 0.233297 0.808486
O O11 0.427459 0.500000 0.741986
O O12 0.422568 0.254821 0.659846
O O13 0.526309 0.320401 0.723694
O O14 0.500000 0.785135 0.500000
O O15 0.441141 0.000000 0.589250
O O16 0.625073 0.500000 0.708907
#
# Coordination Sequence:
#
# PCOD9177362 Si02
#       6
#     8   8   8   8   8   8
#     4  11  23  38  55  74 100 133 170 213 254 300
#     4   8  14  25  41  63  95 131 166 203 245 297
#     4   8  14  25  42  64  92 130 169 204 245 293
#     4  10  19  28  45  73 103 132 164 208 254 295
#     4  10  20  35  54  74  97 132 173 208 249 302
#     4  10  19  30  46  71 101 133 167 206 253 300
#
# _framework density 16.722431
#
# number of rings (size 3 to 8) (size 9 to 14) (size 15 to 20)
#    0.000    2.500    1.667    2.500    0.000    3.667 
#    0.000    3.333    0.000    0.000    0.000    1.167 
#    0.000    0.000    0.000    0.000    0.000    0.000 
#
# Total GULP energy -133786.355823 kJ/mol
# GULP energy per Si atom -5574.431493 kJ/mol
# Density = 1.668437 g / cm^3
# Si number density = 16.722431 Si / 1000 Ang^3
#
#
#
# Elastic Constant Matrix: (Units=GPa)
#
#
# Indices 1 2 3 4 5 6 
#
# 1 26.4849 32.4133 21.9107 0.0000 1.4598 0.0000
# 2 32.4133 128.2712 108.3294 0.0000 9.8793 0.0000
# 3 21.9107 108.3294 162.3467 0.0000 22.1790 0.0000
# 4 0.0000 0.0000 0.0000 24.5088 0.0000 -3.4350
# 5 1.4598 9.8793 22.1790 0.0000 10.3520 0.0000
# 6 0.0000 0.0000 0.0000 -3.4350 0.0000 15.4416
#
#
#
# Elastic Compliance Matrix: (Units=1/GPa)
#
#
# Indices 1 2 3 4 5 6 
#
# 1 0.055951 -0.017803 0.004362 0.000000 -0.000245 0.000000
# 2 -0.017803 0.024647 -0.015797 0.000000 0.012834 0.000000
# 3 0.004362 -0.015797 0.019986 0.000000 -0.028360 0.000000
# 4 0.000000 0.000000 0.000000 0.042115 0.000000 0.009368
# 5 -0.000245 0.012834 -0.028360 0.000000 0.145147 0.000000
# 6 0.000000 0.000000 0.000000 0.009368 0.000000 0.066844
#
#
# Mechanical properties :
#
#
# Convention : Reuss Voigt Hill
#
# Bulk Modulus (GPa) = 23.74876 71.37886 47.56381
# Shear Modulus (GPa) = 11.70403 20.35709 16.03056
#
# Velocity S-wave (km/s) = 2.64843 3.49284 3.09953
# Velocity P-wave (km/s) = 4.85642 7.68399 6.42762
#
# Compressibility (1/GPa) = 0.04210746
#
# Stress axis : x y z
#
# Youngs Moduli (GPa) = 17.87288 40.57218 50.03439
#
# Poissons Ratio (x) = 0.72231 -0.21824
# Poissons Ratio (y) = 0.31819 0.79039
# Poissons Ratio (z) = -0.07796 0.64092
#
# Static dielectric constant tensor:
#      x y z
#    x 1.543970 0.000000 -0.000370 
#    y 0.000000 1.556010 0.000000 
#    z -0.000370 0.000000 1.562850 
# 
# From -- ./inp_files/229277.got.cif
#   From: 2010.05.17/outbox.cif.g08.bks.cpg/sg12_115_cif.got.tgz:229277.got - 2010.06.03 13:09:07.
