data_PCOD9177507
_publ_section_title
;
Structure prediction by ZEFSAII (Michael W. Deem and Ramdas Pophale) SiO2 
 PCOD9177507
Probable space group: C 2/M
;
_chemical_formula_sum "Si O2"
_cell_formula_units_Z 64
_cell_length_a 29.355593
_cell_length_b 8.259264
_cell_length_c 21.637176
_cell_angle_alpha 90.000000
_cell_angle_beta 134.823304
_cell_angle_gamma 90.000000
_cell_volume 3720.942821
_symmetry_space_group_name_H-M "C 2/M"
_symmetry_group_IT_number 12
_symmetry_cell_setting 'monoclinic'
loop_
_space_group_symop_operation_xyz
x,y,z
-x,y,-z
-x,-y,-z
x,-y,z
1/2+x,1/2+y,z
1/2-x,1/2+y,-z
1/2-x,1/2-y,-z
1/2+x,1/2-y,z
loop_
_atom_site_type_symbol
_atom_site_label
_atom_site_fract_x
_atom_site_fract_y
_atom_site_fract_z
Si Si1 0.566316 0.694394 0.245079
Si Si2 0.919179 0.691000 0.875449
Si Si3 0.193237 0.692159 0.899867
Si Si4 0.787833 0.805157 0.596170
Si Si5 0.249149 0.196384 0.171945
Si Si6 0.726646 0.304091 0.282602
Si Si7 0.565822 0.689502 0.842680
Si Si8 0.603544 0.193239 0.012140
O O1 0.567393 0.500000 0.251209
O O2 0.552763 0.733917 0.160076
O O3 0.637820 0.753906 0.330451
O O4 0.507084 0.756249 0.229830
O O5 0.931954 0.500000 0.886040
O O6 0.843106 0.725888 0.794625
O O7 0.931672 0.746223 0.957945
O O8 0.197860 0.500000 0.903772
O O9 0.206695 0.750606 0.842752
O O10 0.123160 0.736891 0.857770
O O11 0.250000 0.750000 0.000000
O O12 0.750000 0.750000 0.500000
O O13 0.754725 0.756915 0.629868
O O14 0.790110 0.000000 0.597402
O O15 0.267422 0.237323 0.260424
O O16 0.179044 0.271301 0.093279
O O17 0.243436 0.000000 0.163636
O O18 0.718375 0.500000 0.274693
O O19 0.564221 0.500000 0.826985
O O20 0.584302 0.715708 0.931945
O O21 0.593775 0.000000 0.995193
#
# Coordination Sequence:
#
# PCOD9177507 Si02
#       8
#     8   8   8   8   8   8   8   8
#     4   9  20  36  49  64  91 127 160 190 229 285
#     4   9  17  28  44  66  91 120 155 196 237 273
#     4  11  21  32  48  70  94 123 164 209 247 279
#     4   9  17  31  52  76  99 120 146 184 231 286
#     4   9  17  30  48  66  89 125 164 198 234 278
#     4   8  15  29  47  68  95 125 155 186 224 279
#     4  11  22  34  47  63  88 126 168 202 236 277
#     4  10  19  29  43  65  92 122 158 201 242 276
#
# _framework density 17.199942
#
# number of rings (size 3 to 8) (size 9 to 14) (size 15 to 20)
#    0.000    2.500    1.250    2.250    0.000    5.500 
#    0.000    2.500    0.000    0.000    0.000    0.875 
#    0.000    7.000    0.000    0.000    0.000    0.000 
#
# Total GULP energy -178235.505697 kJ/mol
# GULP energy per Si atom -5569.859553 kJ/mol
# Density = 1.716079 g / cm^3
# Si number density = 17.199942 Si / 1000 Ang^3
#
#
#
# Elastic Constant Matrix: (Units=GPa)
#
#
# Indices 1 2 3 4 5 6 
#
# 1 168.5549 16.2478 57.0911 0.0000 -15.3489 0.0000
# 2 16.2478 7.3718 5.6654 0.0000 -2.6831 0.0000
# 3 57.0911 5.6654 84.2758 0.0000 -18.5686 0.0000
# 4 0.0000 0.0000 0.0000 15.9568 0.0000 -4.8191
# 5 -15.3489 -2.6831 -18.5686 0.0000 20.2603 0.0000
# 6 0.0000 0.0000 0.0000 -4.8191 0.0000 20.5470
#
#
#
# Elastic Compliance Matrix: (Units=1/GPa)
#
#
# Indices 1 2 3 4 5 6 
#
# 1 0.009272 -0.016433 -0.005148 0.000000 0.000130 0.000000
# 2 -0.016433 0.174820 0.002178 0.000000 0.012698 0.000000
# 3 -0.005148 0.002178 0.018057 0.000000 0.012938 0.000000
# 4 0.000000 0.000000 0.000000 0.067447 0.000000 0.015819
# 5 0.000130 0.012698 0.012938 0.000000 0.062996 0.000000
# 6 0.000000 0.000000 0.000000 0.015819 0.000000 0.052379
#
#
# Mechanical properties :
#
#
# Convention : Reuss Voigt Hill
#
# Bulk Modulus (GPa) = 6.12208 46.46791 26.29500
# Shear Modulus (GPa) = 10.45531 23.43268 16.94400
#
# Velocity S-wave (km/s) = 2.46817 3.69503 3.14207
# Velocity P-wave (km/s) = 3.41901 6.72899 5.33708
#
# Compressibility (1/GPa) = 0.16334313
#
# Stress axis : x y z
#
# Youngs Moduli (GPa) = 107.84726 5.72017 55.37877
#
# Poissons Ratio (x) = 0.09400 0.28509
# Poissons Ratio (y) = 1.77226 -0.12060
# Poissons Ratio (z) = 0.55520 -0.01246
#
# Static dielectric constant tensor:
#      x y z
#    x 1.646660 0.000000 0.000340 
#    y 0.000000 1.600580 0.000000 
#    z 0.000340 0.000000 1.601980 
# 
# From -- ./inp_files/324206.got.cif
#   From: 2010.05.17/outbox.cif.g08.bks.cpg/sg12_163_cif.got.tgz:324206.got - 2010.06.03 13:09:07.
