data_PCOD9177583
_publ_section_title
;
Structure prediction by ZEFSAII (Michael W. Deem and Ramdas Pophale) SiO2 
 PCOD9177583
Probable space group: C 2/M
;
_chemical_formula_sum "Si O2"
_cell_formula_units_Z 48
_cell_length_a 28.466181
_cell_length_b 9.068338
_cell_length_c 11.742610
_cell_angle_alpha 90.000000
_cell_angle_beta 78.384177
_cell_angle_gamma 90.000000
_cell_volume 2969.167577
_symmetry_space_group_name_H-M "C 2/M"
_symmetry_group_IT_number 12
_symmetry_cell_setting 'monoclinic'
loop_
_space_group_symop_operation_xyz
x,y,z
-x,y,-z
-x,-y,-z
x,-y,z
1/2+x,1/2+y,z
1/2-x,1/2+y,-z
1/2-x,1/2-y,-z
1/2+x,1/2-y,z
loop_
_atom_site_type_symbol
_atom_site_label
_atom_site_fract_x
_atom_site_fract_y
_atom_site_fract_z
Si Si1 0.221745 0.177128 0.348371
Si Si2 0.486584 0.169465 0.871785
Si Si3 0.677704 0.823026 0.583774
Si Si4 0.591471 0.178587 0.788321
Si Si5 0.892442 0.175981 0.974642
Si Si6 0.791950 0.177737 0.906000
O O1 0.275943 0.215569 0.361190
O O2 0.186589 0.248797 0.457930
O O3 0.212190 0.223719 0.223820
O O4 0.217364 0.000000 0.356469
O O5 0.536167 0.219371 0.789433
O O6 0.476188 0.000000 0.845242
O O7 0.500000 0.170167 0.000000
O O8 0.439355 0.266996 0.884643
O O9 0.629430 0.779750 0.673105
O O10 0.677465 0.000000 0.570611
O O11 0.606262 0.249725 0.901339
O O12 0.592335 0.000000 0.801232
O O13 0.894842 0.000000 0.986005
O O14 0.843550 0.215588 0.933877
O O15 0.786828 0.000000 0.912508
O O16 0.750000 0.250000 0.000000
#
# Coordination Sequence:
#
# PCOD9177583 Si02
#       6
#     8   8   8   8   8   8
#     4   9  18  32  47  65  92 121 147 181 228 272
#     4   8  15  28  45  65  90 121 153 185 226 272
#     4   9  17  30  49  69  88 114 150 190 225 263
#     4   9  17  30  48  69  93 121 153 187 227 273
#     4  10  19  29  44  69  97 121 150 188 226 268
#     4  10  21  34  48  68  94 124 154 184 222 271
#
# _framework density 16.166148
#
# number of rings (size 3 to 8) (size 9 to 14) (size 15 to 20)
#    0.000    2.833    0.000    2.500    0.000    7.000 
#    0.000    3.333    0.000    1.000    0.000    7.000 
#    0.000    0.000    0.000    0.000    0.000    0.000 
#
# Total GULP energy -133733.979745 kJ/mol
# GULP energy per Si atom -5572.249156 kJ/mol
# Density = 1.612935 g / cm^3
# Si number density = 16.166148 Si / 1000 Ang^3
#
#
#
# Elastic Constant Matrix: (Units=GPa)
#
#
# Indices 1 2 3 4 5 6 
#
# 1 137.6130 44.2007 86.3273 0.0000 -24.8287 0.0000
# 2 44.2007 20.9822 34.5112 0.0000 -4.6966 0.0000
# 3 86.3273 34.5112 123.9130 0.0000 -20.4021 0.0000
# 4 0.0000 0.0000 0.0000 23.8419 0.0000 -5.1973
# 5 -24.8287 -4.6966 -20.4021 0.0000 32.4974 0.0000
# 6 0.0000 0.0000 0.0000 -5.1973 0.0000 24.2659
#
#
#
# Elastic Compliance Matrix: (Units=1/GPa)
#
#
# Indices 1 2 3 4 5 6 
#
# 1 0.027416 -0.049615 -0.003361 0.000000 0.011666 0.000000
# 2 -0.049615 0.177994 -0.018975 0.000000 -0.024095 0.000000
# 3 -0.003361 -0.018975 0.016531 0.000000 0.005068 0.000000
# 4 0.000000 0.000000 0.000000 0.043997 0.000000 0.009423
# 5 0.011666 -0.024095 0.005068 0.000000 0.039384 0.000000
# 6 0.000000 0.000000 0.000000 0.009423 0.000000 0.043228
#
#
# Mechanical properties :
#
#
# Convention : Reuss Voigt Hill
#
# Bulk Modulus (GPa) = 12.81410 68.06517 40.43964
# Shear Modulus (GPa) = 9.64384 23.95231 16.79808
#
# Velocity S-wave (km/s) = 2.44508 3.85338 3.22699
# Velocity P-wave (km/s) = 3.98935 7.87356 6.24131
#
# Compressibility (1/GPa) = 0.07803901
#
# Stress axis : x y z
#
# Youngs Moduli (GPa) = 36.47488 5.61817 60.49234
#
# Poissons Ratio (x) = 0.27874 0.20332
# Poissons Ratio (y) = 1.80969 1.14785
# Poissons Ratio (z) = 0.12260 0.10661
#
# Static dielectric constant tensor:
#      x y z
#    x 1.551300 0.000000 -0.016200 
#    y 0.000000 1.543570 0.000000 
#    z -0.016200 0.000000 1.521980 
# 
# From -- ./inp_files/172431.got.cif
#   From: 2010.05.17/outbox.cif.g08.bks.cpg/sg12_87_cif.got.tgz:172431.got - 2010.06.03 13:09:07.
