data_PCOD9177636
_publ_section_title
;
Structure prediction by ZEFSAII (Michael W. Deem and Ramdas Pophale) SiO2 
 PCOD9177636
Probable space group: C 2/M
;
_chemical_formula_sum "Si O2"
_cell_formula_units_Z 48
_cell_length_a 27.676100
_cell_length_b 7.911050
_cell_length_c 26.742075
_cell_angle_alpha 90.000000
_cell_angle_beta 26.549710
_cell_angle_gamma 90.000000
_cell_volume 2617.076844
_symmetry_space_group_name_H-M "C 2/M"
_symmetry_group_IT_number 12
_symmetry_cell_setting 'monoclinic'
loop_
_space_group_symop_operation_xyz
x,y,z
-x,y,-z
-x,-y,-z
x,-y,z
1/2+x,1/2+y,z
1/2-x,1/2+y,-z
1/2-x,1/2-y,-z
1/2+x,1/2-y,z
loop_
_atom_site_type_symbol
_atom_site_label
_atom_site_fract_x
_atom_site_fract_y
_atom_site_fract_z
Si Si1 0.117994 0.700869 0.246991
Si Si2 0.089391 0.701936 0.631354
Si Si3 0.953410 0.804742 0.218606
Si Si4 0.226642 0.297731 0.412202
Si Si5 0.303640 0.705059 0.003645
Si Si6 0.973230 0.801802 0.470273
O O1 0.128176 0.500000 0.245958
O O2 0.073002 0.777319 0.339788
O O3 0.023048 0.724706 0.294177
O O4 0.226856 0.764276 0.119982
O O5 0.102985 0.500000 0.627446
O O6 0.080017 0.795289 0.692222
O O7 0.179772 0.765961 0.508825
O O8 0.847029 0.730411 0.290116
O O9 0.073648 0.729439 0.104479
O O10 0.964205 0.000000 0.192641
O O11 0.235931 0.500000 0.409310
O O12 0.134113 0.268857 0.456956
O O13 0.305740 0.500000 0.002955
O O14 0.250000 0.750000 0.000000
O O15 0.000000 0.728614 0.500000
O O16 0.953080 0.000000 0.494708
#
# Coordination Sequence:
#
# PCOD9177636 Si02
#       6
#     8   8   8   8   8   8
#     4   9  18  32  49  72 101 132 166 201 238 286
#     4   9  16  27  43  65  98 133 164 198 232 277
#     4  10  19  29  45  69  99 135 167 196 231 278
#     4   9  19  33  47  69  99 128 161 198 242 294
#     4  10  19  31  47  70 103 138 171 201 229 273
#     4  10  21  36  55  77  95 115 155 211 260 300
#
# _framework density 18.341075
#
# number of rings (size 3 to 8) (size 9 to 14) (size 15 to 20)
#    0.000    2.500    1.667    2.000    0.000    5.333 
#    0.000    0.000    0.000    1.000    0.000    7.000 
#    0.000    0.000    0.000    0.000    0.000    0.000 
#
# Total GULP energy -133761.390586 kJ/mol
# GULP energy per Si atom -5573.391274 kJ/mol
# Density = 1.829933 g / cm^3
# Si number density = 18.341075 Si / 1000 Ang^3
#
#
#
# Elastic Constant Matrix: (Units=GPa)
#
#
# Indices 1 2 3 4 5 6 
#
# 1 71.9584 0.8300 56.2395 -0.0005 1.3439 -0.0039
# 2 0.8300 11.7373 9.6972 0.0060 -4.7625 0.0010
# 3 56.2395 9.6972 148.8107 -0.0005 -29.9343 -0.0016
# 4 -0.0005 0.0060 -0.0005 6.4199 0.0032 4.1425
# 5 1.3439 -4.7625 -29.9343 0.0032 23.6286 -0.0014
# 6 -0.0039 0.0010 -0.0016 4.1425 -0.0014 17.7952
#
#
#
# Elastic Compliance Matrix: (Units=1/GPa)
#
#
# Indices 1 2 3 4 5 6 
#
# 1 0.024071 0.001838 -0.012639 0.000007 -0.017010 0.000001
# 2 0.001838 0.093982 -0.004065 -0.000108 0.013688 0.000021
# 3 -0.012639 -0.004065 0.015756 -0.000007 0.019861 0.000002
# 4 0.000007 -0.000108 -0.000007 0.183299 -0.000059 -0.042670
# 5 -0.017010 0.013688 0.019861 -0.000059 0.071209 0.000017
# 6 0.000001 0.000021 0.000002 -0.042670 0.000017 0.066128
#
#
# Mechanical properties :
#
#
# Convention : Reuss Voigt Hill
#
# Bulk Modulus (GPa) = 9.60829 40.67108 25.13968
# Shear Modulus (GPa) = 9.63632 20.61807 15.12720
#
# Velocity S-wave (km/s) = 2.29464 3.35647 2.87500
# Velocity P-wave (km/s) = 3.50293 6.10280 4.97568
#
# Compressibility (1/GPa) = 0.10407680
#
# Stress axis : x y z
#
# Youngs Moduli (GPa) = 41.54350 10.64037 63.46609
#
# Poissons Ratio (x) = -0.01955 0.80212
# Poissons Ratio (y) = -0.07634 0.25801
# Poissons Ratio (z) = 0.52505 0.04326
#
# Static dielectric constant tensor:
#      x y z
#    x 1.632410 0.000000 -0.038130 
#    y 0.000000 1.662140 0.000010 
#    z -0.038130 0.000010 1.682460 
# 
# From -- ./inp_files/172267.got.cif
#   From: 2010.05.17/outbox.cif.g08.bks.cpg/sg12_87_cif.got.tgz:172267.got - 2010.06.03 13:09:07.
