data_PCOD9177712
_publ_section_title
;
Structure prediction by ZEFSAII (Michael W. Deem and Ramdas Pophale) SiO2 
 PCOD9177712
Probable space group: C 2/M
;
_chemical_formula_sum "Si O2"
_cell_formula_units_Z 56
_cell_length_a 8.422839
_cell_length_b 31.852389
_cell_length_c 11.116621
_cell_angle_alpha 90.000000
_cell_angle_beta 109.768919
_cell_angle_gamma 90.000000
_cell_volume 2806.678366
_symmetry_space_group_name_H-M "C 2/M"
_symmetry_group_IT_number 12
_symmetry_cell_setting 'monoclinic'
loop_
_space_group_symop_operation_xyz
x,y,z
-x,y,-z
-x,-y,-z
x,-y,z
1/2+x,1/2+y,z
1/2-x,1/2+y,-z
1/2-x,1/2-y,-z
1/2+x,1/2-y,z
loop_
_atom_site_type_symbol
_atom_site_label
_atom_site_fract_x
_atom_site_fract_y
_atom_site_fract_z
Si Si1 0.714607 0.656035 0.397677
Si Si2 0.216723 0.546639 0.372802
Si Si3 0.975453 0.769816 0.349120
Si Si4 0.134378 0.313403 0.307635
Si Si5 0.552338 0.430366 0.346524
Si Si6 0.564346 0.112286 0.754563
Si Si7 0.174765 0.048200 0.113651
O O1 0.621328 0.699018 0.339622
O O2 0.803684 0.666643 0.547823
O O3 0.574771 0.619422 0.375296
O O4 0.834574 0.636475 0.326182
O O5 0.149868 0.500000 0.339278
O O6 0.329459 0.549421 0.521436
O O7 0.357616 0.557220 0.308896
O O8 0.065637 0.579219 0.336287
O O9 0.796403 0.792255 0.287872
O O10 0.000000 0.765917 0.500000
O O11 0.004980 0.724168 0.302654
O O12 0.046217 0.351072 0.214286
O O13 0.627052 0.445744 0.240921
O O14 0.686641 0.084550 0.869489
O O15 0.229966 0.000000 0.104641
O O16 0.000000 0.055481 0.000000
#
# Coordination Sequence:
#
# PCOD9177712 Si02
#       7
#     8   8   8   8   8   8   8
#     4  10  19  30  46  75 109 145 178 217 265 325
#     4  11  21  33  52  82 113 142 180 221 281 342
#     4  10  19  29  47  72 112 151 178 210 265 330
#     4  11  19  31  46  75 109 144 181 218 267 331
#     4  10  20  35  54  79 112 148 177 223 279 327
#     4  11  21  33  53  77 107 142 180 227 276 325
#     4  10  22  40  58  77 104 144 193 238 276 318
#
# _framework density 19.952411000000001
#
# number of rings (size 3 to 8) (size 9 to 14) (size 15 to 20)
#    0.000    1.571    1.429    6.857    6.000    0.000 
#    0.000    2.857    0.000    2.571    0.000    9.000 
#    0.000    0.000    0.000    0.286    0.000    0.000 
#
# Total GULP energy -156327.914276 kJ/mol
# GULP energy per Si atom -5583.139796 kJ/mol
# Density = 1.990700 g / cm^3
# Si number density = 19.952411 Si / 1000 Ang^3
#
#
#
# Elastic Constant Matrix: (Units=GPa)
#
#
# Indices 1 2 3 4 5 6 
#
# 1 74.2493 47.5282 11.3638 0.0000 24.7757 0.0000
# 2 47.5282 181.1232 26.8662 0.0000 30.1525 0.0000
# 3 11.3638 26.8662 7.4316 0.0000 27.7720 0.0000
# 4 0.0000 0.0000 0.0000 -143.7346 0.0000 185.3273
# 5 24.7757 30.1525 27.7720 0.0000 18.7249 0.0000
# 6 0.0000 0.0000 0.0000 185.3273 0.0000 -146.2023
#
#
#
# Elastic Compliance Matrix: (Units=1/GPa)
#
#
# Indices 1 2 3 4 5 6 
#
# 1 0.017413 -0.002582 -0.011727 0.000000 -0.001489 0.000000
# 2 -0.002582 0.007424 -0.001986 0.000000 -0.005595 0.000000
# 3 -0.011727 -0.001986 -0.019755 0.000000 0.048013 0.000000
# 4 0.000000 0.000000 0.000000 0.010966 0.000000 0.013901
# 5 -0.001489 -0.005595 0.048013 0.000000 -0.006826 0.000000
# 6 0.000000 0.000000 0.000000 0.013901 0.000000 0.010781
#
#
# Mechanical properties :
#
#
# Convention : Reuss Voigt Hill
#
# Bulk Modulus (GPa) = -36.35614 48.25782 5.95084
# Shear Modulus (GPa) = 115.14618 -42.43935 36.35341
#
# Velocity S-wave (km/s) = 7.60498 -4.61698 4.27313
# Velocity P-wave (km/s) = 7.67159 2.04523 5.22830
#
# Compressibility (1/GPa) = -0.02750567
#
# Stress axis : x y z
#
# Youngs Moduli (GPa) = 57.42988 134.68976 -50.62091
#
# Poissons Ratio (x) = 0.34775 -0.59361
# Poissons Ratio (y) = 0.14827 -0.10051
# Poissons Ratio (z) = 0.67346 0.26743
#
# Static dielectric constant tensor:
#      x y z
#    x 1.774630 0.000000 0.007660 
#    y 0.000000 1.749420 0.000000 
#    z 0.007660 0.000000 1.673030 
# 
# From -- ./inp_files/125833.got.cif
#   From: 2010.05.17/outbox.cif.g08.bks.cpg/sg12_63_cif.got.tgz:125833.got - 2010.06.03 13:09:07.
