data_PCOD9177137
_publ_section_title
;
Structure prediction by ZEFSAII (Michael W. Deem and Ramdas Pophale) SiO2 
 PCOD9177137
Probable space group: C 2/M
;
_chemical_formula_sum "Si O2"
_cell_formula_units_Z 56
_cell_length_a 30.614523
_cell_length_b 19.155540
_cell_length_c 9.318388
_cell_angle_alpha 90.000000
_cell_angle_beta 34.245509
_cell_angle_gamma 90.000000
_cell_volume 3075.180252
_symmetry_space_group_name_H-M "C 2/M"
_symmetry_group_IT_number 12
_symmetry_cell_setting 'monoclinic'
loop_
_space_group_symop_operation_xyz
x,y,z
-x,y,-z
-x,-y,-z
x,-y,z
1/2+x,1/2+y,z
1/2-x,1/2+y,-z
1/2-x,1/2-y,-z
1/2+x,1/2-y,z
loop_
_atom_site_type_symbol
_atom_site_label
_atom_site_fract_x
_atom_site_fract_y
_atom_site_fract_z
Si Si1 0.426347 0.639907 0.802466
Si Si2 0.066101 0.080274 0.925637
Si Si3 0.190383 0.186136 0.500952
Si Si4 0.920163 0.694697 0.804731
Si Si5 0.252011 0.583895 0.215336
Si Si6 0.226627 0.325967 0.004651
Si Si7 0.838278 0.669899 0.299130
O O1 0.500000 0.637592 0.500000
O O2 0.414023 0.722843 0.862316
O O3 0.456804 0.593525 0.850671
O O4 0.341629 0.609866 0.990204
O O5 0.141411 0.126162 0.705140
O O6 0.080826 0.000000 0.853384
O O7 0.000000 0.107061 0.000000
O O8 0.150142 0.261212 0.633367
O O9 0.270691 0.188939 0.368948
O O10 0.206710 0.162309 0.295047
O O11 0.852526 0.677483 0.872766
O O12 0.000000 0.682778 0.500000
O O13 0.907370 0.656483 0.995124
O O14 0.249841 0.500000 0.216825
O O15 0.224509 0.619791 0.141013
O O16 0.198012 0.612663 0.493448
O O17 0.250000 0.250000 0.000000
#
# Coordination Sequence:
#
# PCOD9177137 Si02
#       7
#     8   8   8   8   8   8   8
#     4  11  22  38  59  89 128 166 206 242 295 369
#     4  11  24  37  51  83 131 170 198 235 292 363
#     4  10  19  35  59  80 114 164 206 248 291 342
#     4  10  21  39  67  95 119 155 206 259 318 367
#     4  12  24  39  63  92 123 166 209 253 311 370
#     4  11  21  38  61  89 125 157 199 259 304 357
#     4  10  18  38  62  85 112 152 212 261 298 352
#
# _framework density 18.210315000000001
#
# number of rings (size 3 to 8) (size 9 to 14) (size 15 to 20)
#    0.000    1.286    5.714    1.286    2.000    1.714 
#    0.000    2.857    0.000    2.571    0.000    0.000 
#    0.000    0.000    0.000    0.000    0.000    0.000 
#
# Total GULP energy -155885.378851 kJ/mol
# GULP energy per Si atom -5567.334959 kJ/mol
# Density = 1.816887 g / cm^3
# Si number density = 18.210315 Si / 1000 Ang^3
#
#
#
# Elastic Constant Matrix: (Units=GPa)
#
#
# Indices 1 2 3 4 5 6 
#
# 1 64.2674 18.4624 23.5725 0.0000 8.0458 0.0000
# 2 18.4624 69.4916 44.6772 0.0000 14.6528 0.0000
# 3 23.5725 44.6772 111.6242 0.0000 16.3165 0.0000
# 4 0.0000 0.0000 0.0000 1378.2985 0.0000 1509.3777
# 5 8.0458 14.6528 16.3165 0.0000 25.3836 0.0000
# 6 0.0000 0.0000 0.0000 1509.3777 0.0000 1701.4784
#
#
#
# Elastic Compliance Matrix: (Units=1/GPa)
#
#
# Indices 1 2 3 4 5 6 
#
# 1 0.017469 -0.002653 -0.002253 0.000000 -0.002557 0.000000
# 2 -0.002653 0.020920 -0.006810 0.000000 -0.006857 0.000000
# 3 -0.002253 -0.006810 0.012672 0.000000 -0.003500 0.000000
# 4 0.000000 0.000000 0.000000 0.025424 0.000000 -0.022554
# 5 -0.002557 -0.006857 -0.003500 0.000000 0.046414 0.000000
# 6 0.000000 0.000000 0.000000 -0.022554 0.000000 0.020595
#
#
# Mechanical properties :
#
#
# Convention : Reuss Voigt Hill
#
# Bulk Modulus (GPa) = 36.19708 46.53415 41.36561
# Shear Modulus (GPa) = 28.38719 631.61018 329.99869
#
# Velocity S-wave (km/s) = 3.95251 18.64390 13.47623
# Velocity P-wave (km/s) = 6.38359 22.11491 16.27605
#
# Compressibility (1/GPa) = 0.02762654
#
# Stress axis : x y z
#
# Youngs Moduli (GPa) = 57.24490 47.80227 78.91495
#
# Poissons Ratio (x) = 0.12683 0.17782
# Poissons Ratio (y) = 0.15188 0.53744
# Poissons Ratio (z) = 0.12899 0.32555
#
# Static dielectric constant tensor:
#      x y z
#    x 1.715370 0.000000 0.376390 
#    y 0.000000 1.610960 0.000000 
#    z 0.376390 0.000000 2.663700 
# 
# From -- ./inp_files/75880.got.cif
#   From: 2010.05.17/outbox.cif.g08.bks.cpg/sg12_38_cif.got.tgz:75880.got - 2010.06.03 13:09:07.
