data_PCOD9177352
_publ_section_title
;
Structure prediction by ZEFSAII (Michael W. Deem and Ramdas Pophale) SiO2 
 PCOD9177352
Probable space group: C 2/M
;
_chemical_formula_sum "Si O2"
_cell_formula_units_Z 56
_cell_length_a 27.229832
_cell_length_b 9.181644
_cell_length_c 17.834782
_cell_angle_alpha 90.000000
_cell_angle_beta 53.596437
_cell_angle_gamma 90.000000
_cell_volume 3588.821723
_symmetry_space_group_name_H-M "C 2/M"
_symmetry_group_IT_number 12
_symmetry_cell_setting 'monoclinic'
loop_
_space_group_symop_operation_xyz
x,y,z
-x,y,-z
-x,-y,-z
x,-y,z
1/2+x,1/2+y,z
1/2-x,1/2+y,-z
1/2-x,1/2-y,-z
1/2+x,1/2-y,z
loop_
_atom_site_type_symbol
_atom_site_label
_atom_site_fract_x
_atom_site_fract_y
_atom_site_fract_z
Si Si1 0.346466 0.673011 0.390650
Si Si2 0.575173 0.672494 0.066490
Si Si3 0.781815 0.826733 0.041002
Si Si4 0.240039 0.826199 0.393970
Si Si5 0.459050 0.172913 0.220520
Si Si6 0.408948 0.167169 0.098861
Si Si7 0.263624 0.831005 0.209336
O O1 0.351904 0.500000 0.373619
O O2 0.296926 0.740070 0.377862
O O3 0.317051 0.697859 0.499324
O O4 0.410550 0.751169 0.318941
O O5 0.565387 0.500000 0.079527
O O6 0.525823 0.756487 0.160999
O O7 0.645355 0.704858 0.024456
O O8 0.568030 0.728139 0.987413
O O9 0.755477 0.765239 0.143134
O O10 0.774166 0.000000 0.044276
O O11 0.750000 0.750000 0.000000
O O12 0.230010 0.786243 0.316384
O O13 0.254544 0.000000 0.382349
O O14 0.433681 0.198546 0.158902
O O15 0.461064 0.000000 0.230784
O O16 0.335551 0.176115 0.165172
O O17 0.425415 0.000000 0.064154
O O18 0.249359 0.000000 0.205087
#
# Coordination Sequence:
#
# PCOD9177352 Si02
#       7
#     8   8   8   8   8   8   8
#     4  10  19  28  44  67  96 131 168 206 236 267
#     4  10  21  33  46  68  94 119 155 199 238 280
#     4  10  21  36  53  74  97 120 152 196 243 291
#     4   9  17  31  46  66  95 131 168 199 237 282
#     4  11  20  31  45  64  94 132 168 194 230 282
#     4   9  17  29  44  63  91 129 164 191 224 275
#     4   9  16  30  50  69  95 128 161 196 234 281
#
# _framework density 15.604006999999999
#
# number of rings (size 3 to 8) (size 9 to 14) (size 15 to 20)
#    0.000    2.286    1.429    2.143    0.000    5.714 
#    0.000    0.000    0.000    0.000    0.000    1.000 
#    0.000    8.000    0.000    0.000    0.000    0.000 
#
# Total GULP energy -156176.919240 kJ/mol
# GULP energy per Si atom -5577.747116 kJ/mol
# Density = 1.556849 g / cm^3
# Si number density = 15.604007 Si / 1000 Ang^3
#
#
#
# Elastic Constant Matrix: (Units=GPa)
#
#
# Indices 1 2 3 4 5 6 
#
# 1 57.3777 44.2182 45.3199 0.0000 13.9570 0.0000
# 2 44.2182 72.3754 71.7949 -0.0001 1.1675 0.0000
# 3 45.3199 71.7949 128.7010 0.0000 2.4169 0.0000
# 4 0.0000 -0.0001 0.0000 28.2928 0.0000 0.3338
# 5 13.9570 1.1675 2.4169 0.0000 19.1118 0.0000
# 6 0.0000 0.0000 0.0000 0.3338 0.0000 19.7343
#
#
#
# Elastic Compliance Matrix: (Units=1/GPa)
#
#
# Indices 1 2 3 4 5 6 
#
# 1 0.047237 -0.027855 -0.000480 0.000000 -0.032734 0.000000
# 2 -0.027855 0.047364 -0.016981 0.000000 0.019597 0.000000
# 3 -0.000480 -0.016981 0.017427 0.000000 -0.000816 0.000000
# 4 0.000000 0.000000 0.000000 0.035352 0.000000 -0.000598
# 5 -0.032734 0.019597 -0.000816 0.000000 0.075135 0.000000
# 6 0.000000 0.000000 0.000000 -0.000598 0.000000 0.050683
#
#
# Mechanical properties :
#
#
# Convention : Reuss Voigt Hill
#
# Bulk Modulus (GPa) = 46.73965 64.56891 55.65428
# Shear Modulus (GPa) = 13.47850 19.90252 16.69051
#
# Velocity S-wave (km/s) = 2.94221 3.57525 3.27407
# Velocity P-wave (km/s) = 6.44676 7.64936 7.07367
#
# Compressibility (1/GPa) = 0.02139511
#
# Stress axis : x y z
#
# Youngs Moduli (GPa) = 21.16995 21.11322 57.38281
#
# Poissons Ratio (x) = 0.58812 0.02754
# Poissons Ratio (y) = 0.58970 0.97440
# Poissons Ratio (z) = 0.01016 0.35852
#
# Static dielectric constant tensor:
#      x y z
#    x 1.495120 0.000000 -0.010340 
#    y 0.000000 1.521770 0.000000 
#    z -0.010340 0.000000 1.543200 
# 
# From -- ./inp_files/291804.got.cif
#   From: 2010.05.17/outbox.cif.g08.bks.cpg/sg12_146_cif.got.tgz:291804.got - 2010.06.03 13:09:07.
