data_PCOD9177104
_publ_section_title
;
Structure prediction by ZEFSAII (Michael W. Deem and Ramdas Pophale) SiO2 
 PCOD9177104
Probable space group: C 2/M
;
_chemical_formula_sum "Si O2"
_cell_formula_units_Z 52
_cell_length_a 7.886389
_cell_length_b 29.401585
_cell_length_c 11.733269
_cell_angle_alpha 90.000000
_cell_angle_beta 84.658297
_cell_angle_gamma 90.000000
_cell_volume 2708.805393
_symmetry_space_group_name_H-M "C 2/M"
_symmetry_group_IT_number 12
_symmetry_cell_setting 'monoclinic'
loop_
_space_group_symop_operation_xyz
x,y,z
-x,y,-z
-x,-y,-z
x,-y,z
1/2+x,1/2+y,z
1/2-x,1/2+y,-z
1/2-x,1/2-y,-z
1/2+x,1/2-y,z
loop_
_atom_site_type_symbol
_atom_site_label
_atom_site_fract_x
_atom_site_fract_y
_atom_site_fract_z
Si Si1 0.708285 0.305283 0.783254
Si Si2 0.814644 0.788218 0.747481
Si Si3 0.691659 0.170587 0.977528
Si Si4 0.200252 0.450313 0.466904
Si Si5 0.638024 0.406962 0.752198
Si Si6 0.864176 0.869238 0.598490
Si Si7 0.000000 0.102249 0.000000
O O1 0.798059 0.264062 0.712387
O O2 0.508078 0.297490 0.774890
O O3 0.737329 0.358348 0.752703
O O4 0.763347 0.301671 0.911393
O O5 0.699592 0.798719 0.864740
O O6 0.768032 0.826529 0.658035
O O7 0.500000 0.151514 0.000000
O O8 0.844021 0.133550 0.963199
O O9 0.270903 0.500000 0.496234
O O10 0.253462 0.440623 0.332793
O O11 0.267477 0.408208 0.536301
O O12 0.000000 0.451508 0.500000
O O13 0.468139 0.394753 0.691644
O O14 0.581461 0.421284 0.883093
O O15 0.000000 0.849568 0.500000
#
# Coordination Sequence:
#
# PCOD9177104 Si02
#       7
#     8   8   8   8   8   8   4
#     4  10  20  32  49  78 118 153 195 236 279 340
#     4  11  19  34  49  77 117 150 198 241 277 332
#     4  11  19  31  52  78 112 161 202 239 284 327
#     4  10  22  40  64  90 112 140 190 248 296 357
#     4   9  19  38  58  82 120 152 191 243 288 343
#     4   9  19  36  58  80 108 150 193 233 287 345
#     4  10  18  38  55  86 126 152 198 248 279 358
#
# _framework density 19.196655
#
# number of rings (size 3 to 8) (size 9 to 14) (size 15 to 20)
#    0.000    2.000    4.615    1.385    0.000    6.462 
#    0.000    8.077    0.000    0.000    0.000    2.154 
#    0.000    0.000    0.000    0.000    0.000    0.000 
#
# Total GULP energy -144833.526511 kJ/mol
# GULP energy per Si atom -5570.520250 kJ/mol
# Density = 1.915296 g / cm^3
# Si number density = 19.196655 Si / 1000 Ang^3
#
#
#
# Elastic Constant Matrix: (Units=GPa)
#
#
# Indices 1 2 3 4 5 6 
#
# 1 60.3808 18.9777 15.0992 0.0000 -9.6542 0.0000
# 2 18.9777 90.4360 40.9670 0.0000 -4.4810 0.0000
# 3 15.0992 40.9670 94.7310 0.0000 1.4597 0.0000
# 4 0.0000 0.0000 0.0000 3.9337 0.0000 10.1419
# 5 -9.6542 -4.4810 1.4597 0.0000 13.2924 0.0000
# 6 0.0000 0.0000 0.0000 10.1419 0.0000 -2.8992
#
#
#
# Elastic Compliance Matrix: (Units=1/GPa)
#
#
# Indices 1 2 3 4 5 6 
#
# 1 0.020180 -0.002464 -0.002368 0.000000 0.014086 0.000000
# 2 -0.002464 0.014435 -0.005907 0.000000 0.003725 0.000000
# 3 -0.002368 -0.005907 0.013568 0.000000 -0.005201 0.000000
# 4 0.000000 0.000000 0.000000 0.025373 0.000000 0.088760
# 5 0.014086 0.003725 -0.005201 0.000000 0.087289 0.000000
# 6 0.000000 0.000000 0.000000 0.088760 0.000000 -0.034427
#
#
# Mechanical properties :
#
#
# Convention : Reuss Voigt Hill
#
# Bulk Modulus (GPa) = 37.44577 43.95952 40.70265
# Shear Modulus (GPa) = 31.88794 14.23232 23.06013
#
# Velocity S-wave (km/s) = 4.08010 2.72581 3.46968
# Velocity P-wave (km/s) = 6.46104 5.73202 6.10742
#
# Compressibility (1/GPa) = 0.02670528
#
# Stress axis : x y z
#
# Youngs Moduli (GPa) = 49.55292 69.27533 73.70073
#
# Poissons Ratio (x) = 0.17071 0.17452
# Poissons Ratio (y) = 0.12211 0.43537
# Poissons Ratio (z) = 0.11734 0.40922
#
# Static dielectric constant tensor:
#      x y z
#    x 1.683440 0.000000 -0.012120 
#    y 0.000000 1.695770 0.000000 
#    z -0.012120 0.000000 1.708520 
# 
# From -- ./inp_files/123659.got.cif
#   From: 2010.05.17/outbox.cif.g08.bks.cpg/sg12_62_cif.got.tgz:123659.got - 2010.06.03 13:09:07.
