data_PCOD9177125
_publ_section_title
;
Structure prediction by ZEFSAII (Michael W. Deem and Ramdas Pophale) SiO2 
 PCOD9177125
Probable space group: C 2/M
;
_chemical_formula_sum "Si O2"
_cell_formula_units_Z 38
_cell_length_a 14.544821
_cell_length_b 9.768049
_cell_length_c 15.179113
_cell_angle_alpha 90.000000
_cell_angle_beta 69.920114
_cell_angle_gamma 90.000000
_cell_volume 2025.478089
_symmetry_space_group_name_H-M "C 2/M"
_symmetry_group_IT_number 12
_symmetry_cell_setting 'monoclinic'
loop_
_space_group_symop_operation_xyz
x,y,z
-x,y,-z
-x,-y,-z
x,-y,z
1/2+x,1/2+y,z
1/2-x,1/2+y,-z
1/2-x,1/2-y,-z
1/2+x,1/2-y,z
loop_
_atom_site_type_symbol
_atom_site_label
_atom_site_fract_x
_atom_site_fract_y
_atom_site_fract_z
Si Si1 0.306527 0.000000 0.459128
Si Si2 0.542321 0.211880 0.655719
Si Si3 0.596129 0.500000 0.026850
Si Si4 0.500000 0.000000 0.000000
Si Si5 0.717019 0.000000 0.156393
Si Si6 0.424643 0.500000 0.444354
Si Si7 0.431657 0.786891 0.871550
Si Si8 0.115397 0.500000 0.366374
O O1 0.357895 0.870069 0.396148
O O2 0.189840 0.000000 0.491117
O O3 0.342872 0.000000 0.549120
O O4 0.553867 0.364084 0.617720
O O5 0.512517 0.213183 0.767677
O O6 0.456224 0.128829 0.631835
O O7 0.596683 0.636294 0.086176
O O8 0.500000 0.500000 0.000000
O O9 0.681154 0.500000 0.926295
O O10 0.531776 0.119704 0.060751
O O11 0.659929 0.866008 0.140916
O O12 0.703429 0.000000 0.266242
O O13 0.500000 0.500000 0.500000
#
# Coordination Sequence:
#
# PCOD9177125 Si02
#       8
#     4   8   4   2   4   4   8   4
#     4  11  21  39  63  89 118 166 201 242 297 370
#     4  10  21  39  63  88 121 158 204 252 303 361
#     4  12  22  37  58  92 120 157 205 256 303 349
#     4  10  18  38  60  88 112 158 200 246 304 362
#     4   9  21  38  62  85 122 163 201 248 305 371
#     4  12  24  38  59  90 130 160 194 253 306 353
#     4  10  21  39  63  87 123 159 207 251 311 358
#     4   9  19  39  64  88 110 163 208 240 296 373
#
# _framework density 18.761002000000001
#
# number of rings (size 3 to 8) (size 9 to 14) (size 15 to 20)
#    0.000    1.684    1.053    6.316    0.000    1.684 
#    0.000    2.105    9.263    0.000    0.000    0.000 
#    0.000    0.000    0.000    0.000    0.000    0.000 
#
# Total GULP energy -105848.702644 kJ/mol
# GULP energy per Si atom -5570.984350 kJ/mol
# Density = 1.871830 g / cm^3
# Si number density = 18.761002 Si / 1000 Ang^3
#
#
#
# Elastic Constant Matrix: (Units=GPa)
#
#
# Indices 1 2 3 4 5 6 
#
# 1 76.0526 24.8618 53.3361 0.0000 -26.7560 0.0000
# 2 24.8618 169.4309 43.4578 0.0000 -20.9526 0.0000
# 3 53.3361 43.4578 112.3278 0.0000 -38.6804 0.0000
# 4 0.0000 0.0000 0.0000 -626.7288 0.0000 1.7117
# 5 -26.7560 -20.9526 -38.6804 0.0000 12.8860 0.0000
# 6 0.0000 0.0000 0.0000 1.7117 0.0000 -0.2458
#
#
#
# Elastic Compliance Matrix: (Units=1/GPa)
#
#
# Indices 1 2 3 4 5 6 
#
# 1 0.006590 -0.003362 -0.029737 0.000000 -0.081046 0.000000
# 2 -0.003362 0.005966 -0.006677 0.000000 -0.017324 0.000000
# 3 -0.029737 -0.006677 -0.017979 0.000000 -0.126570 0.000000
# 4 0.000000 0.000000 0.000000 -0.001627 0.000000 -0.011326
# 5 -0.081046 -0.017324 -0.126570 0.000000 -0.498777 0.000000
# 6 0.000000 0.000000 0.000000 -0.011326 0.000000 -4.146928
#
#
# Mechanical properties :
#
#
# Convention : Reuss Voigt Hill
#
# Bulk Modulus (GPa) = -11.76800 66.79141 27.51170
# Shear Modulus (GPa) = -1.08660 -107.07403 -54.08031
#
# Velocity S-wave (km/s) = -0.76186 -7.56284 -5.37480
# Velocity P-wave (km/s) = 2.65709 6.37053 4.88076
#
# Compressibility (1/GPa) = -0.08497617
#
# Stress axis : x y z
#
# Youngs Moduli (GPa) = 151.75211 167.62361 -55.61953
#
# Poissons Ratio (x) = 0.56359 -1.65394
# Poissons Ratio (y) = 0.51023 -0.37138
# Poissons Ratio (z) = 4.51261 1.11926
#
# Static dielectric constant tensor:
#      x y z
#    x 1.639390 0.000000 -0.023620 
#    y 0.000000 1.644500 0.000000 
#    z -0.023620 0.000000 1.667070 
# 
# From -- ./inp_files/211323.got.cif
#   From: 2010.05.17/outbox.cif.g08.bks.cpg/sg12_106_cif.got.tgz:211323.got - 2010.06.03 13:09:07.
