data_PCOD9177875
_publ_section_title
;
Structure prediction by ZEFSAII (Michael W. Deem and Ramdas Pophale) SiO2 
 PCOD9177875
Probable space group: C 2/M
;
_chemical_formula_sum "Si O2"
_cell_formula_units_Z 56
_cell_length_a 25.374832
_cell_length_b 7.351054
_cell_length_c 25.994689
_cell_angle_alpha 90.000000
_cell_angle_beta 35.987455
_cell_angle_gamma 90.000000
_cell_volume 2849.214791
_symmetry_space_group_name_H-M "C 2/M"
_symmetry_group_IT_number 12
_symmetry_cell_setting 'monoclinic'
loop_
_space_group_symop_operation_xyz
x,y,z
-x,y,-z
-x,-y,-z
x,-y,z
1/2+x,1/2+y,z
1/2-x,1/2+y,-z
1/2-x,1/2-y,-z
1/2+x,1/2-y,z
loop_
_atom_site_type_symbol
_atom_site_label
_atom_site_fract_x
_atom_site_fract_y
_atom_site_fract_z
Si Si1 0.977689 0.721258 0.099598
Si Si2 0.469051 0.709465 0.419016
Si Si3 0.179392 0.778089 0.386200
Si Si4 0.141665 0.721455 0.904290
Si Si5 0.144272 0.284441 0.591322
Si Si6 0.129355 0.722163 0.718153
Si Si7 0.333516 0.721698 0.722987
O O1 0.977995 0.500000 0.100032
O O2 0.906139 0.772920 0.111837
O O3 0.943434 0.781033 0.182247
O O4 0.074990 0.780408 0.002425
O O5 0.482570 0.500000 0.424121
O O6 0.404983 0.788267 0.513889
O O7 0.413542 0.711191 0.410147
O O8 0.569217 0.784930 0.334713
O O9 0.272430 0.722258 0.339146
O O10 0.175083 0.726442 0.330145
O O11 0.179203 0.000000 0.387631
O O12 0.141572 0.500000 0.905132
O O13 0.244195 0.783511 0.823068
O O14 0.131106 0.500000 0.600873
O O15 0.250000 0.250000 0.500000
O O16 0.116911 0.216622 0.669472
O O17 0.129226 0.500000 0.717589
O O18 0.330682 0.500000 0.727648
#
# Coordination Sequence:
#
# PCOD9177875 Si02
#       7
#     8   8   8   8   8   8   8
#     4   8  12  19  33  56  86 113 137 173 223 266
#     4  10  19  30  44  65  91 122 152 179 214 259
#     4   9  14  23  39  62  87 112 145 180 215 260
#     4   8  12  18  32  57  87 114 136 170 223 268
#     4  11  21  33  48  65  86 117 153 187 219 254
#     4   9  15  24  40  60  84 111 143 180 218 260
#     4   9  15  23  39  63  90 117 147 180 217 262
#
# _framework density 19.654537999999999
#
# number of rings (size 3 to 8) (size 9 to 14) (size 15 to 20)
#    0.000    2.857    2.857    1.714    0.000    1.714 
#    0.000    0.000    0.000    2.571    0.000    0.000 
#    0.000    1.143    0.000   10.571    0.000    8.714 
#
# Total GULP energy -156227.371467 kJ/mol
# GULP energy per Si atom -5579.548981 kJ/mol
# Density = 1.960980 g / cm^3
# Si number density = 19.654538 Si / 1000 Ang^3
#
#
#
# Elastic Constant Matrix: (Units=GPa)
#
#
# Indices 1 2 3 4 5 6 
#
# 1 57.1792 -9.3242 58.7440 -0.0009 -19.3487 -0.0008
# 2 -9.3242 71.5520 0.8919 -0.0013 -1.9051 0.0036
# 3 58.7440 0.8919 204.4402 -0.0035 -14.2666 0.0038
# 4 -0.0009 -0.0013 -0.0035 -8.6977 0.0032 5.1710
# 5 -19.3487 -1.9051 -14.2666 0.0032 32.7343 0.0001
# 6 -0.0008 0.0036 0.0038 5.1710 0.0001 5.0841
#
#
#
# Elastic Compliance Matrix: (Units=1/GPa)
#
#
# Indices 1 2 3 4 5 6 
#
# 1 0.031807 0.004660 -0.008074 0.000006 0.015553 0.000001
# 2 0.004660 0.014680 -0.001187 -0.000004 0.003091 -0.000005
# 3 -0.008074 -0.001187 0.007095 -0.000004 -0.001750 -0.000002
# 4 0.000006 -0.000004 -0.000004 -0.071649 0.000009 0.072873
# 5 0.015553 0.003091 -0.001750 0.000009 0.039159 -0.000008
# 6 0.000001 -0.000005 -0.000002 0.072873 -0.000008 0.122574
#
#
# Mechanical properties :
#
#
# Convention : Reuss Voigt Hill
#
# Bulk Modulus (GPa) = 22.53393 48.19942 35.36667
# Shear Modulus (GPa) = 29.82186 24.68147 27.25166
#
# Velocity S-wave (km/s) = 3.89948 3.54752 3.72766
# Velocity P-wave (km/s) = 5.63600 6.43090 6.04652
#
# Compressibility (1/GPa) = 0.04437753
#
# Stress axis : x y z
#
# Youngs Moduli (GPa) = 31.43974 68.11916 140.95236
#
# Poissons Ratio (x) = -0.31741 1.13811
# Poissons Ratio (y) = -0.14650 0.16734
# Poissons Ratio (z) = 0.25386 0.08087
#
# Static dielectric constant tensor:
#      x y z
#    x 1.623470 0.000000 -0.006200 
#    y 0.000000 1.788590 0.000000 
#    z -0.006200 0.000000 1.702590 
# 
# From -- ./inp_files/239349.got.cif
#   From: 2010.05.17/outbox.cif.g08.bks.cpg/sg12_120_cif.got.tgz:239349.got - 2010.06.03 13:09:07.
