data_PCOD9177704
_publ_section_title
;
Structure prediction by ZEFSAII (Michael W. Deem and Ramdas Pophale) SiO2 
 PCOD9177704
Probable space group: C 2/M
;
_chemical_formula_sum "Si O2"
_cell_formula_units_Z 56
_cell_length_a 10.698241
_cell_length_b 24.589448
_cell_length_c 17.206469
_cell_angle_alpha 90.000000
_cell_angle_beta 132.012590
_cell_angle_gamma 90.000000
_cell_volume 3363.104995
_symmetry_space_group_name_H-M "C 2/M"
_symmetry_group_IT_number 12
_symmetry_cell_setting 'monoclinic'
loop_
_space_group_symop_operation_xyz
x,y,z
-x,y,-z
-x,-y,-z
x,-y,z
1/2+x,1/2+y,z
1/2-x,1/2+y,-z
1/2-x,1/2-y,-z
1/2+x,1/2-y,z
loop_
_atom_site_type_symbol
_atom_site_label
_atom_site_fract_x
_atom_site_fract_y
_atom_site_fract_z
Si Si1 0.049229 0.242450 0.430110
Si Si2 0.090073 0.434434 0.919887
Si Si3 0.115819 0.644882 0.623372
Si Si4 0.331106 0.562516 0.479543
Si Si5 0.540551 0.935628 0.727962
Si Si6 0.438221 0.361590 0.660326
Si Si7 0.266846 0.434444 0.148171
O O1 0.250000 0.250000 0.500000
O O2 0.994345 0.192328 0.353801
O O3 0.000000 0.231532 0.500000
O O4 0.960425 0.299491 0.374214
O O5 0.097299 0.500000 0.919754
O O6 0.107934 0.415286 0.839074
O O7 0.903930 0.422337 0.875105
O O8 0.224648 0.418677 0.041418
O O9 0.302667 0.653795 0.669051
O O10 0.000000 0.631510 0.500000
O O11 0.109276 0.597747 0.683996
O O12 0.500000 0.569525 0.500000
O O13 0.328360 0.500000 0.507075
O O14 0.162737 0.570356 0.359323
O O15 0.339319 0.604361 0.553175
O O16 0.576500 0.000000 0.734775
O O17 0.581299 0.400504 0.753611
O O18 0.295678 0.500000 0.164511
#
# Coordination Sequence:
#
# PCOD9177704 Si02
#       7
#     8   8   8   8   8   8   8
#     4  11  21  38  56  76 109 150 190 231 277 333
#     4   8  16  34  55  82 115 145 183 226 270 328
#     4  11  22  38  50  76 112 144 184 230 274 336
#     4  10  19  29  46  79 114 137 169 219 272 330
#     4  10  19  32  53  77 108 148 177 211 277 338
#     4  12  21  34  55  79 108 143 188 225 280 334
#     4   9  18  33  57  86 114 143 181 230 277 329
#
# _framework density 16.65128
#
# number of rings (size 3 to 8) (size 9 to 14) (size 15 to 20)
#    0.000    1.857    4.286    2.571    0.000    4.857 
#    0.000    0.714    0.000    3.429    0.000    0.000 
#    0.000    0.000    0.000    0.000    0.000    0.000 
#
# Total GULP energy -156145.627787 kJ/mol
# GULP energy per Si atom -5576.629564 kJ/mol
# Density = 1.661338 g / cm^3
# Si number density = 16.651280 Si / 1000 Ang^3
#
#
#
# Elastic Constant Matrix: (Units=GPa)
#
#
# Indices 1 2 3 4 5 6 
#
# 1 66.8215 34.8883 19.8114 0.0000 -9.9593 0.0000
# 2 34.8883 75.8091 46.8061 0.0000 -11.3022 0.0000
# 3 19.8114 46.8061 86.8635 0.0000 -14.8453 0.0000
# 4 0.0000 0.0000 0.0000 13.3471 0.0000 -9.9704
# 5 -9.9593 -11.3022 -14.8453 0.0000 23.2076 0.0000
# 6 0.0000 0.0000 0.0000 -9.9704 0.0000 24.0469
#
#
#
# Elastic Compliance Matrix: (Units=1/GPa)
#
#
# Indices 1 2 3 4 5 6 
#
# 1 0.020204 -0.009348 0.001272 0.000000 0.004931 0.000000
# 2 -0.009348 0.024301 -0.010807 0.000000 0.000910 0.000000
# 3 0.001272 -0.010807 0.018233 0.000000 0.006946 0.000000
# 4 0.000000 0.000000 0.000000 0.108541 0.000000 0.045003
# 5 0.004931 0.000910 0.006946 0.000000 0.050092 0.000000
# 6 0.000000 0.000000 0.000000 0.045003 0.000000 0.060245
#
#
# Mechanical properties :
#
#
# Convention : Reuss Voigt Hill
#
# Bulk Modulus (GPa) = 40.04587 48.05618 44.05102
# Shear Modulus (GPa) = 15.25759 20.65286 17.95522
#
# Velocity S-wave (km/s) = 3.03033 3.52563 3.28732
# Velocity P-wave (km/s) = 6.02875 6.74511 6.39696
#
# Compressibility (1/GPa) = 0.02497137
#
# Stress axis : x y z
#
# Youngs Moduli (GPa) = 49.49536 41.14985 54.84683
#
# Poissons Ratio (x) = 0.38468 -0.06977
# Poissons Ratio (y) = 0.46270 0.59273
# Poissons Ratio (z) = -0.06296 0.44471
#
# Static dielectric constant tensor:
#      x y z
#    x 1.573310 0.000000 -0.009810 
#    y 0.000000 1.556340 0.000000 
#    z -0.009810 0.000000 1.563780 
# 
# From -- ./inp_files/199915.got.cif
#   From: 2010.05.17/outbox.cif.g08.bks.cpg/sg12_100_cif.got.tgz:199915.got - 2010.06.03 13:09:07.
