data_PCOD9177341
_publ_section_title
;
Structure prediction by ZEFSAII (Michael W. Deem and Ramdas Pophale) SiO2 
 PCOD9177341
Probable space group: C 2/M
;
_chemical_formula_sum "Si O2"
_cell_formula_units_Z 52
_cell_length_a 12.085356
_cell_length_b 31.673219
_cell_length_c 8.349513
_cell_angle_alpha 90.000000
_cell_angle_beta 84.740730
_cell_angle_gamma 90.000000
_cell_volume 3182.589354
_symmetry_space_group_name_H-M "C 2/M"
_symmetry_group_IT_number 12
_symmetry_cell_setting 'monoclinic'
loop_
_space_group_symop_operation_xyz
x,y,z
-x,y,-z
-x,-y,-z
x,-y,z
1/2+x,1/2+y,z
1/2-x,1/2+y,-z
1/2-x,1/2-y,-z
1/2+x,1/2-y,z
loop_
_atom_site_type_symbol
_atom_site_label
_atom_site_fract_x
_atom_site_fract_y
_atom_site_fract_z
Si Si1 0.699330 0.868858 0.700201
Si Si2 0.000000 0.390793 0.500000
Si Si3 0.754489 0.732979 0.752207
Si Si4 0.916047 0.452015 0.774855
Si Si5 0.669600 0.952053 0.871496
Si Si6 0.368861 0.196607 0.029169
Si Si7 0.369421 0.304042 0.535326
O O1 0.589837 0.866905 0.599722
O O2 0.724030 0.916517 0.753408
O O3 0.669302 0.843703 0.865705
O O4 0.801587 0.844522 0.606743
O O5 0.075509 0.419871 0.372805
O O6 0.672975 0.762555 0.866732
O O7 0.685780 0.710163 0.623748
O O8 0.842600 0.765155 0.659743
O O9 0.814811 0.700617 0.861994
O O10 0.889833 0.500000 0.726092
O O11 0.041696 0.452618 0.827591
O O12 0.838723 0.441260 0.937764
O O13 0.712435 0.000000 0.849897
O O14 0.500000 0.196489 0.000000
O O15 0.500000 0.310815 0.500000
#
# Coordination Sequence:
#
# PCOD9177341 Si02
#       7
#     8   4   8   8   8   8   8
#     4  10  22  30  47  77 101 139 171 208 261 300
#     4  10  19  28  42  72 112 126 164 212 254 310
#     4   9  20  36  53  76  94 134 172 204 261 301
#     4   8  14  25  44  65  94 137 167 201 251 305
#     4   8  15  29  45  65  98 135 171 205 250 307
#     4  10  20  32  51  74 104 130 165 209 249 313
#     4  10  20  37  55  73 103 132 171 216 253 308
#
# _framework density 16.338896999999999
#
# number of rings (size 3 to 8) (size 9 to 14) (size 15 to 20)
#    0.000    2.769    0.000    2.077    6.462    0.615 
#    2.769    0.000    0.000    0.462    0.000    0.000 
#    0.000    3.692    0.000    0.000    0.000    0.000 
#
# Total GULP energy -144855.266933 kJ/mol
# GULP energy per Si atom -5571.356420 kJ/mol
# Density = 1.630171 g / cm^3
# Si number density = 16.338897 Si / 1000 Ang^3
#
#
#
# Elastic Constant Matrix: (Units=GPa)
#
#
# Indices 1 2 3 4 5 6 
#
# 1 78.1437 43.7439 38.0742 0.0000 -16.5089 0.0000
# 2 43.7439 81.3223 46.0881 0.0000 0.9780 0.0000
# 3 38.0742 46.0881 84.6665 0.0000 4.4414 0.0000
# 4 0.0000 0.0000 0.0000 21.8164 0.0000 5.8066
# 5 -16.5089 0.9780 4.4414 0.0000 17.3877 0.0000
# 6 0.0000 0.0000 0.0000 5.8066 0.0000 10.3996
#
#
#
# Elastic Compliance Matrix: (Units=1/GPa)
#
#
# Indices 1 2 3 4 5 6 
#
# 1 0.030445 -0.011646 -0.009023 0.000000 0.031866 0.000000
# 2 -0.011646 0.022276 -0.006328 0.000000 -0.010694 0.000000
# 3 -0.009023 -0.006328 0.020012 0.000000 -0.013323 0.000000
# 4 0.000000 0.000000 0.000000 0.053838 0.000000 -0.030060
# 5 0.031866 -0.010694 -0.013323 0.000000 0.091772 0.000000
# 6 0.000000 0.000000 0.000000 -0.030060 0.000000 0.112941
#
#
# Mechanical properties :
#
#
# Convention : Reuss Voigt Hill
#
# Bulk Modulus (GPa) = 53.36407 55.54944 54.45675
# Shear Modulus (GPa) = 12.77064 17.66916 15.21990
#
# Velocity S-wave (km/s) = 2.79876 3.29206 3.05538
# Velocity P-wave (km/s) = 6.57082 6.96579 6.77119
#
# Compressibility (1/GPa) = 0.01873920
#
# Stress axis : x y z
#
# Youngs Moduli (GPa) = 32.84651 44.89128 49.97006
#
# Poissons Ratio (x) = 0.52281 0.45087
# Poissons Ratio (y) = 0.38253 0.31620
# Poissons Ratio (z) = 0.29637 0.28406
#
# Static dielectric constant tensor:
#      x y z
#    x 1.501780 0.000000 0.005090 
#    y 0.000000 1.581990 0.000000 
#    z 0.005090 0.000000 1.582760 
# 
# From -- ./inp_files/53775.got.cif
#   From: 2010.05.17/outbox.cif.g08.bks.cpg/sg12_27_cif.got.tgz:53775.got - 2010.06.03 13:09:07.
