data_PCOD9177116
_publ_section_title
;
Structure prediction by ZEFSAII (Michael W. Deem and Ramdas Pophale) SiO2 
 PCOD9177116
Probable space group: C 2/M
;
_chemical_formula_sum "Si O2"
_cell_formula_units_Z 56
_cell_length_a 17.810906
_cell_length_b 25.667032
_cell_length_c 8.569938
_cell_angle_alpha 90.000000
_cell_angle_beta 141.120159
_cell_angle_gamma 90.000000
_cell_volume 2459.144227
_symmetry_space_group_name_H-M "C 2/M"
_symmetry_group_IT_number 12
_symmetry_cell_setting 'monoclinic'
loop_
_space_group_symop_operation_xyz
x,y,z
-x,y,-z
-x,-y,-z
x,-y,z
1/2+x,1/2+y,z
1/2-x,1/2+y,-z
1/2-x,1/2-y,-z
1/2+x,1/2-y,z
loop_
_atom_site_type_symbol
_atom_site_label
_atom_site_fract_x
_atom_site_fract_y
_atom_site_fract_z
Si Si1 0.995556 0.142345 0.305862
Si Si2 0.860407 0.356915 0.740713
Si Si3 0.686540 0.439744 0.614535
Si Si4 0.302300 0.279035 0.345885
Si Si5 0.901718 0.444565 0.574493
Si Si6 0.159772 0.575257 0.862980
Si Si7 0.239081 0.321476 0.893543
O O1 0.068667 0.091564 0.370750
O O2 0.073425 0.194656 0.400398
O O3 0.000000 0.137879 0.500000
O O4 0.861128 0.150716 0.033952
O O5 0.793375 0.401567 0.733032
O O6 0.793020 0.304033 0.686916
O O7 0.859830 0.389773 0.579020
O O8 0.000000 0.349822 0.000000
O O9 0.686081 0.500000 0.567510
O O10 0.717530 0.437407 0.849266
O O11 0.302415 0.217717 0.309476
O O12 0.274682 0.297475 0.121923
O O13 0.879218 0.500000 0.624651
O O14 0.841984 0.448365 0.310138
O O15 0.043816 0.442284 0.771116
O O16 0.145488 0.636111 0.799927
#
# Coordination Sequence:
#
# PCOD9177116 Si02
#       7
#     8   8   8   8   8   8   8
#     4   9  17  35  53  87 121 145 198 254 292 351
#     4  11  20  37  59  87 120 154 204 249 298 366
#     4  11  20  33  58  89 121 158 202 246 298 358
#     4   9  19  35  60  86 114 151 200 250 307 355
#     4  11  23  37  56  89 132 163 192 251 314 358
#     4  11  20  37  56  88 124 159 203 245 299 375
#     4  10  18  38  59  86 117 154 196 259 306 346
#
# _framework density 22.772148000000001
#
# number of rings (size 3 to 8) (size 9 to 14) (size 15 to 20)
#    0.000    1.714    5.714    2.143    0.000    0.857 
#   15.429    0.714    3.143    0.000    0.000    5.000 
#    0.000    0.000    0.000    0.000    0.000    0.000 
#
# Total GULP energy -155881.280607 kJ/mol
# GULP energy per Si atom -5567.188593 kJ/mol
# Density = 2.272032 g / cm^3
# Si number density = 22.772148 Si / 1000 Ang^3
#
#
#
# Elastic Constant Matrix: (Units=GPa)
#
#
# Indices 1 2 3 4 5 6 
#
# 1 66.2591 28.4494 5.5158 0.0000 10.6418 0.0000
# 2 28.4494 154.8189 10.4124 0.0000 10.3174 0.0000
# 3 5.5158 10.4124 25.9083 0.0000 6.4508 0.0000
# 4 0.0000 0.0000 0.0000 9.2294 0.0000 4.3379
# 5 10.6418 10.3174 6.4508 0.0000 26.4206 0.0000
# 6 0.0000 0.0000 0.0000 4.3379 0.0000 57.2992
#
#
#
# Elastic Compliance Matrix: (Units=1/GPa)
#
#
# Indices 1 2 3 4 5 6 
#
# 1 0.017258 -0.002718 -0.001187 0.000000 -0.005600 0.000000
# 2 -0.002718 0.007174 -0.002001 0.000000 -0.001218 0.000000
# 3 -0.001187 -0.002001 0.041888 0.000000 -0.008967 0.000000
# 4 0.000000 0.000000 0.000000 0.112348 0.000000 -0.008505
# 5 -0.005600 -0.001218 -0.008967 0.000000 0.042770 0.000000
# 6 0.000000 0.000000 0.000000 -0.008505 0.000000 0.018096
#
#
# Mechanical properties :
#
#
# Convention : Reuss Voigt Hill
#
# Bulk Modulus (GPa) = 18.34670 37.30459 27.82564
# Shear Modulus (GPa) = 18.55179 32.09708 25.32444
#
# Velocity S-wave (km/s) = 2.85734 3.75839 3.33840
# Velocity P-wave (km/s) = 4.35431 5.93727 5.20630
#
# Compressibility (1/GPa) = 0.05450572
#
# Stress axis : x y z
#
# Youngs Moduli (GPa) = 57.94559 139.38375 23.87341
#
# Poissons Ratio (x) = 0.37887 0.02835
# Poissons Ratio (y) = 0.15751 0.04778
# Poissons Ratio (z) = 0.06880 0.27896
#
# Static dielectric constant tensor:
#      x y z
#    x 1.930050 0.000000 -0.052980 
#    y 0.000000 1.961200 0.000000 
#    z -0.052980 0.000000 1.846240 
# 
# From -- ./inp_files/80110.got.cif
#   From: 2010.05.17/outbox.cif.g08.bks.cpg/sg12_41_cif.got.tgz:80110.got - 2010.06.03 13:09:07.
