data_PCOD9177451
_publ_section_title
;
Structure prediction by ZEFSAII (Michael W. Deem and Ramdas Pophale) SiO2 
 PCOD9177451
Probable space group: C 2/M
;
_chemical_formula_sum "Si O2"
_cell_formula_units_Z 64
_cell_length_a 28.344913
_cell_length_b 9.016162
_cell_length_c 16.667231
_cell_angle_alpha 90.000000
_cell_angle_beta 87.036712
_cell_angle_gamma 90.000000
_cell_volume 4253.820793
_symmetry_space_group_name_H-M "C 2/M"
_symmetry_group_IT_number 12
_symmetry_cell_setting 'monoclinic'
loop_
_space_group_symop_operation_xyz
x,y,z
-x,y,-z
-x,-y,-z
x,-y,z
1/2+x,1/2+y,z
1/2-x,1/2+y,-z
1/2-x,1/2-y,-z
1/2+x,1/2-y,z
loop_
_atom_site_type_symbol
_atom_site_label
_atom_site_fract_x
_atom_site_fract_y
_atom_site_fract_z
Si Si1 0.920365 0.321114 0.149258
Si Si2 0.819973 0.829843 0.452782
Si Si3 0.978690 0.669893 0.911393
Si Si4 0.609181 0.322864 0.016769
Si Si5 0.249162 0.822531 0.238892
Si Si6 0.286263 0.321995 0.934933
Si Si7 0.712300 0.169396 0.393882
Si Si8 0.151214 0.179087 0.722405
O O1 0.916229 0.500000 0.149050
O O2 0.899527 0.257113 0.067704
O O3 0.891199 0.249282 0.223790
O O4 0.976330 0.284177 0.145625
O O5 0.765778 0.828959 0.425082
O O6 0.820397 0.731883 0.532365
O O7 0.849564 0.781625 0.372281
O O8 0.831615 0.000000 0.471598
O O9 0.965457 0.500000 0.893655
O O10 0.932866 0.771799 0.920468
O O11 0.000000 0.669439 0.000000
O O12 0.607264 0.500000 0.005228
O O13 0.660228 0.281117 0.046990
O O14 0.227699 0.782196 0.154616
O O15 0.215731 0.768640 0.314300
O O16 0.299716 0.743405 0.246707
O O17 0.255570 0.000000 0.242598
O O18 0.282672 0.500000 0.941791
O O19 0.250000 0.250000 0.000000
O O20 0.700817 0.000000 0.374891
O O21 0.151853 0.000000 0.728380
#
# Coordination Sequence:
#
# PCOD9177451 Si02
#       8
#     8   8   8   8   8   8   8   8
#     4  10  19  30  44  63  87 113 140 170 211 260
#     4   8  15  26  39  57  82 110 136 167 208 250
#     4   8  16  30  45  62  83 107 137 171 210 258
#     4  10  19  31  46  63  83 108 144 184 215 245
#     4  10  19  31  44  58  82 116 148 176 213 252
#     4  10  22  34  44  61  84 113 147 181 213 247
#     4   9  16  26  41  60  80 105 141 178 207 242
#     4  10  19  29  42  63  88 112 143 177 208 247
#
# _framework density 15.045298000000001
#
# number of rings (size 3 to 8) (size 9 to 14) (size 15 to 20)
#    0.000    2.625    0.000    4.125    0.000   10.250 
#    0.000    0.000    0.000    0.000    0.000    0.000 
#    0.000    1.000    0.000   11.250    0.000    5.875 
#
# Total GULP energy -178283.688514 kJ/mol
# GULP energy per Si atom -5571.365266 kJ/mol
# Density = 1.501105 g / cm^3
# Si number density = 15.045298 Si / 1000 Ang^3
#
#
#
# Elastic Constant Matrix: (Units=GPa)
#
#
# Indices 1 2 3 4 5 6 
#
# 1 87.1757 39.7481 52.2179 0.0000 -23.0574 0.0000
# 2 39.7481 56.9959 44.5358 0.0000 -12.6912 0.0000
# 3 52.2179 44.5358 100.0876 0.0000 -27.8400 0.0000
# 4 0.0000 0.0000 0.0000 23.8648 0.0000 -7.2439
# 5 -23.0574 -12.6912 -27.8400 0.0000 24.6444 0.0000
# 6 0.0000 0.0000 0.0000 -7.2439 0.0000 21.2062
#
#
#
# Elastic Compliance Matrix: (Units=1/GPa)
#
#
# Indices 1 2 3 4 5 6 
#
# 1 0.020651 -0.009088 -0.003875 0.000000 0.010263 0.000000
# 2 -0.009088 0.030901 -0.010130 0.000000 -0.004034 0.000000
# 3 -0.003875 -0.010130 0.020504 0.000000 0.014320 0.000000
# 4 0.000000 0.000000 0.000000 0.046750 0.000000 0.015969
# 5 0.010263 -0.004034 0.014320 0.000000 0.064279 0.000000
# 6 0.000000 0.000000 0.000000 0.015969 0.000000 0.052611
#
#
# Mechanical properties :
#
#
# Convention : Reuss Voigt Hill
#
# Bulk Modulus (GPa) = 38.65833 57.47364 48.06598
# Shear Modulus (GPa) = 17.21141 21.12690 19.16916
#
# Velocity S-wave (km/s) = 3.38594 3.75136 3.57332
# Velocity P-wave (km/s) = 6.40597 7.55294 7.00298
#
# Compressibility (1/GPa) = 0.02586765
#
# Stress axis : x y z
#
# Youngs Moduli (GPa) = 48.42487 32.36191 48.77098
#
# Poissons Ratio (x) = 0.29411 0.18900
# Poissons Ratio (y) = 0.44009 0.49407
# Poissons Ratio (z) = 0.18766 0.32784
#
# Static dielectric constant tensor:
#      x y z
#    x 1.491120 0.000000 -0.022380 
#    y 0.000000 1.505920 0.000000 
#    z -0.022380 0.000000 1.499530 
# 
# From -- ./inp_files/248346.got.cif
#   From: 2010.05.17/outbox.cif.g08.bks.cpg/sg12_125_cif.got.tgz:248346.got - 2010.06.03 13:09:07.
