data_PCOD9177811
_publ_section_title
;
Structure prediction by ZEFSAII (Michael W. Deem and Ramdas Pophale) SiO2 
 PCOD9177811
Probable space group: C 2/M
;
_chemical_formula_sum "Si O2"
_cell_formula_units_Z 64
_cell_length_a 24.874040
_cell_length_b 7.517384
_cell_length_c 16.818909
_cell_angle_alpha 90.000000
_cell_angle_beta 98.581276
_cell_angle_gamma 90.000000
_cell_volume 3109.722416
_symmetry_space_group_name_H-M "C 2/M"
_symmetry_group_IT_number 12
_symmetry_cell_setting 'monoclinic'
loop_
_space_group_symop_operation_xyz
x,y,z
-x,y,-z
-x,-y,-z
x,-y,z
1/2+x,1/2+y,z
1/2-x,1/2+y,-z
1/2-x,1/2-y,-z
1/2+x,1/2-y,z
loop_
_atom_site_type_symbol
_atom_site_label
_atom_site_fract_x
_atom_site_fract_y
_atom_site_fract_z
Si Si1 0.565997 0.296676 0.732400
Si Si2 0.133879 0.288204 0.425157
Si Si3 0.771169 0.707301 0.656909
Si Si4 0.264459 0.288983 0.912912
Si Si5 0.552150 0.284971 0.261068
Si Si6 0.440947 0.784071 0.451359
Si Si7 0.147369 0.784293 0.180315
Si Si8 0.316537 0.291072 0.246333
O O1 0.567353 0.500000 0.763438
O O2 0.509151 0.215285 0.748735
O O3 0.562739 0.295421 0.636359
O O4 0.624749 0.212208 0.760967
O O5 0.141114 0.500000 0.435207
O O6 0.192020 0.215531 0.406614
O O7 0.088061 0.262493 0.346580
O O8 0.107000 0.221970 0.500423
O O9 0.760798 0.500000 0.636456
O O10 0.813046 0.718249 0.740548
O O11 0.716202 0.784703 0.684152
O O12 0.263364 0.500000 0.903465
O O13 0.323884 0.227842 0.894941
O O14 0.221207 0.218427 0.839592
O O15 0.250000 0.250000 0.000000
O O16 0.549112 0.500000 0.260939
O O17 0.587378 0.226641 0.192662
O O18 0.500000 0.739882 0.500000
O O19 0.438284 0.000000 0.444815
O O20 0.147418 0.000000 0.183672
O O21 0.324912 0.500000 0.266259
#
# Coordination Sequence:
#
# PCOD9177811 Si02
#       8
#     8   8   8   8   8   8   8   8
#     4  10  20  31  46  67  93 125 157 191 233 277
#     4   9  16  27  43  63  85 115 156 199 239 273
#     4   8  14  26  45  63  84 116 152 190 230 271
#     4  10  19  32  53  78  99 120 146 181 224 270
#     4   9  16  27  44  66  90 118 152 191 230 268
#     4  10  19  30  43  62  91 123 159 202 239 274
#     4   8  15  27  44  68  94 115 144 185 224 263
#     4   9  18  33  49  69  96 123 153 188 226 274
#
# _framework density 20.580615000000002
#
# number of rings (size 3 to 8) (size 9 to 14) (size 15 to 20)
#    0.000    2.875    1.250    0.375    0.000    1.750 
#    0.000    0.625    0.000    0.750    0.000    5.250 
#    0.000    0.000    0.000    0.000    0.000    0.000 
#
# Total GULP energy -178264.601776 kJ/mol
# GULP energy per Si atom -5570.768806 kJ/mol
# Density = 2.053377 g / cm^3
# Si number density = 20.580615 Si / 1000 Ang^3
#
#
#
# Elastic Constant Matrix: (Units=GPa)
#
#
# Indices 1 2 3 4 5 6 
#
# 1 153.1145 3.5970 46.0015 0.0000 -36.1174 0.0000
# 2 3.5970 54.3293 -2.1476 0.0000 -3.9647 0.0000
# 3 46.0015 -2.1476 52.3272 0.0000 -30.5397 0.0000
# 4 0.0000 0.0000 0.0000 17.6412 0.0000 -1.1164
# 5 -36.1174 -3.9647 -30.5397 0.0000 33.9802 0.0000
# 6 0.0000 0.0000 0.0000 -1.1164 0.0000 4.7743
#
#
#
# Elastic Compliance Matrix: (Units=1/GPa)
#
#
# Indices 1 2 3 4 5 6 
#
# 1 0.009325 -0.000442 -0.005177 0.000000 0.005207 0.000000
# 2 -0.000442 0.019048 0.004613 0.000000 0.005899 0.000000
# 3 -0.005177 0.004613 0.044070 0.000000 0.034643 0.000000
# 4 0.000000 0.000000 0.000000 0.057537 0.000000 0.013454
# 5 0.005207 0.005899 0.034643 0.000000 0.066788 0.000000
# 6 0.000000 0.000000 0.000000 0.013454 0.000000 0.212601
#
#
# Mechanical properties :
#
#
# Convention : Reuss Voigt Hill
#
# Bulk Modulus (GPa) = 14.19819 39.40808 26.80313
# Shear Modulus (GPa) = 11.49803 25.43383 18.46593
#
# Velocity S-wave (km/s) = 2.36621 3.51923 2.99866
# Velocity P-wave (km/s) = 3.79197 5.97520 5.00410
#
# Compressibility (1/GPa) = 0.07043154
#
# Stress axis : x y z
#
# Youngs Moduli (GPa) = 107.23752 52.49805 22.69133
#
# Poissons Ratio (x) = 0.02320 0.11747
# Poissons Ratio (y) = 0.04740 -0.10467
# Poissons Ratio (z) = 0.55514 -0.24217
#
# Static dielectric constant tensor:
#      x y z
#    x 1.826900 0.000000 -0.063360 
#    y 0.000000 1.846280 0.000000 
#    z -0.063360 0.000000 1.666610 
# 
# From -- ./inp_files/291595.got.cif
#   From: 2010.05.17/outbox.cif.g08.bks.cpg/sg12_146_cif.got.tgz:291595.got - 2010.06.03 13:09:07.
