data_PCOD9177631
_publ_section_title
;
Structure prediction by ZEFSAII (Michael W. Deem and Ramdas Pophale) SiO2 
 PCOD9177631
Probable space group: C 2/M
;
_chemical_formula_sum "Si O2"
_cell_formula_units_Z 64
_cell_length_a 29.247070
_cell_length_b 9.112186
_cell_length_c 15.923537
_cell_angle_alpha 90.000000
_cell_angle_beta 90.448014
_cell_angle_gamma 90.000000
_cell_volume 4243.568384
_symmetry_space_group_name_H-M "C 2/M"
_symmetry_group_IT_number 12
_symmetry_cell_setting 'monoclinic'
loop_
_space_group_symop_operation_xyz
x,y,z
-x,y,-z
-x,-y,-z
x,-y,z
1/2+x,1/2+y,z
1/2-x,1/2+y,-z
1/2-x,1/2-y,-z
1/2+x,1/2-y,z
loop_
_atom_site_type_symbol
_atom_site_label
_atom_site_fract_x
_atom_site_fract_y
_atom_site_fract_z
Si Si1 0.200679 0.674608 0.400035
Si Si2 0.295821 0.175412 0.401244
Si Si3 0.547925 0.677410 0.182382
Si Si4 0.609765 0.676263 0.342711
Si Si5 0.444474 0.331722 0.002623
Si Si6 0.946990 0.176509 0.490589
Si Si7 0.051123 0.324713 0.827844
Si Si8 0.393621 0.823456 0.337046
O O1 0.200785 0.500000 0.389888
O O2 0.249548 0.742089 0.376169
O O3 0.194805 0.707015 0.499877
O O4 0.158495 0.746285 0.350955
O O5 0.340768 0.218827 0.350106
O O6 0.288925 0.000000 0.393678
O O7 0.541357 0.500000 0.181760
O O8 0.580886 0.715814 0.259657
O O9 0.568756 0.717075 0.091395
O O10 0.498408 0.752150 0.190038
O O11 0.615986 0.500000 0.342596
O O12 0.580280 0.714726 0.424984
O O13 0.429836 0.500000 0.015965
O O14 0.500000 0.331567 0.000000
O O15 0.431784 0.233837 0.081834
O O16 0.923472 0.250950 0.410704
O O17 0.000000 0.219217 0.500000
O O18 0.945226 0.000000 0.480589
O O19 0.046041 0.500000 0.830570
O O20 0.085255 0.285233 0.752794
O O21 0.395942 0.000000 0.346529
#
# Coordination Sequence:
#
# PCOD9177631 Si02
#       8
#     8   8   8   8   8   8   8   8
#     4  10  19  31  49  69  89 115 151 193 234 272
#     4   9  18  33  49  64  88 119 152 190 230 273
#     4   9  18  32  48  66  92 126 159 188 223 271
#     4  10  19  31  47  67  92 122 155 188 226 270
#     4   8  15  29  47  65  88 120 155 190 228 269
#     4  10  20  31  44  64  91 124 159 190 217 254
#     4  10  19  29  45  69  95 122 154 191 230 269
#     4  10  20  33  46  65  92 124 155 185 226 274
#
# _framework density 15.081647
#
# number of rings (size 3 to 8) (size 9 to 14) (size 15 to 20)
#    0.000    2.500    1.250    2.250    0.000    6.000 
#    0.000    0.000    0.000    0.000    0.000    0.875 
#    0.000    0.000    0.000    0.000    0.000    0.000 
#
# Total GULP energy -178392.836027 kJ/mol
# GULP energy per Si atom -5574.776126 kJ/mol
# Density = 1.504732 g / cm^3
# Si number density = 15.081647 Si / 1000 Ang^3
#
#
#
# Elastic Constant Matrix: (Units=GPa)
#
#
# Indices 1 2 3 4 5 6 
#
# 1 119.2425 42.9420 69.6454 0.0000 -7.9422 0.0000
# 2 42.9420 27.9129 44.0820 0.0000 -4.4962 0.0000
# 3 69.6454 44.0820 122.5458 0.0000 -14.7037 0.0000
# 4 0.0000 0.0000 0.0000 22.2364 0.0000 1.2796
# 5 -7.9422 -4.4962 -14.7037 0.0000 9.4761 0.0000
# 6 0.0000 0.0000 0.0000 1.2796 0.0000 14.7583
#
#
#
# Elastic Compliance Matrix: (Units=1/GPa)
#
#
# Indices 1 2 3 4 5 6 
#
# 1 0.018854 -0.028100 -0.000382 0.000000 0.001877 0.000000
# 2 -0.028100 0.125393 -0.030502 0.000000 -0.011385 0.000000
# 3 -0.000382 -0.030502 0.021595 0.000000 0.018716 0.000000
# 4 0.000000 0.000000 0.000000 0.045197 0.000000 -0.003919
# 5 0.001877 -0.011385 0.018716 0.000000 0.130741 0.000000
# 6 0.000000 0.000000 0.000000 -0.003919 0.000000 0.068098
#
#
# Mechanical properties :
#
#
# Convention : Reuss Voigt Hill
#
# Bulk Modulus (GPa) = 20.88834 64.78222 42.83528
# Shear Modulus (GPa) = 9.19451 16.82961 13.01206
#
# Velocity S-wave (km/s) = 2.47179 3.34413 2.94049
# Velocity P-wave (km/s) = 4.69324 7.61305 6.32397
#
# Compressibility (1/GPa) = 0.04787360
#
# Stress axis : x y z
#
# Youngs Moduli (GPa) = 53.04031 7.97495 46.30696
#
# Poissons Ratio (x) = 0.22409 0.01768
# Poissons Ratio (y) = 1.49042 1.41247
# Poissons Ratio (z) = 0.02025 0.24326
#
# Static dielectric constant tensor:
#      x y z
#    x 1.478180 0.000000 -0.009490 
#    y 0.000000 1.501570 0.000000 
#    z -0.009490 0.000000 1.502930 
# 
# From -- ./inp_files/244028.got.cif
#   From: 2010.05.17/outbox.cif.g08.bks.cpg/sg12_123_cif.got.tgz:244028.got - 2010.06.03 13:09:07.
