data_PCOD9177290
_publ_section_title
;
Structure prediction by ZEFSAII (Michael W. Deem and Ramdas Pophale) SiO2 
 PCOD9177290
Probable space group: C 2/M
;
_chemical_formula_sum "Si O2"
_cell_formula_units_Z 48
_cell_length_a 28.270060
_cell_length_b 7.469860
_cell_length_c 24.652670
_cell_angle_alpha 90.000000
_cell_angle_beta 149.655661
_cell_angle_gamma 90.000000
_cell_volume 2630.042295
_symmetry_space_group_name_H-M "C 2/M"
_symmetry_group_IT_number 12
_symmetry_cell_setting 'monoclinic'
loop_
_space_group_symop_operation_xyz
x,y,z
-x,y,-z
-x,-y,-z
x,-y,z
1/2+x,1/2+y,z
1/2-x,1/2+y,-z
1/2-x,1/2-y,-z
1/2+x,1/2-y,z
loop_
_atom_site_type_symbol
_atom_site_label
_atom_site_fract_x
_atom_site_fract_y
_atom_site_fract_z
Si Si1 0.856308 0.718500 0.331073
Si Si2 0.869950 0.794405 0.678293
Si Si3 0.457761 0.784294 0.541594
Si Si4 0.645375 0.718130 0.121097
Si Si5 0.963120 0.781056 0.878401
Si Si6 0.159809 0.209620 0.470309
O O1 0.855520 0.500000 0.329961
O O2 0.891931 0.772837 0.426172
O O3 0.751025 0.779332 0.216037
O O4 0.937019 0.775189 0.368945
O O5 0.928375 0.715092 0.785771
O O6 0.873524 0.716525 0.621042
O O7 0.759866 0.792709 0.584766
O O8 0.901707 0.000000 0.704795
O O9 0.414951 0.728292 0.556196
O O10 0.458055 0.000000 0.541349
O O11 0.646204 0.500000 0.121611
O O12 0.607046 0.771944 0.142449
O O13 0.566917 0.773225 0.999948
O O14 0.961172 0.000000 0.875566
O O15 0.179958 0.000000 0.482078
#
# Coordination Sequence:
#
# PCOD9177290 Si02
#       6
#     8   8   8   8   8   8
#     4   8  14  24  40  62  84 106 133 165 200 238
#     4   9  17  29  43  59  81 108 135 163 199 241
#     4   9  16  27  43  61  82 108 135 164 200 238
#     4   8  12  19  35  62  87 100 122 164 205 236
#     4   8  13  21  37  61  84 103 124 160 206 239
#     4  10  19  28  40  60  83 107 135 166 200 238
#
# _framework density 18.250658000000001
#
# number of rings (size 3 to 8) (size 9 to 14) (size 15 to 20)
#    0.000    3.333    0.000    3.500    0.000    3.333 
#    0.000    1.667    0.000    1.000    0.000   10.500 
#    0.000    0.000    0.000    0.000    0.000    0.500 
#
# Total GULP energy -133752.687404 kJ/mol
# GULP energy per Si atom -5573.028642 kJ/mol
# Density = 1.820912 g / cm^3
# Si number density = 18.250658 Si / 1000 Ang^3
#
#
#
# Elastic Constant Matrix: (Units=GPa)
#
#
# Indices 1 2 3 4 5 6 
#
# 1 138.0924 -0.7855 92.4892 0.0000 4.0252 0.0000
# 2 -0.7855 51.5227 0.0041 0.0000 -2.7589 0.0000
# 3 92.4892 0.0041 151.9750 0.0000 1.0804 0.0000
# 4 0.0000 0.0000 0.0000 -0.7508 0.0000 0.2324
# 5 4.0252 -2.7589 1.0804 0.0000 28.0992 0.0000
# 6 0.0000 0.0000 0.0000 0.2324 0.0000 10.5638
#
#
#
# Elastic Compliance Matrix: (Units=1/GPa)
#
#
# Indices 1 2 3 4 5 6 
#
# 1 0.012285 0.000110 -0.007466 0.000000 -0.001462 0.000000
# 2 0.000110 0.019513 -0.000081 0.000000 0.001903 0.000000
# 3 -0.007466 -0.000081 0.011119 0.000000 0.000634 0.000000
# 4 0.000000 0.000000 0.000000 -1.322914 0.000000 0.029105
# 5 -0.001462 0.001903 0.000634 0.000000 0.035960 0.000000
# 6 0.000000 0.000000 0.000000 0.029105 0.000000 0.094023
#
#
# Mechanical properties :
#
#
# Convention : Reuss Voigt Hill
#
# Bulk Modulus (GPa) = 35.66028 58.33398 46.99713
# Shear Modulus (GPa) = -4.44132 24.24125 9.89997
#
# Velocity S-wave (km/s) = -1.56166 3.64846 2.33157
# Velocity P-wave (km/s) = 4.04102 7.05552 5.74936
#
# Compressibility (1/GPa) = 0.02804241
#
# Stress axis : x y z
#
# Youngs Moduli (GPa) = 81.39738 51.24918 89.93318
#
# Poissons Ratio (x) = -0.00562 0.67147
# Poissons Ratio (y) = -0.00892 0.00726
# Poissons Ratio (z) = 0.60774 0.00414
#
# Static dielectric constant tensor:
#      x y z
#    x 1.610290 0.000000 -0.012490 
#    y 0.000000 1.713040 0.000000 
#    z -0.012490 0.000000 1.624280 
# 
# From -- ./inp_files/323500.got.cif
#   From: 2010.05.17/outbox.cif.g08.bks.cpg/sg12_162_cif.got.tgz:323500.got - 2010.06.03 13:09:07.
