data_PCOD9177778
_publ_section_title
;
Structure prediction by ZEFSAII (Michael W. Deem and Ramdas Pophale) SiO2 
 PCOD9177778
Probable space group: C 2/M
;
_chemical_formula_sum "Si O2"
_cell_formula_units_Z 36
_cell_length_a 16.527369
_cell_length_b 9.204843
_cell_length_c 16.539794
_cell_angle_alpha 90.000000
_cell_angle_beta 141.280381
_cell_angle_gamma 90.000000
_cell_volume 1573.926180
_symmetry_space_group_name_H-M "C 2/M"
_symmetry_group_IT_number 12
_symmetry_cell_setting 'monoclinic'
loop_
_space_group_symop_operation_xyz
x,y,z
-x,y,-z
-x,-y,-z
x,-y,z
1/2+x,1/2+y,z
1/2-x,1/2+y,-z
1/2-x,1/2-y,-z
1/2+x,1/2-y,z
loop_
_atom_site_type_symbol
_atom_site_label
_atom_site_fract_x
_atom_site_fract_y
_atom_site_fract_z
Si Si1 0.575247 0.000000 0.341384
Si Si2 0.097640 0.000000 0.996583
Si Si3 0.602112 0.000000 0.150503
Si Si4 0.000000 0.252948 0.500000
Si Si5 0.977420 0.242705 0.794445
Si Si6 0.173230 0.000000 0.582587
Si Si7 0.174865 0.500000 0.708650
Si Si8 0.284607 0.500000 0.625048
O O1 0.492844 0.859559 0.252144
O O2 0.711845 0.000000 0.394588
O O3 0.640094 0.000000 0.479033
O O4 0.072848 0.136543 0.917097
O O5 0.000000 0.000000 0.000000
O O6 0.240369 0.000000 0.145153
O O7 0.572569 0.851196 0.175018
O O8 0.757568 0.000000 0.274049
O O9 0.500000 0.000000 0.000000
O O10 0.909472 0.356924 0.375618
O O11 0.912436 0.144485 0.485787
O O12 0.866386 0.142188 0.668899
O O13 0.278211 0.500000 0.716394
#
# Coordination Sequence:
#
# PCOD9177778 Si02
#       8
#     4   4   4   4   8   4   4   4
#     4  10  20  35  55  82 117 142 178 226 278 330
#     4  11  19  31  54  79 118 138 170 238 291 325
#     4  10  19  29  53  79 113 141 163 227 288 326
#     4  10  22  36  50  76 112 160 176 220 260 328
#     4   9  19  30  46  83 110 139 171 212 299 319
#     4   9  20  37  51  75 117 135 194 212 267 332
#     4  11  21  34  55  82 117 135 189 215 280 336
#     4  11  19  33  55  82 117 144 173 231 277 326
#
# _framework density 22.872737000000001
#
# number of rings (size 3 to 8) (size 9 to 14) (size 15 to 20)
#    0.000    2.222    2.222    4.000    3.111    0.000 
#    0.000    0.000    0.000    0.000    0.000   24.889 
#    6.667    0.000    0.000    0.000    0.000    0.000 
#
# Total GULP energy -100323.260674 kJ/mol
# GULP energy per Si atom -5573.514482 kJ/mol
# Density = 2.282068 g / cm^3
# Si number density = 22.872737 Si / 1000 Ang^3
#
#
#
# Elastic Constant Matrix: (Units=GPa)
#
#
# Indices 1 2 3 4 5 6 
#
# 1 48.4024 4.8662 -0.5508 0.0000 6.5519 0.0000
# 2 4.8662 188.2689 72.3008 0.0000 -2.9345 0.0000
# 3 -0.5508 72.3008 162.2048 0.0000 -27.5266 0.0000
# 4 0.0000 0.0000 0.0000 18.2302 0.0000 0.7854
# 5 6.5519 -2.9345 -27.5266 0.0000 29.9299 0.0000
# 6 0.0000 0.0000 0.0000 0.7854 0.0000 -8.7885
#
#
#
# Elastic Compliance Matrix: (Units=1/GPa)
#
#
# Indices 1 2 3 4 5 6 
#
# 1 0.021413 -0.000382 -0.000662 0.000000 -0.005334 0.000000
# 2 -0.000382 0.006560 -0.003320 0.000000 -0.002327 0.000000
# 3 -0.000662 -0.003320 0.009020 0.000000 0.008115 0.000000
# 4 0.000000 0.000000 0.000000 0.054644 0.000000 0.004883
# 5 -0.005334 -0.002327 0.008115 0.000000 0.041814 0.000000
# 6 0.000000 0.000000 0.000000 0.004883 0.000000 -0.113349
#
#
# Mechanical properties :
#
#
# Convention : Reuss Voigt Hill
#
# Bulk Modulus (GPa) = 35.38089 61.34537 48.36313
# Shear Modulus (GPa) = 130.70936 29.35833 80.03385
#
# Velocity S-wave (km/s) = 7.56772 3.58656 5.92173
# Velocity P-wave (km/s) = 9.58450 6.63549 8.24295
#
# Compressibility (1/GPa) = 0.02826385
#
# Stress axis : x y z
#
# Youngs Moduli (GPa) = 46.70049 152.43276 110.86554
#
# Poissons Ratio (x) = 0.05829 0.07339
# Poissons Ratio (y) = 0.01786 0.36811
# Poissons Ratio (z) = 0.03092 0.50613
#
# Static dielectric constant tensor:
#      x y z
#    x 1.962470 0.000000 -0.032710 
#    y 0.000000 1.833020 0.000000 
#    z -0.032710 0.000000 1.919550 
# 
# From -- ./inp_files/162349.got.cif
#   From: 2010.05.17/outbox.cif.g08.bks.cpg/sg12_82_cif.got.tgz:162349.got - 2010.06.03 13:09:07.
