data_PCOD9177917
_publ_section_title
;
Structure prediction by ZEFSAII (Michael W. Deem and Ramdas Pophale) SiO2 
 PCOD9177917
Probable space group: C 2/M
;
_chemical_formula_sum "Si O2"
_cell_formula_units_Z 64
_cell_length_a 31.611665
_cell_length_b 7.238608
_cell_length_c 12.500657
_cell_angle_alpha 90.000000
_cell_angle_beta 65.657311
_cell_angle_gamma 90.000000
_cell_volume 2606.151198
_symmetry_space_group_name_H-M "C 2/M"
_symmetry_group_IT_number 12
_symmetry_cell_setting 'monoclinic'
loop_
_space_group_symop_operation_xyz
x,y,z
-x,y,-z
-x,-y,-z
x,-y,z
1/2+x,1/2+y,z
1/2-x,1/2+y,-z
1/2-x,1/2-y,-z
1/2+x,1/2-y,z
loop_
_atom_site_type_symbol
_atom_site_label
_atom_site_fract_x
_atom_site_fract_y
_atom_site_fract_z
Si Si1 0.801459 0.780550 0.899556
Si Si2 0.728607 0.724479 0.669507
Si Si3 0.327512 0.293849 0.469906
Si Si4 0.500922 0.275791 0.175024
Si Si5 0.635868 0.273899 0.353454
Si Si6 0.571494 0.724106 0.910581
Si Si7 0.665484 0.275200 0.915679
Si Si8 0.535609 0.724863 0.370215
O O1 0.821116 0.710953 0.766209
O O2 0.806416 0.000000 0.887086
O O3 0.750000 0.750000 0.000000
O O4 0.834320 0.714481 0.962436
O O5 0.731542 0.500000 0.659207
O O6 0.688910 0.785341 0.626183
O O7 0.777678 0.801733 0.582679
O O8 0.712098 0.777332 0.804270
O O9 0.345393 0.500000 0.427076
O O10 0.359809 0.210180 0.527969
O O11 0.500042 0.500000 0.180604
O O12 0.451450 0.216259 0.177145
O O13 0.517333 0.212350 0.273696
O O14 0.537767 0.226721 0.044325
O O15 0.636813 0.500000 0.358806
O O16 0.587815 0.220564 0.347319
O O17 0.572703 0.500000 0.905890
O O18 0.622042 0.787145 0.891740
O O19 0.664590 0.500000 0.917790
O O20 0.500000 0.779811 0.500000
O O21 0.536125 0.500000 0.366670
#
# Coordination Sequence:
#
# PCOD9177917 Si02
#       8
#     8   8   8   8   8   8   8   8
#     4  10  19  30  45  64  88 117 146 177 213 254
#     4   9  17  28  42  60  81 105 137 176 208 239
#     4   9  17  29  43  58  80 111 140 166 205 251
#     4   8  13  21  32  48  71 100 133 164 198 241
#     4   9  17  28  41  58  83 116 147 173 209 258
#     4   8  13  21  34  50  70  99 132 165 200 241
#     4   9  16  25  38  57  79 105 138 172 206 243
#     4   9  16  24  35  53  79 111 142 169 201 249
#
# _framework density 24.557288
#
# number of rings (size 3 to 8) (size 9 to 14) (size 15 to 20)
#    0.000    3.125    0.000    2.250    0.000    4.000 
#    0.000    5.000    0.000    0.000    0.000    0.000 
#    0.000    2.000    0.000   29.625    0.000   33.250 
#
# Total GULP energy -178679.380964 kJ/mol
# GULP energy per Si atom -5583.730655 kJ/mol
# Density = 2.450140 g / cm^3
# Si number density = 24.557288 Si / 1000 Ang^3
#
#
#
# Elastic Constant Matrix: (Units=GPa)
#
#
# Indices 1 2 3 4 5 6 
#
# 1 120.2421 -6.7185 27.2253 0.0000 26.4266 0.0000
# 2 -6.7185 117.4990 -2.4027 0.0000 3.5941 0.0000
# 3 27.2253 -2.4027 85.5355 0.0000 26.7287 0.0000
# 4 0.0000 0.0000 0.0000 -11.0399 0.0000 -6.1421
# 5 26.4266 3.5941 26.7287 0.0000 44.0873 0.0000
# 6 0.0000 0.0000 0.0000 -6.1421 0.0000 -13.0456
#
#
#
# Elastic Compliance Matrix: (Units=1/GPa)
#
#
# Indices 1 2 3 4 5 6 
#
# 1 0.009801 0.000682 -0.001539 0.000000 -0.004998 0.000000
# 2 0.000682 0.008602 0.000458 0.000000 -0.001388 0.000000
# 3 -0.001539 0.000458 0.014703 0.000000 -0.008029 0.000000
# 4 0.000000 0.000000 0.000000 -0.122729 0.000000 0.057783
# 5 -0.004998 -0.001388 -0.008029 0.000000 0.030659 0.000000
# 6 0.000000 0.000000 0.000000 0.057783 0.000000 -0.103860
#
#
# Mechanical properties :
#
#
# Convention : Reuss Voigt Hill
#
# Bulk Modulus (GPa) = 30.95205 39.94276 35.44741
# Shear Modulus (GPa) = -33.05627 24.34521 -4.35553
#
# Velocity S-wave (km/s) = -3.67289 3.15201 -1.33322
# Velocity P-wave (km/s) = 2.31418 5.43575 3.47792
#
# Compressibility (1/GPa) = 0.03230804
#
# Stress axis : x y z
#
# Youngs Moduli (GPa) = 102.02539 116.25862 68.01532
#
# Poissons Ratio (x) = -0.07927 0.10467
# Poissons Ratio (y) = -0.06957 -0.03117
# Poissons Ratio (z) = 0.15700 -0.05327
#
# Static dielectric constant tensor:
#      x y z
#    x 1.953320 0.000000 0.018810 
#    y 0.000000 1.969930 0.000000 
#    z 0.018810 0.000000 1.898250 
# 
# From -- ./inp_files/188334.got.cif
#   From: 2010.05.17/outbox.cif.g08.bks.cpg/sg12_95_cif.got.tgz:188334.got - 2010.06.03 13:09:07.
