data_PCOD9177867
_publ_section_title
;
Structure prediction by ZEFSAII (Michael W. Deem and Ramdas Pophale) SiO2 
 PCOD9177867
Probable space group: C 2/M
;
_chemical_formula_sum "Si O2"
_cell_formula_units_Z 56
_cell_length_a 26.171982
_cell_length_b 13.543963
_cell_length_c 8.231332
_cell_angle_alpha 90.000000
_cell_angle_beta 110.901411
_cell_angle_gamma 90.000000
_cell_volume 2725.777166
_symmetry_space_group_name_H-M "C 2/M"
_symmetry_group_IT_number 12
_symmetry_cell_setting 'monoclinic'
loop_
_space_group_symop_operation_xyz
x,y,z
-x,y,-z
-x,-y,-z
x,-y,z
1/2+x,1/2+y,z
1/2-x,1/2+y,-z
1/2-x,1/2-y,-z
1/2+x,1/2-y,z
loop_
_atom_site_type_symbol
_atom_site_label
_atom_site_fract_x
_atom_site_fract_y
_atom_site_fract_z
Si Si1 0.023741 0.392394 0.349461
Si Si2 0.939830 0.768247 0.854312
Si Si3 0.769954 0.887360 0.018742
Si Si4 0.331314 0.215619 0.222906
Si Si5 0.336053 0.704864 0.585521
Si Si6 0.771503 0.389930 0.655027
Si Si7 0.593279 0.892473 0.932053
O O1 0.052895 0.500000 0.385804
O O2 0.051544 0.301258 0.293713
O O3 0.000000 0.371267 0.500000
O O4 0.969866 0.404746 0.180910
O O5 0.890216 0.837634 0.735390
O O6 0.909742 0.696393 0.946809
O O7 0.000000 0.797718 0.000000
O O8 0.819620 0.811189 0.096310
O O9 0.740579 0.885322 0.164230
O O10 0.784641 0.000000 0.000237
O O11 0.726439 0.842771 0.843081
O O12 0.347650 0.254805 0.416503
O O13 0.374264 0.142909 0.189218
O O14 0.286285 0.629140 0.501022
O O15 0.310391 0.800086 0.648515
O O16 0.791316 0.500000 0.636770
O O17 0.614154 0.000000 0.011247
#
# Coordination Sequence:
#
# PCOD9177867 Si02
#       7
#     8   8   8   8   8   8   8
#     4   9  17  29  45  66  91 120 159 203 241 281
#     4  10  20  33  49  69  99 138 172 200 242 295
#     4   9  18  33  49  68  97 129 162 200 249 303
#     4  10  19  30  48  72  97 127 163 205 246 290
#     4  10  20  33  50  76 103 128 168 211 247 293
#     4   9  19  35  54  74  99 133 166 203 253 303
#     4  10  19  30  44  64  94 130 163 194 236 291
#
# _framework density 20.544599999999999
#
# number of rings (size 3 to 8) (size 9 to 14) (size 15 to 20)
#    0.000    2.429    0.000    2.571    0.000    6.286 
#    0.000    0.000    0.000    0.429    0.000    3.000 
#    0.000   19.429    0.000    0.000    0.000    0.000 
#
# Total GULP energy -155975.902318 kJ/mol
# GULP energy per Si atom -5570.567940 kJ/mol
# Density = 2.049784 g / cm^3
# Si number density = 20.544600 Si / 1000 Ang^3
#
#
#
# Elastic Constant Matrix: (Units=GPa)
#
#
# Indices 1 2 3 4 5 6 
#
# 1 34.7136 2.6448 10.7196 0.0000 17.5418 0.0000
# 2 2.6448 55.3001 3.3923 0.0000 11.7460 0.0000
# 3 10.7196 3.3923 82.5353 0.0000 31.9486 0.0000
# 4 0.0000 0.0000 0.0000 7.7771 0.0000 0.4511
# 5 17.5418 11.7460 31.9486 0.0000 36.3910 0.0000
# 6 0.0000 0.0000 0.0000 0.4511 0.0000 15.7578
#
#
#
# Elastic Compliance Matrix: (Units=1/GPa)
#
#
# Indices 1 2 3 4 5 6 
#
# 1 0.039065 0.002787 0.003710 0.000000 -0.022987 0.000000
# 2 0.002787 0.019950 0.002773 0.000000 -0.010217 0.000000
# 3 0.003710 0.002773 0.019024 0.000000 -0.019385 0.000000
# 4 0.000000 0.000000 0.000000 0.128797 0.000000 -0.003687
# 5 -0.022987 -0.010217 -0.019385 0.000000 0.058876 0.000000
# 6 0.000000 0.000000 0.000000 -0.003687 0.000000 0.063566
#
#
# Mechanical properties :
#
#
# Convention : Reuss Voigt Hill
#
# Bulk Modulus (GPa) = 10.35427 22.89582 16.62505
# Shear Modulus (GPa) = 14.58014 22.37134 18.47574
#
# Velocity S-wave (km/s) = 2.66688 3.30345 3.00208
# Velocity P-wave (km/s) = 3.81232 5.07139 4.48625
#
# Compressibility (1/GPa) = 0.09657850
#
# Stress axis : x y z
#
# Youngs Moduli (GPa) = 25.59809 50.12551 52.56541
#
# Poissons Ratio (x) = -0.13968 -0.19501
# Poissons Ratio (y) = -0.07133 -0.14577
# Poissons Ratio (z) = -0.09497 -0.13900
#
# Static dielectric constant tensor:
#      x y z
#    x 1.781670 0.000000 0.045800 
#    y 0.000000 1.787290 0.000000 
#    z 0.045800 0.000000 1.897860 
# 
# From -- ./inp_files/104723.got.cif
#   From: 2010.05.17/outbox.cif.g08.bks.cpg/sg12_53_cif.got.tgz:104723.got - 2010.06.03 13:09:07.
