data_PCOD9177358
_publ_section_title
;
Structure prediction by ZEFSAII (Michael W. Deem and Ramdas Pophale) SiO2 
 PCOD9177358
Probable space group: C 2/M
;
_chemical_formula_sum "Si O2"
_cell_formula_units_Z 50
_cell_length_a 28.532946
_cell_length_b 7.471797
_cell_length_c 15.477706
_cell_angle_alpha 90.000000
_cell_angle_beta 50.617928
_cell_angle_gamma 90.000000
_cell_volume 2550.466600
_symmetry_space_group_name_H-M "C 2/M"
_symmetry_group_IT_number 12
_symmetry_cell_setting 'monoclinic'
loop_
_space_group_symop_operation_xyz
x,y,z
-x,y,-z
-x,-y,-z
x,-y,z
1/2+x,1/2+y,z
1/2-x,1/2+y,-z
1/2-x,1/2-y,-z
1/2+x,1/2-y,z
loop_
_atom_site_type_symbol
_atom_site_label
_atom_site_fract_x
_atom_site_fract_y
_atom_site_fract_z
Si Si1 0.498152 0.205904 0.273461
Si Si2 0.921115 0.707942 0.523259
Si Si3 0.635104 0.713991 0.158306
Si Si4 0.198931 0.216752 0.260254
Si Si5 0.500000 0.500000 0.500000
Si Si6 0.669358 0.788038 0.925942
Si Si7 0.465273 0.219810 0.954388
O O1 0.453119 0.281368 0.398459
O O2 0.566880 0.212864 0.228362
O O3 0.502427 0.282123 0.171928
O O4 0.479303 0.000000 0.286380
O O5 0.937932 0.500000 0.516339
O O6 0.848846 0.722732 0.611835
O O7 0.947763 0.841845 0.563326
O O8 0.630232 0.500000 0.166890
O O9 0.670530 0.776545 0.201552
O O10 0.669113 0.763050 0.029762
O O11 0.267887 0.282295 0.185966
O O12 0.200249 0.000000 0.258444
O O13 0.668351 0.000000 0.910323
O O14 0.604667 0.718669 0.967866
O O15 0.464704 0.000000 0.951964
O O16 0.500000 0.273195 0.000000
#
# Coordination Sequence:
#
# PCOD9177358 Si02
#       7
#     8   8   8   8   2   8   8
#     4   9  19  33  49  74 103 132 176 223 264 315
#     4  11  23  35  52  76 106 148 187 225 265 304
#     4  10  19  28  45  69  96 136 174 211 259 306
#     4  10  20  33  47  69 104 145 182 218 257 311
#     4  12  22  36  52  74 110 144 192 228 244 308
#     4   9  18  32  49  71 102 135 173 218 265 317
#     4   8  14  29  55  81 101 127 168 222 278 328
#
# _framework density 19.604255999999999
#
# number of rings (size 3 to 8) (size 9 to 14) (size 15 to 20)
#    0.000    2.400    0.800    3.120    3.360    3.200 
#    0.000    0.000    0.000    8.640    0.000    0.000 
#    0.000    0.000    0.000    0.000    0.000    0.160 
#
# Total GULP energy -139248.073745 kJ/mol
# GULP energy per Si atom -5569.922950 kJ/mol
# Density = 1.955964 g / cm^3
# Si number density = 19.604256 Si / 1000 Ang^3
#
#
#
# Elastic Constant Matrix: (Units=GPa)
#
#
# Indices 1 2 3 4 5 6 
#
# 1 80.4923 7.2726 57.0089 -0.0056 -3.2651 -0.0019
# 2 7.2726 80.4204 3.0020 -0.0093 -1.2070 -0.0032
# 3 57.0089 3.0020 131.8727 0.0037 -31.2851 0.0013
# 4 -0.0056 -0.0093 0.0037 -707.8811 -0.0007 -244.0681
# 5 -3.2651 -1.2070 -31.2851 -0.0007 30.4523 -0.0003
# 6 -0.0019 -0.0032 0.0013 -244.0681 -0.0003 -70.8879
#
#
#
# Elastic Compliance Matrix: (Units=1/GPa)
#
#
# Indices 1 2 3 4 5 6 
#
# 1 0.019685 -0.001518 -0.010564 0.000000 -0.008802 0.000000
# 2 -0.001518 0.012564 0.000595 0.000000 0.000946 0.000000
# 3 -0.010564 0.000595 0.015699 0.000000 0.015020 0.000000
# 4 0.000000 0.000000 0.000000 0.007550 0.000000 -0.025995
# 5 -0.008802 0.000946 0.015020 0.000000 0.047363 0.000000
# 6 0.000000 0.000000 0.000000 -0.025995 0.000000 0.075395
#
#
# Mechanical properties :
#
#
# Convention : Reuss Voigt Hill
#
# Bulk Modulus (GPa) = 40.04020 47.48359 43.76190
# Shear Modulus (GPa) = 23.86010 -134.62989 -55.38490
#
# Velocity S-wave (km/s) = 3.49246 -8.29596 -5.32098
# Velocity P-wave (km/s) = 6.06066 8.21524 3.92164
#
# Compressibility (1/GPa) = 0.02497490
#
# Stress axis : x y z
#
# Youngs Moduli (GPa) = 50.79907 79.59290 63.69635
#
# Poissons Ratio (x) = 0.12082 0.67287
# Poissons Ratio (y) = 0.07711 -0.03788
# Poissons Ratio (z) = 0.53662 -0.04733
#
# Static dielectric constant tensor:
#      x y z
#    x 1.680970 0.000000 -0.003270 
#    y 0.000000 1.529320 0.000000 
#    z -0.003270 0.000000 1.758170 
# 
# From -- ./inp_files/248105.got.cif
#   From: 2010.05.17/outbox.cif.g08.bks.cpg/sg12_125_cif.got.tgz:248105.got - 2010.06.03 13:09:07.
