data_PCOD9177407
_publ_section_title
;
Structure prediction by ZEFSAII (Michael W. Deem and Ramdas Pophale) SiO2 
 PCOD9177407
Probable space group: C 2/M
;
_chemical_formula_sum "Si O2"
_cell_formula_units_Z 32
_cell_length_a 23.056494
_cell_length_b 5.513724
_cell_length_c 11.183166
_cell_angle_alpha 90.000000
_cell_angle_beta 66.126905
_cell_angle_gamma 90.000000
_cell_volume 1300.050509
_symmetry_space_group_name_H-M "C 2/M"
_symmetry_group_IT_number 12
_symmetry_cell_setting 'monoclinic'
loop_
_space_group_symop_operation_xyz
x,y,z
-x,y,-z
-x,-y,-z
x,-y,z
1/2+x,1/2+y,z
1/2-x,1/2+y,-z
1/2-x,1/2-y,-z
1/2+x,1/2-y,z
loop_
_atom_site_type_symbol
_atom_site_label
_atom_site_fract_x
_atom_site_fract_y
_atom_site_fract_z
Si Si1 0.328620 0.500000 0.869345
Si Si2 0.895742 0.500000 0.108095
Si Si3 0.648276 0.500000 0.767864
Si Si4 0.009275 0.500000 0.194620
Si Si5 0.690147 0.000000 0.096430
Si Si6 0.643306 0.500000 0.432645
Si Si7 0.791554 0.500000 0.627654
Si Si8 0.529789 0.500000 0.679209
O O1 0.348683 0.240480 0.898217
O O2 0.343733 0.500000 0.718527
O O3 0.253149 0.500000 0.963133
O O4 0.856971 0.249425 0.152484
O O5 0.940532 0.500000 0.187707
O O6 0.943224 0.500000 0.956931
O O7 0.718117 0.500000 0.654088
O O8 0.588805 0.500000 0.726234
O O9 0.009298 0.752601 0.268010
O O10 0.706470 0.000000 0.225733
O O11 0.674174 0.756010 0.446607
O O12 0.569198 0.500000 0.524268
#
# Coordination Sequence:
#
# PCOD9177407 Si02
#       8
#     4   4   4   4   4   4   4   4
#     4   8  14  25  40  56  75 102 135 169 201 227
#     4   9  17  30  46  61  78 102 135 178 218 240
#     4  10  19  29  42  61  84 110 139 167 198 242
#     4   9  17  30  46  61  78 102 135 178 218 240
#     4   8  14  25  40  56  75 102 135 169 201 227
#     4  10  19  29  41  59  86 116 140 163 192 234
#     4  10  19  29  41  59  86 116 140 163 192 234
#     4  10  19  29  42  61  84 110 139 167 198 242
#
# _framework density 24.614428
#
# number of rings (size 3 to 8) (size 9 to 14) (size 15 to 20)
#    0.000    2.750    0.000    2.250    0.000    4.000 
#    0.000    0.000    0.000    0.000    0.000    0.000 
#    0.000    6.000    0.000    0.000    0.000    0.000 
#
# Total GULP energy -89372.853643 kJ/mol
# GULP energy per Si atom -5585.803353 kJ/mol
# Density = 2.455840 g / cm^3
# Si number density = 24.614428 Si / 1000 Ang^3
#
#
#
# Elastic Constant Matrix: (Units=GPa)
#
#
# Indices 1 2 3 4 5 6 
#
# 1 56.8897 12.7445 -2.9698 0.0000 -5.1472 0.0000
# 2 12.7445 255.2195 84.7981 0.0000 -16.4948 0.0000
# 3 -2.9698 84.7981 104.7471 0.0000 -28.5511 0.0000
# 4 0.0000 0.0000 0.0000 122.8483 0.0000 31.7542
# 5 -5.1472 -16.4948 -28.5511 0.0000 37.1825 0.0000
# 6 0.0000 0.0000 0.0000 31.7542 0.0000 5.5884
#
#
#
# Elastic Compliance Matrix: (Units=1/GPa)
#
#
# Indices 1 2 3 4 5 6 
#
# 1 0.018474 -0.001646 0.002977 0.000000 0.004114 0.000000
# 2 -0.001646 0.005550 -0.004971 0.000000 -0.001583 0.000000
# 3 0.002977 -0.004971 0.016652 0.000000 0.010993 0.000000
# 4 0.000000 0.000000 0.000000 -0.017366 0.000000 0.098675
# 5 0.004114 -0.001583 0.010993 0.000000 0.035203 0.000000
# 6 0.000000 0.000000 0.000000 0.098675 0.000000 -0.381747
#
#
# Mechanical properties :
#
#
# Convention : Reuss Voigt Hill
#
# Bulk Modulus (GPa) = 29.94269 67.33355 48.63812
# Shear Modulus (GPa) = -16.40298 54.60940 19.10321
#
# Velocity S-wave (km/s) = -2.58427 4.71530 2.78888
# Velocity P-wave (km/s) = 1.81287 7.55382 5.49303
#
# Compressibility (1/GPa) = 0.03339713
#
# Stress axis : x y z
#
# Youngs Moduli (GPa) = 54.12948 180.19055 60.05335
#
# Poissons Ratio (x) = 0.29658 -0.17881
# Poissons Ratio (y) = 0.08909 0.29852
# Poissons Ratio (z) = -0.16117 0.89570
#
# Static dielectric constant tensor:
#      x y z
#    x 1.948510 0.000000 0.046030 
#    y 0.000000 2.002020 0.000000 
#    z 0.046030 0.000000 1.925760 
# 
# From -- ./inp_files/171038.got.cif
#   From: 2010.05.17/outbox.cif.g08.bks.cpg/sg12_86_cif.got.tgz:171038.got - 2010.06.03 13:09:07.
