data_PCOD9177958
_publ_section_title
;
Structure prediction by ZEFSAII (Michael W. Deem and Ramdas Pophale) SiO2 
 PCOD9177958
Probable space group: C 2/M
;
_chemical_formula_sum "Si O2"
_cell_formula_units_Z 56
_cell_length_a 27.834494
_cell_length_b 8.851762
_cell_length_c 16.376868
_cell_angle_alpha 90.000000
_cell_angle_beta 65.087669
_cell_angle_gamma 90.000000
_cell_volume 3659.559992
_symmetry_space_group_name_H-M "C 2/M"
_symmetry_group_IT_number 12
_symmetry_cell_setting 'monoclinic'
loop_
_space_group_symop_operation_xyz
x,y,z
-x,y,-z
-x,-y,-z
x,-y,z
1/2+x,1/2+y,z
1/2-x,1/2+y,-z
1/2-x,1/2-y,-z
1/2+x,1/2-y,z
loop_
_atom_site_type_symbol
_atom_site_label
_atom_site_fract_x
_atom_site_fract_y
_atom_site_fract_z
Si Si1 0.920427 0.681330 0.045948
Si Si2 0.005132 0.679788 0.693820
Si Si3 0.685587 0.819154 0.969414
Si Si4 0.556789 0.673902 0.505807
Si Si5 0.894015 0.320081 0.682605
Si Si6 0.192975 0.180226 0.140108
Si Si7 0.010779 0.180494 0.867442
O O1 0.926597 0.500000 0.047580
O O2 0.860822 0.716194 0.060828
O O3 0.939568 0.758824 0.115548
O O4 0.960040 0.743908 0.948011
O O5 0.008672 0.500000 0.703576
O O6 0.946604 0.713810 0.699164
O O7 0.046833 0.733928 0.595597
O O8 0.012862 0.765507 0.773024
O O9 0.744678 0.780567 0.897032
O O10 0.684300 0.000000 0.985395
O O11 0.676255 0.737036 0.062168
O O12 0.500000 0.676501 0.500000
O O13 0.570001 0.500000 0.513783
O O14 0.596959 0.746346 0.412389
O O15 0.891003 0.500000 0.676457
O O16 0.843594 0.256573 0.766160
O O17 0.187412 0.000000 0.148748
O O18 0.007205 0.000000 0.875900
#
# Coordination Sequence:
#
# PCOD9177958 Si02
#       7
#     8   8   8   8   8   8   8
#     4  10  19  33  49  64  88 121 154 187 225 268
#     4  10  19  31  46  65  92 124 154 183 220 267
#     4   9  19  33  47  65  90 120 153 188 225 267
#     4   9  17  29  45  66  91 118 149 186 226 264
#     4  10  19  30  45  66  93 124 154 183 219 267
#     4  10  19  30  46  68  92 119 152 188 225 264
#     4  11  21  31  45  68  93 117 151 189 226 267
#
# _framework density 15.302387
#
# number of rings (size 3 to 8) (size 9 to 14) (size 15 to 20)
#    0.000    2.143    0.000    5.143    0.000    8.571 
#    0.000    0.000    0.000    0.000    0.000    1.000 
#    0.000    0.000    0.000    0.000    0.000    0.000 
#
# Total GULP energy -156219.789003 kJ/mol
# GULP energy per Si atom -5579.278179 kJ/mol
# Density = 1.526756 g / cm^3
# Si number density = 15.302387 Si / 1000 Ang^3
#
#
#
# Elastic Constant Matrix: (Units=GPa)
#
#
# Indices 1 2 3 4 5 6 
#
# 1 63.2259 30.6012 28.6325 0.0000 3.6213 0.0000
# 2 30.6012 64.3595 37.8658 0.0000 3.4125 0.0000
# 3 28.6325 37.8658 98.1304 0.0000 -1.0175 0.0000
# 4 0.0000 0.0000 0.0000 32.0673 0.0000 0.7706
# 5 3.6213 3.4125 -1.0175 0.0000 20.5651 0.0000
# 6 0.0000 0.0000 0.0000 0.7706 0.0000 18.7348
#
#
#
# Elastic Compliance Matrix: (Units=1/GPa)
#
#
# Indices 1 2 3 4 5 6 
#
# 1 0.021323 -0.008186 -0.003089 0.000000 -0.002549 0.000000
# 2 -0.008186 0.023532 -0.006721 0.000000 -0.002796 0.000000
# 3 -0.003089 -0.006721 0.013710 0.000000 0.002338 0.000000
# 4 0.000000 0.000000 0.000000 0.031215 0.000000 -0.001284
# 5 -0.002549 -0.002796 0.002338 0.000000 0.049655 0.000000
# 6 0.000000 0.000000 0.000000 -0.001284 0.000000 0.053430
#
#
# Mechanical properties :
#
#
# Convention : Reuss Voigt Hill
#
# Bulk Modulus (GPa) = 44.30120 46.65722 45.47921
# Shear Modulus (GPa) = 21.15223 22.84785 22.00004
#
# Velocity S-wave (km/s) = 3.72194 3.86825 3.79580
# Velocity P-wave (km/s) = 6.89085 7.10686 6.99969
#
# Compressibility (1/GPa) = 0.02257275
#
# Stress axis : x y z
#
# Youngs Moduli (GPa) = 46.89702 42.49463 72.94121
#
# Poissons Ratio (x) = 0.34785 0.22535
# Poissons Ratio (y) = 0.38389 0.49024
# Poissons Ratio (z) = 0.14489 0.28561
#
# Static dielectric constant tensor:
#      x y z
#    x 1.501810 0.000000 -0.003550 
#    y 0.000000 1.510720 0.000000 
#    z -0.003550 0.000000 1.486840 
# 
# From -- ./inp_files/248166.got.cif
#   From: 2010.05.17/outbox.cif.g08.bks.cpg/sg12_125_cif.got.tgz:248166.got - 2010.06.03 13:09:07.
