data_PCOD9177485
_publ_section_title
;
Structure prediction by ZEFSAII (Michael W. Deem and Ramdas Pophale) SiO2 
 PCOD9177485
Probable space group: C 2/M
;
_chemical_formula_sum "Si O2"
_cell_formula_units_Z 56
_cell_length_a 29.889034
_cell_length_b 8.806884
_cell_length_c 13.935012
_cell_angle_alpha 90.000000
_cell_angle_beta 77.050006
_cell_angle_gamma 90.000000
_cell_volume 3574.808392
_symmetry_space_group_name_H-M "C 2/M"
_symmetry_group_IT_number 12
_symmetry_cell_setting 'monoclinic'
loop_
_space_group_symop_operation_xyz
x,y,z
-x,y,-z
-x,-y,-z
x,-y,z
1/2+x,1/2+y,z
1/2-x,1/2+y,-z
1/2-x,1/2-y,-z
1/2+x,1/2-y,z
loop_
_atom_site_type_symbol
_atom_site_label
_atom_site_fract_x
_atom_site_fract_y
_atom_site_fract_z
Si Si1 0.444133 0.320241 0.928253
Si Si2 0.603088 0.818432 0.233754
Si Si3 0.014295 0.682601 0.387436
Si Si4 0.107863 0.679819 0.867951
Si Si5 0.303216 0.318469 0.084823
Si Si6 0.964388 0.181018 0.227302
Si Si7 0.300209 0.181695 0.874261
O O1 0.440674 0.500000 0.949936
O O2 0.414738 0.274358 0.849230
O O3 0.496177 0.285051 0.871552
O O4 0.423686 0.229432 0.026711
O O5 0.567537 0.783309 0.335918
O O6 0.657151 0.786109 0.216418
O O7 0.598481 0.000000 0.216145
O O8 0.008867 0.500000 0.386226
O O9 0.000000 0.734932 0.500000
O O10 0.983424 0.753207 0.317893
O O11 0.109780 0.500000 0.860462
O O12 0.158021 0.745365 0.867634
O O13 0.082851 0.748515 0.787065
O O14 0.308219 0.500000 0.084652
O O15 0.250681 0.276668 0.136526
O O16 0.308980 0.261386 0.972359
O O17 0.960865 0.000000 0.235530
O O18 0.299605 0.000000 0.892303
#
# Coordination Sequence:
#
# PCOD9177485 Si02
#       7
#     8   8   8   8   8   8   8
#     4  10  19  30  44  65  92 123 157 192 228 269
#     4   9  16  28  47  69  94 124 157 190 226 273
#     4   9  18  33  52  74  98 122 150 187 232 281
#     4  12  22  31  44  64  92 127 162 191 229 277
#     4  10  19  29  43  63  92 126 161 198 231 265
#     4  10  21  34  48  67  92 121 156 194 233 277
#     4   9  17  29  44  65  91 124 162 196 230 268
#
# _framework density 15.665175
#
# number of rings (size 3 to 8) (size 9 to 14) (size 15 to 20)
#    0.000    2.143    1.429    3.000    0.000    4.286 
#    0.000    0.000    0.000    0.000    0.000    1.000 
#    0.000    0.000    0.000    0.000    0.000    0.000 
#
# Total GULP energy -156125.172956 kJ/mol
# GULP energy per Si atom -5575.899034 kJ/mol
# Density = 1.562952 g / cm^3
# Si number density = 15.665175 Si / 1000 Ang^3
#
#
#
# Elastic Constant Matrix: (Units=GPa)
#
#
# Indices 1 2 3 4 5 6 
#
# 1 154.8596 48.6463 57.6952 0.0000 -3.3298 0.0000
# 2 48.6463 39.3585 24.1099 0.0000 -1.0257 0.0000
# 3 57.6952 24.1099 71.6255 0.0000 -7.4240 0.0000
# 4 0.0000 0.0000 0.0000 6.7172 0.0000 -6.7329
# 5 -3.3298 -1.0257 -7.4240 0.0000 12.6760 0.0000
# 6 0.0000 0.0000 0.0000 -6.7329 0.0000 10.6441
#
#
#
# Elastic Compliance Matrix: (Units=1/GPa)
#
#
# Indices 1 2 3 4 5 6 
#
# 1 0.012359 -0.011499 -0.006223 0.000000 -0.001328 0.000000
# 2 -0.011499 0.042893 -0.005461 0.000000 -0.002748 0.000000
# 3 -0.006223 -0.005461 0.021928 0.000000 0.010766 0.000000
# 4 0.000000 0.000000 0.000000 0.406784 0.000000 0.257309
# 5 -0.001328 -0.002748 0.010766 0.000000 0.084623 0.000000
# 6 0.000000 0.000000 0.000000 0.257309 0.000000 0.256708
#
#
# Mechanical properties :
#
#
# Convention : Reuss Voigt Hill
#
# Bulk Modulus (GPa) = 32.45045 58.52737 45.48891
# Shear Modulus (GPa) = 5.66937 15.03361 10.35149
#
# Velocity S-wave (km/s) = 1.90445 3.10124 2.57338
# Velocity P-wave (km/s) = 5.05924 7.08986 6.15882
#
# Compressibility (1/GPa) = 0.03081622
#
# Stress axis : x y z
#
# Youngs Moduli (GPa) = 80.91022 23.31372 45.60366
#
# Poissons Ratio (x) = 0.26808 0.28378
# Poissons Ratio (y) = 0.93036 0.24903
# Poissons Ratio (z) = 0.50348 0.12731
#
# Static dielectric constant tensor:
#      x y z
#    x 1.559040 0.000000 -0.020830 
#    y 0.000000 1.519390 0.000000 
#    z -0.020830 0.000000 1.495520 
# 
# From -- ./inp_files/247765.got.cif
#   From: 2010.05.17/outbox.cif.g08.bks.cpg/sg12_124_cif.got.tgz:247765.got - 2010.06.03 13:09:07.
