data_PCOD9177870
_publ_section_title
;
Structure prediction by ZEFSAII (Michael W. Deem and Ramdas Pophale) SiO2 
 PCOD9177870
Probable space group: C 2/M
;
_chemical_formula_sum "Si O2"
_cell_formula_units_Z 48
_cell_length_a 7.803252
_cell_length_b 15.466189
_cell_length_c 20.239279
_cell_angle_alpha 90.000000
_cell_angle_beta 45.678998
_cell_angle_gamma 90.000000
_cell_volume 1747.532190
_symmetry_space_group_name_H-M "C 2/M"
_symmetry_group_IT_number 12
_symmetry_cell_setting 'monoclinic'
loop_
_space_group_symop_operation_xyz
x,y,z
-x,y,-z
-x,-y,-z
x,-y,z
1/2+x,1/2+y,z
1/2-x,1/2+y,-z
1/2-x,1/2-y,-z
1/2+x,1/2-y,z
loop_
_atom_site_type_symbol
_atom_site_label
_atom_site_fract_x
_atom_site_fract_y
_atom_site_fract_z
Si Si1 0.290286 0.646087 0.981254
Si Si2 0.269699 0.096649 0.485179
Si Si3 0.205204 0.650662 0.187822
Si Si4 0.300286 0.331593 0.644764
Si Si5 0.782387 0.128375 0.318895
Si Si6 0.210953 0.640494 0.845607
O O1 0.567992 0.621421 0.916440
O O2 0.254890 0.629213 0.912720
O O3 0.250000 0.750000 0.000000
O O4 0.065095 0.610765 0.083243
O O5 0.244120 0.134113 0.417566
O O6 0.554617 0.092040 0.418597
O O7 0.082856 0.151216 0.579497
O O8 0.173319 0.000000 0.514381
O O9 0.239824 0.613730 0.252026
O O10 0.252541 0.755465 0.177097
O O11 0.922897 0.634236 0.250956
O O12 0.256277 0.230273 0.660361
O O13 0.057928 0.100974 0.253255
#
# Coordination Sequence:
#
# PCOD9177870 Si02
#       6
#     8   8   8   8   8   8
#     4   8  12  19  32  53  84 115 136 167 215 257
#     4  10  19  30  44  65  88 113 143 182 224 261
#     4   8  14  22  35  58  83 109 141 176 213 252
#     4   9  16  27  42  61  83 109 143 180 214 253
#     4   9  16  26  41  62  84 112 146 181 214 254
#     4   8  13  21  34  55  83 114 141 173 213 252
#
# _framework density 27.467306000000001
#
# number of rings (size 3 to 8) (size 9 to 14) (size 15 to 20)
#    0.000    3.333    0.000    1.500    0.000    0.000 
#    0.000    0.000    0.000    0.000    0.000   70.000 
#    0.000    0.000    0.000 3607.333    0.000    2.333 
#
# Total GULP energy -133966.565631 kJ/mol
# GULP energy per Si atom -5581.940235 kJ/mol
# Density = 2.740479 g / cm^3
# Si number density = 27.467306 Si / 1000 Ang^3
#
#
#
# Elastic Constant Matrix: (Units=GPa)
#
#
# Indices 1 2 3 4 5 6 
#
# 1 113.3605 8.9488 88.0171 0.0088 -52.3063 0.0037
# 2 8.9488 57.5531 32.0429 0.0012 -9.8381 0.0021
# 3 88.0171 32.0429 355.8937 -0.0107 -58.5298 -0.0018
# 4 0.0088 0.0012 -0.0107 193.9058 -0.0031 80.7213
# 5 -52.3063 -9.8381 -58.5298 -0.0031 91.5269 -0.0019
# 6 0.0037 0.0021 -0.0018 80.7213 -0.0019 28.7620
#
#
#
# Elastic Compliance Matrix: (Units=1/GPa)
#
#
# Indices 1 2 3 4 5 6 
#
# 1 0.013496 0.000269 -0.002334 0.000000 0.006249 -0.000002
# 2 0.000269 0.018383 -0.001533 -0.000002 0.001150 0.000005
# 3 -0.002334 -0.001533 0.003664 0.000000 0.000844 0.000001
# 4 0.000000 -0.000002 0.000000 -0.030637 0.000000 0.085983
# 5 0.006249 0.001150 0.000844 0.000000 0.015160 -0.000001
# 6 -0.000002 0.000005 0.000001 0.085983 -0.000001 -0.206544
#
#
# Mechanical properties :
#
#
# Convention : Reuss Voigt Hill
#
# Bulk Modulus (GPa) = 35.27586 87.20277 61.23932
# Shear Modulus (GPa) = -29.44071 89.35883 29.95906
#
# Velocity S-wave (km/s) = -3.27746 5.70994 3.30618
# Velocity P-wave (km/s) = 1.20481 8.67687 6.07604
#
# Compressibility (1/GPa) = 0.02834800
#
# Stress axis : x y z
#
# Youngs Moduli (GPa) = 74.09642 54.39741 272.92810
#
# Poissons Ratio (x) = -0.01465 0.63709
# Poissons Ratio (y) = -0.01996 0.41830
# Poissons Ratio (z) = 0.17296 0.08337
#
# Static dielectric constant tensor:
#      x y z
#    x 2.371920 0.000000 -0.040790 
#    y 0.000000 2.013740 0.000000 
#    z -0.040790 0.000000 2.107180 
# 
# From -- ./inp_files/305198.got.cif
#   From: 2010.05.17/outbox.cif.g08.bks.cpg/sg12_153_cif.got.tgz:305198.got - 2010.06.03 13:09:07.
