data_PCOD9177039
_publ_section_title
;
Structure prediction by ZEFSAII (Michael W. Deem and Ramdas Pophale) SiO2 
 PCOD9177039
Probable space group: C 2/M
;
_chemical_formula_sum "Si O2"
_cell_formula_units_Z 56
_cell_length_a 19.764668
_cell_length_b 16.331550
_cell_length_c 23.961923
_cell_angle_alpha 90.000000
_cell_angle_beta 158.043082
_cell_angle_gamma 90.000000
_cell_volume 2892.043917
_symmetry_space_group_name_H-M "C 2/M"
_symmetry_group_IT_number 12
_symmetry_cell_setting 'monoclinic'
loop_
_space_group_symop_operation_xyz
x,y,z
-x,y,-z
-x,-y,-z
x,-y,z
1/2+x,1/2+y,z
1/2-x,1/2+y,-z
1/2-x,1/2-y,-z
1/2+x,1/2-y,z
loop_
_atom_site_type_symbol
_atom_site_label
_atom_site_fract_x
_atom_site_fract_y
_atom_site_fract_z
Si Si1 0.603485 0.176887 0.138896
Si Si2 0.026711 0.805590 0.226255
Si Si3 0.884140 0.282158 0.296433
Si Si4 0.820539 0.500000 0.823890
Si Si5 0.822717 0.403346 0.510713
Si Si6 0.288944 0.337279 0.455102
Si Si7 0.695904 0.272397 0.039657
Si Si8 0.934194 0.000000 0.514172
O O1 0.759926 0.245426 0.251034
O O2 0.673608 0.086104 0.203482
O O3 0.500000 0.174512 0.000000
O O4 0.447959 0.200022 0.062254
O O5 0.134465 0.878940 0.337286
O O6 0.174870 0.732260 0.335714
O O7 0.871716 0.764174 0.145190
O O8 0.918275 0.831437 0.087827
O O9 0.753555 0.302273 0.144499
O O10 0.017047 0.359714 0.401968
O O11 0.019151 0.206695 0.384924
O O12 0.617450 0.500000 0.693103
O O13 0.000000 0.500000 0.000000
O O14 0.846471 0.500000 0.533907
O O15 0.808911 0.361945 0.561764
O O16 0.326493 0.418423 0.448361
O O17 0.000000 0.000000 0.500000
#
# Coordination Sequence:
#
# PCOD9177039 Si02
#       8
#     8   8   8   4   8   8   8   4
#     4   9  19  32  56  83 114 152 184 231 285 347
#     4  10  21  36  58  84 116 148 195 241 289 343
#     4  10  18  37  60  82 109 149 202 233 277 350
#     4  10  20  36  52  84 122 154 192 221 276 365
#     4  11  21  37  60  83 108 147 200 241 284 334
#     4  11  20  37  57  78 116 158 191 234 275 345
#     4  10  19  35  58  84 112 148 192 238 288 345
#     4  12  26  36  54  90 130 157 185 235 294 347
#
# _framework density 19.363468999999998
#
# number of rings (size 3 to 8) (size 9 to 14) (size 15 to 20)
#    0.000    1.714    5.000    0.857    2.000    0.000 
#    1.286    2.857    4.714    5.571    0.000    0.000 
#    0.000    0.000    0.000    0.000    0.000    0.000 
#
# Total GULP energy -155923.649948 kJ/mol
# GULP energy per Si atom -5568.701784 kJ/mol
# Density = 1.931940 g / cm^3
# Si number density = 19.363469 Si / 1000 Ang^3
#
#
#
# Elastic Constant Matrix: (Units=GPa)
#
#
# Indices 1 2 3 4 5 6 
#
# 1 28.0730 5.3801 22.2126 0.0102 -3.6245 0.0042
# 2 5.3801 74.5265 19.4964 0.0221 4.9683 0.0102
# 3 22.2126 19.4964 93.1259 0.0118 -0.4519 -0.0002
# 4 0.0102 0.0221 0.0118 15.3477 0.0031 6.0027
# 5 -3.6245 4.9683 -0.4519 0.0031 32.6254 0.0036
# 6 0.0042 0.0102 -0.0002 6.0027 0.0036 6.2500
#
#
#
# Elastic Compliance Matrix: (Units=1/GPa)
#
#
# Indices 1 2 3 4 5 6 
#
# 1 0.044698 -0.000818 -0.010466 -0.000014 0.004945 -0.000018
# 2 -0.000818 0.014371 -0.002825 -0.000014 -0.002318 -0.000008
# 3 -0.010466 -0.002825 0.013823 -0.000007 -0.000541 0.000019
# 4 -0.000014 -0.000014 -0.000007 0.104357 0.000002 -0.100229
# 5 0.004945 -0.002318 -0.000541 0.000002 0.031546 -0.000019
# 6 -0.000018 -0.000008 0.000019 -0.100229 -0.000019 0.256263
#
#
# Mechanical properties :
#
#
# Convention : Reuss Voigt Hill
#
# Bulk Modulus (GPa) = 22.38460 32.21151 27.29806
# Shear Modulus (GPa) = 9.83927 20.75371 15.29649
#
# Velocity S-wave (km/s) = 2.25663 3.27738 2.81368
# Velocity P-wave (km/s) = 4.28663 5.56713 4.96831
#
# Compressibility (1/GPa) = 0.04467356
#
# Stress axis : x y z
#
# Youngs Moduli (GPa) = 22.37233 69.58647 72.34177
#
# Poissons Ratio (x) = 0.05695 0.75714
# Poissons Ratio (y) = 0.01831 0.20434
# Poissons Ratio (z) = 0.23415 0.19655
#
# Static dielectric constant tensor:
#      x y z
#    x 1.742630 0.000000 -0.035280 
#    y 0.000000 1.656820 -0.000010 
#    z -0.035280 -0.000010 1.733520 
# 
# From -- ./inp_files/366763.got.cif
#   From: 2010.05.17/outbox.cif.g08.bks.cpg/sg12_184_cif.got.tgz:366763.got - 2010.06.03 13:09:07.
