data_PCOD9177165
_publ_section_title
;
Structure prediction by ZEFSAII (Michael W. Deem and Ramdas Pophale) SiO2 
 PCOD9177165
Probable space group: C 2/M
;
_chemical_formula_sum "Si O2"
_cell_formula_units_Z 64
_cell_length_a 28.194676
_cell_length_b 22.996025
_cell_length_c 8.032489
_cell_angle_alpha 90.000000
_cell_angle_beta 144.400456
_cell_angle_gamma 90.000000
_cell_volume 3031.656055
_symmetry_space_group_name_H-M "C 2/M"
_symmetry_group_IT_number 12
_symmetry_cell_setting 'monoclinic'
loop_
_space_group_symop_operation_xyz
x,y,z
-x,y,-z
-x,-y,-z
x,-y,z
1/2+x,1/2+y,z
1/2-x,1/2+y,-z
1/2-x,1/2-y,-z
1/2+x,1/2-y,z
loop_
_atom_site_type_symbol
_atom_site_label
_atom_site_fract_x
_atom_site_fract_y
_atom_site_fract_z
Si Si1 0.036514 0.658577 0.916863
Si Si2 0.630268 0.734539 0.291126
Si Si3 0.614338 0.356162 0.678461
Si Si4 0.390676 0.772889 0.383088
Si Si5 0.660517 0.932124 0.166057
Si Si6 0.749470 0.839462 0.204487
Si Si7 0.186612 0.066303 0.169905
Si Si8 0.042075 0.115889 0.952448
O O1 0.966195 0.683374 0.597183
O O2 0.107012 0.708346 0.121851
O O3 0.076611 0.599195 0.972487
O O4 0.000000 0.653022 0.000000
O O5 0.616379 0.754957 0.442532
O O6 0.717284 0.702555 0.552795
O O7 0.569477 0.682886 0.062238
O O8 0.599686 0.288621 0.681413
O O9 0.671410 0.357646 0.676812
O O10 0.527544 0.383892 0.386352
O O11 0.662935 0.388869 0.959684
O O12 0.310326 0.803611 0.085515
O O13 0.702928 0.894845 0.142270
O O14 0.723156 0.926463 0.500085
O O15 0.652417 0.000000 0.103500
O O16 0.176897 0.000000 0.084826
O O17 0.121078 0.079844 0.127360
O O18 0.000000 0.094258 0.000000
#
# Coordination Sequence:
#
# PCOD9177165 Si02
#       8
#     8   8   8   8   8   8   8   8
#     4  10  22  40  68  96 133 168 212 273 338 392
#     4  10  18  38  65  99 132 164 203 263 331 406
#     4  11  22  39  67  97 137 168 210 266 333 386
#     4  10  21  38  63 102 132 159 211 272 336 401
#     4  11  26  47  66  92 130 177 235 274 311 388
#     4  11  23  40  68  96 131 171 214 268 337 390
#     4  11  27  44  61  93 132 176 230 272 310 384
#     4  12  19  40  66  94 132 174 206 260 326 395
#
# _framework density 21.110572999999999
#
# number of rings (size 3 to 8) (size 9 to 14) (size 15 to 20)
#    0.000    1.250    5.000    2.250    5.250    4.000 
#    2.250    1.250    0.000    0.000    0.000    0.000 
#    0.000    0.000    0.000    0.000    0.000    0.000 
#
# Total GULP energy -178878.082630 kJ/mol
# GULP energy per Si atom -5589.940082 kJ/mol
# Density = 2.106252 g / cm^3
# Si number density = 21.110573 Si / 1000 Ang^3
#
#
#
# Elastic Constant Matrix: (Units=GPa)
#
#
# Indices 1 2 3 4 5 6 
#
# 1 42.0775 16.6049 4.8466 0.0000 13.1032 0.0000
# 2 16.6049 98.5738 34.5813 0.0000 11.1952 0.0000
# 3 4.8466 34.5813 66.1077 0.0000 12.9628 0.0000
# 4 0.0000 0.0000 0.0000 27.9257 0.0000 12.2761
# 5 13.1032 11.1952 12.9628 0.0000 27.9185 0.0000
# 6 0.0000 0.0000 0.0000 12.2761 0.0000 37.9438
#
#
#
# Elastic Compliance Matrix: (Units=1/GPa)
#
#
# Indices 1 2 3 4 5 6 
#
# 1 0.029318 -0.004397 0.002754 0.000000 -0.013275 0.000000
# 2 -0.004397 0.013204 -0.006547 0.000000 -0.000191 0.000000
# 3 0.002754 -0.006547 0.019900 0.000000 -0.007907 0.000000
# 4 0.000000 0.000000 0.000000 0.041747 0.000000 -0.013506
# 5 -0.013275 -0.000191 -0.007907 0.000000 0.045797 0.000000
# 6 0.000000 0.000000 0.000000 -0.013506 0.000000 0.030725
#
#
# Mechanical properties :
#
#
# Convention : Reuss Voigt Hill
#
# Bulk Modulus (GPa) = 21.71973 35.42497 28.57235
# Shear Modulus (GPa) = 23.53848 28.80600 26.17224
#
# Velocity S-wave (km/s) = 3.34280 3.69796 3.52486
# Velocity P-wave (km/s) = 5.02095 5.92033 5.48909
#
# Compressibility (1/GPa) = 0.04604109
#
# Stress axis : x y z
#
# Youngs Moduli (GPa) = 34.10911 75.73494 50.25055
#
# Poissons Ratio (x) = 0.33301 -0.13838
# Poissons Ratio (y) = 0.14998 0.32900
# Poissons Ratio (z) = -0.09393 0.49585
#
# Static dielectric constant tensor:
#      x y z
#    x 1.820600 0.000000 -0.006350 
#    y 0.000000 1.739680 0.000000 
#    z -0.006350 0.000000 1.760900 
# 
# From -- ./inp_files/113640.got.cif
#   From: 2010.05.17/outbox.cif.g08.bks.cpg/sg12_57_cif.got.tgz:113640.got - 2010.06.03 13:09:07.
