data_PCOD9177222
_publ_section_title
;
Structure prediction by ZEFSAII (Michael W. Deem and Ramdas Pophale) SiO2 
 PCOD9177222
Probable space group: C 2/M
;
_chemical_formula_sum "Si O2"
_cell_formula_units_Z 52
_cell_length_a 7.942774
_cell_length_b 20.323268
_cell_length_c 13.435566
_cell_angle_alpha 90.000000
_cell_angle_beta 80.475996
_cell_angle_gamma 90.000000
_cell_volume 2138.916953
_symmetry_space_group_name_H-M "C 2/M"
_symmetry_group_IT_number 12
_symmetry_cell_setting 'monoclinic'
loop_
_space_group_symop_operation_xyz
x,y,z
-x,y,-z
-x,-y,-z
x,-y,z
1/2+x,1/2+y,z
1/2-x,1/2+y,-z
1/2-x,1/2-y,-z
1/2+x,1/2-y,z
loop_
_atom_site_type_symbol
_atom_site_label
_atom_site_fract_x
_atom_site_fract_y
_atom_site_fract_z
Si Si1 0.898060 0.109725 0.136447
Si Si2 0.330695 0.889203 0.257002
Si Si3 0.116026 0.000000 0.190192
Si Si4 0.348152 0.922600 0.650110
Si Si5 0.415792 0.844017 0.909479
Si Si6 0.576962 0.721389 0.231266
Si Si7 0.851248 0.810277 0.441271
O O1 0.776409 0.085019 0.241031
O O2 0.767219 0.122954 0.060503
O O3 0.042403 0.056228 0.122189
O O4 0.988020 0.177373 0.156412
O O5 0.461067 0.901618 0.334438
O O6 0.450457 0.896755 0.147356
O O7 0.243730 0.818089 0.252411
O O8 0.183418 0.942414 0.261477
O O9 0.271172 0.869801 0.580726
O O10 0.345494 0.000000 0.621239
O O11 0.390030 0.790897 0.823522
O O12 0.500000 0.815437 0.000000
O O13 0.451102 0.719331 0.336921
O O14 0.750000 0.750000 0.500000
O O15 0.000000 0.835003 0.500000
#
# Coordination Sequence:
#
# PCOD9177222 Si02
#       7
#     8   8   4   8   8   8   8
#     4   9  20  37  65  98 134 179 232 287 354 420
#     4  10  22  39  72 103 137 181 235 290 360 419
#     4  10  18  40  65 100 131 189 232 289 352 425
#     4  10  20  43  72 101 140 186 235 293 358 430
#     4  11  24  41  66 100 143 188 236 293 360 429
#     4  10  23  42  68 103 138 182 233 293 358 425
#     4  11  28  45  71 107 148 187 237 295 361 427
#
# _framework density 24.311368999999999
#
# number of rings (size 3 to 8) (size 9 to 14) (size 15 to 20)
#    0.000    1.846    1.538    0.923    8.615    2.769 
#    0.000    4.615    0.000    1.385    2.000    0.000 
#    0.000    0.000    0.000    0.000    0.000    0.000 
#
# Total GULP energy -144913.184547 kJ/mol
# GULP energy per Si atom -5573.584021 kJ/mol
# Density = 2.425604 g / cm^3
# Si number density = 24.311369 Si / 1000 Ang^3
#
#
#
# Elastic Constant Matrix: (Units=GPa)
#
#
# Indices 1 2 3 4 5 6 
#
# 1 145.4134 58.9450 54.5310 0.0000 50.0931 0.0000
# 2 58.9450 112.2564 55.3577 0.0000 39.9407 0.0000
# 3 54.5310 55.3577 93.9731 0.0000 20.9216 0.0000
# 4 0.0000 0.0000 0.0000 -88.7149 0.0000 94.6913
# 5 50.0931 39.9407 20.9216 0.0000 43.5670 0.0000
# 6 0.0000 0.0000 0.0000 94.6913 0.0000 -99.4561
#
#
#
# Elastic Compliance Matrix: (Units=1/GPa)
#
#
# Indices 1 2 3 4 5 6 
#
# 1 0.013029 0.000025 -0.004742 0.000000 -0.012727 0.000000
# 2 0.000025 0.016654 -0.007188 0.000000 -0.011845 0.000000
# 3 -0.004742 -0.007188 0.016736 0.000000 0.004005 0.000000
# 4 0.000000 0.000000 0.000000 0.694491 0.000000 0.661220
# 5 -0.012727 -0.011845 0.004005 0.000000 0.046522 0.000000
# 6 0.000000 0.000000 0.000000 0.661220 0.000000 0.619487
#
#
# Mechanical properties :
#
#
# Convention : Reuss Voigt Hill
#
# Bulk Modulus (GPa) = 44.23018 76.59003 60.41010
# Shear Modulus (GPa) = 3.47641 -16.73352 -6.62856
#
# Velocity S-wave (km/s) = 1.19710 -2.62639 -1.65301
# Velocity P-wave (km/s) = 4.48814 4.73021 4.61077
#
# Compressibility (1/GPa) = 0.02260900
#
# Stress axis : x y z
#
# Youngs Moduli (GPa) = 76.75000 60.04517 59.75247
#
# Poissons Ratio (x) = -0.00151 0.28335
# Poissons Ratio (y) = -0.00192 0.42951
# Poissons Ratio (z) = 0.36395 0.43161
#
# Static dielectric constant tensor:
#      x y z
#    x 2.035040 0.000000 -0.058520 
#    y 0.000000 1.427970 0.000000 
#    z -0.058520 0.000000 1.998580 
# 
# From -- ./inp_files/197096.got.cif
#   From: 2010.05.17/outbox.cif.g08.bks.cpg/sg12_99_cif.got.tgz:197096.got - 2010.06.03 13:09:07.
