data_PCOD9177672
_publ_section_title
;
Structure prediction by ZEFSAII (Michael W. Deem and Ramdas Pophale) SiO2 
 PCOD9177672
Probable space group: C 2/M
;
_chemical_formula_sum "Si O2"
_cell_formula_units_Z 56
_cell_length_a 13.774552
_cell_length_b 21.942543
_cell_length_c 8.910572
_cell_angle_alpha 90.000000
_cell_angle_beta 117.041689
_cell_angle_gamma 90.000000
_cell_volume 2398.776333
_symmetry_space_group_name_H-M "C 2/M"
_symmetry_group_IT_number 12
_symmetry_cell_setting 'monoclinic'
loop_
_space_group_symop_operation_xyz
x,y,z
-x,y,-z
-x,-y,-z
x,-y,z
1/2+x,1/2+y,z
1/2-x,1/2+y,-z
1/2-x,1/2-y,-z
1/2+x,1/2-y,z
loop_
_atom_site_type_symbol
_atom_site_label
_atom_site_fract_x
_atom_site_fract_y
_atom_site_fract_z
Si Si1 0.104864 0.903836 0.999939
Si Si2 0.165760 0.425788 0.519126
Si Si3 0.859411 0.569120 0.163742
Si Si4 0.605003 0.394614 0.658499
Si Si5 0.820484 0.178120 0.703562
Si Si6 0.353647 0.070551 0.824178
Si Si7 0.887761 0.240345 0.464270
O O1 0.226098 0.932170 0.080769
O O2 0.123016 0.841476 0.104818
O O3 0.073214 0.894251 0.808306
O O4 0.000000 0.934952 0.000000
O O5 0.180265 0.500000 0.527054
O O6 0.113126 0.410279 0.645898
O O7 0.277934 0.386004 0.601717
O O8 0.111108 0.407724 0.319527
O O9 0.900276 0.500000 0.186490
O O10 0.883152 0.596932 0.012442
O O11 0.500000 0.420452 0.500000
O O12 0.721717 0.426142 0.723379
O O13 0.621431 0.324430 0.623965
O O14 0.887698 0.219827 0.637474
O O15 0.711858 0.217411 0.647650
O O16 0.384317 0.000000 0.853035
O O17 0.000000 0.270669 0.500000
#
# Coordination Sequence:
#
# PCOD9177672 Si02
#       7
#     8   8   8   8   8   8   8
#     4  10  19  29  46  68  97 135 169 209 250 300
#     4   9  16  29  50  71  99 132 166 210 253 305
#     4   8  16  27  39  63  96 132 172 204 242 299
#     4  10  19  30  45  65  97 131 169 209 247 296
#     4  10  20  35  53  75 102 136 173 209 263 308
#     4   9  16  27  42  63  94 131 168 204 245 295
#     4  10  20  35  55  74 100 134 171 217 260 308
#
# _framework density 23.345234999999999
#
# number of rings (size 3 to 8) (size 9 to 14) (size 15 to 20)
#    0.000    2.571    1.429    1.714    2.000    1.143 
#    0.000    0.000    0.000    0.857    0.000    0.000 
#    0.000    0.000    0.000   24.429    0.000    0.000 
#
# Total GULP energy -155983.737512 kJ/mol
# GULP energy per Si atom -5570.847768 kJ/mol
# Density = 2.329210 g / cm^3
# Si number density = 23.345235 Si / 1000 Ang^3
#
#
#
# Elastic Constant Matrix: (Units=GPa)
#
#
# Indices 1 2 3 4 5 6 
#
# 1 107.0865 24.1874 66.7093 0.0000 -17.2907 0.0000
# 2 24.1874 47.4823 9.7249 0.0000 1.7425 0.0000
# 3 66.7093 9.7249 217.7506 0.0000 -29.3140 0.0000
# 4 0.0000 0.0000 0.0000 -9.1546 0.0000 -9.2288
# 5 -17.2907 1.7425 -29.3140 0.0000 49.3118 0.0000
# 6 0.0000 0.0000 0.0000 -9.2288 0.0000 -11.6409
#
#
#
# Elastic Compliance Matrix: (Units=1/GPa)
#
#
# Indices 1 2 3 4 5 6 
#
# 1 0.013331 -0.006195 -0.003423 0.000000 0.002859 0.000000
# 2 -0.006195 0.024227 0.000444 0.000000 -0.002764 0.000000
# 3 -0.003423 0.000444 0.005932 0.000000 0.002311 0.000000
# 4 0.000000 0.000000 0.000000 -0.544042 0.000000 0.431310
# 5 0.002859 -0.002764 0.002311 0.000000 0.022753 0.000000
# 6 0.000000 0.000000 0.000000 0.431310 0.000000 -0.427842
#
#
# Mechanical properties :
#
#
# Convention : Reuss Voigt Hill
#
# Bulk Modulus (GPa) = 39.77307 63.72917 51.75112
# Shear Modulus (GPa) = -5.68885 23.81645 9.06380
#
# Velocity S-wave (km/s) = -1.56273 3.19750 1.97254
# Velocity P-wave (km/s) = 3.71722 6.40233 5.23486
#
# Compressibility (1/GPa) = 0.02514264
#
# Stress axis : x y z
#
# Youngs Moduli (GPa) = 75.01246 41.27681 168.57179
#
# Poissons Ratio (x) = 0.25570 0.57695
# Poissons Ratio (y) = 0.46469 -0.07479
# Poissons Ratio (z) = 0.25673 -0.01831
#
# Static dielectric constant tensor:
#      x y z
#    x 1.993670 0.000000 -0.023340 
#    y 0.000000 1.807520 0.000000 
#    z -0.023340 0.000000 1.947230 
# 
# From -- ./inp_files/66571.got.cif
#   From: 2010.05.17/outbox.cif.g08.bks.cpg/sg12_34_cif.got.tgz:66571.got - 2010.06.03 13:09:07.
