data_PCOD9177667
_publ_section_title
;
Structure prediction by ZEFSAII (Michael W. Deem and Ramdas Pophale) SiO2 
 PCOD9177667
Probable space group: C 2/M
;
_chemical_formula_sum "Si O2"
_cell_formula_units_Z 64
_cell_length_a 16.704421
_cell_length_b 26.079940
_cell_length_c 17.531071
_cell_angle_alpha 90.000000
_cell_angle_beta 147.551855
_cell_angle_gamma 90.000000
_cell_volume 4097.749439
_symmetry_space_group_name_H-M "C 2/M"
_symmetry_group_IT_number 12
_symmetry_cell_setting 'monoclinic'
loop_
_space_group_symop_operation_xyz
x,y,z
-x,y,-z
-x,-y,-z
x,-y,z
1/2+x,1/2+y,z
1/2-x,1/2+y,-z
1/2-x,1/2-y,-z
1/2+x,1/2-y,z
loop_
_atom_site_type_symbol
_atom_site_label
_atom_site_fract_x
_atom_site_fract_y
_atom_site_fract_z
Si Si1 0.830236 0.777374 0.345502
Si Si2 0.072823 0.815834 0.726792
Si Si3 0.748354 0.196728 0.450564
Si Si4 0.857395 0.153733 0.056519
Si Si5 0.891586 0.185822 0.840261
Si Si6 0.631528 0.885529 0.661090
Si Si7 0.937640 0.691933 0.263204
Si Si8 0.638021 0.558610 0.051221
O O1 0.854733 0.819477 0.298931
O O2 0.766545 0.794717 0.375363
O O3 0.710040 0.734949 0.223963
O O4 0.000000 0.758067 0.500000
O O5 0.153685 0.842995 0.861691
O O6 0.068064 0.753502 0.732222
O O7 0.900128 0.832872 0.592739
O O8 0.750000 0.250000 0.500000
O O9 0.588239 0.174718 0.342359
O O10 0.998326 0.188584 0.143029
O O11 0.708795 0.176675 0.900642
O O12 0.880659 0.099250 0.032684
O O13 0.771960 0.140714 0.731115
O O14 0.000000 0.176454 0.000000
O O15 0.500000 0.903792 0.500000
O O16 0.567360 0.839619 0.662161
O O17 0.711791 0.925982 0.781624
O O18 0.644900 0.500000 0.030333
O O19 0.500000 0.562514 0.000000
#
# Coordination Sequence:
#
# PCOD9177667 Si02
#       8
#     8   8   8   8   8   8   8   8
#     4  10  20  32  43  65  99 138 172 201 235 275
#     4  10  19  29  46  64  96 130 165 202 231 284
#     4   9  19  29  43  64  92 134 165 198 235 277
#     4  11  20  32  48  70  92 127 171 201 245 296
#     4  12  18  30  44  68  94 131 169 200 235 283
#     4  11  21  30  51  72  99 128 169 200 244 298
#     4  10  19  31  41  68  96 128 163 201 236 276
#     4  10  20  38  54  70  97 126 163 213 262 299
#
# _framework density 15.618328999999999
#
# number of rings (size 3 to 8) (size 9 to 14) (size 15 to 20)
#    0.000    1.625    5.000    2.250    5.250    1.250 
#    0.000    0.000    0.000    0.000    0.000    0.000 
#    0.000   12.500    0.000    0.000    0.000    0.000 
#
# Total GULP energy -178192.484450 kJ/mol
# GULP energy per Si atom -5568.515139 kJ/mol
# Density = 1.558278 g / cm^3
# Si number density = 15.618329 Si / 1000 Ang^3
#
#
#
# Elastic Constant Matrix: (Units=GPa)
#
#
# Indices 1 2 3 4 5 6 
#
# 1 101.6556 16.0657 36.4926 0.0000 0.1385 0.0000
# 2 16.0657 41.1652 19.8213 0.0000 0.9573 0.0000
# 3 36.4926 19.8213 72.1743 0.0000 1.6417 0.0000
# 4 0.0000 0.0000 0.0000 9.7414 0.0000 0.5178
# 5 0.1385 0.9573 1.6417 0.0000 32.8847 0.0000
# 6 0.0000 0.0000 0.0000 0.5178 0.0000 12.2556
#
#
#
# Elastic Compliance Matrix: (Units=1/GPa)
#
#
# Indices 1 2 3 4 5 6 
#
# 1 0.012171 -0.002063 -0.005594 0.000000 0.000288 0.000000
# 2 -0.002063 0.028350 -0.006732 0.000000 -0.000481 0.000000
# 3 -0.005594 -0.006732 0.018548 0.000000 -0.000706 0.000000
# 4 0.000000 0.000000 0.000000 0.102886 0.000000 -0.004347
# 5 0.000288 -0.000481 -0.000706 0.000000 0.030457 0.000000
# 6 0.000000 0.000000 0.000000 -0.004347 0.000000 0.081779
#
#
# Mechanical properties :
#
#
# Convention : Reuss Voigt Hill
#
# Bulk Modulus (GPa) = 33.01192 39.97273 36.49232
# Shear Modulus (GPa) = 15.97108 20.48405 18.22756
#
# Velocity S-wave (km/s) = 3.20126 3.62545 3.41994
# Velocity P-wave (km/s) = 5.90310 6.57071 6.24583
#
# Compressibility (1/GPa) = 0.03029209
#
# Stress axis : x y z
#
# Youngs Moduli (GPa) = 82.16337 35.27325 53.91296
#
# Poissons Ratio (x) = 0.07278 0.30157
# Poissons Ratio (y) = 0.16953 0.36292
# Poissons Ratio (z) = 0.45960 0.23745
#
# Static dielectric constant tensor:
#      x y z
#    x 1.574250 0.000000 -0.009260 
#    y 0.000000 1.511450 0.000000 
#    z -0.009260 0.000000 1.556150 
# 
# From -- ./inp_files/78813.got.cif
#   From: 2010.05.17/outbox.cif.g08.bks.cpg/sg12_40_cif.got.tgz:78813.got - 2010.06.03 13:09:07.
