data_PCOD9177400
_publ_section_title
;
Structure prediction by ZEFSAII (Michael W. Deem and Ramdas Pophale) SiO2 
 PCOD9177400
Probable space group: C 2/M
;
_chemical_formula_sum "Si O2"
_cell_formula_units_Z 56
_cell_length_a 33.867107
_cell_length_b 7.637827
_cell_length_c 14.035934
_cell_angle_alpha 90.000000
_cell_angle_beta 114.945488
_cell_angle_gamma 90.000000
_cell_volume 3291.981471
_symmetry_space_group_name_H-M "C 2/M"
_symmetry_group_IT_number 12
_symmetry_cell_setting 'monoclinic'
loop_
_space_group_symop_operation_xyz
x,y,z
-x,y,-z
-x,-y,-z
x,-y,z
1/2+x,1/2+y,z
1/2-x,1/2+y,-z
1/2-x,1/2-y,-z
1/2+x,1/2-y,z
loop_
_atom_site_type_symbol
_atom_site_label
_atom_site_fract_x
_atom_site_fract_y
_atom_site_fract_z
Si Si1 0.095755 0.714682 0.704718
Si Si2 0.182762 0.710997 0.895732
Si Si3 0.762706 0.704287 0.648906
Si Si4 0.267687 0.292823 0.868722
Si Si5 0.905528 0.715415 0.517975
Si Si6 0.500774 0.203690 0.616496
Si Si7 0.321686 0.202826 0.540912
O O1 0.094567 0.500000 0.704756
O O2 0.136546 0.772709 0.808997
O O3 0.101837 0.764805 0.600097
O O4 0.048110 0.777572 0.690591
O O5 0.262865 0.500000 0.852805
O O6 0.222862 0.776115 0.870876
O O7 0.194784 0.757992 0.015978
O O8 0.757131 0.500000 0.619291
O O9 0.774796 0.719969 0.771060
O O10 0.716212 0.789346 0.577450
O O11 0.798992 0.777498 0.612874
O O12 0.317153 0.000000 0.110287
O O13 0.905969 0.500000 0.518943
O O14 0.953776 0.776658 0.597887
O O15 0.866040 0.778428 0.543442
O O16 0.500000 0.206084 0.500000
O O17 0.500935 0.000000 0.646320
O O18 0.331483 0.000000 0.571935
#
# Coordination Sequence:
#
# PCOD9177400 Si02
#       7
#     8   8   8   8   8   8   8
#     4   8  12  19  34  57  83 107 128 154 191 233
#     4   9  17  28  42  60  81 105 133 163 197 237
#     4  10  19  29  41  58  81 107 135 167 198 230
#     4  10  19  30  43  58  79 106 134 165 199 235
#     4   8  12  20  35  56  83 109 130 154 188 232
#     4   7  10  16  29  53  82 106 126 151 187 231
#     4   9  17  28  42  60  81 107 136 163 195 233
#
# _framework density 17.011032
#
# number of rings (size 3 to 8) (size 9 to 14) (size 15 to 20)
#    0.000    3.286    0.000    3.429    0.000    3.429 
#    0.000    0.000    0.000    0.000    0.000    2.000 
#    0.000   12.571    0.000    0.000    0.000    0.000 
#
# Total GULP energy -155903.597003 kJ/mol
# GULP energy per Si atom -5567.985607 kJ/mol
# Density = 1.697231 g / cm^3
# Si number density = 17.011032 Si / 1000 Ang^3
#
#
#
# Elastic Constant Matrix: (Units=GPa)
#
#
# Indices 1 2 3 4 5 6 
#
# 1 152.0126 4.5979 62.3266 0.0000 13.3862 0.0000
# 2 4.5979 33.3633 -1.5899 0.0000 -0.8876 0.0000
# 3 62.3266 -1.5899 97.7456 0.0000 7.7228 0.0000
# 4 0.0000 0.0000 0.0000 11.4612 0.0000 2.6030
# 5 13.3862 -0.8876 7.7228 0.0000 24.0052 0.0000
# 6 0.0000 0.0000 0.0000 2.6030 0.0000 3.8571
#
#
#
# Elastic Compliance Matrix: (Units=1/GPa)
#
#
# Indices 1 2 3 4 5 6 
#
# 1 0.009245 -0.001634 -0.005653 0.000000 -0.003397 0.000000
# 2 -0.001634 0.030307 0.001410 0.000000 0.001578 0.000000
# 3 -0.005653 0.001410 0.013960 0.000000 -0.001287 0.000000
# 4 0.000000 0.000000 0.000000 0.103045 0.000000 -0.069541
# 5 -0.003397 0.001578 -0.001287 0.000000 0.044024 0.000000
# 6 0.000000 0.000000 0.000000 -0.069541 0.000000 0.306192
#
#
# Mechanical properties :
#
#
# Convention : Reuss Voigt Hill
#
# Bulk Modulus (GPa) = 23.94725 45.97675 34.96200
# Shear Modulus (GPa) = 9.39063 22.38382 15.88722
#
# Velocity S-wave (km/s) = 2.35208 3.63139 3.05935
# Velocity P-wave (km/s) = 4.63513 6.68348 5.75123
#
# Compressibility (1/GPa) = 0.04175845
#
# Stress axis : x y z
#
# Youngs Moduli (GPa) = 108.16964 32.99525 71.63424
#
# Poissons Ratio (x) = 0.05391 0.40495
# Poissons Ratio (y) = 0.17673 -0.10101
# Poissons Ratio (z) = 0.61148 -0.04653
#
# Static dielectric constant tensor:
#      x y z
#    x 1.616790 0.000000 0.009820 
#    y 0.000000 1.657510 0.000000 
#    z 0.009820 0.000000 1.546110 
# 
# From -- ./inp_files/110847.got.cif
#   From: 2010.05.17/outbox.cif.g08.bks.cpg/sg12_56_cif.got.tgz:110847.got - 2010.06.03 13:09:07.
