data_PCOD9177111
_publ_section_title
;
Structure prediction by ZEFSAII (Michael W. Deem and Ramdas Pophale) SiO2 
 PCOD9177111
Probable space group: C 2/M
;
_chemical_formula_sum "Si O2"
_cell_formula_units_Z 44
_cell_length_a 17.935826
_cell_length_b 16.865938
_cell_length_c 14.255730
_cell_angle_alpha 90.000000
_cell_angle_beta 32.893766
_cell_angle_gamma 90.000000
_cell_volume 2342.003963
_symmetry_space_group_name_H-M "C 2/M"
_symmetry_group_IT_number 12
_symmetry_cell_setting 'monoclinic'
loop_
_space_group_symop_operation_xyz
x,y,z
-x,y,-z
-x,-y,-z
x,-y,z
1/2+x,1/2+y,z
1/2-x,1/2+y,-z
1/2-x,1/2-y,-z
1/2+x,1/2-y,z
loop_
_atom_site_type_symbol
_atom_site_label
_atom_site_fract_x
_atom_site_fract_y
_atom_site_fract_z
Si Si1 0.721531 0.269369 0.260076
Si Si2 0.155794 0.586959 0.803833
Si Si3 0.175152 0.335384 0.582954
Si Si4 0.009043 0.761885 0.331609
Si Si5 0.000000 0.169567 0.000000
Si Si6 0.948944 0.092277 0.252857
O O1 0.759801 0.361644 0.212479
O O2 0.649646 0.247703 0.238543
O O3 0.609233 0.263691 0.462331
O O4 0.860777 0.222436 0.139119
O O5 0.214698 0.500000 0.727109
O O6 0.156641 0.635009 0.706874
O O7 0.000000 0.581399 0.000000
O O8 0.250000 0.250000 0.500000
O O9 0.283208 0.395570 0.423686
O O10 0.031356 0.314426 0.687713
O O11 0.999954 0.842436 0.277350
O O12 0.001784 0.118924 0.902353
O O13 0.981230 0.000000 0.239198
#
# Coordination Sequence:
#
# PCOD9177111 Si02
#       6
#     8   8   8   8   4   8
#     4  11  21  38  63  86 119 152 196 249 293 348
#     4  11  22  36  59  89 120 153 192 242 302 353
#     4  10  18  38  59  83 114 154 199 235 286 351
#     4  10  22  38  61  91 113 152 201 246 293 346
#     4  12  23  40  63  84 118 162 206 240 281 350
#     4  11  22  38  61  88 119 157 197 242 292 350
#
# _framework density 18.787330000000001
#
# number of rings (size 3 to 8) (size 9 to 14) (size 15 to 20)
#    0.000    1.273    6.364    1.909    0.000    1.455 
#    0.000    1.818    0.000    4.364    0.000    0.000 
#    0.000    0.000    0.000    0.000    0.000    0.000 
#
# Total GULP energy -122571.856128 kJ/mol
# GULP energy per Si atom -5571.448006 kJ/mol
# Density = 1.874457 g / cm^3
# Si number density = 18.787330 Si / 1000 Ang^3
#
#
#
# Elastic Constant Matrix: (Units=GPa)
#
#
# Indices 1 2 3 4 5 6 
#
# 1 79.2038 2.4126 12.4006 0.0001 -9.2131 0.0000
# 2 2.4126 55.3272 17.0849 0.0001 2.3837 0.0001
# 3 12.4006 17.0849 59.9574 0.0002 9.9590 0.0000
# 4 0.0001 0.0001 0.0002 12.3014 -0.0001 -10.1652
# 5 -9.2131 2.3837 9.9590 -0.0001 33.4215 0.0000
# 6 0.0000 0.0001 0.0000 -10.1652 0.0000 -10.4991
#
#
#
# Elastic Compliance Matrix: (Units=1/GPa)
#
#
# Indices 1 2 3 4 5 6 
#
# 1 0.013773 0.000350 -0.003761 0.000000 0.004892 0.000000
# 2 0.000350 0.019830 -0.005791 0.000000 0.000408 0.000000
# 3 -0.003761 -0.005791 0.020210 0.000000 -0.006646 0.000000
# 4 0.000000 0.000000 0.000000 0.045160 0.000000 -0.043724
# 5 0.004892 0.000408 -0.006646 0.000000 0.033221 0.000000
# 6 0.000000 0.000000 0.000000 -0.043724 0.000000 -0.052913
#
#
# Mechanical properties :
#
#
# Convention : Reuss Voigt Hill
#
# Bulk Modulus (GPa) = 28.24074 28.69828 28.46951
# Shear Modulus (GPa) = 45.66743 17.88413 31.77578
#
# Velocity S-wave (km/s) = 4.93562 3.08868 4.11705
# Velocity P-wave (km/s) = 6.89528 5.29418 6.14708
#
# Compressibility (1/GPa) = 0.03540984
#
# Stress axis : x y z
#
# Youngs Moduli (GPa) = 72.60625 50.42973 49.47973
#
# Poissons Ratio (x) = -0.01765 0.18609
# Poissons Ratio (y) = -0.02541 0.28651
# Poissons Ratio (z) = 0.27307 0.29202
#
# Static dielectric constant tensor:
#      x y z
#    x 1.705750 0.000000 -0.006540 
#    y 0.000000 1.670100 0.000000 
#    z -0.006540 0.000000 1.708820 
# 
# From -- ./inp_files/226494.got.cif
#   From: 2010.05.17/outbox.cif.g08.bks.cpg/sg12_114_cif.got.tgz:226494.got - 2010.06.03 13:09:07.
