data_PCOD9177170
_publ_section_title
;
Structure prediction by ZEFSAII (Michael W. Deem and Ramdas Pophale) SiO2 
 PCOD9177170
Probable space group: C 2/M
;
_chemical_formula_sum "Si O2"
_cell_formula_units_Z 40
_cell_length_a 11.507259
_cell_length_b 21.274381
_cell_length_c 9.933630
_cell_angle_alpha 90.000000
_cell_angle_beta 48.851641
_cell_angle_gamma 90.000000
_cell_volume 1831.203266
_symmetry_space_group_name_H-M "C 2/M"
_symmetry_group_IT_number 12
_symmetry_cell_setting 'monoclinic'
loop_
_space_group_symop_operation_xyz
x,y,z
-x,y,-z
-x,-y,-z
x,-y,z
1/2+x,1/2+y,z
1/2-x,1/2+y,-z
1/2-x,1/2-y,-z
1/2+x,1/2-y,z
loop_
_atom_site_type_symbol
_atom_site_label
_atom_site_fract_x
_atom_site_fract_y
_atom_site_fract_z
Si Si1 0.810631 0.500000 0.645491
Si Si2 0.922732 0.634022 0.196377
Si Si3 0.591507 0.633093 0.560828
Si Si4 0.442411 0.500000 0.386271
Si Si5 0.626983 0.282858 0.796028
Si Si6 0.866302 0.627630 0.711267
O O1 0.723816 0.500000 0.568220
O O2 0.768041 0.564948 0.753339
O O3 0.000000 0.500000 0.500000
O O4 0.757423 0.609622 0.375391
O O5 0.888637 0.708524 0.207665
O O6 0.052537 0.623715 0.208527
O O7 0.000000 0.610245 0.000000
O O8 0.500000 0.657280 0.500000
O O9 0.506406 0.571493 0.686991
O O10 0.613971 0.683569 0.661110
O O11 0.500000 0.500000 0.500000
O O12 0.780427 0.307406 0.750225
O O13 0.500000 0.304254 0.000000
O O14 0.000000 0.627500 0.500000
#
# Coordination Sequence:
#
# PCOD9177170 Si02
#       6
#     4   8   8   4   8   8
#     4  10  18  38  66  93 123 168 219 272 311 377
#     4  11  26  41  62  96 130 168 213 264 320 381
#     4  11  23  41  65  91 129 166 208 261 324 380
#     4  10  20  40  64  95 128 167 212 269 326 381
#     4  11  25  40  63  94 128 167 212 261 317 380
#     4  11  22  41  67  90 125 169 221 261 320 378
#
# _framework density 21.843561000000001
#
# number of rings (size 3 to 8) (size 9 to 14) (size 15 to 20)
#    0.000    1.200    4.000    1.800    5.600    1.600 
#    0.000    4.000    0.000    0.000    0.000    0.000 
#    0.000    0.000    0.000    0.000    0.000    0.000 
#
# Total GULP energy -111414.663307 kJ/mol
# GULP energy per Si atom -5570.733165 kJ/mol
# Density = 2.179384 g / cm^3
# Si number density = 21.843561 Si / 1000 Ang^3
#
#
#
# Elastic Constant Matrix: (Units=GPa)
#
#
# Indices 1 2 3 4 5 6 
#
# 1 145.4954 3.5336 32.3914 0.0000 44.3914 0.0000
# 2 3.5336 43.8891 4.2562 0.0000 -3.5860 0.0000
# 3 32.3914 4.2562 95.8087 0.0000 21.6507 0.0000
# 4 0.0000 0.0000 0.0000 20.2056 0.0000 2.5669
# 5 44.3914 -3.5860 21.6507 0.0000 33.5083 0.0000
# 6 0.0000 0.0000 0.0000 2.5669 0.0000 36.1675
#
#
#
# Elastic Compliance Matrix: (Units=1/GPa)
#
#
# Indices 1 2 3 4 5 6 
#
# 1 0.011760 -0.002185 -0.000358 0.000000 -0.015582 0.000000
# 2 -0.002185 0.023674 -0.001803 0.000000 0.006594 0.000000
# 3 -0.000358 -0.001803 0.012383 0.000000 -0.007720 0.000000
# 4 0.000000 0.000000 0.000000 0.049941 0.000000 -0.003545
# 5 -0.015582 0.006594 -0.007720 0.000000 0.056181 0.000000
# 6 0.000000 0.000000 0.000000 -0.003545 0.000000 0.027901
#
#
# Mechanical properties :
#
#
# Convention : Reuss Voigt Hill
#
# Bulk Modulus (GPa) = 25.55858 40.61731 33.08795
# Shear Modulus (GPa) = 24.56112 34.31041 29.43577
#
# Velocity S-wave (km/s) = 3.35686 3.96755 3.67491
# Velocity P-wave (km/s) = 5.17212 6.29473 5.76083
#
# Compressibility (1/GPa) = 0.03912580
#
# Stress axis : x y z
#
# Youngs Moduli (GPa) = 85.03379 42.24004 80.75553
#
# Poissons Ratio (x) = 0.09231 0.02887
# Poissons Ratio (y) = 0.18583 0.14559
# Poissons Ratio (z) = 0.03040 0.07615
#
# Static dielectric constant tensor:
#      x y z
#    x 1.744520 0.000000 0.345210 
#    y 0.000000 1.855140 0.000000 
#    z 0.345210 0.000000 -1.997760 
# 
# From -- ./inp_files/50464.got.cif
#   From: 2010.05.17/outbox.cif.g08.bks.cpg/sg12_26_cif.got.tgz:50464.got - 2010.06.03 13:09:07.
