data_PCOD9177985
_publ_section_title
;
Structure prediction by ZEFSAII (Michael W. Deem and Ramdas Pophale) SiO2 
 PCOD9177985
Probable space group: C 2/M
;
_chemical_formula_sum "Si O2"
_cell_formula_units_Z 32
_cell_length_a 13.786150
_cell_length_b 24.257535
_cell_length_c 5.036455
_cell_angle_alpha 90.000000
_cell_angle_beta 111.720032
_cell_angle_gamma 90.000000
_cell_volume 1564.702779
_symmetry_space_group_name_H-M "C 2/M"
_symmetry_group_IT_number 12
_symmetry_cell_setting 'monoclinic'
loop_
_space_group_symop_operation_xyz
x,y,z
-x,y,-z
-x,-y,-z
x,-y,z
1/2+x,1/2+y,z
1/2-x,1/2+y,-z
1/2-x,1/2-y,-z
1/2+x,1/2-y,z
loop_
_atom_site_type_symbol
_atom_site_label
_atom_site_fract_x
_atom_site_fract_y
_atom_site_fract_z
Si Si1 0.623924 0.214987 0.634071
Si Si2 0.225887 0.563646 0.070310
Si Si3 0.750308 0.175508 0.270604
Si Si4 0.593363 0.935831 0.426536
O O1 0.500000 0.212098 0.500000
O O2 0.683079 0.178444 0.472347
O O3 0.661391 0.277747 0.620963
O O4 0.671126 0.195511 0.960814
O O5 0.257586 0.500000 0.159849
O O6 0.191071 0.565907 0.729531
O O7 0.126325 0.577430 0.160598
O O8 0.294798 0.615818 0.227990
O O9 0.500000 0.908600 0.500000
O O10 0.563933 0.000000 0.366978
#
# Coordination Sequence:
#
# PCOD9177985 Si02
#       4
#     8   8   8   8
#     4  10  21  37  55  74 100 133 170 215 253 287
#     4  10  19  30  45  67  98 129 155 195 245 292
#     4  10  21  35  53  78 101 130 173 207 248 305
#     4   9  17  27  39  60  92 129 162 188 227 288
#
# _framework density 20.451170999999999
#
# number of rings (size 3 to 8) (size 9 to 14) (size 15 to 20)
#    0.000    2.250    0.000    3.000    0.000    9.000 
#    0.000    0.000    0.000    0.750    0.000    0.000 
#    0.000   18.000    0.000    0.000    0.000    3.000 
#
# Total GULP energy -89169.919563 kJ/mol
# GULP energy per Si atom -5573.119973 kJ/mol
# Density = 2.040462 g / cm^3
# Si number density = 20.451171 Si / 1000 Ang^3
#
#
#
# Elastic Constant Matrix: (Units=GPa)
#
#
# Indices 1 2 3 4 5 6 
#
# 1 42.6263 18.4610 23.3188 0.0000 -5.5904 0.0000
# 2 18.4610 159.0272 6.8635 0.0000 16.7975 0.0000
# 3 23.3188 6.8635 79.3689 0.0000 -21.4043 0.0000
# 4 0.0000 0.0000 0.0000 26.3142 0.0000 -7.5849
# 5 -5.5904 16.7975 -21.4043 0.0000 27.8261 0.0000
# 6 0.0000 0.0000 0.0000 -7.5849 0.0000 3.8945
#
#
#
# Elastic Compliance Matrix: (Units=1/GPa)
#
#
# Indices 1 2 3 4 5 6 
#
# 1 0.029419 -0.003269 -0.007866 0.000000 0.001833 0.000000
# 2 -0.003269 0.007373 -0.001330 0.000000 -0.006131 0.000000
# 3 -0.007866 -0.001330 0.018694 0.000000 0.013602 0.000000
# 4 0.000000 0.000000 0.000000 0.086640 0.000000 0.168739
# 5 0.001833 -0.006131 0.013602 0.000000 0.050470 0.000000
# 6 0.000000 0.000000 0.000000 0.168739 0.000000 0.585404
#
#
# Mechanical properties :
#
#
# Convention : Reuss Voigt Hill
#
# Bulk Modulus (GPa) = 32.72922 42.03432 37.38177
# Shear Modulus (GPa) = 6.14918 27.09891 16.62404
#
# Velocity S-wave (km/s) = 1.73588 3.64408 2.85417
# Velocity P-wave (km/s) = 4.47840 6.18901 5.40185
#
# Compressibility (1/GPa) = 0.03055374
#
# Stress axis : x y z
#
# Youngs Moduli (GPa) = 33.99124 135.63461 53.49327
#
# Poissons Ratio (x) = 0.44343 0.42080
# Poissons Ratio (y) = 0.11113 0.07117
# Poissons Ratio (z) = 0.26739 0.18045
#
# Static dielectric constant tensor:
#      x y z
#    x 1.741260 0.000000 -0.016350 
#    y 0.000000 1.873540 0.000000 
#    z -0.016350 0.000000 1.699630 
# 
# From -- ./inp_files/7306.got.cif
#   From: 2010.05.17/outbox.cif.g08.bks.cpg/sg12_4_cif.got.tgz:7306.got - 2010.06.03 13:09:07.
