data_PCOD9177977
_publ_section_title
;
Structure prediction by ZEFSAII (Michael W. Deem and Ramdas Pophale) SiO2 
 PCOD9177977
Probable space group: C 2/M
;
_chemical_formula_sum "Si O2"
_cell_formula_units_Z 48
_cell_length_a 31.789264
_cell_length_b 8.960605
_cell_length_c 10.509766
_cell_angle_alpha 90.000000
_cell_angle_beta 78.016301
_cell_angle_gamma 90.000000
_cell_volume 2928.474804
_symmetry_space_group_name_H-M "C 2/M"
_symmetry_group_IT_number 12
_symmetry_cell_setting 'monoclinic'
loop_
_space_group_symop_operation_xyz
x,y,z
-x,y,-z
-x,-y,-z
x,-y,z
1/2+x,1/2+y,z
1/2-x,1/2+y,-z
1/2-x,1/2-y,-z
1/2+x,1/2-y,z
loop_
_atom_site_type_symbol
_atom_site_label
_atom_site_fract_x
_atom_site_fract_y
_atom_site_fract_z
Si Si1 0.529830 0.679595 0.862958
Si Si2 0.301513 0.676787 0.829650
Si Si3 0.207937 0.679096 0.887118
Si Si4 0.886074 0.322341 0.088973
Si Si5 0.110697 0.678082 0.214662
Si Si6 0.522725 0.319968 0.353909
O O1 0.531574 0.500000 0.864222
O O2 0.577368 0.741713 0.854317
O O3 0.507056 0.725684 0.746556
O O4 0.500000 0.729063 0.000000
O O5 0.308706 0.500000 0.819039
O O6 0.254684 0.710492 0.797969
O O7 0.344290 0.760624 0.758756
O O8 0.295480 0.729025 0.979845
O O9 0.207196 0.500000 0.917875
O O10 0.163443 0.711264 0.842791
O O11 0.892278 0.500000 0.094580
O O12 0.890954 0.281886 0.935652
O O13 0.110116 0.500000 0.223163
O O14 0.069361 0.748160 0.307079
O O15 0.500000 0.278990 0.500000
O O16 0.527218 0.500000 0.347206
#
# Coordination Sequence:
#
# PCOD9177977 Si02
#       6
#     8   8   8   8   8   8
#     4  10  19  31  48  70  93 119 157 196 230 276
#     4   9  15  24  41  62  90 125 157 189 231 278
#     4   8  15  26  38  61  94 124 154 190 231 278
#     4   9  17  28  44  67  95 125 155 188 230 276
#     4  10  19  30  45  67  95 124 158 195 233 279
#     4  10  21  36  51  68  93 124 158 196 237 280
#
# _framework density 16.390785000000001
#
# number of rings (size 3 to 8) (size 9 to 14) (size 15 to 20)
#    0.000    2.667    1.667    2.000    0.000    4.667 
#    0.000    0.000    0.000    0.000    0.000    1.167 
#    0.000    0.000    0.000    0.000    0.000    0.000 
#
# Total GULP energy -133628.948716 kJ/mol
# GULP energy per Si atom -5567.872863 kJ/mol
# Density = 1.635348 g / cm^3
# Si number density = 16.390785 Si / 1000 Ang^3
#
#
#
# Elastic Constant Matrix: (Units=GPa)
#
#
# Indices 1 2 3 4 5 6 
#
# 1 175.5152 43.3551 62.9392 0.0000 -29.1692 0.0000
# 2 43.3551 21.5740 25.9996 0.0000 -9.9167 0.0000
# 3 62.9392 25.9996 69.2372 0.0000 -8.8363 0.0000
# 4 0.0000 0.0000 0.0000 9.9589 0.0000 -5.0689
# 5 -29.1692 -9.9167 -8.8363 0.0000 18.8541 0.0000
# 6 0.0000 0.0000 0.0000 -5.0689 0.0000 32.9459
#
#
#
# Elastic Compliance Matrix: (Units=1/GPa)
#
#
# Indices 1 2 3 4 5 6 
#
# 1 0.012807 -0.016227 -0.004371 0.000000 0.009231 0.000000
# 2 -0.016227 0.127462 -0.029527 0.000000 0.028097 0.000000
# 3 -0.004371 -0.029527 0.028355 0.000000 -0.009003 0.000000
# 4 0.000000 0.000000 0.000000 0.108943 0.000000 0.016761
# 5 0.009231 0.028097 -0.009003 0.000000 0.077879 0.000000
# 6 0.000000 0.000000 0.000000 0.016761 0.000000 0.032932
#
#
# Mechanical properties :
#
#
# Convention : Reuss Voigt Hill
#
# Bulk Modulus (GPa) = 14.62529 58.99047 36.80788
# Shear Modulus (GPa) = 9.77672 21.28728 15.53200
#
# Velocity S-wave (km/s) = 2.44494 3.60771 3.08166
# Velocity P-wave (km/s) = 4.11249 7.30905 5.93021
#
# Compressibility (1/GPa) = 0.06837469
#
# Stress axis : x y z
#
# Youngs Moduli (GPa) = 78.08028 7.84548 35.26727
#
# Poissons Ratio (x) = 0.12731 0.15414
# Poissons Ratio (y) = 1.26704 1.04132
# Poissons Ratio (z) = 0.34126 0.23165
#
# Static dielectric constant tensor:
#      x y z
#    x 1.589060 0.000000 -0.016260 
#    y 0.000000 1.548320 0.000000 
#    z -0.016260 0.000000 1.526210 
# 
# From -- ./inp_files/185720.got.cif
#   From: 2010.05.17/outbox.cif.g08.bks.cpg/sg12_93_cif.got.tgz:185720.got - 2010.06.03 13:09:07.
