data_PCOD9177164
_publ_section_title
;
Structure prediction by ZEFSAII (Michael W. Deem and Ramdas Pophale) SiO2 
 PCOD9177164
Probable space group: C 2/M
;
_chemical_formula_sum "Si O2"
_cell_formula_units_Z 40
_cell_length_a 8.207113
_cell_length_b 24.716314
_cell_length_c 15.428288
_cell_angle_alpha 90.000000
_cell_angle_beta 35.413549
_cell_angle_gamma 90.000000
_cell_volume 1813.534174
_symmetry_space_group_name_H-M "C 2/M"
_symmetry_group_IT_number 12
_symmetry_cell_setting 'monoclinic'
loop_
_space_group_symop_operation_xyz
x,y,z
-x,y,-z
-x,-y,-z
x,-y,z
1/2+x,1/2+y,z
1/2-x,1/2+y,-z
1/2-x,1/2-y,-z
1/2+x,1/2-y,z
loop_
_atom_site_type_symbol
_atom_site_label
_atom_site_fract_x
_atom_site_fract_y
_atom_site_fract_z
Si Si1 0.398182 0.092850 0.630573
Si Si2 0.924991 0.813673 0.173300
Si Si3 0.715272 0.000000 0.179373
Si Si4 0.861464 0.000000 0.656704
Si Si5 0.502002 0.616829 0.395704
Si Si6 0.975340 0.694322 0.821012
O O1 0.500000 0.062455 0.500000
O O2 0.139936 0.134564 0.739438
O O3 0.677386 0.130435 0.519572
O O4 0.334696 0.051939 0.736531
O O5 0.695442 0.815683 0.194476
O O6 0.917392 0.756114 0.224001
O O7 0.234366 0.815173 0.997338
O O8 0.468129 0.000000 0.216878
O O9 0.000000 0.000000 0.000000
O O10 0.941984 0.943482 0.665345
O O11 0.000000 0.000000 0.500000
O O12 0.500000 0.610168 0.500000
O O13 0.759018 0.657199 0.270428
#
# Coordination Sequence:
#
# PCOD9177164 Si02
#       6
#     8   8   4   4   8   8
#     4  12  26  42  64 101 135 164 210 281 327 375
#     4  10  23  41  62  92 131 173 215 271 320 381
#     4  12  25  42  74  96 125 172 219 256 324 402
#     4  10  18  38  65  95 119 159 211 257 311 376
#     4  11  20  39  65  92 124 171 215 259 318 393
#     4  10  22  40  64  91 129 170 226 264 318 379
#
# _framework density 22.056381999999999
#
# number of rings (size 3 to 8) (size 9 to 14) (size 15 to 20)
#    0.000    1.200    6.000    0.300    8.400    1.600 
#    0.000    0.000    0.000    1.200    0.000    0.000 
#    0.000    0.000    0.000    0.000    0.000    0.000 
#
# Total GULP energy -111506.583344 kJ/mol
# GULP energy per Si atom -5575.329167 kJ/mol
# Density = 2.200618 g / cm^3
# Si number density = 22.056382 Si / 1000 Ang^3
#
#
#
# Elastic Constant Matrix: (Units=GPa)
#
#
# Indices 1 2 3 4 5 6 
#
# 1 25.9853 5.1611 32.5347 0.0000 -6.5136 0.0000
# 2 5.1611 138.7561 69.2601 0.0000 -5.6132 0.0000
# 3 32.5347 69.2601 132.6701 0.0000 -18.1695 0.0000
# 4 0.0000 0.0000 0.0000 31.2433 0.0000 -7.6809
# 5 -6.5136 -5.6132 -18.1695 0.0000 39.6762 0.0000
# 6 0.0000 0.0000 0.0000 -7.6809 0.0000 31.6295
#
#
#
# Elastic Compliance Matrix: (Units=1/GPa)
#
#
# Indices 1 2 3 4 5 6 
#
# 1 0.060335 0.006854 -0.018014 0.000000 0.002625 0.000000
# 2 0.006854 0.010564 -0.007294 0.000000 -0.000721 0.000000
# 3 -0.018014 -0.007294 0.016235 0.000000 0.003445 0.000000
# 4 0.000000 0.000000 0.000000 0.034039 0.000000 0.008266
# 5 0.002625 -0.000721 0.003445 0.000000 0.027111 0.000000
# 6 0.000000 0.000000 0.000000 0.008266 0.000000 0.033623
#
#
# Mechanical properties :
#
#
# Convention : Reuss Voigt Hill
#
# Bulk Modulus (GPa) = 19.91083 56.81369 38.36226
# Shear Modulus (GPa) = 21.22624 33.20684 27.21654
#
# Velocity S-wave (km/s) = 3.10556 3.88434 3.51658
# Velocity P-wave (km/s) = 4.68041 6.77730 5.82400
#
# Compressibility (1/GPa) = 0.05022392
#
# Stress axis : x y z
#
# Youngs Moduli (GPa) = 16.57420 94.66363 61.59549
#
# Poissons Ratio (x) = -0.64882 1.10961
# Poissons Ratio (y) = -0.11360 0.44929
# Poissons Ratio (z) = 0.29857 0.69050
#
# Static dielectric constant tensor:
#      x y z
#    x 1.961950 0.000000 0.006060 
#    y 0.000000 1.837430 0.000000 
#    z 0.006060 0.000000 1.799030 
# 
# From -- ./inp_files/259344.got.cif
#   From: 2010.05.17/outbox.cif.g08.bks.cpg/sg12_130_cif.got.tgz:259344.got - 2010.06.03 13:09:07.
