data_PCOD9177202
_publ_section_title
;
Structure prediction by ZEFSAII (Michael W. Deem and Ramdas Pophale) SiO2 
 PCOD9177202
Probable space group: C 2/M
;
_chemical_formula_sum "Si O2"
_cell_formula_units_Z 56
_cell_length_a 8.574417
_cell_length_b 30.599092
_cell_length_c 11.341019
_cell_angle_alpha 90.000000
_cell_angle_beta 112.408863
_cell_angle_gamma 90.000000
_cell_volume 2750.844632
_symmetry_space_group_name_H-M "C 2/M"
_symmetry_group_IT_number 12
_symmetry_cell_setting 'monoclinic'
loop_
_space_group_symop_operation_xyz
x,y,z
-x,y,-z
-x,-y,-z
x,-y,z
1/2+x,1/2+y,z
1/2-x,1/2+y,-z
1/2-x,1/2-y,-z
1/2+x,1/2-y,z
loop_
_atom_site_type_symbol
_atom_site_label
_atom_site_fract_x
_atom_site_fract_y
_atom_site_fract_z
Si Si1 0.661232 0.714153 0.722306
Si Si2 0.320079 0.189429 0.990057
Si Si3 0.228640 0.590860 0.118566
Si Si4 0.877905 0.393995 0.368207
Si Si5 0.031278 0.304365 0.720126
Si Si6 0.107246 0.551527 0.860367
Si Si7 0.985892 0.877156 0.631191
O O1 0.680794 0.714007 0.871925
O O2 0.845117 0.704533 0.719595
O O3 0.590477 0.761303 0.668223
O O4 0.544130 0.673464 0.656047
O O5 0.307793 0.139851 0.938806
O O6 0.500000 0.207825 0.000000
O O7 0.333044 0.188790 0.134042
O O8 0.388423 0.595421 0.248959
O O9 0.068973 0.572849 0.145419
O O10 0.238475 0.561908 0.003650
O O11 0.848193 0.424576 0.247383
O O12 0.701778 0.381893 0.376202
O O13 0.000000 0.415308 0.500000
O O14 0.966847 0.349206 0.350608
O O15 0.087585 0.500000 0.841082
O O16 0.000000 0.891252 0.500000
#
# Coordination Sequence:
#
# PCOD9177202 Si02
#       7
#     8   8   8   8   8   8   8
#     4  10  21  34  57  89 125 170 214 262 309 363
#     4   9  15  30  55  84 125 160 202 248 299 364
#     4  10  18  39  66  98 126 164 203 251 311 375
#     4  12  25  43  65  90 126 172 213 263 321 375
#     4  11  20  37  57  88 128 168 216 262 311 369
#     4  11  22  41  71 101 129 160 204 256 317 388
#     4  11  24  42  64  92 127 171 217 260 311 373
#
# _framework density 20.357382999999999
#
# number of rings (size 3 to 8) (size 9 to 14) (size 15 to 20)
#    0.000    1.429    2.857    5.571    0.000    1.429 
#    0.000    6.429    0.000    3.000    0.000    0.000 
#    0.000    0.000    0.000    0.000    0.000    0.000 
#
# Total GULP energy -156429.428177 kJ/mol
# GULP energy per Si atom -5586.765292 kJ/mol
# Density = 2.031105 g / cm^3
# Si number density = 20.357383 Si / 1000 Ang^3
#
#
#
# Elastic Constant Matrix: (Units=GPa)
#
#
# Indices 1 2 3 4 5 6 
#
# 1 84.8756 34.2982 47.3490 0.0000 -4.4525 0.0000
# 2 34.2982 106.6119 24.9198 0.0000 -4.2035 0.0000
# 3 47.3490 24.9198 124.7156 0.0000 -2.5175 0.0000
# 4 0.0000 0.0000 0.0000 5.6251 0.0000 -0.3579
# 5 -4.4525 -4.2035 -2.5175 0.0000 28.4487 0.0000
# 6 0.0000 0.0000 0.0000 -0.3579 0.0000 -62.0384
#
#
#
# Elastic Compliance Matrix: (Units=1/GPa)
#
#
# Indices 1 2 3 4 5 6 
#
# 1 0.016504 -0.003978 -0.005440 0.000000 0.001514 0.000000
# 2 -0.003978 0.010845 -0.000638 0.000000 0.000923 0.000000
# 3 -0.005440 -0.000638 0.010210 0.000000 -0.000042 0.000000
# 4 0.000000 0.000000 0.000000 0.177710 0.000000 -0.001025
# 5 0.001514 0.000923 -0.000042 0.000000 0.035521 0.000000
# 6 0.000000 0.000000 0.000000 -0.001025 0.000000 -0.016113
#
#
# Mechanical properties :
#
#
# Convention : Reuss Voigt Hill
#
# Bulk Modulus (GPa) = 57.31866 58.81523 58.06694
# Shear Modulus (GPa) = 19.18611 8.38281 13.78446
#
# Velocity S-wave (km/s) = 3.07329 2.03144 2.60498
# Velocity P-wave (km/s) = 6.38833 5.86996 6.13462
#
# Compressibility (1/GPa) = 0.01744632
#
# Stress axis : x y z
#
# Youngs Moduli (GPa) = 60.59174 92.20693 97.93986
#
# Poissons Ratio (x) = 0.36681 0.53283
# Poissons Ratio (y) = 0.24104 0.06249
# Poissons Ratio (z) = 0.32964 0.05883
#
# Static dielectric constant tensor:
#      x y z
#    x 1.710210 0.000000 -0.002080 
#    y 0.000000 1.709740 0.000000 
#    z -0.002080 0.000000 1.785130 
# 
# From -- ./inp_files/125815.got.cif
#   From: 2010.05.17/outbox.cif.g08.bks.cpg/sg12_63_cif.got.tgz:125815.got - 2010.06.03 13:09:07.
