data_PCOD9177684
_publ_section_title
;
Structure prediction by ZEFSAII (Michael W. Deem and Ramdas Pophale) SiO2 
 PCOD9177684
Probable space group: C 2/M
;
_chemical_formula_sum "Si O2"
_cell_formula_units_Z 50
_cell_length_a 19.708361
_cell_length_b 7.320792
_cell_length_c 12.466962
_cell_angle_alpha 90.000000
_cell_angle_beta 90.522790
_cell_angle_gamma 90.000000
_cell_volume 1798.668518
_symmetry_space_group_name_H-M "C 2/M"
_symmetry_group_IT_number 12
_symmetry_cell_setting 'monoclinic'
loop_
_space_group_symop_operation_xyz
x,y,z
-x,y,-z
-x,-y,-z
x,-y,z
1/2+x,1/2+y,z
1/2-x,1/2+y,-z
1/2-x,1/2-y,-z
1/2+x,1/2-y,z
loop_
_atom_site_type_symbol
_atom_site_label
_atom_site_fract_x
_atom_site_fract_y
_atom_site_fract_z
Si Si1 0.561757 0.775229 0.178511
Si Si2 0.855746 0.723465 0.503839
Si Si3 0.173071 0.285849 0.030638
Si Si4 0.975034 0.705928 0.363898
Si Si5 0.638934 0.710852 0.802994
Si Si6 0.258513 0.209191 0.677855
Si Si7 0.500000 0.500000 0.000000
O O1 0.537402 0.716616 0.296636
O O2 0.553456 0.000000 0.172249
O O3 0.639046 0.730119 0.142128
O O4 0.518792 0.660634 0.091553
O O5 0.855193 0.500000 0.502602
O O6 0.930300 0.781093 0.462818
O O7 0.800645 0.787000 0.414941
O O8 0.823280 0.784026 0.615793
O O9 0.164742 0.500000 0.025542
O O10 0.130577 0.209092 0.929978
O O11 0.250000 0.250000 0.000000
O O12 0.995041 0.500000 0.390545
O O13 0.918033 0.696503 0.268241
O O14 0.637472 0.500000 0.769327
O O15 0.713752 0.787038 0.774470
O O16 0.275904 0.000000 0.707548
#
# Coordination Sequence:
#
# PCOD9177684 Si02
#       7
#     8   8   8   8   8   8   2
#     4  10  23  37  51  79 108 136 174 220 266 315
#     4   8  13  23  41  62  92 132 160 190 242 302
#     4  11  24  40  55  70  97 133 178 225 262 308
#     4   9  17  30  47  71 103 132 164 205 256 310
#     4  10  19  29  46  72 101 130 166 208 251 303
#     4   8  14  24  38  63  95 126 161 197 237 296
#     4  12  22  32  60  78 108 144 168 214 266 334
#
# _framework density 27.798341000000001
#
# number of rings (size 3 to 8) (size 9 to 14) (size 15 to 20)
#    0.000    2.560    0.000    2.160    5.600    3.200 
#    0.000    0.000    0.000    0.000    0.000    1.120 
#    0.000    8.960    0.000    0.000    0.000    0.000 
#
# Total GULP energy -139434.292939 kJ/mol
# GULP energy per Si atom -5577.371718 kJ/mol
# Density = 2.773507 g / cm^3
# Si number density = 27.798341 Si / 1000 Ang^3
#
#
#
# Elastic Constant Matrix: (Units=GPa)
#
#
# Indices 1 2 3 4 5 6 
#
# 1 178.1744 9.0394 62.3789 0.0000 -41.9361 0.0000
# 2 9.0394 136.7433 13.1517 0.0000 -4.0896 0.0000
# 3 62.3789 13.1517 205.9439 0.0000 -53.3154 0.0000
# 4 0.0000 0.0000 0.0000 1.1895 0.0000 -1.3780
# 5 -41.9361 -4.0896 -53.3154 0.0000 65.2201 0.0000
# 6 0.0000 0.0000 0.0000 -1.3780 0.0000 5.8015
#
#
#
# Elastic Compliance Matrix: (Units=1/GPa)
#
#
# Indices 1 2 3 4 5 6 
#
# 1 0.006841 -0.000237 -0.001169 0.000000 0.003428 0.000000
# 2 -0.000237 0.007367 -0.000404 0.000000 -0.000021 0.000000
# 3 -0.001169 -0.000404 0.006386 0.000000 0.004443 0.000000
# 4 0.000000 0.000000 0.000000 1.159818 0.000000 0.275492
# 5 0.003428 -0.000021 0.004443 0.000000 0.021167 0.000000
# 6 0.000000 0.000000 0.000000 0.275492 0.000000 0.237808
#
#
# Mechanical properties :
#
#
# Convention : Reuss Voigt Hill
#
# Bulk Modulus (GPa) = 58.92021 76.66683 67.79352
# Shear Modulus (GPa) = 3.45145 43.52833 23.48989
#
# Velocity S-wave (km/s) = 1.11548 3.96139 2.91006
# Velocity P-wave (km/s) = 4.78546 6.96871 5.97761
#
# Compressibility (1/GPa) = 0.01697211
#
# Stress axis : x y z
#
# Youngs Moduli (GPa) = 146.18387 135.74257 156.59405
#
# Poissons Ratio (x) = 0.03220 0.18314
# Poissons Ratio (y) = 0.03468 0.06326
# Poissons Ratio (z) = 0.17096 0.05484
#
# Static dielectric constant tensor:
#      x y z
#    x 2.285220 0.000000 -0.055930 
#    y 0.000000 0.615480 0.000000 
#    z -0.055930 0.000000 2.171850 
# 
# From -- ./inp_files/230093.got.cif
#   From: 2010.05.17/outbox.cif.g08.bks.cpg/sg12_116_cif.got.tgz:230093.got - 2010.06.03 13:09:07.
