data_PCOD9177529
_publ_section_title
;
Structure prediction by ZEFSAII (Michael W. Deem and Ramdas Pophale) SiO2 
 PCOD9177529
Probable space group: C 2/M
;
_chemical_formula_sum "Si O2"
_cell_formula_units_Z 56
_cell_length_a 15.257923
_cell_length_b 9.227422
_cell_length_c 22.100499
_cell_angle_alpha 90.000000
_cell_angle_beta 123.831301
_cell_angle_gamma 90.000000
_cell_volume 2584.710246
_symmetry_space_group_name_H-M "C 2/M"
_symmetry_group_IT_number 12
_symmetry_cell_setting 'monoclinic'
loop_
_space_group_symop_operation_xyz
x,y,z
-x,y,-z
-x,-y,-z
x,-y,z
1/2+x,1/2+y,z
1/2-x,1/2+y,-z
1/2-x,1/2-y,-z
1/2+x,1/2-y,z
loop_
_atom_site_type_symbol
_atom_site_label
_atom_site_fract_x
_atom_site_fract_y
_atom_site_fract_z
Si Si1 0.845841 0.328632 0.901282
Si Si2 0.987623 0.836182 0.193883
Si Si3 0.687349 0.825029 0.531012
Si Si4 0.007404 0.334494 0.615434
Si Si5 0.152514 0.332503 0.329772
Si Si6 0.086272 0.329919 0.946204
Si Si7 0.166438 0.836323 0.750037
O O1 0.818042 0.500000 0.895642
O O2 0.766802 0.264324 0.821481
O O3 0.964781 0.322775 0.922668
O O4 0.846017 0.273737 0.970542
O O5 0.088574 0.738777 0.249988
O O6 0.916165 0.763739 0.114928
O O7 0.918321 0.843480 0.228034
O O8 0.017705 0.000000 0.188485
O O9 0.750000 0.750000 0.500000
O O10 0.566248 0.788245 0.468783
O O11 0.745800 0.759749 0.611444
O O12 0.697482 0.000000 0.532964
O O13 0.039457 0.500000 0.617052
O O14 0.928243 0.331427 0.643462
O O15 0.107957 0.243205 0.673355
O O16 0.177753 0.500000 0.328500
O O17 0.110199 0.500000 0.944126
O O18 0.193046 0.000000 0.741627
#
# Coordination Sequence:
#
# PCOD9177529 Si02
#       7
#     8   8   8   8   8   8   8
#     4   8  16  32  51  68  85 114 155 190 221 261
#     4  10  19  29  43  67  97 121 144 182 230 273
#     4   9  15  23  36  56  85 119 152 185 221 263
#     4   8  15  25  37  58  88 118 147 180 220 264
#     4   9  16  26  40  59  85 118 154 186 219 263
#     4   9  17  32  52  67  85 116 153 189 222 265
#     4   9  17  29  45  65  91 120 150 185 223 265
#
# _framework density 21.665870999999999
#
# number of rings (size 3 to 8) (size 9 to 14) (size 15 to 20)
#    0.000    3.143    0.000    3.000    0.000    5.143 
#    0.000    2.857    0.000    0.000    0.000    1.000 
#    0.000    8.000    0.000    0.000    0.000    0.000 
#
# Total GULP energy -156163.086706 kJ/mol
# GULP energy per Si atom -5577.253097 kJ/mol
# Density = 2.161656 g / cm^3
# Si number density = 21.665871 Si / 1000 Ang^3
#
#
#
# Elastic Constant Matrix: (Units=GPa)
#
#
# Indices 1 2 3 4 5 6 
#
# 1 25.3428 24.1016 72.6648 0.0000 -19.3373 0.0000
# 2 24.1016 74.7710 44.4433 0.0000 14.9891 0.0000
# 3 72.6648 44.4433 97.5616 0.0000 53.1613 0.0000
# 4 0.0000 0.0000 0.0000 25.8162 0.0000 8.0459
# 5 -19.3373 14.9891 53.1613 0.0000 30.0033 0.0000
# 6 0.0000 0.0000 0.0000 8.0459 0.0000 -6.3152
#
#
#
# Elastic Compliance Matrix: (Units=1/GPa)
#
#
# Indices 1 2 3 4 5 6 
#
# 1 0.000145 -0.002788 0.010215 0.000000 -0.016613 0.000000
# 2 -0.002788 0.017654 -0.005238 0.000000 -0.001335 0.000000
# 3 0.010215 -0.005238 0.000424 0.000000 0.008450 0.000000
# 4 0.000000 0.000000 0.000000 0.027726 0.000000 0.035325
# 5 -0.016613 -0.001335 0.008450 0.000000 0.008317 0.000000
# 6 0.000000 0.000000 0.000000 0.035325 0.000000 -0.113343
#
#
# Mechanical properties :
#
#
# Convention : Reuss Voigt Hill
#
# Bulk Modulus (GPa) = 44.24857 53.34387 48.79622
# Shear Modulus (GPa) = -89.41044 13.66524 -37.87260
#
# Velocity S-wave (km/s) = -6.43098 2.51415 -4.18548
# Velocity P-wave (km/s) = 5.88861 5.75348 0.88691
#
# Compressibility (1/GPa) = 0.02259960
#
# Stress axis : x y z
#
# Youngs Moduli (GPa) = 6917.55381 56.64416 2360.73764
#
# Poissons Ratio (x) = 0.15792 -24.11487
# Poissons Ratio (y) = 19.28512 12.36657
# Poissons Ratio (z) = -70.66263 0.29673
#
# Static dielectric constant tensor:
#      x y z
#    x 1.855170 0.000000 -0.008000 
#    y 0.000000 1.742050 0.000000 
#    z -0.008000 0.000000 1.823120 
# 
# From -- ./inp_files/342338.got.cif
#   From: 2010.05.17/outbox.cif.g08.bks.cpg/sg12_172_cif.got.tgz:342338.got - 2010.06.03 13:09:07.
