data_PCOD9177546
_publ_section_title
;
Structure prediction by ZEFSAII (Michael W. Deem and Ramdas Pophale) SiO2 
 PCOD9177546
Probable space group: C 2/M
;
_chemical_formula_sum "Si O2"
_cell_formula_units_Z 64
_cell_length_a 16.289158
_cell_length_b 18.814825
_cell_length_c 11.834662
_cell_angle_alpha 90.000000
_cell_angle_beta 92.159484
_cell_angle_gamma 90.000000
_cell_volume 3624.483589
_symmetry_space_group_name_H-M "C 2/M"
_symmetry_group_IT_number 12
_symmetry_cell_setting 'monoclinic'
loop_
_space_group_symop_operation_xyz
x,y,z
-x,y,-z
-x,-y,-z
x,-y,z
1/2+x,1/2+y,z
1/2-x,1/2+y,-z
1/2-x,1/2-y,-z
1/2+x,1/2-y,z
loop_
_atom_site_type_symbol
_atom_site_label
_atom_site_fract_x
_atom_site_fract_y
_atom_site_fract_z
Si Si1 0.419359 0.269641 0.842126
Si Si2 0.900678 0.580283 0.999061
Si Si3 0.172049 0.783895 0.940007
Si Si4 0.337705 0.139779 0.755366
Si Si5 0.494195 0.917572 0.634343
Si Si6 0.176313 0.917960 0.820133
Si Si7 0.488266 0.419542 0.861795
Si Si8 0.586220 0.815453 0.799280
O O1 0.349950 0.224787 0.771557
O O2 0.434814 0.352588 0.817759
O O3 0.500426 0.223754 0.822750
O O4 0.399306 0.268981 0.974035
O O5 0.872269 0.500000 0.016445
O O6 0.882027 0.631737 0.101576
O O7 0.866917 0.608223 0.878426
O O8 0.000000 0.579699 0.000000
O O9 0.187878 0.867004 0.928110
O O10 0.149526 0.749901 0.817563
O O11 0.250000 0.750000 0.000000
O O12 0.404423 0.109216 0.671237
O O13 0.244157 0.112903 0.736354
O O14 0.500000 0.915315 0.500000
O O15 0.562379 0.865383 0.693076
O O16 0.504842 0.000000 0.673045
O O17 0.077164 0.913699 0.803689
O O18 0.195712 0.000000 0.839609
O O19 0.456816 0.500000 0.840914
O O20 0.500000 0.413383 0.000000
#
# Coordination Sequence:
#
# PCOD9177546 Si02
#       8
#     8   8   8   8   8   8   8   8
#     4  11  18  29  47  69 101 137 176 207 259 314
#     4  11  17  24  42  69 100 134 162 198 254 317
#     4  12  20  30  46  75 108 145 174 209 265 324
#     4  11  21  32  50  76 104 135 171 224 266 323
#     4  10  21  36  55  77 104 143 186 229 277 326
#     4  11  21  31  46  71 104 140 176 214 255 310
#     4  10  19  29  44  64  97 140 177 207 242 304
#     4  11  19  31  48  73 104 136 177 217 259 321
#
# _framework density 17.657689000000001
#
# number of rings (size 3 to 8) (size 9 to 14) (size 15 to 20)
#    0.000    1.125    7.500    1.875    0.000    0.000 
#    0.000    0.625    0.000    0.750    0.000    0.000 
#    0.000   12.500    0.000    0.000    0.000    0.250 
#
# Total GULP energy -178137.976273 kJ/mol
# GULP energy per Si atom -5566.811759 kJ/mol
# Density = 1.761750 g / cm^3
# Si number density = 17.657689 Si / 1000 Ang^3
#
#
#
# Elastic Constant Matrix: (Units=GPa)
#
#
# Indices 1 2 3 4 5 6 
#
# 1 65.6070 32.6769 17.5598 0.0000 -1.7278 0.0000
# 2 32.6769 160.3197 22.4804 0.0000 -1.5293 0.0000
# 3 17.5598 22.4804 43.5977 0.0000 -8.6628 0.0000
# 4 0.0000 0.0000 0.0000 15.7403 0.0000 -3.4665
# 5 -1.7278 -1.5293 -8.6628 0.0000 11.2722 0.0000
# 6 0.0000 0.0000 0.0000 -3.4665 0.0000 22.5182
#
#
#
# Elastic Compliance Matrix: (Units=1/GPa)
#
#
# Indices 1 2 3 4 5 6 
#
# 1 0.018313 -0.002859 -0.006398 0.000000 -0.002498 0.000000
# 2 -0.002859 0.007211 -0.002903 0.000000 -0.001691 0.000000
# 3 -0.006398 -0.002903 0.031556 0.000000 0.022877 0.000000
# 4 0.000000 0.000000 0.000000 0.065760 0.000000 0.010123
# 5 -0.002498 -0.001691 0.022877 0.000000 0.105682 0.000000
# 6 0.000000 0.000000 0.000000 0.010123 0.000000 0.045967
#
#
# Mechanical properties :
#
#
# Convention : Reuss Voigt Hill
#
# Bulk Modulus (GPa) = 30.52434 46.10653 38.31543
# Shear Modulus (GPa) = 16.14309 23.02664 19.58486
#
# Velocity S-wave (km/s) = 3.02689 3.61509 3.33399
# Velocity P-wave (km/s) = 5.43510 6.60251 6.04705
#
# Compressibility (1/GPa) = 0.03276074
#
# Stress axis : x y z
#
# Youngs Moduli (GPa) = 54.60592 138.67285 31.68958
#
# Poissons Ratio (x) = 0.39651 0.20275
# Poissons Ratio (y) = 0.15614 0.09198
# Poissons Ratio (z) = 0.34936 0.40252
#
# Static dielectric constant tensor:
#      x y z
#    x 1.696240 0.000000 -0.006830 
#    y 0.000000 1.682340 0.000000 
#    z -0.006830 0.000000 1.571470 
# 
# From -- ./inp_files/157897.got.cif
#   From: 2010.05.17/outbox.cif.g08.bks.cpg/sg12_79_cif.got.tgz:157897.got - 2010.06.03 13:09:07.
