data_PCOD9177829
_publ_section_title
;
Structure prediction by ZEFSAII (Michael W. Deem and Ramdas Pophale) SiO2 
 PCOD9177829
Probable space group: C 2/M
;
_chemical_formula_sum "Si O2"
_cell_formula_units_Z 56
_cell_length_a 8.704409
_cell_length_b 22.332819
_cell_length_c 21.977658
_cell_angle_alpha 90.000000
_cell_angle_beta 134.290881
_cell_angle_gamma 90.000000
_cell_volume 3058.146566
_symmetry_space_group_name_H-M "C 2/M"
_symmetry_group_IT_number 12
_symmetry_cell_setting 'monoclinic'
loop_
_space_group_symop_operation_xyz
x,y,z
-x,y,-z
-x,-y,-z
x,-y,z
1/2+x,1/2+y,z
1/2-x,1/2+y,-z
1/2-x,1/2-y,-z
1/2+x,1/2-y,z
loop_
_atom_site_type_symbol
_atom_site_label
_atom_site_fract_x
_atom_site_fract_y
_atom_site_fract_z
Si Si1 0.700259 0.293771 0.176860
Si Si2 0.485544 0.691505 0.310703
Si Si3 0.375904 0.258624 0.405458
Si Si4 0.917189 0.068184 0.347344
Si Si5 0.270001 0.225842 0.937445
Si Si6 0.928963 0.627249 0.669033
Si Si7 0.116238 0.429423 0.471029
O O1 0.792411 0.231199 0.230374
O O2 0.709674 0.278440 0.107420
O O3 0.460203 0.305514 0.134779
O O4 0.862232 0.346119 0.240520
O O5 0.515094 0.718889 0.387164
O O6 0.706547 0.707852 0.338651
O O7 0.434095 0.621848 0.303215
O O8 0.500000 0.240721 0.500000
O O9 0.232552 0.316669 0.380535
O O10 0.702615 0.079686 0.326846
O O11 0.127715 0.076635 0.448282
O O12 0.926036 0.000000 0.326656
O O13 0.500000 0.192224 0.000000
O O14 0.250000 0.250000 0.000000
O O15 0.961800 0.602550 0.610951
O O16 0.068880 0.500000 0.452490
O O17 0.000000 0.407252 0.500000
#
# Coordination Sequence:
#
# PCOD9177829 Si02
#       7
#     8   8   8   8   8   8   8
#     4  10  19  33  50  80 110 130 161 206 255 315
#     4  10  20  31  47  70 100 133 167 213 260 290
#     4  10  19  30  43  66  95 132 175 210 251 303
#     4  10  20  34  50  68  98 143 190 225 250 288
#     4   9  18  33  54  76 107 137 156 185 244 330
#     4  10  19  32  51  71  98 134 172 219 264 294
#     4  10  21  34  47  67  98 140 190 232 260 290
#
# _framework density 18.311744000000001
#
# number of rings (size 3 to 8) (size 9 to 14) (size 15 to 20)
#    0.000    2.143    0.000    5.571    0.000    6.286 
#    0.000    0.000    0.000    0.000    0.000    0.000 
#    0.000  121.143    0.000    0.000    0.000    0.000 
#
# Total GULP energy -156197.229865 kJ/mol
# GULP energy per Si atom -5578.472495 kJ/mol
# Density = 1.827007 g / cm^3
# Si number density = 18.311744 Si / 1000 Ang^3
#
#
#
# Elastic Constant Matrix: (Units=GPa)
#
#
# Indices 1 2 3 4 5 6 
#
# 1 90.3817 24.7673 31.7875 0.0000 18.3944 0.0000
# 2 24.7673 82.4188 21.7418 0.0000 1.7130 0.0000
# 3 31.7875 21.7418 81.2423 0.0000 11.3605 0.0000
# 4 0.0000 0.0000 0.0000 12.2907 0.0000 -0.2884
# 5 18.3944 1.7130 11.3605 0.0000 35.5671 0.0000
# 6 0.0000 0.0000 0.0000 -0.2884 0.0000 26.0598
#
#
#
# Elastic Compliance Matrix: (Units=1/GPa)
#
#
# Indices 1 2 3 4 5 6 
#
# 1 0.014593 -0.003204 -0.003997 0.000000 -0.006116 0.000000
# 2 -0.003204 0.013767 -0.002690 0.000000 0.001853 0.000000
# 3 -0.003997 -0.002690 0.014953 0.000000 -0.002580 0.000000
# 4 0.000000 0.000000 0.000000 0.081384 0.000000 0.000901
# 5 -0.006116 0.001853 -0.002580 0.000000 0.032014 0.000000
# 6 0.000000 0.000000 0.000000 0.000901 0.000000 0.038383
#
#
# Mechanical properties :
#
#
# Convention : Reuss Voigt Hill
#
# Bulk Modulus (GPa) = 42.49587 45.62624 44.06105
# Shear Modulus (GPa) = 22.44989 26.49993 24.47491
#
# Velocity S-wave (km/s) = 3.50520 3.80828 3.65988
# Velocity P-wave (km/s) = 6.29597 6.65641 6.47869
#
# Compressibility (1/GPa) = 0.02353170
#
# Stress axis : x y z
#
# Youngs Moduli (GPa) = 68.52806 72.63779 66.87466
#
# Poissons Ratio (x) = 0.23270 0.26730
# Poissons Ratio (y) = 0.21954 0.17989
# Poissons Ratio (z) = 0.27391 0.19539
#
# Static dielectric constant tensor:
#      x y z
#    x 1.742120 0.000000 0.011440 
#    y 0.000000 1.632060 0.000000 
#    z 0.011440 0.000000 1.666330 
# 
# From -- ./inp_files/301784.got.cif
#   From: 2010.05.17/outbox.cif.g08.bks.cpg/sg12_151_cif.got.tgz:301784.got - 2010.06.03 13:09:07.
