data_PCOD9177637
_publ_section_title
;
Structure prediction by ZEFSAII (Michael W. Deem and Ramdas Pophale) SiO2 
 PCOD9177637
Probable space group: C 2/M
;
_chemical_formula_sum "Si O2"
_cell_formula_units_Z 56
_cell_length_a 20.066460
_cell_length_b 7.679476
_cell_length_c 22.031643
_cell_angle_alpha 90.000000
_cell_angle_beta 125.157470
_cell_angle_gamma 90.000000
_cell_volume 2775.719265
_symmetry_space_group_name_H-M "C 2/M"
_symmetry_group_IT_number 12
_symmetry_cell_setting 'monoclinic'
loop_
_space_group_symop_operation_xyz
x,y,z
-x,y,-z
-x,-y,-z
x,-y,z
1/2+x,1/2+y,z
1/2-x,1/2+y,-z
1/2-x,1/2-y,-z
1/2+x,1/2-y,z
loop_
_atom_site_type_symbol
_atom_site_label
_atom_site_fract_x
_atom_site_fract_y
_atom_site_fract_z
Si Si1 0.145806 0.700075 0.728330
Si Si2 0.229988 0.205588 0.892342
Si Si3 0.549607 0.299408 0.174874
Si Si4 0.189617 0.207190 0.413988
Si Si5 0.486145 0.203153 0.707458
Si Si6 0.378352 0.710886 0.049250
Si Si7 0.274346 0.285702 0.703288
O O1 0.127017 0.500000 0.702074
O O2 0.206337 0.704434 0.817603
O O3 0.195816 0.777118 0.698638
O O4 0.061366 0.777447 0.708563
O O5 0.169998 0.268322 0.915141
O O6 0.216604 0.000000 0.877563
O O7 0.321430 0.235939 0.963662
O O8 0.556701 0.500000 0.158891
O O9 0.525469 0.294513 0.233702
O O10 0.471165 0.223348 0.099449
O O11 0.640728 0.224206 0.221465
O O12 0.250000 0.250000 0.500000
O O13 0.099113 0.283879 0.372376
O O14 0.223232 0.265830 0.365873
O O15 0.179898 0.000000 0.405644
O O16 0.503220 0.000000 0.729976
O O17 0.380387 0.500000 0.052161
O O18 0.275281 0.500000 0.705877
#
# Coordination Sequence:
#
# PCOD9177637 Si02
#       7
#     8   8   8   8   8   8   8
#     4  10  19  33  51  74 103 134 169 205 247 301
#     4  10  19  29  45  70 100 132 169 215 262 299
#     4   9  16  31  52  72  96 130 175 219 252 292
#     4  10  20  37  60  81 104 131 165 204 242 289
#     4  10  19  30  51  79 104 131 165 203 246 296
#     4   9  17  29  46  69  96 129 173 218 259 299
#     4   8  17  33  54  76  99 131 167 204 246 295
#
# _framework density 20.174951
#
# number of rings (size 3 to 8) (size 9 to 14) (size 15 to 20)
#    0.000    2.571    1.429    2.143    0.000    1.714 
#    0.000    5.000    0.000    8.571    0.000    0.000 
#    0.000    0.000    0.000    0.000    0.000    0.000 
#
# Total GULP energy -156171.459500 kJ/mol
# GULP energy per Si atom -5577.552125 kJ/mol
# Density = 2.012903 g / cm^3
# Si number density = 20.174951 Si / 1000 Ang^3
#
#
#
# Elastic Constant Matrix: (Units=GPa)
#
#
# Indices 1 2 3 4 5 6 
#
# 1 105.6035 -5.2696 24.2215 0.0000 11.2787 0.0000
# 2 -5.2696 43.3204 -12.6956 0.0000 -2.2106 0.0000
# 3 24.2215 -12.6956 85.8585 0.0000 11.2439 0.0000
# 4 0.0000 0.0000 0.0000 20.8594 0.0000 1.5762
# 5 11.2787 -2.2106 11.2439 0.0000 17.8062 0.0000
# 6 0.0000 0.0000 0.0000 1.5762 0.0000 9.5699
#
#
#
# Elastic Compliance Matrix: (Units=1/GPa)
#
#
# Indices 1 2 3 4 5 6 
#
# 1 0.010560 0.000361 -0.002241 0.000000 -0.005229 0.000000
# 2 0.000361 0.024152 0.003387 0.000000 0.000631 0.000000
# 3 -0.002241 0.003387 0.013670 0.000000 -0.006792 0.000000
# 4 0.000000 0.000000 0.000000 0.048544 0.000000 -0.007995
# 5 -0.005229 0.000631 -0.006792 0.000000 0.063840 0.000000
# 6 0.000000 0.000000 0.000000 -0.007995 0.000000 0.105811
#
#
# Mechanical properties :
#
#
# Convention : Reuss Voigt Hill
#
# Bulk Modulus (GPa) = 19.45688 27.47722 23.46705
# Shear Modulus (GPa) = 17.81297 24.88217 21.34757
#
# Velocity S-wave (km/s) = 2.97463 3.51568 3.25641
# Velocity P-wave (km/s) = 4.63281 5.48899 5.07897
#
# Compressibility (1/GPa) = 0.05139570
#
# Stress axis : x y z
#
# Youngs Moduli (GPa) = 94.69852 41.40361 73.15550
#
# Poissons Ratio (x) = -0.01495 0.16393
# Poissons Ratio (y) = -0.03418 -0.24777
# Poissons Ratio (z) = 0.21221 -0.14023
#
# Static dielectric constant tensor:
#      x y z
#    x 1.733990 0.000000 0.024480 
#    y 0.000000 1.831470 0.000000 
#    z 0.024480 0.000000 1.700940 
# 
# From -- ./inp_files/342546.got.cif
#   From: 2010.05.17/outbox.cif.g08.bks.cpg/sg12_172_cif.got.tgz:342546.got - 2010.06.03 13:09:07.
