data_PCOD9177123
_publ_section_title
;
Structure prediction by ZEFSAII (Michael W. Deem and Ramdas Pophale) SiO2 
 PCOD9177123
Probable space group: C 2/M
;
_chemical_formula_sum "Si O2"
_cell_formula_units_Z 64
_cell_length_a 15.242715
_cell_length_b 16.767566
_cell_length_c 18.687902
_cell_angle_alpha 90.000000
_cell_angle_beta 137.059015
_cell_angle_gamma 90.000000
_cell_volume 3253.838836
_symmetry_space_group_name_H-M "C 2/M"
_symmetry_group_IT_number 12
_symmetry_cell_setting 'monoclinic'
loop_
_space_group_symop_operation_xyz
x,y,z
-x,y,-z
-x,-y,-z
x,-y,z
1/2+x,1/2+y,z
1/2-x,1/2+y,-z
1/2-x,1/2-y,-z
1/2+x,1/2-y,z
loop_
_atom_site_type_symbol
_atom_site_label
_atom_site_fract_x
_atom_site_fract_y
_atom_site_fract_z
Si Si1 0.196870 0.259886 0.685263
Si Si2 0.942334 0.092405 0.125315
Si Si3 0.721012 0.088170 0.448197
Si Si4 0.316098 0.835707 0.055290
Si Si5 0.859684 0.914059 0.382286
Si Si6 0.459143 0.834226 0.285839
Si Si7 0.479795 0.750199 0.907084
Si Si8 0.864972 0.816628 0.654751
O O1 0.140934 0.170668 0.656144
O O2 0.104780 0.316498 0.675824
O O3 0.330265 0.253407 0.805356
O O4 0.247161 0.290402 0.637592
O O5 0.970338 0.161014 0.082736
O O6 0.037588 0.122002 0.246229
O O7 0.969631 0.000000 0.124715
O O8 0.786889 0.103330 0.040341
O O9 0.761625 0.095075 0.389825
O O10 0.568329 0.099631 0.360198
O O11 0.799254 0.148800 0.544633
O O12 0.758463 0.000000 0.495160
O O13 0.352400 0.849701 0.160205
O O14 0.452942 0.819300 0.099339
O O15 0.250000 0.750000 0.000000
O O16 0.000000 0.920104 0.500000
O O17 0.833808 0.000000 0.329839
O O18 0.543463 0.757910 0.309607
O O19 0.500000 0.769530 0.000000
#
# Coordination Sequence:
#
# PCOD9177123 Si02
#       8
#     8   8   8   8   8   8   8   8
#     4  11  22  36  63  90 115 162 203 251 294 367
#     4  10  21  37  60  89 120 158 198 250 308 358
#     4  11  24  41  60  89 129 163 199 256 312 360
#     4  10  18  38  60  87 119 152 201 249 292 361
#     4  10  21  38  59  88 119 153 201 255 307 353
#     4  12  22  39  65  90 121 162 213 245 306 365
#     4  10  20  37  61  86 118 156 201 247 296 359
#     4  11  22  40  60  91 120 162 210 248 300 370
#
# _framework density 19.669074999999999
#
# number of rings (size 3 to 8) (size 9 to 14) (size 15 to 20)
#    0.000    1.375    5.000    3.000    1.750    0.750 
#    0.000    5.000    0.000    0.750    0.000    0.000 
#    0.000    0.000    0.000    0.000    0.000    0.000 
#
# Total GULP energy -178243.920696 kJ/mol
# GULP energy per Si atom -5570.122522 kJ/mol
# Density = 1.962431 g / cm^3
# Si number density = 19.669075 Si / 1000 Ang^3
#
#
#
# Elastic Constant Matrix: (Units=GPa)
#
#
# Indices 1 2 3 4 5 6 
#
# 1 42.8472 -12.7849 -8.6242 0.0000 16.0549 0.0000
# 2 -12.7849 60.0312 8.6709 0.0000 4.5232 0.0000
# 3 -8.6242 8.6709 31.9527 0.0000 4.9910 0.0000
# 4 0.0000 0.0000 0.0000 20.5550 0.0000 5.1349
# 5 16.0549 4.5232 4.9910 0.0000 26.1271 0.0000
# 6 0.0000 0.0000 0.0000 5.1349 0.0000 23.3365
#
#
#
# Elastic Compliance Matrix: (Units=1/GPa)
#
#
# Indices 1 2 3 4 5 6 
#
# 1 0.038772 0.008542 0.012471 0.000000 -0.027686 0.000000
# 2 0.008542 0.019339 -0.001649 0.000000 -0.008282 0.000000
# 3 0.012471 -0.001649 0.037377 0.000000 -0.014518 0.000000
# 4 0.000000 0.000000 0.000000 0.051480 0.000000 -0.011328
# 5 -0.027686 -0.008282 -0.014518 0.000000 0.059494 0.000000
# 6 0.000000 0.000000 0.000000 -0.011328 0.000000 0.045344
#
#
# Mechanical properties :
#
#
# Convention : Reuss Voigt Hill
#
# Bulk Modulus (GPa) = 7.45063 12.15053 9.80058
# Shear Modulus (GPa) = 19.39360 23.84166 21.61763
#
# Velocity S-wave (km/s) = 3.14346 3.48536 3.31881
# Velocity P-wave (km/s) = 4.11963 4.73158 4.43617
#
# Compressibility (1/GPa) = 0.13421681
#
# Stress axis : x y z
#
# Youngs Moduli (GPa) = 25.79205 51.70797 26.75411
#
# Poissons Ratio (x) = -0.44169 -0.33365
# Poissons Ratio (y) = -0.22031 0.04412
# Poissons Ratio (z) = -0.32166 0.08526
#
# Static dielectric constant tensor:
#      x y z
#    x 1.709490 0.000000 0.002060 
#    y 0.000000 1.747760 0.000000 
#    z 0.002060 0.000000 1.668890 
# 
# From -- ./inp_files/270708.got.cif
#   From: 2010.05.17/outbox.cif.g08.bks.cpg/sg12_136_cif.got.tgz:270708.got - 2010.06.03 13:09:07.
