data_PCOD9177498
_publ_section_title
;
Structure prediction by ZEFSAII (Michael W. Deem and Ramdas Pophale) SiO2 
 PCOD9177498
Probable space group: C 2/M
;
_chemical_formula_sum "Si O2"
_cell_formula_units_Z 48
_cell_length_a 8.414010
_cell_length_b 27.535930
_cell_length_c 7.298209
_cell_angle_alpha 90.000000
_cell_angle_beta 94.727076
_cell_angle_gamma 90.000000
_cell_volume 1685.152937
_symmetry_space_group_name_H-M "C 2/M"
_symmetry_group_IT_number 12
_symmetry_cell_setting 'monoclinic'
loop_
_space_group_symop_operation_xyz
x,y,z
-x,y,-z
-x,-y,-z
x,-y,z
1/2+x,1/2+y,z
1/2-x,1/2+y,-z
1/2-x,1/2-y,-z
1/2+x,1/2-y,z
loop_
_atom_site_type_symbol
_atom_site_label
_atom_site_fract_x
_atom_site_fract_y
_atom_site_fract_z
Si Si1 0.023523 0.559672 0.796692
Si Si2 0.290356 0.194882 0.280334
Si Si3 0.652462 0.445598 0.092894
Si Si4 0.527358 0.353068 0.704988
Si Si5 0.705259 0.553250 0.679002
Si Si6 0.656269 0.802473 0.275624
O O1 0.022423 0.500000 0.796102
O O2 0.879670 0.574605 0.650494
O O3 0.205957 0.571788 0.765314
O O4 0.000000 0.580378 0.000000
O O5 0.326738 0.191393 0.502099
O O6 0.468648 0.189145 0.211381
O O7 0.215169 0.248016 0.237053
O O8 0.139282 0.160535 0.216945
O O9 0.601572 0.500000 0.154194
O O10 0.730576 0.453823 0.900301
O O11 0.500000 0.417181 0.000000
O O12 0.500000 0.329138 0.500000
O O13 0.561341 0.409563 0.663628
O O14 0.699016 0.334797 0.793347
O O15 0.681873 0.500000 0.593853
#
# Coordination Sequence:
#
# PCOD9177498 Si02
#       6
#     8   8   8   8   8   8
#     4   7  11  22  40  57  75 101 134 178 225 256
#     4   9  15  26  45  65  85 110 146 192 238 269
#     4   8  13  24  44  65  82 103 137 190 244 268
#     4  10  19  29  43  64  93 128 156 179 214 262
#     4   9  17  29  42  61  91 123 154 181 211 263
#     4   9  15  26  45  65  84 111 145 191 242 266
#
# _framework density 28.484062000000002
#
# number of rings (size 3 to 8) (size 9 to 14) (size 15 to 20)
#    0.000    3.333    1.667    2.000    0.000    0.333 
#    3.000    0.000    0.000    0.000    0.000    4.667 
#    0.000   17.333    0.000    0.000    0.000    0.000 
#
# Total GULP energy -133680.339359 kJ/mol
# GULP energy per Si atom -5570.014140 kJ/mol
# Density = 2.841923 g / cm^3
# Si number density = 28.484062 Si / 1000 Ang^3
#
#
#
# Elastic Constant Matrix: (Units=GPa)
#
#
# Indices 1 2 3 4 5 6 
#
# 1 227.4821 72.5089 58.4335 0.0000 44.9885 0.0000
# 2 72.5089 150.8803 12.7100 0.0000 19.8480 0.0000
# 3 58.4335 12.7100 94.9374 0.0000 11.5642 0.0000
# 4 0.0000 0.0000 0.0000 10.6693 0.0000 12.4447
# 5 44.9885 19.8480 11.5642 0.0000 31.1439 0.0000
# 6 0.0000 0.0000 0.0000 12.4447 0.0000 48.4029
#
#
#
# Elastic Compliance Matrix: (Units=1/GPa)
#
#
# Indices 1 2 3 4 5 6 
#
# 1 0.007641 -0.002293 -0.003383 0.000000 -0.008321 0.000000
# 2 -0.002293 0.007939 0.000588 0.000000 -0.001966 0.000000
# 3 -0.003383 0.000588 0.012555 0.000000 -0.000150 0.000000
# 4 0.000000 0.000000 0.000000 0.133874 0.000000 -0.034420
# 5 -0.008321 -0.001966 -0.000150 0.000000 0.045437 0.000000
# 6 0.000000 0.000000 0.000000 -0.034420 0.000000 0.029509
#
#
# Mechanical properties :
#
#
# Convention : Reuss Voigt Hill
#
# Bulk Modulus (GPa) = 55.68042 84.51163 70.09603
# Shear Modulus (GPa) = 19.75371 40.01971 29.88671
#
# Velocity S-wave (km/s) = 2.63630 3.75238 3.24272
# Velocity P-wave (km/s) = 5.37188 6.96477 6.21953
#
# Compressibility (1/GPa) = 0.01795963
#
# Stress axis : x y z
#
# Youngs Moduli (GPa) = 130.86920 125.96654 79.65049
#
# Poissons Ratio (x) = 0.28879 0.26943
# Poissons Ratio (y) = 0.30003 -0.04681
# Poissons Ratio (z) = 0.44268 -0.07403
#
# Static dielectric constant tensor:
#      x y z
#    x 2.464190 0.000000 -0.196910 
#    y 0.000000 2.335140 0.000000 
#    z -0.196910 0.000000 2.367130 
# 
# From -- ./inp_files/124769.got.cif
#   From: 2010.05.17/outbox.cif.g08.bks.cpg/sg12_63_cif.got.tgz:124769.got - 2010.06.03 13:09:07.
