data_PCOD9177156
_publ_section_title
;
Structure prediction by ZEFSAII (Michael W. Deem and Ramdas Pophale) SiO2 
 PCOD9177156
Probable space group: C 2/M
;
_chemical_formula_sum "Si O2"
_cell_formula_units_Z 44
_cell_length_a 9.039296
_cell_length_b 23.893631
_cell_length_c 12.433105
_cell_angle_alpha 90.000000
_cell_angle_beta 54.882329
_cell_angle_gamma 90.000000
_cell_volume 2196.519071
_symmetry_space_group_name_H-M "C 2/M"
_symmetry_group_IT_number 12
_symmetry_cell_setting 'monoclinic'
loop_
_space_group_symop_operation_xyz
x,y,z
-x,y,-z
-x,-y,-z
x,-y,z
1/2+x,1/2+y,z
1/2-x,1/2+y,-z
1/2-x,1/2-y,-z
1/2+x,1/2-y,z
loop_
_atom_site_type_symbol
_atom_site_label
_atom_site_fract_x
_atom_site_fract_y
_atom_site_fract_z
Si Si1 0.591887 0.282429 0.125464
Si Si2 0.275167 0.267707 0.703724
Si Si3 0.610722 0.120972 0.675000
Si Si4 0.833774 0.383116 0.981724
Si Si5 0.800299 0.000000 0.635687
Si Si6 0.000000 0.324298 0.500000
Si Si7 0.282531 0.000000 0.080758
O O1 0.586337 0.273479 0.256131
O O2 0.404785 0.256938 0.165292
O O3 0.750000 0.250000 0.000000
O O4 0.662231 0.344257 0.075213
O O5 0.237236 0.328034 0.666344
O O6 0.342011 0.219186 0.597254
O O7 0.434940 0.123553 0.826197
O O8 0.554794 0.137991 0.578394
O O9 0.698844 0.058795 0.647403
O O10 0.750375 0.444133 0.030080
O O11 0.000000 0.374738 0.000000
O O12 0.000000 0.000000 0.500000
O O13 0.802535 0.000000 0.765174
O O14 0.500000 0.000000 0.000000
#
# Coordination Sequence:
#
# PCOD9177156 Si02
#       7
#     8   8   8   8   4   4   4
#     4  12  21  36  63  99 129 164 221 282 342 398
#     4  12  24  41  64  93 134 179 220 275 340 410
#     4  12  24  43  65  94 137 177 226 280 336 405
#     4  11  18  37  67  96 125 166 220 282 341 390
#     4  12  26  41  70 106 133 178 230 284 334 405
#     4  12  28  43  60  95 138 192 216 272 352 422
#     4  10  18  38  64  95 125 161 226 274 341 378
#
# _framework density 20.031694000000002
#
# number of rings (size 3 to 8) (size 9 to 14) (size 15 to 20)
#    0.000    0.364    9.091    1.091    1.273    1.818 
#    0.000    0.000    0.000    1.091    0.000    5.091 
#    0.000    0.000    0.000    0.000    0.000    0.000 
#
# Total GULP energy -122774.717898 kJ/mol
# GULP energy per Si atom -5580.668995 kJ/mol
# Density = 1.998610 g / cm^3
# Si number density = 20.031694 Si / 1000 Ang^3
#
#
#
# Elastic Constant Matrix: (Units=GPa)
#
#
# Indices 1 2 3 4 5 6 
#
# 1 48.1694 20.4434 22.1681 0.0000 8.6590 0.0000
# 2 20.4434 138.5138 14.1759 0.0000 10.3789 0.0000
# 3 22.1681 14.1759 119.2717 0.0000 13.3639 0.0000
# 4 0.0000 0.0000 0.0000 34.6760 0.0000 0.0880
# 5 8.6590 10.3789 13.3639 0.0000 45.8357 0.0000
# 6 0.0000 0.0000 0.0000 0.0880 0.0000 9.4355
#
#
#
# Elastic Compliance Matrix: (Units=1/GPa)
#
#
# Indices 1 2 3 4 5 6 
#
# 1 0.024300 -0.002983 -0.003849 0.000000 -0.002793 0.000000
# 2 -0.002983 0.007769 -0.000243 0.000000 -0.001125 0.000000
# 3 -0.003849 -0.000243 0.009346 0.000000 -0.001943 0.000000
# 4 0.000000 0.000000 0.000000 0.028839 0.000000 -0.000269
# 5 -0.002793 -0.001125 -0.001943 0.000000 0.023166 0.000000
# 6 0.000000 0.000000 0.000000 -0.000269 0.000000 0.105985
#
#
# Mechanical properties :
#
#
# Convention : Reuss Voigt Hill
#
# Bulk Modulus (GPa) = 36.67751 46.61441 41.64596
# Shear Modulus (GPa) = 22.45747 34.60061 28.52904
#
# Velocity S-wave (km/s) = 3.35191 4.16058 3.77794
# Velocity P-wave (km/s) = 5.77320 6.81186 6.31393
#
# Compressibility (1/GPa) = 0.02726467
#
# Stress axis : x y z
#
# Youngs Moduli (GPa) = 41.15310 128.71791 106.99614
#
# Poissons Ratio (x) = 0.38399 0.41181
# Poissons Ratio (y) = 0.12277 0.02599
# Poissons Ratio (z) = 0.15839 0.03126
#
# Static dielectric constant tensor:
#      x y z
#    x 1.711100 0.000000 0.037110 
#    y 0.000000 1.560530 0.000000 
#    z 0.037110 0.000000 1.699550 
# 
# From -- ./inp_files/122376.got.cif
#   From: 2010.05.17/outbox.cif.g08.bks.cpg/sg12_62_cif.got.tgz:122376.got - 2010.06.03 13:09:07.
