data_PCOD9177361
_publ_section_title
;
Structure prediction by ZEFSAII (Michael W. Deem and Ramdas Pophale) SiO2 
 PCOD9177361
Probable space group: C 2/M
;
_chemical_formula_sum "Si O2"
_cell_formula_units_Z 50
_cell_length_a 27.732595
_cell_length_b 7.460934
_cell_length_c 15.692183
_cell_angle_alpha 90.000000
_cell_angle_beta 51.219194
_cell_angle_gamma 90.000000
_cell_volume 2531.103125
_symmetry_space_group_name_H-M "C 2/M"
_symmetry_group_IT_number 12
_symmetry_cell_setting 'monoclinic'
loop_
_space_group_symop_operation_xyz
x,y,z
-x,y,-z
-x,-y,-z
x,-y,z
1/2+x,1/2+y,z
1/2-x,1/2+y,-z
1/2-x,1/2-y,-z
1/2+x,1/2-y,z
loop_
_atom_site_type_symbol
_atom_site_label
_atom_site_fract_x
_atom_site_fract_y
_atom_site_fract_z
Si Si1 0.790683 0.202715 0.737097
Si Si2 0.861066 0.708669 0.827724
Si Si3 0.500000 0.000000 0.500000
Si Si4 0.472255 0.287435 0.943324
Si Si5 0.409518 0.718080 0.522083
Si Si6 0.666696 0.783151 0.952546
Si Si7 0.999258 0.784792 0.727045
O O1 0.831384 0.199985 0.778877
O O2 0.837973 0.270681 0.613456
O O3 0.725579 0.287119 0.835635
O O4 0.775915 0.000000 0.727510
O O5 0.844918 0.500000 0.837948
O O6 0.935407 0.721710 0.754106
O O7 0.835330 0.779554 0.946749
O O8 0.447600 0.841423 0.544404
O O9 0.485149 0.500000 0.928903
O O10 0.499456 0.216310 0.823751
O O11 0.500000 0.212882 0.000000
O O12 0.398632 0.262504 0.017575
O O13 0.415168 0.500000 0.530078
O O14 0.442259 0.761084 0.395780
O O15 0.670510 0.000000 0.953254
O O16 0.995121 0.000000 0.733992
#
# Coordination Sequence:
#
# PCOD9177361 Si02
#       7
#     8   8   2   8   8   8   8
#     4  10  20  33  47  66 100 141 176 206 245 306
#     4  10  19  28  45  71  98 131 172 212 247 293
#     4  12  22  32  52  74 106 144 188 224 240 300
#     4   9  18  34  57  81  99 123 163 214 272 323
#     4  10  22  35  49  73 105 144 182 220 259 299
#     4   9  19  34  49  70 100 133 167 207 258 309
#     4   9  18  33  50  70 101 134 168 213 261 308
#
# _framework density 19.754231999999998
#
# number of rings (size 3 to 8) (size 9 to 14) (size 15 to 20)
#    0.000    2.400    0.000    2.160    4.480    4.160 
#    0.000    0.000    0.000    0.960    0.000    0.000 
#    0.000    0.000    0.000    0.000    0.000    0.000 
#
# Total GULP energy -139173.235110 kJ/mol
# GULP energy per Si atom -5566.929404 kJ/mol
# Density = 1.970927 g / cm^3
# Si number density = 19.754232 Si / 1000 Ang^3
#
#
#
# Elastic Constant Matrix: (Units=GPa)
#
#
# Indices 1 2 3 4 5 6 
#
# 1 46.7139 -4.7973 47.8485 0.0001 -0.3707 -0.0005
# 2 -4.7973 72.5111 8.8543 0.0004 1.6486 -0.0007
# 3 47.8485 8.8543 166.6587 0.0000 -25.1975 0.0001
# 4 0.0001 0.0004 0.0000 -1.5183 0.0000 -1.0981
# 5 -0.3707 1.6486 -25.1975 0.0000 18.3948 0.0001
# 6 -0.0005 -0.0007 0.0001 -1.0981 0.0001 -4.5215
#
#
#
# Elastic Compliance Matrix: (Units=1/GPa)
#
#
# Indices 1 2 3 4 5 6 
#
# 1 0.034873 0.004270 -0.012852 0.000007 -0.017285 -0.000007
# 2 0.004270 0.014523 -0.002751 0.000007 -0.004984 -0.000005
# 3 -0.012852 -0.002751 0.012403 -0.000003 0.016978 0.000003
# 4 0.000007 0.000007 -0.000003 -0.798944 -0.000005 0.194029
# 5 -0.017285 -0.004984 0.016978 -0.000005 0.077718 0.000005
# 6 -0.000007 -0.000005 0.000003 0.194029 0.000005 -0.268287
#
#
# Mechanical properties :
#
#
# Convention : Reuss Voigt Hill
#
# Bulk Modulus (GPa) = 25.55497 43.29941 34.42719
# Shear Modulus (GPa) = -5.60537 18.06954 6.23209
#
# Velocity S-wave (km/s) = -1.68633 3.02771 1.77811
# Velocity P-wave (km/s) = 3.02868 5.84717 4.65630
#
# Compressibility (1/GPa) = 0.03913132
#
# Stress axis : x y z
#
# Youngs Moduli (GPa) = 28.67577 68.85787 80.62364
#
# Poissons Ratio (x) = -0.29399 1.03620
# Poissons Ratio (y) = -0.12243 0.22178
# Poissons Ratio (z) = 0.36855 0.18942
#
# Static dielectric constant tensor:
#      x y z
#    x 1.647740 0.000000 0.001310 
#    y 0.000000 1.741330 0.000000 
#    z 0.001310 0.000000 1.787320 
# 
# From -- ./inp_files/243533.got.cif
#   From: 2010.05.17/outbox.cif.g08.bks.cpg/sg12_122_cif.got.tgz:243533.got - 2010.06.03 13:09:07.
