data_PCOD9177748
_publ_section_title
;
Structure prediction by ZEFSAII (Michael W. Deem and Ramdas Pophale) SiO2 
 PCOD9177748
Probable space group: C 2/M
;
_chemical_formula_sum "Si O2"
_cell_formula_units_Z 52
_cell_length_a 22.511947
_cell_length_b 26.151122
_cell_length_c 5.129164
_cell_angle_alpha 90.000000
_cell_angle_beta 120.478010
_cell_angle_gamma 90.000000
_cell_volume 2602.366730
_symmetry_space_group_name_H-M "C 2/M"
_symmetry_group_IT_number 12
_symmetry_cell_setting 'monoclinic'
loop_
_space_group_symop_operation_xyz
x,y,z
-x,y,-z
-x,-y,-z
x,-y,z
1/2+x,1/2+y,z
1/2-x,1/2+y,-z
1/2-x,1/2-y,-z
1/2+x,1/2-y,z
loop_
_atom_site_type_symbol
_atom_site_label
_atom_site_fract_x
_atom_site_fract_y
_atom_site_fract_z
Si Si1 0.349941 0.061646 0.271473
Si Si2 0.295537 0.393999 0.099079
Si Si3 0.128408 0.904170 0.234039
Si Si4 0.673785 0.275236 0.817024
Si Si5 0.572545 0.062193 0.053881
Si Si6 0.546861 0.500000 0.855957
Si Si7 0.418283 0.713121 0.870950
O O1 0.370133 0.077420 0.607578
O O2 0.343500 0.000000 0.254421
O O3 0.279764 0.085498 0.014996
O O4 0.409045 0.076624 0.197958
O O5 0.348594 0.419672 0.423637
O O6 0.307371 0.334681 0.177788
O O7 0.306736 0.398737 0.814265
O O8 0.089710 0.849411 0.153873
O O9 0.088653 0.948042 0.990187
O O10 0.627567 0.262349 0.462047
O O11 0.750000 0.250000 0.000000
O O12 0.621888 0.270803 0.951140
O O13 0.569936 0.000000 0.050504
O O14 0.500000 0.081047 0.000000
O O15 0.500000 0.500000 0.500000
O O16 0.500000 0.500000 0.000000
O O17 0.500000 0.724143 0.000000
#
# Coordination Sequence:
#
# PCOD9177748 Si02
#       7
#     8   8   8   8   8   4   8
#     4  10  19  29  49  73  98 134 171 217 266 320
#     4  10  21  36  53  79 106 141 186 224 280 324
#     4  10  22  35  53  77 111 150 186 232 269 319
#     4  10  21  38  61  85 112 148 184 236 295 345
#     4   9  17  30  46  68  95 129 173 215 259 316
#     4  12  24  36  52  76 112 158 191 222 271 314
#     4  10  20  37  61  88 113 146 194 239 279 343
#
# _framework density 19.981808999999998
#
# number of rings (size 3 to 8) (size 9 to 14) (size 15 to 20)
#    0.000    2.000    0.000    3.692    2.154    4.308 
#    0.000    0.000    0.000    5.538    0.000    0.000 
#    0.000    0.000    0.000    0.000    0.000    0.000 
#
# Total GULP energy -144784.649243 kJ/mol
# GULP energy per Si atom -5568.640356 kJ/mol
# Density = 1.993633 g / cm^3
# Si number density = 19.981809 Si / 1000 Ang^3
#
#
#
# Elastic Constant Matrix: (Units=GPa)
#
#
# Indices 1 2 3 4 5 6 
#
# 1 99.2417 18.6340 39.1432 0.0000 8.0524 0.0000
# 2 18.6340 12.6717 23.7959 0.0000 1.9814 0.0000
# 3 39.1432 23.7959 119.9225 0.0000 -2.2634 0.0000
# 4 0.0000 0.0000 0.0000 33.2759 0.0000 6.7543
# 5 8.0524 1.9814 -2.2634 0.0000 39.0812 0.0000
# 6 0.0000 0.0000 0.0000 6.7543 0.0000 16.0198
#
#
#
# Elastic Compliance Matrix: (Units=1/GPa)
#
#
# Indices 1 2 3 4 5 6 
#
# 1 0.014118 -0.018682 -0.000939 0.000000 -0.002016 0.000000
# 2 -0.018682 0.152950 -0.024352 0.000000 -0.005316 0.000000
# 3 -0.000939 -0.024352 0.013519 0.000000 0.002211 0.000000
# 4 0.000000 0.000000 0.000000 0.032864 0.000000 -0.013856
# 5 -0.002016 -0.005316 0.002211 0.000000 0.026401 0.000000
# 6 0.000000 0.000000 0.000000 -0.013856 0.000000 0.068265
#
#
# Mechanical properties :
#
#
# Convention : Reuss Voigt Hill
#
# Bulk Modulus (GPa) = 10.79441 43.88691 27.34066
# Shear Modulus (GPa) = 11.71115 27.69291 19.70203
#
# Velocity S-wave (km/s) = 2.42356 3.72681 3.14347
# Velocity P-wave (km/s) = 3.63942 6.36632 5.18533
#
# Compressibility (1/GPa) = 0.09264057
#
# Stress axis : x y z
#
# Youngs Moduli (GPa) = 70.82991 6.53810 73.96954
#
# Poissons Ratio (x) = 0.12215 0.06948
# Poissons Ratio (y) = 1.32326 1.80129
# Poissons Ratio (z) = 0.06653 0.15921
#
# Static dielectric constant tensor:
#      x y z
#    x 1.643770 0.000000 0.034330 
#    y 0.000000 1.671570 0.000000 
#    z 0.034330 0.000000 1.717590 
# 
# From -- ./inp_files/22498.got.cif
#   From: 2010.05.17/outbox.cif.g08.bks.cpg/sg12_12_cif.got.tgz:22498.got - 2010.06.03 13:09:07.
