data_PCOD9177919
_publ_section_title
;
Structure prediction by ZEFSAII (Michael W. Deem and Ramdas Pophale) SiO2 
 PCOD9177919
Probable space group: C 2/M
;
_chemical_formula_sum "Si O2"
_cell_formula_units_Z 64
_cell_length_a 11.879190
_cell_length_b 15.717297
_cell_length_c 33.292344
_cell_angle_alpha 90.000000
_cell_angle_beta 157.582696
_cell_angle_gamma 90.000000
_cell_volume 2370.458396
_symmetry_space_group_name_H-M "C 2/M"
_symmetry_group_IT_number 12
_symmetry_cell_setting 'monoclinic'
loop_
_space_group_symop_operation_xyz
x,y,z
-x,y,-z
-x,-y,-z
x,-y,z
1/2+x,1/2+y,z
1/2-x,1/2+y,-z
1/2-x,1/2-y,-z
1/2+x,1/2-y,z
loop_
_atom_site_type_symbol
_atom_site_label
_atom_site_fract_x
_atom_site_fract_y
_atom_site_fract_z
Si Si1 0.337223 0.372987 0.106756
Si Si2 0.509539 0.631820 0.759649
Si Si3 0.453273 0.831416 0.726099
Si Si4 0.396136 0.170433 0.140111
Si Si5 0.966461 0.904578 0.658323
Si Si6 0.847632 0.401241 0.610203
Si Si7 0.716313 0.852404 0.982380
Si Si8 0.214019 0.850042 0.481738
O O1 0.529560 0.403375 0.207987
O O2 0.333154 0.270687 0.113581
O O3 0.250000 0.250000 0.000000
O O4 0.393674 0.391042 0.078528
O O5 0.426394 0.730990 0.726295
O O6 0.379674 0.592459 0.676369
O O7 0.868144 0.627523 0.873830
O O8 0.652897 0.858189 0.830063
O O9 0.520189 0.847715 0.701268
O O10 0.131662 0.873204 0.625843
O O11 0.241600 0.127586 0.050725
O O12 0.746842 0.155865 0.249666
O O13 0.741853 0.873841 0.550033
O O14 0.058093 0.000000 0.677483
O O15 0.500000 0.374652 0.500000
O O16 0.871839 0.500000 0.628981
O O17 0.895519 0.389631 0.578308
O O18 0.500000 0.902571 0.000000
O O19 0.250000 0.750000 0.500000
#
# Coordination Sequence:
#
# PCOD9177919 Si02
#       8
#     8   8   8   8   8   8   8   8
#     4   8  13  23  42  65  90 114 143 187 224 255
#     4   9  16  27  43  65  90 115 149 185 219 258
#     4   9  17  28  44  67  89 113 145 182 222 260
#     4   8  15  25  40  64  89 113 146 181 218 259
#     4  10  19  30  45  64  89 119 148 180 220 267
#     4   9  17  29  45  65  89 115 143 176 216 264
#     4   8  13  23  41  66  90 113 142 182 223 253
#     4  10  19  31  48  67  87 112 146 186 223 259
#
# _framework density 26.998996999999999
#
# number of rings (size 3 to 8) (size 9 to 14) (size 15 to 20)
#    0.000    3.125    0.000    1.125    0.000    3.000 
#    0.000    0.000    0.000   12.000    0.000   16.625 
#    0.000    0.000    0.000    0.000    0.000    0.000 
#
# Total GULP energy -178714.572505 kJ/mol
# GULP energy per Si atom -5584.830391 kJ/mol
# Density = 2.693755 g / cm^3
# Si number density = 26.998997 Si / 1000 Ang^3
#
#
#
# Elastic Constant Matrix: (Units=GPa)
#
#
# Indices 1 2 3 4 5 6 
#
# 1 134.4880 14.7809 82.4659 0.0021 -57.2016 -0.0004
# 2 14.7809 72.1674 45.6042 0.0013 -19.0546 -0.0001
# 3 82.4659 45.6042 301.7670 0.0075 -62.1831 0.0012
# 4 0.0021 0.0013 0.0075 -37.7414 0.0042 -6.1414
# 5 -57.2016 -19.0546 -62.1831 0.0042 84.8450 0.0003
# 6 -0.0004 -0.0001 0.0012 -6.1414 0.0003 5.6229
#
#
#
# Elastic Compliance Matrix: (Units=1/GPa)
#
#
# Indices 1 2 3 4 5 6 
#
# 1 0.011191 0.000537 -0.001837 0.000001 0.006319 0.000002
# 2 0.000537 0.015656 -0.002018 0.000000 0.002399 0.000001
# 3 -0.001837 -0.002018 0.004443 0.000001 0.001565 0.000000
# 4 0.000001 0.000000 0.000001 -0.022498 0.000002 -0.024572
# 5 0.006319 0.002399 0.001565 0.000002 0.017732 0.000002
# 6 0.000002 0.000001 0.000000 -0.024572 0.000002 0.151006
#
#
# Mechanical properties :
#
#
# Convention : Reuss Voigt Hill
#
# Bulk Modulus (GPa) = 40.56327 88.23602 64.39965
# Shear Modulus (GPa) = 25.98963 34.91673 30.45318
#
# Velocity S-wave (km/s) = 3.10597 3.60009 3.36212
# Velocity P-wave (km/s) = 5.28387 7.07341 6.24309
#
# Compressibility (1/GPa) = 0.02465285
#
# Stress axis : x y z
#
# Youngs Moduli (GPa) = 89.35977 63.87530 225.05613
#
# Poissons Ratio (x) = -0.03433 0.41350
# Poissons Ratio (y) = -0.04802 0.45426
# Poissons Ratio (z) = 0.16418 0.12893
#
# Static dielectric constant tensor:
#      x y z
#    x 2.302170 0.000000 -0.030650 
#    y 0.000000 1.993520 0.000000 
#    z -0.030650 0.000000 2.109840 
# 
# From -- ./inp_files/376810.got.cif
#   From: 2010.05.17/outbox.cif.g08.bks.cpg/sg12_189_cif.got.tgz:376810.got - 2010.06.03 13:09:07.
