data_PCOD9177071
_publ_section_title
;
Structure prediction by ZEFSAII (Michael W. Deem and Ramdas Pophale) SiO2 
 PCOD9177071
Probable space group: C 2/M
;
_chemical_formula_sum "Si O2"
_cell_formula_units_Z 56
_cell_length_a 19.318956
_cell_length_b 25.986019
_cell_length_c 5.776642
_cell_angle_alpha 90.000000
_cell_angle_beta 109.561130
_cell_angle_gamma 90.000000
_cell_volume 2732.631363
_symmetry_space_group_name_H-M "C 2/M"
_symmetry_group_IT_number 12
_symmetry_cell_setting 'monoclinic'
loop_
_space_group_symop_operation_xyz
x,y,z
-x,y,-z
-x,-y,-z
x,-y,z
1/2+x,1/2+y,z
1/2-x,1/2+y,-z
1/2-x,1/2-y,-z
1/2+x,1/2-y,z
loop_
_atom_site_type_symbol
_atom_site_label
_atom_site_fract_x
_atom_site_fract_y
_atom_site_fract_z
Si Si1 0.202146 0.690358 0.239437
Si Si2 0.189686 0.417609 0.468792
Si Si3 0.540614 0.621631 0.295628
Si Si4 0.772111 0.130109 0.937909
Si Si5 0.150558 0.794162 0.334390
Si Si6 0.164792 0.057477 0.629316
Si Si7 0.476850 0.941374 0.724471
O O1 0.181896 0.641753 0.375985
O O2 0.148588 0.737978 0.218752
O O3 0.285183 0.708149 0.400584
O O4 0.213729 0.666697 0.000873
O O5 0.225084 0.413867 0.760603
O O6 0.253205 0.442010 0.384047
O O7 0.111046 0.442552 0.372312
O O8 0.500000 0.614564 0.500000
O O9 0.577349 0.678611 0.340344
O O10 0.606222 0.579413 0.381095
O O11 0.500000 0.616476 0.000000
O O12 0.817099 0.165673 0.815227
O O13 0.828496 0.101258 0.168691
O O14 0.145524 0.000000 0.684640
O O15 0.500000 0.918034 0.500000
O O16 0.507478 0.000000 0.758778
O O17 0.500000 0.917771 0.000000
#
# Coordination Sequence:
#
# PCOD9177071 Si02
#       7
#     8   8   8   8   8   8   8
#     4   9  19  34  67  93 121 155 213 269 324 384
#     4  10  21  39  63  98 126 165 214 277 326 381
#     4  12  26  45  65  91 138 181 220 282 341 395
#     4  10  18  37  63  98 125 159 214 280 327 371
#     4  10  19  39  61  94 120 165 216 264 326 399
#     4  11  24  41  64  92 127 173 232 282 326 388
#     4  10  23  41  62  91 130 177 213 251 325 403
#
# _framework density 20.493068999999998
#
# number of rings (size 3 to 8) (size 9 to 14) (size 15 to 20)
#    0.000    1.714    4.286    1.714    4.000    1.714 
#    0.000    1.429    0.000    0.000    0.000    0.000 
#    0.000    0.000    0.000    0.000    0.000    0.000 
#
# Total GULP energy -156031.323014 kJ/mol
# GULP energy per Si atom -5572.547251 kJ/mol
# Density = 2.044643 g / cm^3
# Si number density = 20.493069 Si / 1000 Ang^3
#
#
#
# Elastic Constant Matrix: (Units=GPa)
#
#
# Indices 1 2 3 4 5 6 
#
# 1 71.1419 9.9969 29.3925 0.0000 -1.5652 0.0000
# 2 9.9969 87.8131 1.9785 0.0000 1.8006 0.0000
# 3 29.3925 1.9785 96.7138 0.0000 -3.4265 0.0000
# 4 0.0000 0.0000 0.0000 -12.5612 0.0000 6.6871
# 5 -1.5652 1.8006 -3.4265 0.0000 29.1653 0.0000
# 6 0.0000 0.0000 0.0000 6.6871 0.0000 14.4598
#
#
#
# Elastic Compliance Matrix: (Units=1/GPa)
#
#
# Indices 1 2 3 4 5 6 
#
# 1 0.016344 -0.001758 -0.004917 0.000000 0.000408 0.000000
# 2 -0.001758 0.011598 0.000269 0.000000 -0.000779 0.000000
# 3 -0.004917 0.000269 0.011868 0.000000 0.001114 0.000000
# 4 0.000000 0.000000 0.000000 -0.063882 0.000000 0.029543
# 5 0.000408 -0.000779 0.001114 0.000000 0.034488 0.000000
# 6 0.000000 0.000000 0.000000 0.029543 0.000000 0.055494
#
#
# Mechanical properties :
#
#
# Convention : Reuss Voigt Hill
#
# Bulk Modulus (GPa) = 37.03858 37.60052 37.31955
# Shear Modulus (GPa) = 56.99941 20.49951 38.74946
#
# Velocity S-wave (km/s) = 5.27962 3.16621 4.35312
# Velocity P-wave (km/s) = 7.43497 5.63509 6.59670
#
# Compressibility (1/GPa) = 0.02699888
#
# Stress axis : x y z
#
# Youngs Moduli (GPa) = 61.18536 86.22267 84.26042
#
# Poissons Ratio (x) = 0.15160 0.41428
# Poissons Ratio (y) = 0.10758 -0.02271
# Poissons Ratio (z) = 0.30083 -0.02324
#
# Static dielectric constant tensor:
#      x y z
#    x 1.757840 0.000000 -0.020030 
#    y 0.000000 1.731650 0.000000 
#    z -0.020030 0.000000 1.805890 
# 
# From -- ./inp_files/17721.got.cif
#   From: 2010.05.17/outbox.cif.g08.bks.cpg/sg12_9_cif.got.tgz:17721.got - 2010.06.03 13:09:07.
