data_PCOD9177661
_publ_section_title
;
Structure prediction by ZEFSAII (Michael W. Deem and Ramdas Pophale) SiO2 
 PCOD9177661
Probable space group: C 2/M
;
_chemical_formula_sum "Si O2"
_cell_formula_units_Z 32
_cell_length_a 13.206997
_cell_length_b 24.505325
_cell_length_c 7.165535
_cell_angle_alpha 90.000000
_cell_angle_beta 41.728387
_cell_angle_gamma 90.000000
_cell_volume 1543.570985
_symmetry_space_group_name_H-M "C 2/M"
_symmetry_group_IT_number 12
_symmetry_cell_setting 'monoclinic'
loop_
_space_group_symop_operation_xyz
x,y,z
-x,y,-z
-x,-y,-z
x,-y,z
1/2+x,1/2+y,z
1/2-x,1/2+y,-z
1/2-x,1/2-y,-z
1/2+x,1/2-y,z
loop_
_atom_site_type_symbol
_atom_site_label
_atom_site_fract_x
_atom_site_fract_y
_atom_site_fract_z
Si Si1 0.126535 0.939939 0.159092
Si Si2 0.854915 0.618570 0.103227
Si Si3 0.078464 0.729764 0.195564
Si Si4 0.044807 0.158697 0.660793
O O1 0.278392 0.920072 0.053766
O O2 0.000000 0.944224 0.500000
O O3 0.066909 0.889340 0.117355
O O4 0.139288 0.000000 0.055618
O O5 0.716574 0.637256 0.429235
O O6 0.911764 0.674837 0.934166
O O7 0.000000 0.592119 0.000000
O O8 0.000000 0.716930 0.500000
O O9 0.988075 0.780428 0.226717
O O10 0.250000 0.750000 0.000000
O O11 0.000000 0.164499 0.500000
#
# Coordination Sequence:
#
# PCOD9177661 Si02
#       4
#     8   8   8   8
#     4   8  14  27  47  68  90 124 162 195 230 276
#     4  10  19  29  45  74 101 119 152 204 240 275
#     4  11  17  32  51  68  93 131 160 192 230 285
#     4   8  15  28  45  64  92 120 160 187 225 280
#
# _framework density 20.731151000000001
#
# number of rings (size 3 to 8) (size 9 to 14) (size 15 to 20)
#    0.000    3.250    7.500    0.000    0.000    1.500 
#    0.000    0.000    0.000    0.750    0.000    0.000 
#    0.000   13.500    0.000    0.000    0.000    0.000 
#
# Total GULP energy -89120.664976 kJ/mol
# GULP energy per Si atom -5570.041561 kJ/mol
# Density = 2.068397 g / cm^3
# Si number density = 20.731151 Si / 1000 Ang^3
#
#
#
# Elastic Constant Matrix: (Units=GPa)
#
#
# Indices 1 2 3 4 5 6 
#
# 1 66.8967 2.4433 35.0851 0.0000 -21.3847 0.0000
# 2 2.4433 130.9804 6.5463 0.0000 -0.0028 0.0000
# 3 35.0851 6.5463 63.5679 0.0000 -20.4743 0.0000
# 4 0.0000 0.0000 0.0000 6.0888 0.0000 -5.7502
# 5 -21.3847 -0.0028 -20.4743 0.0000 31.7659 0.0000
# 6 0.0000 0.0000 0.0000 -5.7502 0.0000 -1.5587
#
#
#
# Elastic Compliance Matrix: (Units=1/GPa)
#
#
# Indices 1 2 3 4 5 6 
#
# 1 0.022993 0.000058 -0.009731 0.000000 0.009207 0.000000
# 2 0.000058 0.007685 -0.001023 0.000000 -0.000620 0.000000
# 3 -0.009731 -0.001023 0.024101 0.000000 0.008983 0.000000
# 4 0.000000 0.000000 0.000000 0.036628 0.000000 -0.135122
# 5 0.009207 -0.000620 0.008983 0.000000 0.043468 0.000000
# 6 0.000000 0.000000 0.000000 -0.135122 0.000000 -0.143078
#
#
# Mechanical properties :
#
#
# Convention : Reuss Voigt Hill
#
# Bulk Modulus (GPa) = 29.95281 38.84380 34.39830
# Shear Modulus (GPa) = 205.60696 21.75055 113.67876
#
# Velocity S-wave (km/s) = 9.96961 3.24261 7.41308
# Velocity P-wave (km/s) = 12.12451 5.72686 9.48158
#
# Compressibility (1/GPa) = 0.03338585
#
# Stress axis : x y z
#
# Youngs Moduli (GPa) = 43.49134 130.12770 41.49268
#
# Poissons Ratio (x) = -0.00750 0.40377
# Poissons Ratio (y) = -0.00251 0.04244
# Poissons Ratio (z) = 0.42322 0.13310
#
# Static dielectric constant tensor:
#      x y z
#    x 1.828800 0.000000 0.025710 
#    y 0.000000 1.808380 0.000000 
#    z 0.025710 0.000000 1.793320 
# 
# From -- ./inp_files/39921.got.cif
#   From: 2010.05.17/outbox.cif.g08.bks.cpg/sg12_20_cif.got.tgz:39921.got - 2010.06.03 13:09:07.
