data_PCOD9177437
_publ_section_title
;
Structure prediction by ZEFSAII (Michael W. Deem and Ramdas Pophale) SiO2 
 PCOD9177437
Probable space group: C 2/M
;
_chemical_formula_sum "Si O2"
_cell_formula_units_Z 56
_cell_length_a 23.946499
_cell_length_b 7.515476
_cell_length_c 14.517326
_cell_angle_alpha 90.000000
_cell_angle_beta 54.373961
_cell_angle_gamma 90.000000
_cell_volume 2123.675442
_symmetry_space_group_name_H-M "C 2/M"
_symmetry_group_IT_number 12
_symmetry_cell_setting 'monoclinic'
loop_
_space_group_symop_operation_xyz
x,y,z
-x,y,-z
-x,-y,-z
x,-y,z
1/2+x,1/2+y,z
1/2-x,1/2+y,-z
1/2-x,1/2-y,-z
1/2+x,1/2-y,z
loop_
_atom_site_type_symbol
_atom_site_label
_atom_site_fract_x
_atom_site_fract_y
_atom_site_fract_z
Si Si1 0.784448 0.281824 0.127700
Si Si2 0.375169 0.206025 0.306122
Si Si3 0.404344 0.793481 0.555154
Si Si4 0.926066 0.704641 0.048062
Si Si5 0.763782 0.784750 0.618705
Si Si6 0.645565 0.699247 0.196564
Si Si7 0.996931 0.710986 0.310360
O O1 0.786169 0.500000 0.120830
O O2 0.863829 0.222041 0.044744
O O3 0.758990 0.235299 0.255014
O O4 0.721423 0.215096 0.124693
O O5 0.392612 0.198108 0.181261
O O6 0.298659 0.286630 0.384406
O O7 0.442160 0.285290 0.290386
O O8 0.368310 0.000000 0.341074
O O9 0.341800 0.781609 0.541045
O O10 0.378782 0.700270 0.672296
O O11 0.470159 0.724513 0.435884
O O12 0.414539 0.000000 0.571559
O O13 0.939919 0.500000 0.002129
O O14 0.000000 0.788518 0.000000
O O15 0.765304 0.000000 0.612626
O O16 0.655530 0.500000 0.155027
O O17 0.576893 0.766066 0.213855
O O18 0.987394 0.500000 0.322937
#
# Coordination Sequence:
#
# PCOD9177437 Si02
#       7
#     8   8   8   8   8   8   8
#     4   7  12  23  39  61  85 106 133 172 214 249
#     4   8  15  28  43  61  89 120 144 171 216 265
#     4  10  19  29  42  62  86 113 149 190 224 251
#     4   8  12  21  43  71  90 105 133 174 214 256
#     4   8  14  27  45  61  83 116 147 176 213 258
#     4  10  19  31  46  61  82 116 154 187 216 250
#     4  10  20  31  42  59  88 122 149 180 221 257
#
# _framework density 26.369377
#
# number of rings (size 3 to 8) (size 9 to 14) (size 15 to 20)
#    0.000    3.286    0.000    3.857    0.000    3.429 
#    0.000    0.714    0.000    0.857    0.000    0.000 
#    0.000   68.000    0.000    0.000    0.000    1.286 
#
# Total GULP energy -156164.919939 kJ/mol
# GULP energy per Si atom -5577.318569 kJ/mol
# Density = 2.630936 g / cm^3
# Si number density = 26.369377 Si / 1000 Ang^3
#
#
#
# Elastic Constant Matrix: (Units=GPa)
#
#
# Indices 1 2 3 4 5 6 
#
# 1 167.1565 -0.0076 67.9886 -0.0002 -61.2186 0.0001
# 2 -0.0076 69.9066 2.5617 -0.0005 -0.9947 0.0003
# 3 67.9886 2.5617 94.5324 0.0000 -34.4841 0.0000
# 4 -0.0002 -0.0005 0.0000 80.8475 0.0000 -11.6775
# 5 -61.2186 -0.9947 -34.4841 0.0000 67.0903 0.0000
# 6 0.0001 0.0003 0.0000 -11.6775 0.0000 16.3356
#
#
#
# Elastic Compliance Matrix: (Units=1/GPa)
#
#
# Indices 1 2 3 4 5 6 
#
# 1 0.010652 0.000288 -0.005073 0.000000 0.007117 0.000000
# 2 0.000288 0.014327 -0.000520 0.000000 0.000208 0.000000
# 3 -0.005073 -0.000520 0.015446 0.000000 0.003302 0.000000
# 4 0.000000 0.000000 0.000000 0.013793 0.000000 0.009860
# 5 0.007117 0.000208 0.003302 0.000000 0.023100 0.000000
# 6 0.000000 0.000000 0.000000 0.009860 0.000000 0.068264
#
#
# Mechanical properties :
#
#
# Convention : Reuss Voigt Hill
#
# Bulk Modulus (GPa) = 33.53865 52.52010 43.02937
# Shear Modulus (GPa) = 30.09718 50.25820 40.17769
#
# Velocity S-wave (km/s) = 3.38208 4.37043 3.90763
# Velocity P-wave (km/s) = 5.29128 6.74002 6.05911
#
# Compressibility (1/GPa) = 0.02981634
#
# Stress axis : x y z
#
# Youngs Moduli (GPa) = 93.87787 69.79903 64.74350
#
# Poissons Ratio (x) = -0.02012 0.32843
# Poissons Ratio (y) = -0.02707 0.03364
# Poissons Ratio (z) = 0.47623 0.03627
#
# Static dielectric constant tensor:
#      x y z
#    x 2.224080 0.000000 -0.021130 
#    y 0.000000 2.008140 0.000000 
#    z -0.021130 0.000000 2.079710 
# 
# From -- ./inp_files/323542.got.cif
#   From: 2010.05.17/outbox.cif.g08.bks.cpg/sg12_162_cif.got.tgz:323542.got - 2010.06.03 13:09:07.
