data_PCOD9177061
_publ_section_title
;
Structure prediction by ZEFSAII (Michael W. Deem and Ramdas Pophale) SiO2 
 PCOD9177061
Probable space group: C 2/M
;
_chemical_formula_sum "Si O2"
_cell_formula_units_Z 52
_cell_length_a 26.572216
_cell_length_b 21.760279
_cell_length_c 8.302670
_cell_angle_alpha 90.000000
_cell_angle_beta 152.139117
_cell_angle_gamma 90.000000
_cell_volume 2243.521679
_symmetry_space_group_name_H-M "C 2/M"
_symmetry_group_IT_number 12
_symmetry_cell_setting 'monoclinic'
loop_
_space_group_symop_operation_xyz
x,y,z
-x,y,-z
-x,-y,-z
x,-y,z
1/2+x,1/2+y,z
1/2-x,1/2+y,-z
1/2-x,1/2-y,-z
1/2+x,1/2-y,z
loop_
_atom_site_type_symbol
_atom_site_label
_atom_site_fract_x
_atom_site_fract_y
_atom_site_fract_z
Si Si1 0.943619 0.738624 0.670105
Si Si2 0.322735 0.125875 0.177112
Si Si3 0.767127 0.000000 0.676600
Si Si4 0.850187 0.213912 0.851419
Si Si5 0.687383 0.500000 0.562760
Si Si6 0.370311 0.385965 0.134281
Si Si7 0.642488 0.000000 0.656649
Si Si8 0.344058 0.363171 0.522631
O O1 0.866448 0.686970 0.382874
O O2 0.892107 0.806333 0.552835
O O3 0.000000 0.720915 0.000000
O O4 0.043654 0.746316 0.834581
O O5 0.402491 0.068523 0.437282
O O6 0.207072 0.105663 0.930766
O O7 0.283426 0.136428 0.883346
O O8 0.751479 0.000000 0.439278
O O9 0.675327 0.000000 0.558551
O O10 0.835589 0.940286 0.917209
O O11 0.750000 0.250000 0.500000
O O12 0.870128 0.161219 0.774083
O O13 0.830569 0.179577 0.959292
O O14 0.623828 0.435098 0.393622
O O15 0.768337 0.500000 0.944348
O O16 0.500000 0.385472 0.500000
#
# Coordination Sequence:
#
# PCOD9177061 Si02
#       8
#     8   8   4   8   4   8   4   8
#     4  10  21  37  58  86 120 154 203 251 303 372
#     4  10  20  39  62  84 119 161 199 253 307 365
#     4  10  19  36  58  87 129 163 197 252 316 372
#     4  11  23  38  57  85 117 153 203 254 307 373
#     4  10  18  37  62  90 125 166 204 251 313 373
#     4  11  21  35  57  86 120 155 198 249 310 369
#     4   8  20  35  64  94 118 158 220 253 309 377
#     4  10  20  37  60  87 120 158 200 243 300 375
#
# _framework density 23.177844
#
# number of rings (size 3 to 8) (size 9 to 14) (size 15 to 20)
#    0.000    1.846    1.538    3.462    0.000    1.231 
#    0.000    6.154    0.000    1.846    0.000    3.231 
#    0.000    0.000    0.000    0.000    0.000    0.000 
#
# Total GULP energy -144790.297669 kJ/mol
# GULP energy per Si atom -5568.857603 kJ/mol
# Density = 2.312509 g / cm^3
# Si number density = 23.177844 Si / 1000 Ang^3
#
#
#
# Elastic Constant Matrix: (Units=GPa)
#
#
# Indices 1 2 3 4 5 6 
#
# 1 46.4847 17.8742 18.8762 0.0000 -13.0345 0.0000
# 2 17.8742 138.0694 37.6107 0.0000 9.8435 0.0000
# 3 18.8762 37.6107 43.8027 0.0000 -10.4739 0.0000
# 4 0.0000 0.0000 0.0000 22.7810 0.0000 -19.6084
# 5 -13.0345 9.8435 -10.4739 0.0000 24.5393 0.0000
# 6 0.0000 0.0000 0.0000 -19.6084 0.0000 22.5122
#
#
#
# Elastic Compliance Matrix: (Units=1/GPa)
#
#
# Indices 1 2 3 4 5 6 
#
# 1 0.029273 -0.002922 -0.006802 0.000000 0.013818 0.000000
# 2 -0.002922 0.011443 -0.011176 0.000000 -0.010912 0.000000
# 3 -0.006802 -0.011176 0.039607 0.000000 0.017775 0.000000
# 4 0.000000 0.000000 0.000000 0.175384 0.000000 0.152762
# 5 0.013818 -0.010912 0.017775 0.000000 0.060055 0.000000
# 6 0.000000 0.000000 0.000000 0.152762 0.000000 0.177478
#
#
# Mechanical properties :
#
#
# Convention : Reuss Voigt Hill
#
# Bulk Modulus (GPa) = 25.95786 41.89765 33.92775
# Shear Modulus (GPa) = 9.12607 24.23288 16.67948
#
# Velocity S-wave (km/s) = 1.98644 3.23696 2.68550
# Velocity P-wave (km/s) = 4.06018 5.66448 4.92805
#
# Compressibility (1/GPa) = 0.03852398
#
# Stress axis : x y z
#
# Youngs Moduli (GPa) = 34.16174 87.38709 25.24791
#
# Poissons Ratio (x) = 0.25533 0.17173
# Poissons Ratio (y) = 0.09981 0.28217
# Poissons Ratio (z) = 0.23236 0.97663
#
# Static dielectric constant tensor:
#      x y z
#    x 1.945580 0.000000 0.021020 
#    y 0.000000 2.036770 0.000000 
#    z 0.021020 0.000000 1.870380 
# 
# From -- ./inp_files/113322.got.cif
#   From: 2010.05.17/outbox.cif.g08.bks.cpg/sg12_57_cif.got.tgz:113322.got - 2010.06.03 13:09:07.
