data_PCOD9177393
_publ_section_title
;
Structure prediction by ZEFSAII (Michael W. Deem and Ramdas Pophale) SiO2 
 PCOD9177393
Probable space group: C 2/M
;
_chemical_formula_sum "Si O2"
_cell_formula_units_Z 56
_cell_length_a 25.340740
_cell_length_b 7.306322
_cell_length_c 30.206884
_cell_angle_alpha 90.000000
_cell_angle_beta 152.074440
_cell_angle_gamma 90.000000
_cell_volume 2619.210861
_symmetry_space_group_name_H-M "C 2/M"
_symmetry_group_IT_number 12
_symmetry_cell_setting 'monoclinic'
loop_
_space_group_symop_operation_xyz
x,y,z
-x,y,-z
-x,-y,-z
x,-y,z
1/2+x,1/2+y,z
1/2-x,1/2+y,-z
1/2-x,1/2-y,-z
1/2+x,1/2-y,z
loop_
_atom_site_type_symbol
_atom_site_label
_atom_site_fract_x
_atom_site_fract_y
_atom_site_fract_z
Si Si1 0.814938 0.284990 0.154282
Si Si2 0.233452 0.777456 0.359740
Si Si3 0.371923 0.278118 0.812249
Si Si4 0.983749 0.722994 0.539015
Si Si5 0.497805 0.719581 0.773085
Si Si6 0.395637 0.722921 0.056154
Si Si7 0.801656 0.724023 0.244458
O O1 0.790435 0.500000 0.139767
O O2 0.937565 0.267117 0.223584
O O3 0.804519 0.211905 0.196100
O O4 0.721769 0.211352 0.050922
O O5 0.198616 0.725223 0.283822
O O6 0.360102 0.717808 0.463392
O O7 0.130494 0.717177 0.314631
O O8 0.234360 0.000000 0.361133
O O9 0.372116 0.500000 0.812942
O O10 0.500483 0.223318 0.898740
O O11 0.307677 0.218180 0.808537
O O12 0.984976 0.500000 0.539911
O O13 0.000000 0.778602 0.500000
O O14 0.087088 0.781125 0.646178
O O15 0.494855 0.500000 0.773378
O O16 0.571146 0.784323 0.869849
O O17 0.393838 0.500000 0.056699
O O18 0.802040 0.500000 0.244530
#
# Coordination Sequence:
#
# PCOD9177393 Si02
#       7
#     8   8   8   8   8   8   8
#     4  10  19  29  40  61  91 116 136 168 211 249
#     4   8  13  22  39  61  81 103 138 179 208 235
#     4   8  12  21  36  58  84 107 133 169 211 252
#     4   9  13  20  37  60  86 111 132 164 212 255
#     4   9  17  30  46  61  79 111 151 178 197 235
#     4   8  15  26  42  61  82 109 142 176 208 242
#     4   9  16  23  35  59  90 114 132 162 213 263
#
# _framework density 21.380485
#
# number of rings (size 3 to 8) (size 9 to 14) (size 15 to 20)
#    0.000    3.286    1.429    2.143    0.000    0.571 
#    0.000    3.571    0.000    0.000    0.000    6.000 
#    0.000    1.143    0.000    0.000    0.000    0.000 
#
# Total GULP energy -156243.944472 kJ/mol
# GULP energy per Si atom -5580.140874 kJ/mol
# Density = 2.133182 g / cm^3
# Si number density = 21.380485 Si / 1000 Ang^3
#
#
#
# Elastic Constant Matrix: (Units=GPa)
#
#
# Indices 1 2 3 4 5 6 
#
# 1 129.0460 -7.2832 16.1078 0.0002 23.6309 0.0002
# 2 -7.2832 84.9847 -2.5475 -0.0005 -3.9685 0.0031
# 3 16.1078 -2.5475 41.0252 0.0007 20.2096 0.0003
# 4 0.0002 -0.0005 0.0007 -13.0096 -0.0004 7.9942
# 5 23.6309 -3.9685 20.2096 -0.0004 23.4567 -0.0001
# 6 0.0002 0.0031 0.0003 7.9942 -0.0001 1.1285
#
#
#
# Elastic Compliance Matrix: (Units=1/GPa)
#
#
# Indices 1 2 3 4 5 6 
#
# 1 0.009582 0.000356 0.001712 0.000000 -0.011069 -0.000001
# 2 0.000356 0.011878 -0.000374 -0.000004 0.001974 -0.000005
# 3 0.001712 -0.000374 0.042671 -0.000001 -0.038553 -0.000007
# 4 0.000000 -0.000004 -0.000001 -0.014360 0.000000 0.101723
# 5 -0.011069 0.001974 -0.038553 0.000000 0.087332 0.000009
# 6 -0.000001 -0.000005 -0.000007 0.101723 0.000009 0.165542
#
#
# Mechanical properties :
#
#
# Convention : Reuss Voigt Hill
#
# Bulk Modulus (GPa) = 14.81065 29.73446 22.27256
# Shear Modulus (GPa) = 15.53924 18.90037 17.21980
#
# Velocity S-wave (km/s) = 2.69884 2.97644 2.84103
# Velocity P-wave (km/s) = 4.08092 5.07442 4.60454
#
# Compressibility (1/GPa) = 0.06751896
#
# Stress axis : x y z
#
# Youngs Moduli (GPa) = 104.35783 84.18744 23.43500
#
# Poissons Ratio (x) = -0.02994 -0.04013
# Poissons Ratio (y) = -0.03712 0.00877
# Poissons Ratio (z) = -0.17869 0.03152
#
# Static dielectric constant tensor:
#      x y z
#    x 1.748700 0.000000 0.023330 
#    y 0.000000 1.870930 0.000000 
#    z 0.023330 0.000000 1.745910 
# 
# From -- ./inp_files/365830.got.cif
#   From: 2010.05.17/outbox.cif.g08.bks.cpg/sg12_183_cif.got.tgz:365830.got - 2010.06.03 13:09:07.
