data_PCOD9177765
_publ_section_title
;
Structure prediction by ZEFSAII (Michael W. Deem and Ramdas Pophale) SiO2 
 PCOD9177765
Probable space group: C 2/M
;
_chemical_formula_sum "Si O2"
_cell_formula_units_Z 56
_cell_length_a 11.254238
_cell_length_b 25.843837
_cell_length_c 11.603783
_cell_angle_alpha 90.000000
_cell_angle_beta 45.745018
_cell_angle_gamma 90.000000
_cell_volume 2417.308205
_symmetry_space_group_name_H-M "C 2/M"
_symmetry_group_IT_number 12
_symmetry_cell_setting 'monoclinic'
loop_
_space_group_symop_operation_xyz
x,y,z
-x,y,-z
-x,-y,-z
x,-y,z
1/2+x,1/2+y,z
1/2-x,1/2+y,-z
1/2-x,1/2-y,-z
1/2+x,1/2-y,z
loop_
_atom_site_type_symbol
_atom_site_label
_atom_site_fract_x
_atom_site_fract_y
_atom_site_fract_z
Si Si1 0.189198 0.628831 0.698889
Si Si2 0.221147 0.779650 0.208194
Si Si3 0.897825 0.708610 0.417421
Si Si4 0.786647 0.439816 0.098475
Si Si5 0.170896 0.820008 0.770026
Si Si6 0.420100 0.555055 0.427040
Si Si7 0.294598 0.652141 0.993520
O O1 0.297256 0.669138 0.701821
O O2 0.074635 0.668226 0.705097
O O3 0.146942 0.585277 0.825250
O O4 0.291794 0.600517 0.529472
O O5 0.055988 0.745405 0.322630
O O6 0.351840 0.740640 0.178687
O O7 0.261718 0.801615 0.054435
O O8 0.750000 0.750000 0.500000
O O9 0.821868 0.678149 0.578275
O O10 0.835455 0.500000 0.051239
O O11 0.584823 0.439709 0.241745
O O12 0.803391 0.398188 0.985785
O O13 0.997900 0.843517 0.841867
O O14 0.219449 0.844370 0.859787
O O15 0.500000 0.552021 0.500000
O O16 0.337408 0.500000 0.456388
#
# Coordination Sequence:
#
# PCOD9177765 Si02
#       7
#     8   8   8   8   8   8   8
#     4  10  19  29  50  75 108 140 169 222 271 307
#     4  11  21  34  51  75 110 152 186 214 252 321
#     4  12  22  31  49  79 109 151 188 214 256 314
#     4   9  18  32  55  79 100 129 174 230 287 325
#     4  11  22  34  49  74 109 149 184 212 262 321
#     4   8  14  23  42  72  98 121 156 209 269 312
#     4  10  21  36  53  77 110 143 177 226 271 320
#
# _framework density 23.166262
#
# number of rings (size 3 to 8) (size 9 to 14) (size 15 to 20)
#    0.000    1.857    2.857    3.000    6.000    0.000 
#    0.000    1.429    0.000    1.714    0.000    5.000 
#    0.000   11.429    0.000    0.000    0.000    0.000 
#
# Total GULP energy -156177.087916 kJ/mol
# GULP energy per Si atom -5577.753140 kJ/mol
# Density = 2.311353 g / cm^3
# Si number density = 23.166262 Si / 1000 Ang^3
#
#
#
# Elastic Constant Matrix: (Units=GPa)
#
#
# Indices 1 2 3 4 5 6 
#
# 1 81.9061 58.3720 25.2921 0.0000 -0.0196 0.0000
# 2 58.3720 165.9034 46.0311 0.0000 12.7526 0.0000
# 3 25.2921 46.0311 115.0034 0.0000 14.7829 0.0000
# 4 0.0000 0.0000 0.0000 15.9253 0.0000 -9.5791
# 5 -0.0196 12.7526 14.7829 0.0000 37.2200 0.0000
# 6 0.0000 0.0000 0.0000 -9.5791 0.0000 18.3081
#
#
#
# Elastic Compliance Matrix: (Units=1/GPa)
#
#
# Indices 1 2 3 4 5 6 
#
# 1 0.016753 -0.005603 -0.001780 0.000000 0.002636 0.000000
# 2 -0.005603 0.008716 -0.001973 0.000000 -0.002206 0.000000
# 3 -0.001780 -0.001973 0.010317 0.000000 -0.003422 0.000000
# 4 0.000000 0.000000 0.000000 0.091630 0.000000 0.047942
# 5 0.002636 -0.002206 -0.003422 0.000000 0.028984 0.000000
# 6 0.000000 0.000000 0.000000 0.047942 0.000000 0.079704
#
#
# Mechanical properties :
#
#
# Convention : Reuss Voigt Hill
#
# Bulk Modulus (GPa) = 58.57368 69.13369 63.85369
# Shear Modulus (GPa) = 19.19339 29.83187 24.51263
#
# Velocity S-wave (km/s) = 2.88150 3.59239 3.25640
# Velocity P-wave (km/s) = 6.03404 6.86398 6.46235
#
# Compressibility (1/GPa) = 0.01707251
#
# Stress axis : x y z
#
# Youngs Moduli (GPa) = 59.69248 114.73329 96.93143
#
# Poissons Ratio (x) = 0.64283 0.17259
# Poissons Ratio (y) = 0.33445 0.19123
# Poissons Ratio (z) = 0.10628 0.22635
#
# Static dielectric constant tensor:
#      x y z
#    x 1.962500 0.000000 -0.033700 
#    y 0.000000 1.922230 0.000000 
#    z -0.033700 0.000000 2.003140 
# 
# From -- ./inp_files/135291.got.cif
#   From: 2010.05.17/outbox.cif.g08.bks.cpg/sg12_68_cif.got.tgz:135291.got - 2010.06.03 13:09:07.
