data_PCOD9177755
_publ_section_title
;
Structure prediction by ZEFSAII (Michael W. Deem and Ramdas Pophale) SiO2 
 PCOD9177755
Probable space group: C 2/M
;
_chemical_formula_sum "Si O2"
_cell_formula_units_Z 60
_cell_length_a 9.926103
_cell_length_b 20.911910
_cell_length_c 28.480605
_cell_angle_alpha 90.000000
_cell_angle_beta 36.338580
_cell_angle_gamma 90.000000
_cell_volume 3503.086652
_symmetry_space_group_name_H-M "C 2/M"
_symmetry_group_IT_number 12
_symmetry_cell_setting 'monoclinic'
loop_
_space_group_symop_operation_xyz
x,y,z
-x,y,-z
-x,-y,-z
x,-y,z
1/2+x,1/2+y,z
1/2-x,1/2+y,-z
1/2-x,1/2-y,-z
1/2+x,1/2-y,z
loop_
_atom_site_type_symbol
_atom_site_label
_atom_site_fract_x
_atom_site_fract_y
_atom_site_fract_z
Si Si1 0.869021 0.255274 0.416252
Si Si2 0.791558 0.317322 0.093784
Si Si3 0.500000 0.841384 0.500000
Si Si4 0.182711 0.075723 0.637354
Si Si5 0.466315 0.153469 0.704531
Si Si6 0.876342 0.267453 0.173545
Si Si7 0.552713 0.424445 0.781091
Si Si8 0.709700 0.651265 0.303418
O O1 0.750000 0.250000 0.500000
O O2 0.704763 0.207988 0.434176
O O3 0.900106 0.320634 0.379250
O O4 0.106292 0.218075 0.352281
O O5 0.873529 0.290276 0.120902
O O6 0.605519 0.268754 0.124237
O O7 0.657463 0.383166 0.141126
O O8 0.000000 0.325049 0.000000
O O9 0.570629 0.891004 0.439244
O O10 0.089297 0.089211 0.715510
O O11 0.996652 0.104095 0.652777
O O12 0.203318 0.000000 0.625531
O O13 0.329947 0.216560 0.761132
O O14 0.278866 0.102015 0.742645
O O15 0.626808 0.128439 0.701037
O O16 0.835076 0.326483 0.220739
O O17 0.524229 0.500000 0.795524
#
# Coordination Sequence:
#
# PCOD9177755 Si02
#       8
#     8   8   4   8   8   8   8   8
#     4  10  19  29  49  78 110 138 173 220 280 326
#     4  11  21  35  58  85 112 142 177 223 276 330
#     4  10  19  30  50  76 105 132 174 226 274 316
#     4  10  20  35  54  74 102 145 190 225 264 320
#     4  10  20  33  55  78 110 143 178 223 274 328
#     4  10  19  34  54  82 113 137 173 217 281 327
#     4  10  22  38  56  76 106 149 187 221 265 320
#     4  10  19  32  52  76 105 142 175 223 269 326
#
# _framework density 17.127752000000001
#
# number of rings (size 3 to 8) (size 9 to 14) (size 15 to 20)
#    0.000    1.867    2.667    2.200    0.000    0.800 
#    0.000    0.000    0.000    0.000    0.000    8.867 
#    0.000    0.000    0.000    0.000    0.000    0.000 
#
# Total GULP energy -167051.391300 kJ/mol
# GULP energy per Si atom -5568.379710 kJ/mol
# Density = 1.708877 g / cm^3
# Si number density = 17.127752 Si / 1000 Ang^3
#
#
#
# Elastic Constant Matrix: (Units=GPa)
#
#
# Indices 1 2 3 4 5 6 
#
# 1 95.8038 22.2648 25.6788 0.0138 11.7770 -0.0063
# 2 22.2648 52.3390 30.4568 0.0253 6.5020 -0.0077
# 3 25.6788 30.4568 103.9862 0.0443 14.4198 -0.0169
# 4 0.0138 0.0253 0.0443 17.2778 -0.0059 5.6185
# 5 11.7770 6.5020 14.4198 -0.0059 24.5448 0.0016
# 6 -0.0063 -0.0077 -0.0169 5.6185 0.0016 15.6223
#
#
#
# Elastic Compliance Matrix: (Units=1/GPa)
#
#
# Indices 1 2 3 4 5 6 
#
# 1 0.012197 -0.003929 -0.001300 -0.000003 -0.004048 0.000003
# 2 -0.003929 0.024420 -0.006039 -0.000021 -0.001036 0.000012
# 3 -0.001300 -0.006039 0.012409 -0.000031 -0.005067 0.000021
# 4 -0.000003 -0.000021 -0.000031 0.065543 0.000042 -0.023573
# 5 -0.004048 -0.001036 -0.005067 0.000042 0.045935 -0.000027
# 6 0.000003 0.000012 0.000021 -0.023573 -0.000027 0.072489
#
#
# Mechanical properties :
#
#
# Convention : Reuss Voigt Hill
#
# Bulk Modulus (GPa) = 37.74866 45.43666 41.59266
# Shear Modulus (GPa) = 18.91360 23.07089 20.99225
#
# Velocity S-wave (km/s) = 3.32666 3.67412 3.50469
# Velocity P-wave (km/s) = 6.06983 6.67716 6.38073
#
# Compressibility (1/GPa) = 0.02649100
#
# Stress axis : x y z
#
# Youngs Moduli (GPa) = 81.98617 40.94935 80.58716
#
# Poissons Ratio (x) = 0.16091 0.10475
# Poissons Ratio (y) = 0.32216 0.48663
# Poissons Ratio (z) = 0.10657 0.24727
#
# Static dielectric constant tensor:
#      x y z
#    x 1.288090 0.000080 -0.020480 
#    y 0.000080 1.582180 0.000010 
#    z -0.020480 0.000010 1.592570 
# 
# From -- ./inp_files/356906.got.cif
#   From: 2010.05.17/outbox.cif.g08.bks.cpg/sg12_179_cif.got.tgz:356906.got - 2010.06.03 13:09:07.
