data_PCOD9177320
_publ_section_title
;
Structure prediction by ZEFSAII (Michael W. Deem and Ramdas Pophale) SiO2 
 PCOD9177320
Probable space group: C 2/M
;
_chemical_formula_sum "Si O2"
_cell_formula_units_Z 40
_cell_length_a 5.292229
_cell_length_b 26.918300
_cell_length_c 13.714137
_cell_angle_alpha 90.000000
_cell_angle_beta 72.173471
_cell_angle_gamma 90.000000
_cell_volume 1859.885035
_symmetry_space_group_name_H-M "C 2/M"
_symmetry_group_IT_number 12
_symmetry_cell_setting 'monoclinic'
loop_
_space_group_symop_operation_xyz
x,y,z
-x,y,-z
-x,-y,-z
x,-y,z
1/2+x,1/2+y,z
1/2-x,1/2+y,-z
1/2-x,1/2-y,-z
1/2+x,1/2-y,z
loop_
_atom_site_type_symbol
_atom_site_label
_atom_site_fract_x
_atom_site_fract_y
_atom_site_fract_z
Si Si1 0.244845 0.057385 0.625839
Si Si2 0.652393 0.731505 0.385391
Si Si3 0.769761 0.618955 0.353230
Si Si4 0.468521 0.554858 0.129460
Si Si5 0.987025 0.388658 0.105730
O O1 0.521696 0.086783 0.607678
O O2 0.143518 0.054095 0.748560
O O3 0.010579 0.090446 0.608352
O O4 0.260943 0.000000 0.587850
O O5 0.500000 0.750932 0.500000
O O6 0.417628 0.737166 0.334308
O O7 0.735115 0.675027 0.392588
O O8 0.869579 0.626051 0.227392
O O9 0.418525 0.500000 0.098448
O O10 0.776528 0.568392 0.101568
O O11 0.282069 0.593253 0.095303
O O12 0.000000 0.358663 0.000000
#
# Coordination Sequence:
#
# PCOD9177320 Si02
#       5
#     8   8   8   8   8
#     4   9  17  30  49  74 105 142 177 203 237 293
#     4  10  21  38  61  85 102 120 158 214 269 313
#     4  10  19  33  53  74 103 138 167 208 257 295
#     4   9  17  27  39  60  92 130 173 214 243 271
#     4  10  19  28  41  64  94 130 167 200 240 289
#
# _framework density 21.506708
#
# number of rings (size 3 to 8) (size 9 to 14) (size 15 to 20)
#    0.000    2.400    0.000    3.000    0.000    7.200 
#    0.000    0.000    0.000    4.800    0.000    0.000 
#    0.000    0.000    0.000    0.000    0.000    0.000 
#
# Total GULP energy -111347.162684 kJ/mol
# GULP energy per Si atom -5567.358134 kJ/mol
# Density = 2.145776 g / cm^3
# Si number density = 21.506708 Si / 1000 Ang^3
#
#
#
# Elastic Constant Matrix: (Units=GPa)
#
#
# Indices 1 2 3 4 5 6 
#
# 1 164.1676 51.5104 7.6445 0.0000 -23.0594 0.0000
# 2 51.5104 103.9696 -3.8840 0.0000 -6.2367 0.0000
# 3 7.6445 -3.8840 88.0427 0.0000 4.3296 0.0000
# 4 0.0000 0.0000 0.0000 42.3727 0.0000 16.0950
# 5 -23.0594 -6.2367 4.3296 0.0000 33.0688 0.0000
# 6 0.0000 0.0000 0.0000 16.0950 0.0000 29.1011
#
#
#
# Elastic Compliance Matrix: (Units=1/GPa)
#
#
# Indices 1 2 3 4 5 6 
#
# 1 0.008014 -0.003710 -0.001107 0.000000 0.005034 0.000000
# 2 -0.003710 0.011456 0.000854 0.000000 -0.000538 0.000000
# 3 -0.001107 0.000854 0.011597 0.000000 -0.002129 0.000000
# 4 0.000000 0.000000 0.000000 0.029877 0.000000 -0.016524
# 5 0.005034 -0.000538 -0.002129 0.000000 0.033927 0.000000
# 6 0.000000 0.000000 0.000000 -0.016524 0.000000 0.043502
#
#
# Mechanical properties :
#
#
# Convention : Reuss Voigt Hill
#
# Bulk Modulus (GPa) = 43.21409 51.85795 47.53602
# Shear Modulus (GPa) = 32.46514 40.96912 36.71713
#
# Velocity S-wave (km/s) = 3.88949 4.36930 4.13636
# Velocity P-wave (km/s) = 6.34884 7.04409 6.70548
#
# Compressibility (1/GPa) = 0.02314060
#
# Stress axis : x y z
#
# Youngs Moduli (GPa) = 124.78293 87.29214 86.23198
#
# Poissons Ratio (x) = 0.32384 0.09546
# Poissons Ratio (y) = 0.46292 -0.07364
# Poissons Ratio (z) = 0.13814 -0.07454
#
# Static dielectric constant tensor:
#      x y z
#    x 1.848190 0.000000 0.025940 
#    y 0.000000 1.714290 0.000000 
#    z 0.025940 0.000000 1.922130 
# 
# From -- ./inp_files/191547.got.cif
#   From: 2010.05.17/outbox.cif.g08.bks.cpg/sg12_96_cif.got.tgz:191547.got - 2010.06.03 13:09:07.
