data_PCOD9177944
_publ_section_title
;
Structure prediction by ZEFSAII (Michael W. Deem and Ramdas Pophale) SiO2 
 PCOD9177944
Probable space group: C 2/M
;
_chemical_formula_sum "Si O2"
_cell_formula_units_Z 64
_cell_length_a 28.919948
_cell_length_b 8.746347
_cell_length_c 21.334317
_cell_angle_alpha 90.000000
_cell_angle_beta 134.609568
_cell_angle_gamma 90.000000
_cell_volume 3841.734122
_symmetry_space_group_name_H-M "C 2/M"
_symmetry_group_IT_number 12
_symmetry_cell_setting 'monoclinic'
loop_
_space_group_symop_operation_xyz
x,y,z
-x,y,-z
-x,-y,-z
x,-y,z
1/2+x,1/2+y,z
1/2-x,1/2+y,-z
1/2-x,1/2-y,-z
1/2+x,1/2-y,z
loop_
_atom_site_type_symbol
_atom_site_label
_atom_site_fract_x
_atom_site_fract_y
_atom_site_fract_z
Si Si1 0.057515 0.316571 0.600981
Si Si2 0.008302 0.823962 0.679221
Si Si3 0.042516 0.816978 0.098585
Si Si4 0.184477 0.317774 0.256348
Si Si5 0.147702 0.824125 0.489369
Si Si6 0.186051 0.319110 0.655120
Si Si7 0.971474 0.816231 0.775356
Si Si8 0.330873 0.819679 0.618340
O O1 0.057942 0.500000 0.595661
O O2 0.041410 0.272645 0.656577
O O3 0.127799 0.261901 0.644124
O O4 0.000000 0.258552 0.500000
O O5 0.930061 0.816445 0.595543
O O6 0.018537 0.781201 0.761922
O O7 0.027791 0.000000 0.689111
O O8 0.114928 0.749248 0.170750
O O9 0.008760 0.788958 0.134099
O O10 0.049277 0.000000 0.098754
O O11 0.000000 0.759469 0.000000
O O12 0.180555 0.500000 0.251869
O O13 0.244237 0.259818 0.271955
O O14 0.198870 0.272242 0.342948
O O15 0.162723 0.718107 0.562387
O O16 0.182085 0.773283 0.457560
O O17 0.165023 0.000000 0.520372
O O18 0.193690 0.500000 0.670400
O O19 0.907129 0.716031 0.703682
O O20 0.955454 0.000000 0.754512
O O21 0.320707 0.000000 0.598251
#
# Coordination Sequence:
#
# PCOD9177944 Si02
#       8
#     8   8   8   8   8   8   8   8
#     4  10  20  33  47  66  91 122 165 213 251 283
#     4   9  17  28  45  67  93 126 160 200 242 280
#     4   9  17  32  56  81 104 130 157 187 229 287
#     4  10  21  35  49  69  98 128 158 197 239 285
#     4  10  19  30  45  66  91 123 163 203 241 281
#     4  11  22  34  48  65  90 126 165 205 246 287
#     4   8  15  28  45  71 101 125 155 192 232 280
#     4   9  17  29  45  64  89 124 162 195 233 277
#
# _framework density 16.659144000000001
#
# number of rings (size 3 to 8) (size 9 to 14) (size 15 to 20)
#    0.000    2.500    1.250    2.250    0.000    5.500 
#    0.000    0.000    0.000    0.000    0.000    0.875 
#    0.000    0.000    0.000    0.000    0.000    0.000 
#
# Total GULP energy -178359.141702 kJ/mol
# GULP energy per Si atom -5573.723178 kJ/mol
# Density = 1.662123 g / cm^3
# Si number density = 16.659144 Si / 1000 Ang^3
#
#
#
# Elastic Constant Matrix: (Units=GPa)
#
#
# Indices 1 2 3 4 5 6 
#
# 1 129.7997 20.7123 39.6264 0.0000 -5.0435 0.0000
# 2 20.7123 14.3298 10.4736 0.0000 1.0664 0.0000
# 3 39.6264 10.4736 80.5046 0.0000 -9.6459 0.0000
# 4 0.0000 0.0000 0.0000 16.2922 0.0000 -1.2487
# 5 -5.0435 1.0664 -9.6459 0.0000 15.8438 0.0000
# 6 0.0000 0.0000 0.0000 -1.2487 0.0000 24.0438
#
#
#
# Elastic Compliance Matrix: (Units=1/GPa)
#
#
# Indices 1 2 3 4 5 6 
#
# 1 0.010993 -0.013613 -0.003356 0.000000 0.002373 0.000000
# 2 -0.013613 0.096221 -0.007672 0.000000 -0.015481 0.000000
# 3 -0.003356 -0.007672 0.016186 0.000000 0.009303 0.000000
# 4 0.000000 0.000000 0.000000 0.061624 0.000000 0.003201
# 5 0.002373 -0.015481 0.009303 0.000000 0.070577 0.000000
# 6 0.000000 0.000000 0.000000 0.003201 0.000000 0.041757
#
#
# Mechanical properties :
#
#
# Convention : Reuss Voigt Hill
#
# Bulk Modulus (GPa) = 13.49206 40.69542 27.09374
# Shear Modulus (GPa) = 13.46446 21.49072 17.47759
#
# Velocity S-wave (km/s) = 2.84603 3.59559 3.24254
# Velocity P-wave (km/s) = 4.34929 6.45902 5.50615
#
# Compressibility (1/GPa) = 0.07411768
#
# Stress axis : x y z
#
# Youngs Moduli (GPa) = 90.96579 10.39272 61.78093
#
# Poissons Ratio (x) = 0.14148 0.20732
# Poissons Ratio (y) = 1.23835 0.47400
# Poissons Ratio (z) = 0.30526 0.07974
#
# Static dielectric constant tensor:
#      x y z
#    x 1.588740 0.000000 -0.004150 
#    y 0.000000 1.559430 0.000000 
#    z -0.004150 0.000000 1.569740 
# 
# From -- ./inp_files/326880.got.cif
#   From: 2010.05.17/outbox.cif.g08.bks.cpg/sg12_164_cif.got.tgz:326880.got - 2010.06.03 13:09:07.
