data_PCOD9177518
_publ_section_title
;
Structure prediction by ZEFSAII (Michael W. Deem and Ramdas Pophale) SiO2 
 PCOD9177518
Probable space group: C 2/M
;
_chemical_formula_sum "Si O2"
_cell_formula_units_Z 56
_cell_length_a 15.543723
_cell_length_b 7.574219
_cell_length_c 19.303387
_cell_angle_alpha 90.000000
_cell_angle_beta 119.450883
_cell_angle_gamma 90.000000
_cell_volume 1978.944555
_symmetry_space_group_name_H-M "C 2/M"
_symmetry_group_IT_number 12
_symmetry_cell_setting 'monoclinic'
loop_
_space_group_symop_operation_xyz
x,y,z
-x,y,-z
-x,-y,-z
x,-y,z
1/2+x,1/2+y,z
1/2-x,1/2+y,-z
1/2-x,1/2-y,-z
1/2+x,1/2-y,z
loop_
_atom_site_type_symbol
_atom_site_label
_atom_site_fract_x
_atom_site_fract_y
_atom_site_fract_z
Si Si1 0.045893 0.291121 0.446221
Si Si2 0.629314 0.714049 0.984365
Si Si3 0.156052 0.794760 0.846241
Si Si4 0.103186 0.212175 0.124805
Si Si5 0.241985 0.213708 0.590183
Si Si6 0.569276 0.204908 0.261695
Si Si7 0.147025 0.206975 0.695300
O O1 0.032163 0.500000 0.438997
O O2 0.163420 0.263728 0.499628
O O3 0.000000 0.216623 0.500000
O O4 0.971642 0.220112 0.359189
O O5 0.633988 0.500000 0.984436
O O6 0.674400 0.786868 0.929866
O O7 0.512640 0.758731 0.932052
O O8 0.656029 0.770000 0.073713
O O9 0.035024 0.795961 0.792535
O O10 0.181907 0.711439 0.781785
O O11 0.182834 0.000000 0.858931
O O12 0.126095 0.287294 0.209604
O O13 0.109100 0.000000 0.130564
O O14 0.353760 0.273153 0.650309
O O15 0.188462 0.280260 0.639963
O O16 0.244884 0.000000 0.591006
O O17 0.548287 0.000000 0.268844
O O18 0.171087 0.000000 0.707000
#
# Coordination Sequence:
#
# PCOD9177518 Si02
#       7
#     8   8   8   8   8   8   8
#     4   9  17  29  47  70  91 112 143 184 223 258
#     4   7  11  22  41  63  84 109 146 186 215 247
#     4   9  17  30  48  68  89 115 149 185 220 259
#     4   8  13  24  42  61  84 115 150 184 214 251
#     4   9  18  32  48  66  89 118 150 180 214 261
#     4  10  19  29  43  66  95 120 143 179 224 264
#     4   9  17  31  51  69  86 114 150 184 217 258
#
# _framework density 28.297912
#
# number of rings (size 3 to 8) (size 9 to 14) (size 15 to 20)
#    0.000    3.286    0.000    2.571    0.000    3.429 
#    0.000    6.429    0.000    0.857    0.000    0.000 
#    0.000    0.000    0.000    0.000    0.000    0.857 
#
# Total GULP energy -156608.690072 kJ/mol
# GULP energy per Si atom -5593.167503 kJ/mol
# Density = 2.823350 g / cm^3
# Si number density = 28.297912 Si / 1000 Ang^3
#
#
#
# Elastic Constant Matrix: (Units=GPa)
#
#
# Indices 1 2 3 4 5 6 
#
# 1 58.7065 8.4531 -14.1756 0.0000 0.4427 0.0000
# 2 8.4531 94.7567 3.9990 0.0000 10.0112 0.0000
# 3 -14.1756 3.9990 241.9997 0.0000 11.9470 0.0000
# 4 0.0000 0.0000 0.0000 22.1654 0.0000 18.9758
# 5 0.4427 10.0112 11.9470 0.0000 52.4478 0.0000
# 6 0.0000 0.0000 0.0000 18.9758 0.0000 19.3960
#
#
#
# Elastic Compliance Matrix: (Units=1/GPa)
#
#
# Indices 1 2 3 4 5 6 
#
# 1 0.017520 -0.001599 0.001057 0.000000 -0.000083 0.000000
# 2 -0.001599 0.010918 -0.000174 0.000000 -0.002031 0.000000
# 3 0.001057 -0.000174 0.004244 0.000000 -0.000942 0.000000
# 4 0.000000 0.000000 0.000000 0.277731 0.000000 -0.271715
# 5 -0.000083 -0.002031 -0.000942 0.000000 0.019670 0.000000
# 6 0.000000 0.000000 0.000000 -0.271715 0.000000 0.317386
#
#
# Mechanical properties :
#
#
# Convention : Reuss Voigt Hill
#
# Bulk Modulus (GPa) = 32.00014 43.55733 37.77874
# Shear Modulus (GPa) = 7.58362 45.28092 26.43227
#
# Velocity S-wave (km/s) = 1.63882 4.00453 3.05957
# Velocity P-wave (km/s) = 3.86184 6.06692 5.08534
#
# Compressibility (1/GPa) = 0.03124986
#
# Stress axis : x y z
#
# Youngs Moduli (GPa) = 57.07801 91.59304 235.65254
#
# Poissons Ratio (x) = 0.14643 -0.24904
# Poissons Ratio (y) = 0.09125 0.04096
# Poissons Ratio (z) = -0.06032 0.01592
#
# Static dielectric constant tensor:
#      x y z
#    x 2.404380 0.000000 -0.035720 
#    y 0.000000 1.974110 0.000000 
#    z -0.035720 0.000000 2.248500 
# 
# From -- ./inp_files/287382.got.cif
#   From: 2010.05.17/outbox.cif.g08.bks.cpg/sg12_144_cif.got.tgz:287382.got - 2010.06.03 13:09:07.
