data_PCOD9177577
_publ_section_title
;
Structure prediction by ZEFSAII (Michael W. Deem and Ramdas Pophale) SiO2 
 PCOD9177577
Probable space group: C 2/M
;
_chemical_formula_sum "Si O2"
_cell_formula_units_Z 36
_cell_length_a 14.668702
_cell_length_b 23.051360
_cell_length_c 10.206322
_cell_angle_alpha 90.000000
_cell_angle_beta 155.378952
_cell_angle_gamma 90.000000
_cell_volume 1437.779133
_symmetry_space_group_name_H-M "C 2/M"
_symmetry_group_IT_number 12
_symmetry_cell_setting 'monoclinic'
loop_
_space_group_symop_operation_xyz
x,y,z
-x,y,-z
-x,-y,-z
x,-y,z
1/2+x,1/2+y,z
1/2-x,1/2+y,-z
1/2-x,1/2-y,-z
1/2+x,1/2-y,z
loop_
_atom_site_type_symbol
_atom_site_label
_atom_site_fract_x
_atom_site_fract_y
_atom_site_fract_z
Si Si1 0.000000 0.099977 0.000000
Si Si2 0.390136 0.710894 0.584051
Si Si3 0.485138 0.000000 0.238620
Si Si4 0.897761 0.624541 0.691352
Si Si5 0.621817 0.817259 0.770069
Si Si6 0.184962 0.000000 0.079771
O O1 0.791083 0.132302 0.668656
O O2 0.945121 0.057624 0.051047
O O3 0.250000 0.750000 0.500000
O O4 0.224285 0.656592 0.347533
O O5 0.479379 0.758093 0.597615
O O6 0.627140 0.689165 0.942087
O O7 0.537559 0.942718 0.223573
O O8 0.258404 0.000000 0.024599
O O9 0.639058 0.000000 0.570110
O O10 0.102606 0.656134 0.889792
O O11 0.500000 0.854545 0.500000
#
# Coordination Sequence:
#
# PCOD9177577 Si02
#       6
#     4   8   4   8   8   4
#     4   9  16  26  42  64  94 134 164 191 234 278
#     4   9  20  36  48  70 101 126 169 210 239 291
#     4   9  18  26  40  65  97 131 162 190 236 290
#     4  10  19  29  44  68  98 131 161 197 240 286
#     4  10  20  33  53  72  95 132 167 206 249 285
#     4   8  16  26  36  61  99 129 165 191 214 290
#
# _framework density 25.038616999999999
#
# number of rings (size 3 to 8) (size 9 to 14) (size 15 to 20)
#    0.000    2.667    0.000    2.000    9.333    2.667 
#    0.000    0.000    0.000    0.000    0.000    0.778 
#    0.000   16.000    0.000    0.444    0.000    0.000 
#
# Total GULP energy -100243.869581 kJ/mol
# GULP energy per Si atom -5569.103866 kJ/mol
# Density = 2.498163 g / cm^3
# Si number density = 25.038617 Si / 1000 Ang^3
#
#
#
# Elastic Constant Matrix: (Units=GPa)
#
#
# Indices 1 2 3 4 5 6 
#
# 1 120.1885 53.8108 49.0536 0.0000 35.2250 0.0000
# 2 53.8108 153.1730 8.7383 0.0000 28.0940 0.0000
# 3 49.0536 8.7383 71.8479 0.0000 37.8084 0.0000
# 4 0.0000 0.0000 0.0000 22.2690 0.0000 15.2438
# 5 35.2250 28.0940 37.8084 0.0000 47.4611 0.0000
# 6 0.0000 0.0000 0.0000 15.2438 0.0000 18.1844
#
#
#
# Elastic Compliance Matrix: (Units=1/GPa)
#
#
# Indices 1 2 3 4 5 6 
#
# 1 0.013990 -0.004218 -0.008417 0.000000 -0.001181 0.000000
# 2 -0.004218 0.008843 0.005013 0.000000 -0.006097 0.000000
# 3 -0.008417 0.005013 0.029837 0.000000 -0.020489 0.000000
# 4 0.000000 0.000000 0.000000 0.105373 0.000000 -0.088333
# 5 -0.001181 -0.006097 -0.020489 0.000000 0.041878 0.000000
# 6 0.000000 0.000000 0.000000 -0.088333 0.000000 0.129042
#
#
# Mechanical properties :
#
#
# Convention : Reuss Voigt Hill
#
# Bulk Modulus (GPa) = 26.71961 63.15721 44.93841
# Shear Modulus (GPa) = 14.01807 33.15666 23.58737
#
# Velocity S-wave (km/s) = 2.36870 3.64293 3.07260
# Velocity P-wave (km/s) = 4.26327 6.55540 5.52941
#
# Compressibility (1/GPa) = 0.03742569
#
# Stress axis : x y z
#
# Youngs Moduli (GPa) = 71.47775 113.08765 33.51509
#
# Poissons Ratio (x) = 0.47701 0.28210
# Poissons Ratio (y) = 0.30150 -0.16800
# Poissons Ratio (z) = 0.60164 -0.56689
#
# Static dielectric constant tensor:
#      x y z
#    x 2.048020 0.000000 0.041690 
#    y 0.000000 2.096260 0.000000 
#    z 0.041690 0.000000 2.038550 
# 
# From -- ./inp_files/148768.got.cif
#   From: 2010.05.17/outbox.cif.g08.bks.cpg/sg12_75_cif.got.tgz:148768.got - 2010.06.03 13:09:07.
