data_PCOD9177157
_publ_section_title
;
Structure prediction by ZEFSAII (Michael W. Deem and Ramdas Pophale) SiO2 
 PCOD9177157
Probable space group: C 2/M
;
_chemical_formula_sum "Si O2"
_cell_formula_units_Z 44
_cell_length_a 10.705677
_cell_length_b 26.151025
_cell_length_c 11.880281
_cell_angle_alpha 90.000000
_cell_angle_beta 37.926105
_cell_angle_gamma 90.000000
_cell_volume 2044.342588
_symmetry_space_group_name_H-M "C 2/M"
_symmetry_group_IT_number 12
_symmetry_cell_setting 'monoclinic'
loop_
_space_group_symop_operation_xyz
x,y,z
-x,y,-z
-x,-y,-z
x,-y,z
1/2+x,1/2+y,z
1/2-x,1/2+y,-z
1/2-x,1/2-y,-z
1/2+x,1/2-y,z
loop_
_atom_site_type_symbol
_atom_site_label
_atom_site_fract_x
_atom_site_fract_y
_atom_site_fract_z
Si Si1 0.759921 0.500000 0.216952
Si Si2 0.218796 0.601079 0.905676
Si Si3 0.252569 0.000000 0.483762
Si Si4 0.096940 0.582783 0.244632
Si Si5 0.171738 0.000000 0.786254
Si Si6 0.508614 0.691837 0.631076
Si Si7 0.972821 0.306164 0.385796
O O1 0.679357 0.553844 0.231099
O O2 0.712573 0.500000 0.381172
O O3 0.000000 0.500000 0.000000
O O4 0.360406 0.650449 0.792381
O O5 0.185163 0.579476 0.055516
O O6 0.000000 0.611595 0.000000
O O7 0.385856 0.947781 0.397190
O O8 0.124209 0.000000 0.689357
O O9 0.211748 0.551914 0.261035
O O10 0.087523 0.643022 0.268143
O O11 0.000000 0.000000 0.000000
O O12 0.500000 0.686673 0.500000
O O13 0.741128 0.686498 0.507946
O O14 0.451957 0.750174 0.705627
O O15 0.000000 0.304482 0.500000
#
# Coordination Sequence:
#
# PCOD9177157 Si02
#       7
#     4   8   4   8   4   8   8
#     4  10  18  38  64  98 135 175 214 273 349 419
#     4  11  21  39  65  98 141 171 221 287 343 414
#     4  11  20  39  68  88 129 182 214 266 350 404
#     4  11  21  39  66  90 128 179 223 276 339 409
#     4  11  26  43  59  96 134 173 229 281 334 410
#     4  10  23  42  65  97 134 176 232 289 339 406
#     4  10  22  43  66  91 131 183 235 281 341 402
#
# _framework density 21.522811999999998
#
# number of rings (size 3 to 8) (size 9 to 14) (size 15 to 20)
#    0.000    1.455    3.636    3.818    0.000    3.636 
#    0.000    3.182    0.000    0.000    0.000    0.000 
#    0.000    0.000    0.000    0.000    0.000    0.000 
#
# Total GULP energy -122703.563965 kJ/mol
# GULP energy per Si atom -5577.434726 kJ/mol
# Density = 2.147382 g / cm^3
# Si number density = 21.522812 Si / 1000 Ang^3
#
#
#
# Elastic Constant Matrix: (Units=GPa)
#
#
# Indices 1 2 3 4 5 6 
#
# 1 124.3898 39.4521 48.0795 0.0000 14.0721 0.0000
# 2 39.4521 162.0375 46.3471 0.0000 5.2169 0.0000
# 3 48.0795 46.3471 100.0760 0.0000 30.7662 0.0000
# 4 0.0000 0.0000 0.0000 51.5969 0.0000 15.2925
# 5 14.0721 5.2169 30.7662 0.0000 32.4976 0.0000
# 6 0.0000 0.0000 0.0000 15.2925 0.0000 72.9300
#
#
#
# Elastic Compliance Matrix: (Units=1/GPa)
#
#
# Indices 1 2 3 4 5 6 
#
# 1 0.010082 -0.001244 -0.004213 0.000000 -0.000177 0.000000
# 2 -0.001244 0.007451 -0.003739 0.000000 0.002883 0.000000
# 3 -0.004213 -0.003739 0.018341 0.000000 -0.014939 0.000000
# 4 0.000000 0.000000 0.000000 0.020665 0.000000 -0.004333
# 5 -0.000177 0.002883 -0.014939 0.000000 0.044529 0.000000
# 6 0.000000 0.000000 0.000000 -0.004333 0.000000 0.014620
#
#
# Mechanical properties :
#
#
# Convention : Reuss Voigt Hill
#
# Bulk Modulus (GPa) = 57.20338 72.69562 64.94950
# Shear Modulus (GPa) = 35.73751 48.24653 41.99202
#
# Velocity S-wave (km/s) = 4.07928 4.73974 4.42186
# Velocity P-wave (km/s) = 6.98735 7.98767 7.50420
#
# Compressibility (1/GPa) = 0.01748148
#
# Stress axis : x y z
#
# Youngs Moduli (GPa) = 99.18298 134.21002 54.52268
#
# Poissons Ratio (x) = 0.16696 0.22972
# Poissons Ratio (y) = 0.12338 0.20387
# Poissons Ratio (z) = 0.41788 0.50184
#
# Static dielectric constant tensor:
#      x y z
#    x 2.176850 0.000000 -0.193850 
#    y 0.000000 1.781650 0.000000 
#    z -0.193850 0.000000 1.913880 
# 
# From -- ./inp_files/135811.got.cif
#   From: 2010.05.17/outbox.cif.g08.bks.cpg/sg12_68_cif.got.tgz:135811.got - 2010.06.03 13:09:07.
