data_PCOD9177035
_publ_section_title
;
Structure prediction by ZEFSAII (Michael W. Deem and Ramdas Pophale) SiO2 
 PCOD9177035
Probable space group: C 2/M
;
_chemical_formula_sum "Si O2"
_cell_formula_units_Z 56
_cell_length_a 19.511482
_cell_length_b 18.462800
_cell_length_c 15.984187
_cell_angle_alpha 90.000000
_cell_angle_beta 28.695285
_cell_angle_gamma 90.000000
_cell_volume 2764.754004
_symmetry_space_group_name_H-M "C 2/M"
_symmetry_group_IT_number 12
_symmetry_cell_setting 'monoclinic'
loop_
_space_group_symop_operation_xyz
x,y,z
-x,y,-z
-x,-y,-z
x,-y,z
1/2+x,1/2+y,z
1/2-x,1/2+y,-z
1/2-x,1/2-y,-z
1/2+x,1/2-y,z
loop_
_atom_site_type_symbol
_atom_site_label
_atom_site_fract_x
_atom_site_fract_y
_atom_site_fract_z
Si Si1 0.032991 0.826196 0.650639
Si Si2 0.979390 0.662197 0.731517
Si Si3 0.778946 0.666020 0.102504
Si Si4 0.012400 0.083269 0.840415
Si Si5 0.844001 0.918572 0.622303
Si Si6 0.816999 0.418368 0.598001
Si Si7 0.759062 0.329507 0.814476
O O1 0.139698 0.860121 0.468543
O O2 0.052000 0.741315 0.647617
O O3 0.871262 0.834691 0.787830
O O4 0.042621 0.871953 0.724360
O O5 0.855441 0.660954 0.793781
O O6 0.090050 0.602130 0.582575
O O7 0.904968 0.654850 0.901141
O O8 0.765802 0.607042 0.189350
O O9 0.784172 0.745347 0.139339
O O10 0.152422 0.084108 0.747275
O O11 0.977376 0.000000 0.857728
O O12 0.879656 0.121120 0.026743
O O13 0.000000 0.919160 0.500000
O O14 0.816027 0.000000 0.621778
O O15 0.850892 0.500000 0.590803
O O16 0.838440 0.358584 0.647129
#
# Coordination Sequence:
#
# PCOD9177035 Si02
#       7
#     8   8   8   8   8   8   8
#     4  10  18  37  59  87 112 148 201 243 286 339
#     4  11  21  38  61  86 117 151 190 242 296 348
#     4  10  19  36  59  88 116 146 194 245 294 340
#     4  11  22  38  61  85 119 158 196 243 286 343
#     4   9  18  30  51  84 116 145 185 239 290 338
#     4  11  26  40  55  88 125 157 194 238 291 350
#     4  11  20  40  61  84 114 153 201 243 286 341
#
# _framework density 20.254967000000001
#
# number of rings (size 3 to 8) (size 9 to 14) (size 15 to 20)
#    0.000    1.571    2.857    3.429    0.000    6.857 
#    0.000    0.000    0.000    0.000    0.000    3.000 
#    0.000    0.000    0.000    0.000    0.000    0.000 
#
# Total GULP energy -156446.682701 kJ/mol
# GULP energy per Si atom -5587.381525 kJ/mol
# Density = 2.020887 g / cm^3
# Si number density = 20.254967 Si / 1000 Ang^3
#
#
#
# Elastic Constant Matrix: (Units=GPa)
#
#
# Indices 1 2 3 4 5 6 
#
# 1 25.4491 27.5273 29.2221 0.0001 12.4448 0.0000
# 2 27.5273 84.2656 60.1367 0.0001 9.6453 -0.0011
# 3 29.2221 60.1367 105.9733 0.0015 30.5162 -0.0025
# 4 0.0001 0.0001 0.0015 30.4557 -0.0008 -3.3384
# 5 12.4448 9.6453 30.5162 -0.0008 33.9714 0.0009
# 6 0.0000 -0.0011 -0.0025 -3.3384 0.0009 4.6483
#
#
#
# Elastic Compliance Matrix: (Units=1/GPa)
#
#
# Indices 1 2 3 4 5 6 
#
# 1 0.073277 -0.018659 -0.004604 -0.000001 -0.017410 -0.000005
# 2 -0.018659 0.025671 -0.012534 0.000001 0.010806 -0.000003
# 3 -0.004604 -0.012534 0.021998 0.000000 -0.014516 0.000012
# 4 -0.000001 0.000001 0.000000 0.035640 0.000000 0.025597
# 5 -0.017410 0.010806 -0.014516 0.000000 0.045786 -0.000014
# 6 -0.000005 -0.000003 0.000012 0.025597 -0.000014 0.233514
#
#
# Mechanical properties :
#
#
# Convention : Reuss Voigt Hill
#
# Bulk Modulus (GPa) = 20.26251 49.94003 35.10127
# Shear Modulus (GPa) = 9.54323 20.40188 14.97255
#
# Velocity S-wave (km/s) = 2.17297 3.17717 2.72178
# Velocity P-wave (km/s) = 4.03994 6.17806 5.21965
#
# Compressibility (1/GPa) = 0.04935224
#
# Stress axis : x y z
#
# Youngs Moduli (GPa) = 13.64676 38.95518 45.45777
#
# Poissons Ratio (x) = 0.72687 0.20931
# Poissons Ratio (y) = 0.25464 0.56975
# Poissons Ratio (z) = 0.06284 0.48825
#
# Static dielectric constant tensor:
#      x y z
#    x 1.706890 0.000000 0.006510 
#    y 0.000000 1.700940 0.000000 
#    z 0.006510 0.000000 1.734310 
# 
# From -- ./inp_files/75855.got.cif
#   From: 2010.05.17/outbox.cif.g08.bks.cpg/sg12_38_cif.got.tgz:75855.got - 2010.06.03 13:09:07.
