data_PCOD9177399
_publ_section_title
;
Structure prediction by ZEFSAII (Michael W. Deem and Ramdas Pophale) SiO2 
 PCOD9177399
Probable space group: C 2/M
;
_chemical_formula_sum "Si O2"
_cell_formula_units_Z 48
_cell_length_a 18.270508
_cell_length_b 30.850060
_cell_length_c 6.105862
_cell_angle_alpha 90.000000
_cell_angle_beta 102.873237
_cell_angle_gamma 90.000000
_cell_volume 3355.044331
_symmetry_space_group_name_H-M "C 2/M"
_symmetry_group_IT_number 12
_symmetry_cell_setting 'monoclinic'
loop_
_space_group_symop_operation_xyz
x,y,z
-x,y,-z
-x,-y,-z
x,-y,z
1/2+x,1/2+y,z
1/2-x,1/2+y,-z
1/2-x,1/2-y,-z
1/2+x,1/2-y,z
loop_
_atom_site_type_symbol
_atom_site_label
_atom_site_fract_x
_atom_site_fract_y
_atom_site_fract_z
Si Si1 0.883223 0.372259 0.755482
Si Si2 0.281938 0.184906 0.404333
Si Si3 0.918328 0.548516 0.062510
Si Si4 0.112841 0.704280 0.908561
Si Si5 0.863610 0.233422 0.692698
Si Si6 0.500000 0.091439 0.500000
Si Si7 0.500000 0.244518 0.500000
O O1 0.813826 0.355925 0.560328
O O2 0.952181 0.381009 0.638839
O O3 0.873025 0.415124 0.897573
O O4 0.904577 0.333405 0.932333
O O5 0.315071 0.188216 0.181452
O O6 0.193225 0.193225 0.350460
O O7 0.320602 0.226466 0.547068
O O8 0.886451 0.500000 0.035991
O O9 0.939860 0.563427 0.321835
O O10 0.000000 0.547068 0.000000
O O11 0.047605 0.714414 0.694351
O O12 0.124789 0.748356 0.054598
O O13 0.940801 0.228951 0.609424
#
# Coordination Sequence:
#
# PCOD9177399 Si02
#       7
#     8   8   8   8   8   4   4
#     4  10  20  29  41  60  79 104 137 174 207 238
#     4   9  18  30  42  57  78 105 136 169 205 242
#     4   9  18  30  42  57  78 105 136 169 205 242
#     4  10  19  29  41  58  80 106 138 172 205 238
#     4   9  18  30  42  57  78 105 136 169 205 242
#     4  10  19  29  41  58  80 106 138 172 205 238
#     4  10  20  29  41  60  79 104 137 174 207 238
#
# _framework density 14.306815
#
# number of rings (size 3 to 8) (size 9 to 14) (size 15 to 20)
#    0.000    2.500    0.000    2.250    0.000   22.000 
#    0.000    0.000    0.000    0.000    0.000    0.000 
#    0.000    0.000    0.000    0.750    0.000   11.000 
#
# Total GULP energy -133730.878630 kJ/mol
# GULP energy per Si atom -5572.119943 kJ/mol
# Density = 1.427425 g / cm^3
# Si number density = 14.306815 Si / 1000 Ang^3
#
#
#
# Elastic Constant Matrix: (Units=GPa)
#
#
# Indices 1 2 3 4 5 6 
#
# 1 78.7848 34.5771 34.0115 0.0000 -2.8084 0.0000
# 2 34.5771 72.7987 38.9774 0.0000 7.2053 0.0000
# 3 34.0115 38.9774 85.1214 0.0000 -7.8605 0.0000
# 4 0.0000 0.0000 0.0000 18.5714 0.0000 6.7790
# 5 -2.8084 7.2053 -7.8605 0.0000 13.7310 0.0000
# 6 0.0000 0.0000 0.0000 6.7790 0.0000 12.8497
#
#
#
# Elastic Compliance Matrix: (Units=1/GPa)
#
#
# Indices 1 2 3 4 5 6 
#
# 1 0.017374 -0.007077 -0.003199 0.000000 0.005436 0.000000
# 2 -0.007077 0.024634 -0.010326 0.000000 -0.020285 0.000000
# 3 -0.003199 -0.010326 0.019210 0.000000 0.015761 0.000000
# 4 0.000000 0.000000 0.000000 0.066689 0.000000 -0.035183
# 5 0.005436 -0.020285 0.015761 0.000000 0.093606 0.000000
# 6 0.000000 0.000000 0.000000 -0.035183 0.000000 0.096384
#
#
# Mechanical properties :
#
#
# Convention : Reuss Voigt Hill
#
# Bulk Modulus (GPa) = 49.96564 50.20412 50.08488
# Shear Modulus (GPa) = 13.66973 17.63969 15.65471
#
# Velocity S-wave (km/s) = 3.09442 3.51516 3.31148
# Velocity P-wave (km/s) = 6.91140 7.18626 7.05017
#
# Compressibility (1/GPa) = 0.02001375
#
# Stress axis : x y z
#
# Youngs Moduli (GPa) = 57.55835 40.59433 52.05674
#
# Poissons Ratio (x) = 0.28728 0.16655
# Poissons Ratio (y) = 0.40734 0.53751
# Poissons Ratio (z) = 0.18415 0.41916
#
# Static dielectric constant tensor:
#      x y z
#    x 1.486480 0.000000 -0.019930 
#    y 0.000000 1.480610 0.000000 
#    z -0.019930 0.000000 1.548270 
# 
# From -- ./inp_files/18017.got.cif
#   From: 2010.05.17/outbox.cif.g08.bks.cpg/sg12_10_cif.got.tgz:18017.got - 2010.06.03 13:09:07.
