data_PCOD9177050
_publ_section_title
;
Structure prediction by ZEFSAII (Michael W. Deem and Ramdas Pophale) SiO2 
 PCOD9177050
Probable space group: C 2/M
;
_chemical_formula_sum "Si O2"
_cell_formula_units_Z 48
_cell_length_a 19.688384
_cell_length_b 10.896320
_cell_length_c 13.259207
_cell_angle_alpha 90.000000
_cell_angle_beta 105.398216
_cell_angle_gamma 90.000000
_cell_volume 2742.402575
_symmetry_space_group_name_H-M "C 2/M"
_symmetry_group_IT_number 12
_symmetry_cell_setting 'monoclinic'
loop_
_space_group_symop_operation_xyz
x,y,z
-x,y,-z
-x,-y,-z
x,-y,z
1/2+x,1/2+y,z
1/2-x,1/2+y,-z
1/2-x,1/2-y,-z
1/2+x,1/2-y,z
loop_
_atom_site_type_symbol
_atom_site_label
_atom_site_fract_x
_atom_site_fract_y
_atom_site_fract_z
Si Si1 0.957529 0.757539 0.771446
Si Si2 0.195476 0.251231 0.344183
Si Si3 0.024053 0.000000 0.893984
Si Si4 0.869740 0.000000 0.230886
Si Si5 0.551628 0.000000 0.116564
Si Si6 0.288218 0.000000 0.772980
Si Si7 0.336714 0.141902 0.451896
Si Si8 0.453783 0.292967 0.388054
O O1 0.875813 0.794959 0.733798
O O2 0.963284 0.626004 0.828363
O O3 0.994277 0.872038 0.839093
O O4 0.991628 0.745146 0.674122
O O5 0.212488 0.380527 0.298338
O O6 0.263105 0.164770 0.364876
O O7 0.174087 0.278517 0.451337
O O8 0.101601 0.000000 0.872693
O O9 0.000000 0.000000 0.000000
O O10 0.902984 0.887026 0.308193
O O11 0.785502 0.000000 0.197612
O O12 0.637472 0.000000 0.136564
O O13 0.500000 0.000000 0.000000
O O14 0.402883 0.190693 0.415431
O O15 0.345239 0.000000 0.481704
O O16 0.500000 0.345189 0.500000
#
# Coordination Sequence:
#
# PCOD9177050 Si02
#       8
#     8   8   4   4   4   4   8   8
#     4  10  22  37  62  86 110 153 191 235 292 344
#     4  10  20  36  51  82 114 154 194 225 272 338
#     4  10  22  41  65  84 109 141 190 254 298 341
#     4  10  21  38  58  86 112 151 190 226 294 343
#     4  10  22  40  65  85 108 145 199 246 294 340
#     4  10  18  37  61  78 114 144 188 237 282 343
#     4  11  22  32  52  78 121 162 192 226 273 326
#     4  11  21  35  54  84 122 152 188 229 273 341
#
# _framework density 17.502901000000001
#
# number of rings (size 3 to 8) (size 9 to 14) (size 15 to 20)
#    0.000    1.667    4.167    0.750    2.333    0.333 
#    0.000    0.000    3.667    4.000    0.000    0.000 
#    0.000    0.000    0.000    0.000    0.000    0.000 
#
# Total GULP energy -133682.031371 kJ/mol
# GULP energy per Si atom -5570.084640 kJ/mol
# Density = 1.746306 g / cm^3
# Si number density = 17.502901 Si / 1000 Ang^3
#
#
#
# Elastic Constant Matrix: (Units=GPa)
#
#
# Indices 1 2 3 4 5 6 
#
# 1 129.5510 22.4927 45.3385 0.0000 -9.5325 0.0000
# 2 22.4927 52.7006 10.9365 0.0000 -1.6404 0.0000
# 3 45.3385 10.9365 82.0662 0.0000 -9.9648 0.0000
# 4 0.0000 0.0000 0.0000 12.7161 0.0000 -5.5530
# 5 -9.5325 -1.6404 -9.9648 0.0000 25.1538 0.0000
# 6 0.0000 0.0000 0.0000 -5.5530 0.0000 24.1381
#
#
#
# Elastic Compliance Matrix: (Units=1/GPa)
#
#
# Indices 1 2 3 4 5 6 
#
# 1 0.010144 -0.003246 -0.004970 0.000000 0.001664 0.000000
# 2 -0.003246 0.020555 -0.000979 0.000000 -0.000278 0.000000
# 3 -0.004970 -0.000979 0.015574 0.000000 0.004223 0.000000
# 4 0.000000 0.000000 0.000000 0.087423 0.000000 0.020112
# 5 0.001664 -0.000278 0.004223 0.000000 0.042041 0.000000
# 6 0.000000 0.000000 0.000000 0.020112 0.000000 0.046055
#
#
# Mechanical properties :
#
#
# Convention : Reuss Voigt Hill
#
# Bulk Modulus (GPa) = 35.86481 46.87257 41.36869
# Shear Modulus (GPa) = 20.04188 24.77159 22.40673
#
# Velocity S-wave (km/s) = 3.38755 3.76611 3.58183
# Velocity P-wave (km/s) = 5.98631 6.76383 6.38691
#
# Compressibility (1/GPa) = 0.02788249
#
# Stress axis : x y z
#
# Youngs Moduli (GPa) = 98.57782 48.64915 64.20922
#
# Poissons Ratio (x) = 0.15794 0.31910
# Poissons Ratio (y) = 0.32003 0.06289
# Poissons Ratio (z) = 0.48990 0.04765
#
# Static dielectric constant tensor:
#      x y z
#    x 1.603940 0.000000 0.016790 
#    y 0.000000 1.593450 0.000000 
#    z 0.016790 0.000000 1.609760 
# 
# From -- ./inp_files/154269.got.cif
#   From: 2010.05.17/outbox.cif.g08.bks.cpg/sg12_78_cif.got.tgz:154269.got - 2010.06.03 13:09:07.
