data_PCOD9177940
_publ_section_title
;
Structure prediction by ZEFSAII (Michael W. Deem and Ramdas Pophale) SiO2 
 PCOD9177940
Probable space group: C 2/M
;
_chemical_formula_sum "Si O2"
_cell_formula_units_Z 64
_cell_length_a 28.850233
_cell_length_b 7.520955
_cell_length_c 14.953569
_cell_angle_alpha 90.000000
_cell_angle_beta 75.233224
_cell_angle_gamma 90.000000
_cell_volume 3137.478665
_symmetry_space_group_name_H-M "C 2/M"
_symmetry_group_IT_number 12
_symmetry_cell_setting 'monoclinic'
loop_
_space_group_symop_operation_xyz
x,y,z
-x,y,-z
-x,-y,-z
x,-y,z
1/2+x,1/2+y,z
1/2-x,1/2+y,-z
1/2-x,1/2-y,-z
1/2+x,1/2-y,z
loop_
_atom_site_type_symbol
_atom_site_label
_atom_site_fract_x
_atom_site_fract_y
_atom_site_fract_z
Si Si1 0.680804 0.289186 0.718195
Si Si2 0.519142 0.210333 0.894378
Si Si3 0.876350 0.216943 0.724644
Si Si4 0.054652 0.216780 0.470532
Si Si5 0.139850 0.782705 0.553001
Si Si6 0.618417 0.704263 0.901497
Si Si7 0.417781 0.286246 0.889369
Si Si8 0.707997 0.714154 0.358377
O O1 0.670736 0.500000 0.726064
O O2 0.653032 0.218125 0.644940
O O3 0.660785 0.214572 0.821587
O O4 0.737306 0.268759 0.676922
O O5 0.571512 0.292060 0.860204
O O6 0.474450 0.245452 0.852174
O O7 0.526258 0.000000 0.896349
O O8 0.500000 0.278067 0.000000
O O9 0.917439 0.268900 0.633542
O O10 0.888762 0.278720 0.817802
O O11 0.825849 0.273635 0.706942
O O12 0.876100 0.000000 0.726497
O O13 0.088899 0.271726 0.536014
O O14 0.000000 0.278726 0.500000
O O15 0.053774 0.000000 0.472039
O O16 0.181258 0.727645 0.462385
O O17 0.140068 0.000000 0.553987
O O18 0.630886 0.500000 0.915525
O O19 0.602236 0.783272 0.005246
O O20 0.414726 0.500000 0.893235
O O21 0.707092 0.500000 0.359655
#
# Coordination Sequence:
#
# PCOD9177940 Si02
#       8
#     8   8   8   8   8   8   8   8
#     4  10  19  30  45  66  90 115 145 184 227 264
#     4   9  17  29  45  65  90 118 147 180 216 255
#     4   8  15  27  44  64  85 114 150 182 214 258
#     4   8  13  22  38  63  91 113 137 175 218 256
#     4   8  15  27  43  64  89 114 142 178 219 265
#     4   9  18  30  44  65  92 118 146 181 218 260
#     4   9  16  29  48  66  87 118 151 179 213 260
#     4   9  17  31  48  65  86 113 148 187 225 265
#
# _framework density 20.398544000000001
#
# number of rings (size 3 to 8) (size 9 to 14) (size 15 to 20)
#    0.000    3.250    0.000    2.250    0.000    3.000 
#    0.000    5.000    0.000    0.000    0.000    0.000 
#    0.000    5.000    0.000    0.000    0.000    0.000 
#
# Total GULP energy -178351.710890 kJ/mol
# GULP energy per Si atom -5573.490965 kJ/mol
# Density = 2.035212 g / cm^3
# Si number density = 20.398544 Si / 1000 Ang^3
#
#
#
# Elastic Constant Matrix: (Units=GPa)
#
#
# Indices 1 2 3 4 5 6 
#
# 1 126.8578 -3.0309 76.8479 0.0000 -1.1830 0.0000
# 2 -3.0309 53.8909 4.3445 0.0000 1.5817 0.0000
# 3 76.8479 4.3445 94.0276 0.0000 13.2108 0.0000
# 4 0.0000 0.0000 0.0000 -9.7295 0.0000 -19.0747
# 5 -1.1830 1.5817 13.2108 0.0000 33.5218 0.0000
# 6 0.0000 0.0000 0.0000 -19.0747 0.0000 -3.6997
#
#
#
# Elastic Compliance Matrix: (Units=1/GPa)
#
#
# Indices 1 2 3 4 5 6 
#
# 1 0.017007 0.001970 -0.014886 0.000000 0.006374 0.000000
# 2 0.001970 0.018864 -0.002505 0.000000 0.000167 0.000000
# 3 -0.014886 -0.002505 0.024321 0.000000 -0.009992 0.000000
# 4 0.000000 0.000000 0.000000 0.011285 0.000000 -0.058181
# 5 0.006374 0.000167 -0.009992 0.000000 0.033986 0.000000
# 6 0.000000 0.000000 0.000000 -0.058181 0.000000 0.029677
#
#
# Mechanical properties :
#
#
# Convention : Reuss Voigt Hill
#
# Bulk Modulus (GPa) = 34.07237 47.89991 40.98614
# Shear Modulus (GPa) = 28.44686 17.12617 22.78652
#
# Velocity S-wave (km/s) = 3.73842 2.90069 3.34588
# Velocity P-wave (km/s) = 5.94761 5.89506 5.92139
#
# Compressibility (1/GPa) = 0.02934929
#
# Stress axis : x y z
#
# Youngs Moduli (GPa) = 58.79855 53.01155 41.11620
#
# Poissons Ratio (x) = -0.10441 0.61207
# Poissons Ratio (y) = -0.11581 0.10298
# Poissons Ratio (z) = 0.87530 0.13278
#
# Static dielectric constant tensor:
#      x y z
#    x 1.716500 0.000000 0.004410 
#    y 0.000000 1.776220 0.000000 
#    z 0.004410 0.000000 1.742800 
# 
# From -- ./inp_files/243861.got.cif
#   From: 2010.05.17/outbox.cif.g08.bks.cpg/sg12_122_cif.got.tgz:243861.got - 2010.06.03 13:09:07.
