data_PCOD9177240
_publ_section_title
;
Structure prediction by ZEFSAII (Michael W. Deem and Ramdas Pophale) SiO2 
 PCOD9177240
Probable space group: C 2/M
;
_chemical_formula_sum "Si O2"
_cell_formula_units_Z 44
_cell_length_a 9.652019
_cell_length_b 23.847017
_cell_length_c 10.679925
_cell_angle_alpha 90.000000
_cell_angle_beta 131.587873
_cell_angle_gamma 90.000000
_cell_volume 1838.596284
_symmetry_space_group_name_H-M "C 2/M"
_symmetry_group_IT_number 12
_symmetry_cell_setting 'monoclinic'
loop_
_space_group_symop_operation_xyz
x,y,z
-x,y,-z
-x,-y,-z
x,-y,z
1/2+x,1/2+y,z
1/2-x,1/2+y,-z
1/2-x,1/2-y,-z
1/2+x,1/2-y,z
loop_
_atom_site_type_symbol
_atom_site_label
_atom_site_fract_x
_atom_site_fract_y
_atom_site_fract_z
Si Si1 0.500000 0.201486 0.500000
Si Si2 0.704742 0.609730 0.356115
Si Si3 0.281545 0.385561 0.353970
Si Si4 0.895063 0.000000 0.806389
Si Si5 0.646341 0.500000 0.705728
Si Si6 0.502403 0.209957 0.215195
Si Si7 0.099788 0.831295 0.936376
O O1 0.322504 0.161762 0.379129
O O2 0.523284 0.227191 0.375246
O O3 0.773444 0.597587 0.536634
O O4 0.724037 0.555635 0.282947
O O5 0.490335 0.630262 0.224486
O O6 0.500000 0.373943 0.500000
O O7 0.248437 0.440888 0.250341
O O8 0.171636 0.327612 0.266119
O O9 0.034465 0.000000 0.769225
O O10 0.000000 0.000000 0.000000
O O11 0.500000 0.500000 0.500000
O O12 0.470213 0.267861 0.125373
O O13 0.318571 0.172707 0.082401
O O14 0.000000 0.853965 0.000000
#
# Coordination Sequence:
#
# PCOD9177240 Si02
#       7
#     4   8   8   4   4   8   8
#     4  10  22  41  64 102 130 163 234 290 316 406
#     4  11  22  42  66  94 133 177 222 280 337 403
#     4  10  20  40  72 101 129 176 227 283 330 400
#     4  12  24  39  69 102 134 185 220 273 352 405
#     4  10  18  44  67 101 139 171 224 281 335 400
#     4  10  24  42  67  99 130 184 224 274 347 400
#     4  11  23  45  63  92 143 182 216 280 346 410
#
# _framework density 23.931301000000001
#
# number of rings (size 3 to 8) (size 9 to 14) (size 15 to 20)
#    0.000    1.455    5.455    0.545    0.000    6.182 
#    3.273    1.818    0.000    1.091    0.000    0.000 
#    0.000    0.000    0.000    0.000    0.000    0.000 
#
# Total GULP energy -122956.342558 kJ/mol
# GULP energy per Si atom -5588.924662 kJ/mol
# Density = 2.387683 g / cm^3
# Si number density = 23.931301 Si / 1000 Ang^3
#
#
#
# Elastic Constant Matrix: (Units=GPa)
#
#
# Indices 1 2 3 4 5 6 
#
# 1 64.7309 12.2915 11.9044 0.0000 -3.0834 0.0000
# 2 12.2915 47.3098 6.2393 0.0000 12.6984 0.0000
# 3 11.9044 6.2393 63.8104 0.0000 -3.8108 0.0000
# 4 0.0000 0.0000 0.0000 5.1650 0.0000 -23.9230
# 5 -3.0834 12.6984 -3.8108 0.0000 52.7688 0.0000
# 6 0.0000 0.0000 0.0000 -23.9230 0.0000 10.5699
#
#
#
# Elastic Compliance Matrix: (Units=1/GPa)
#
#
# Indices 1 2 3 4 5 6 
#
# 1 0.016880 -0.004552 -0.002591 0.000000 0.001895 0.000000
# 2 -0.004552 0.024244 -0.001894 0.000000 -0.006237 0.000000
# 3 -0.002591 -0.001894 0.016429 0.000000 0.001491 0.000000
# 4 0.000000 0.000000 0.000000 -0.020416 0.000000 -0.046209
# 5 0.001895 -0.006237 0.001491 0.000000 0.020670 0.000000
# 6 0.000000 0.000000 0.000000 -0.046209 0.000000 -0.009976
#
#
# Mechanical properties :
#
#
# Convention : Reuss Voigt Hill
#
# Bulk Modulus (GPa) = 25.33010 26.30238 25.81624
# Shear Modulus (GPa) = 63.24091 23.39514 43.31802
#
# Velocity S-wave (km/s) = 5.14620 3.13004 4.25914
# Velocity P-wave (km/s) = 6.77633 4.90689 5.91592
#
# Compressibility (1/GPa) = 0.03947872
#
# Stress axis : x y z
#
# Youngs Moduli (GPa) = 59.24262 41.24770 60.86816
#
# Poissons Ratio (x) = 0.18778 0.15770
# Poissons Ratio (y) = 0.26970 0.11527
# Poissons Ratio (z) = 0.15348 0.07811
#
# Static dielectric constant tensor:
#      x y z
#    x 1.998810 0.000000 -0.026860 
#    y 0.000000 1.912120 0.000000 
#    z -0.026860 0.000000 1.953310 
# 
# From -- ./inp_files/136115.got.cif
#   From: 2010.05.17/outbox.cif.g08.bks.cpg/sg12_69_cif.got.tgz:136115.got - 2010.06.03 13:09:07.
