data_PCOD9177525
_publ_section_title
;
Structure prediction by ZEFSAII (Michael W. Deem and Ramdas Pophale) SiO2 
 PCOD9177525
Probable space group: C 2/M
;
_chemical_formula_sum "Si O2"
_cell_formula_units_Z 48
_cell_length_a 23.531843
_cell_length_b 8.987105
_cell_length_c 13.565857
_cell_angle_alpha 90.000000
_cell_angle_beta 89.627203
_cell_angle_gamma 90.000000
_cell_volume 2868.889360
_symmetry_space_group_name_H-M "C 2/M"
_symmetry_group_IT_number 12
_symmetry_cell_setting 'monoclinic'
loop_
_space_group_symop_operation_xyz
x,y,z
-x,y,-z
-x,-y,-z
x,-y,z
1/2+x,1/2+y,z
1/2-x,1/2+y,-z
1/2-x,1/2-y,-z
1/2+x,1/2-y,z
loop_
_atom_site_type_symbol
_atom_site_label
_atom_site_fract_x
_atom_site_fract_y
_atom_site_fract_z
Si Si1 0.270085 0.167205 0.903984
Si Si2 0.059116 0.322017 0.124520
Si Si3 0.750187 0.320752 0.392257
Si Si4 0.164886 0.168015 0.756973
Si Si5 0.425643 0.178568 0.099665
Si Si6 0.850525 0.823670 0.753890
O O1 0.215910 0.155417 0.834421
O O2 0.314390 0.270334 0.847984
O O3 0.292324 0.000000 0.922197
O O4 0.250000 0.250000 0.000000
O O5 0.066134 0.500000 0.129431
O O6 0.089537 0.250753 0.219124
O O7 0.991800 0.290926 0.122353
O O8 0.082854 0.274622 0.015390
O O9 0.752437 0.500000 0.395365
O O10 0.750000 0.250000 0.500000
O O11 0.804907 0.259911 0.331166
O O12 0.690988 0.278458 0.336236
O O13 0.114419 0.245149 0.818907
O O14 0.149301 0.000000 0.725072
O O15 0.417023 0.000000 0.103385
O O16 0.857155 0.000000 0.749224
#
# Coordination Sequence:
#
# PCOD9177525 Si02
#       6
#     8   8   8   8   8   8
#     4  10  19  29  43  66  97 130 162 197 239 289
#     4   9  18  32  50  72 102 140 175 205 239 284
#     4  10  21  37  56  76  98 125 159 204 256 306
#     4  10  20  32  48  72  99 129 165 203 246 295
#     4   9  18  32  49  72 103 139 175 206 239 282
#     4  10  20  32  48  72  99 127 161 201 246 294
#
# _framework density 16.731211999999999
#
# number of rings (size 3 to 8) (size 9 to 14) (size 15 to 20)
#    0.000    2.333    0.000    4.000    0.000    8.000 
#    0.000    1.667    0.000    1.000    0.000    7.000 
#    0.000    0.000    0.000    0.000    0.000    0.000 
#
# Total GULP energy -133672.021921 kJ/mol
# GULP energy per Si atom -5569.667580 kJ/mol
# Density = 1.669313 g / cm^3
# Si number density = 16.731212 Si / 1000 Ang^3
#
#
#
# Elastic Constant Matrix: (Units=GPa)
#
#
# Indices 1 2 3 4 5 6 
#
# 1 90.6865 39.1029 49.6707 0.0000 3.9228 0.0000
# 2 39.1029 51.6014 49.1784 0.0000 0.1681 0.0000
# 3 49.6707 49.1784 104.4087 0.0000 0.5283 0.0000
# 4 0.0000 0.0000 0.0000 25.8124 0.0000 0.4841
# 5 3.9228 0.1681 0.5283 0.0000 26.0785 0.0000
# 6 0.0000 0.0000 0.0000 0.4841 0.0000 28.9707
#
#
#
# Elastic Compliance Matrix: (Units=1/GPa)
#
#
# Indices 1 2 3 4 5 6 
#
# 1 0.017286 -0.009555 -0.003711 0.000000 -0.002463 0.000000
# 2 -0.009555 0.040446 -0.014513 0.000000 0.001471 0.000000
# 3 -0.003711 -0.014513 0.018177 0.000000 0.000283 0.000000
# 4 0.000000 0.000000 0.000000 0.038753 0.000000 -0.000648
# 5 -0.002463 0.001471 0.000283 0.000000 0.038701 0.000000
# 6 0.000000 0.000000 0.000000 -0.000648 0.000000 0.034528
#
#
# Mechanical properties :
#
#
# Convention : Reuss Voigt Hill
#
# Bulk Modulus (GPa) = 49.13210 58.06674 53.59942
# Shear Modulus (GPa) = 19.98138 23.42197 21.70167
#
# Velocity S-wave (km/s) = 3.45955 3.74558 3.60540
# Velocity P-wave (km/s) = 6.73701 7.31347 7.03115
#
# Compressibility (1/GPa) = 0.02035329
#
# Stress axis : x y z
#
# Youngs Moduli (GPa) = 57.85126 24.72409 55.01325
#
# Poissons Ratio (x) = 0.23623 0.20413
# Poissons Ratio (y) = 0.55274 0.79841
# Poissons Ratio (z) = 0.21466 0.35882
#
# Static dielectric constant tensor:
#      x y z
#    x 1.594860 0.000000 0.013900 
#    y 0.000000 1.584390 0.000000 
#    z 0.013900 0.000000 1.606440 
# 
# From -- ./inp_files/172071.got.cif
#   From: 2010.05.17/outbox.cif.g08.bks.cpg/sg12_87_cif.got.tgz:172071.got - 2010.06.03 13:09:07.
