data_PCOD9177001
_publ_section_title
;
Structure prediction by ZEFSAII (Michael W. Deem and Ramdas Pophale) SiO2 
 PCOD9177001
Probable space group: C 2/M
;
_chemical_formula_sum "Si O2"
_cell_formula_units_Z 50
_cell_length_a 18.113509
_cell_length_b 26.266373
_cell_length_c 5.305412
_cell_angle_alpha 90.000000
_cell_angle_beta 106.926586
_cell_angle_gamma 90.000000
_cell_volume 2414.837266
_symmetry_space_group_name_H-M "C 2/M"
_symmetry_group_IT_number 12
_symmetry_cell_setting 'monoclinic'
loop_
_space_group_symop_operation_xyz
x,y,z
-x,y,-z
-x,-y,-z
x,-y,z
1/2+x,1/2+y,z
1/2-x,1/2+y,-z
1/2-x,1/2-y,-z
1/2+x,1/2-y,z
loop_
_atom_site_type_symbol
_atom_site_label
_atom_site_fract_x
_atom_site_fract_y
_atom_site_fract_z
Si Si1 0.500000 0.000000 0.500000
Si Si2 0.815542 0.686411 0.096469
Si Si3 0.621317 0.072770 0.863158
Si Si4 0.282616 0.945376 0.546403
Si Si5 0.543245 0.691058 0.292437
Si Si6 0.524842 0.198816 0.775703
Si Si7 0.277631 0.332813 0.492484
O O1 0.542560 0.044816 0.716106
O O2 0.865330 0.633722 0.128014
O O3 0.889252 0.722692 0.146494
O O4 0.771027 0.687175 0.315227
O O5 0.758897 0.688568 0.803020
O O6 0.677007 0.056007 0.686256
O O7 0.653494 0.056912 0.168591
O O8 0.233823 0.894031 0.525596
O O9 0.241609 0.000000 0.531714
O O10 0.500000 0.672113 0.500000
O O11 0.531911 0.752179 0.278008
O O12 0.633216 0.679363 0.388434
O O13 0.500000 0.671404 0.000000
O O14 0.500000 0.170246 0.500000
O O15 0.500000 0.169264 0.000000
#
# Coordination Sequence:
#
# PCOD9177001 Si02
#       7
#     2   8   8   8   8   8   8
#     4  12  20  34  48  82 112 154 180 222 276 330
#     4  10  21  39  55  84 110 152 193 232 272 332
#     4  10  22  31  51  76 111 147 188 222 263 325
#     4  10  18  37  52  78 110 142 188 229 266 315
#     4  10  21  40  60  86 113 143 181 235 295 339
#     4  10  21  38  56  79 113 145 183 233 286 328
#     4  10  21  37  63  82 111 150 192 229 276 343
#
# _framework density 20.705331000000001
#
# number of rings (size 3 to 8) (size 9 to 14) (size 15 to 20)
#    0.000    1.920    1.600    1.920    1.120    1.280 
#    0.000   19.200    0.000    0.960    0.000    0.000 
#    0.000    0.000    0.000    0.000    0.000    0.000 
#
# Total GULP energy -139296.823036 kJ/mol
# GULP energy per Si atom -5571.872921 kJ/mol
# Density = 2.065820 g / cm^3
# Si number density = 20.705331 Si / 1000 Ang^3
#
#
#
# Elastic Constant Matrix: (Units=GPa)
#
#
# Indices 1 2 3 4 5 6 
#
# 1 121.7108 0.3638 71.0245 0.0000 11.7610 0.0000
# 2 0.3638 49.0912 -0.5380 0.0000 11.7721 0.0000
# 3 71.0245 -0.5380 169.6920 0.0000 5.1128 0.0000
# 4 0.0000 0.0000 0.0000 7.0332 0.0000 10.4428
# 5 11.7610 11.7721 5.1128 0.0000 38.9606 0.0000
# 6 0.0000 0.0000 0.0000 10.4428 0.0000 8.4671
#
#
#
# Elastic Compliance Matrix: (Units=1/GPa)
#
#
# Indices 1 2 3 4 5 6 
#
# 1 0.011176 0.000573 -0.004587 0.000000 -0.002945 0.000000
# 2 0.000573 0.022003 0.000036 0.000000 -0.006826 0.000000
# 3 -0.004587 0.000036 0.007803 0.000000 0.000350 0.000000
# 4 0.000000 0.000000 0.000000 -0.171045 0.000000 0.210958
# 5 -0.002945 -0.006826 0.000350 0.000000 0.028572 0.000000
# 6 0.000000 0.000000 0.000000 0.210958 0.000000 -0.142079
#
#
# Mechanical properties :
#
#
# Convention : Reuss Voigt Hill
#
# Bulk Modulus (GPa) = 30.28031 53.57715 41.92873
# Shear Modulus (GPa) = -22.26132 28.86842 3.30355
#
# Velocity S-wave (km/s) = -3.28250 3.73802 1.26450
# Velocity P-wave (km/s) = 0.53825 6.67552 4.73562
#
# Compressibility (1/GPa) = 0.03302476
#
# Stress axis : x y z
#
# Youngs Moduli (GPa) = 89.47860 45.44776 128.16362
#
# Poissons Ratio (x) = -0.02605 0.58790
# Poissons Ratio (y) = -0.05128 -0.00456
# Poissons Ratio (z) = 0.41045 -0.00162
#
# Static dielectric constant tensor:
#      x y z
#    x 1.807350 0.000000 -0.050860 
#    y 0.000000 1.989870 0.000000 
#    z -0.050860 0.000000 1.895990 
# 
# From -- ./inp_files/13191.got.cif
#   From: 2010.05.17/outbox.cif.g08.bks.cpg/sg12_7_cif.got.tgz:13191.got - 2010.06.03 13:09:07.
