data_PCOD9177980
_publ_section_title
;
Structure prediction by ZEFSAII (Michael W. Deem and Ramdas Pophale) SiO2 
 PCOD9177980
Probable space group: C 2/M
;
_chemical_formula_sum "Si O2"
_cell_formula_units_Z 56
_cell_length_a 15.732082
_cell_length_b 7.661947
_cell_length_c 26.606249
_cell_angle_alpha 90.000000
_cell_angle_beta 140.599446
_cell_angle_gamma 90.000000
_cell_volume 2035.651759
_symmetry_space_group_name_H-M "C 2/M"
_symmetry_group_IT_number 12
_symmetry_cell_setting 'monoclinic'
loop_
_space_group_symop_operation_xyz
x,y,z
-x,y,-z
-x,-y,-z
x,-y,z
1/2+x,1/2+y,z
1/2-x,1/2+y,-z
1/2-x,1/2-y,-z
1/2+x,1/2-y,z
loop_
_atom_site_type_symbol
_atom_site_label
_atom_site_fract_x
_atom_site_fract_y
_atom_site_fract_z
Si Si1 0.263737 0.204777 0.802255
Si Si2 0.202829 0.701593 0.668209
Si Si3 0.586570 0.788413 0.475320
Si Si4 0.567264 0.789284 0.911588
Si Si5 0.621066 0.792160 0.377852
Si Si6 0.353557 0.705740 0.946473
Si Si7 0.502842 0.798060 0.226388
O O1 0.183459 0.295189 0.720470
O O2 0.417864 0.262839 0.862107
O O3 0.250721 0.234103 0.856310
O O4 0.253438 0.000000 0.788356
O O5 0.223812 0.500000 0.663116
O O6 0.339842 0.801323 0.719587
O O7 0.064165 0.767179 0.580791
O O8 0.605591 0.721554 0.426719
O O9 0.723418 0.737120 0.564833
O O10 0.582596 0.000000 0.474010
O O11 0.570176 0.719958 0.855768
O O12 0.572705 0.000000 0.911503
O O13 0.661611 0.733492 0.000759
O O14 0.522329 0.717064 0.290509
O O15 0.599632 0.000000 0.369424
O O16 0.360741 0.500000 0.942724
O O17 0.500000 0.786786 0.000000
O O18 0.458689 0.000000 0.211163
#
# Coordination Sequence:
#
# PCOD9177980 Si02
#       7
#     8   8   8   8   8   8   8
#     4   9  16  26  40  59  86 119 153 186 221 264
#     4  10  19  30  45  67  96 123 148 185 232 276
#     4   9  19  34  50  69  92 119 151 188 230 272
#     4   8  14  24  37  56  84 115 146 181 221 263
#     4   9  18  34  53  69  88 118 156 191 223 268
#     4   9  15  22  35  57  85 117 150 181 219 266
#     4   9  18  31  47  68  93 121 153 189 227 268
#
# _framework density 27.509618
#
# number of rings (size 3 to 8) (size 9 to 14) (size 15 to 20)
#    0.000    3.000    0.000    2.143    0.000    7.429 
#    0.000    2.857    0.000    0.000    0.000    1.000 
#    0.000    0.000    0.000    0.000    0.000    0.000 
#
# Total GULP energy -156588.101146 kJ/mol
# GULP energy per Si atom -5592.432184 kJ/mol
# Density = 2.744700 g / cm^3
# Si number density = 27.509618 Si / 1000 Ang^3
#
#
#
# Elastic Constant Matrix: (Units=GPa)
#
#
# Indices 1 2 3 4 5 6 
#
# 1 92.3123 -7.9030 15.6890 0.0000 -16.0693 0.0000
# 2 -7.9030 75.6971 1.2629 0.0000 0.5755 0.0000
# 3 15.6890 1.2629 231.0073 0.0000 -0.8504 0.0000
# 4 0.0000 0.0000 0.0000 27.3756 0.0000 -3.4565
# 5 -16.0693 0.5755 -0.8504 0.0000 58.2174 0.0000
# 6 0.0000 0.0000 0.0000 -3.4565 0.0000 9.3362
#
#
#
# Elastic Compliance Matrix: (Units=1/GPa)
#
#
# Indices 1 2 3 4 5 6 
#
# 1 0.011623 0.001202 -0.000784 0.000000 0.003185 0.000000
# 2 0.001202 0.013337 -0.000154 0.000000 0.000198 0.000000
# 3 -0.000784 -0.000154 0.004382 0.000000 -0.000151 0.000000
# 4 0.000000 0.000000 0.000000 0.038320 0.000000 0.014187
# 5 0.003185 0.000198 -0.000151 0.000000 0.018052 0.000000
# 6 0.000000 0.000000 0.000000 0.014187 0.000000 0.112363
#
#
# Mechanical properties :
#
#
# Convention : Reuss Voigt Hill
#
# Bulk Modulus (GPa) = 33.47663 46.34604 39.91134
# Shear Modulus (GPa) = 24.09565 44.98371 34.53968
#
# Velocity S-wave (km/s) = 2.96277 4.04815 3.54722
# Velocity P-wave (km/s) = 4.88871 6.22365 5.59613
#
# Compressibility (1/GPa) = 0.02987158
#
# Stress axis : x y z
#
# Youngs Moduli (GPa) = 86.03305 74.97857 228.18465
#
# Poissons Ratio (x) = -0.09015 0.17896
# Poissons Ratio (y) = -0.10345 0.03510
# Poissons Ratio (z) = 0.06747 0.01153
#
# Static dielectric constant tensor:
#      x y z
#    x 2.330340 0.000000 -0.000400 
#    y 0.000000 1.972940 0.000000 
#    z -0.000400 0.000000 2.156690 
# 
# From -- ./inp_files/280159.got.cif
#   From: 2010.05.17/outbox.cif.g08.bks.cpg/sg12_141_cif.got.tgz:280159.got - 2010.06.03 13:09:07.
