data_PCOD9177390
_publ_section_title
;
Structure prediction by ZEFSAII (Michael W. Deem and Ramdas Pophale) SiO2 
 PCOD9177390
Probable space group: C 2/M
;
_chemical_formula_sum "Si O2"
_cell_formula_units_Z 64
_cell_length_a 28.095195
_cell_length_b 7.880695
_cell_length_c 17.861504
_cell_angle_alpha 90.000000
_cell_angle_beta 80.161755
_cell_angle_gamma 90.000000
_cell_volume 3896.551871
_symmetry_space_group_name_H-M "C 2/M"
_symmetry_group_IT_number 12
_symmetry_cell_setting 'monoclinic'
loop_
_space_group_symop_operation_xyz
x,y,z
-x,y,-z
-x,-y,-z
x,-y,z
1/2+x,1/2+y,z
1/2-x,1/2+y,-z
1/2-x,1/2-y,-z
1/2+x,1/2-y,z
loop_
_atom_site_type_symbol
_atom_site_label
_atom_site_fract_x
_atom_site_fract_y
_atom_site_fract_z
Si Si1 0.963785 0.295116 0.334439
Si Si2 0.132484 0.696746 0.180993
Si Si3 0.545443 0.301284 0.101232
Si Si4 0.074154 0.709199 0.333890
Si Si5 0.059864 0.201548 0.823486
Si Si6 0.892372 0.300113 0.046574
Si Si7 0.557785 0.803461 0.500325
Si Si8 0.195318 0.295471 0.031973
O O1 0.964736 0.500000 0.339165
O O2 0.938642 0.246035 0.264154
O O3 0.938412 0.229320 0.417376
O O4 0.020284 0.240063 0.320574
O O5 0.144570 0.500000 0.191609
O O6 0.085041 0.706760 0.141002
O O7 0.114588 0.769656 0.264782
O O8 0.174681 0.770842 0.117261
O O9 0.546893 0.500000 0.121397
O O10 0.492124 0.234106 0.132078
O O11 0.563721 0.283803 0.011391
O O12 0.074189 0.500000 0.334174
O O13 0.080163 0.768614 0.418023
O O14 0.100892 0.269187 0.867637
O O15 0.060065 0.000000 0.831051
O O16 0.895866 0.500000 0.031631
O O17 0.842593 0.238262 0.021951
O O18 0.500000 0.804991 0.500000
O O19 0.573698 0.000000 0.500126
O O20 0.192340 0.500000 0.035522
O O21 0.250000 0.250000 0.000000
#
# Coordination Sequence:
#
# PCOD9177390 Si02
#       8
#     8   8   8   8   8   8   8   8
#     4   9  15  24  40  58  80 115 150 175 204 237
#     4   9  16  27  44  65  84 109 146 177 205 244
#     4  10  19  29  40  58  86 114 140 172 209 245
#     4   8  12  21  39  60  83 108 141 183 210 230
#     4  11  21  29  39  59  88 116 143 173 207 246
#     4  10  21  34  47  62  78 103 143 178 206 247
#     4   7  11  19  34  58  80 104 143 181 207 233
#     4   9  19  33  48  65  83 104 133 170 212 258
#
# _framework density 16.424778
#
# number of rings (size 3 to 8) (size 9 to 14) (size 15 to 20)
#    0.000    2.875    1.250    3.750    0.000    5.500 
#    0.000    0.000    0.000    4.125    0.000    0.000 
#    0.000    1.000    0.000    2.000    0.000    2.625 
#
# Total GULP energy -178168.806845 kJ/mol
# GULP energy per Si atom -5567.775214 kJ/mol
# Density = 1.638739 g / cm^3
# Si number density = 16.424778 Si / 1000 Ang^3
#
#
#
# Elastic Constant Matrix: (Units=GPa)
#
#
# Indices 1 2 3 4 5 6 
#
# 1 59.5746 4.4015 57.9108 0.0000 -11.2734 0.0000
# 2 4.4015 22.1123 2.2907 0.0000 -1.5670 0.0000
# 3 57.9108 2.2907 159.7888 0.0000 -9.4779 0.0000
# 4 0.0000 0.0000 0.0000 -5.1152 0.0000 -4.9267
# 5 -11.2734 -1.5670 -9.4779 0.0000 17.7246 0.0000
# 6 0.0000 0.0000 0.0000 -4.9267 0.0000 9.4107
#
#
#
# Elastic Compliance Matrix: (Units=1/GPa)
#
#
# Indices 1 2 3 4 5 6 
#
# 1 0.028886 -0.003838 -0.009650 0.000000 0.012873 0.000000
# 2 -0.003838 0.046047 0.000855 0.000000 0.002087 0.000000
# 3 -0.009650 0.000855 0.009691 0.000000 -0.000880 0.000000
# 4 0.000000 0.000000 0.000000 -0.129963 0.000000 -0.068039
# 5 0.012873 0.002087 -0.000880 0.000000 0.064320 0.000000
# 6 0.000000 0.000000 0.000000 -0.068039 0.000000 0.070642
#
#
# Mechanical properties :
#
#
# Convention : Reuss Voigt Hill
#
# Bulk Modulus (GPa) = 16.84721 41.18685 29.01703
# Shear Modulus (GPa) = 37.12618 16.19553 26.66085
#
# Velocity S-wave (km/s) = 4.75950 3.14354 4.03328
# Velocity P-wave (km/s) = 6.36264 6.18920 6.27652
#
# Compressibility (1/GPa) = 0.05935699
#
# Stress axis : x y z
#
# Youngs Moduli (GPa) = 34.61884 21.71694 103.18547
#
# Poissons Ratio (x) = 0.08335 0.99577
# Poissons Ratio (y) = 0.13286 -0.08818
# Poissons Ratio (z) = 0.33408 -0.01856
#
# Static dielectric constant tensor:
#      x y z
#    x 1.520650 0.000000 -0.012610 
#    y 0.000000 1.595610 0.000000 
#    z -0.012610 0.000000 1.621520 
# 
# From -- ./inp_files/291620.got.cif
#   From: 2010.05.17/outbox.cif.g08.bks.cpg/sg12_146_cif.got.tgz:291620.got - 2010.06.03 13:09:07.
