data_PCOD9177211
_publ_section_title
;
Structure prediction by ZEFSAII (Michael W. Deem and Ramdas Pophale) SiO2 
 PCOD9177211
Probable space group: C 2/M
;
_chemical_formula_sum "Si O2"
_cell_formula_units_Z 52
_cell_length_a 15.499539
_cell_length_b 15.464149
_cell_length_c 13.676263
_cell_angle_alpha 90.000000
_cell_angle_beta 139.636205
_cell_angle_gamma 90.000000
_cell_volume 2122.975333
_symmetry_space_group_name_H-M "C 2/M"
_symmetry_group_IT_number 12
_symmetry_cell_setting 'monoclinic'
loop_
_space_group_symop_operation_xyz
x,y,z
-x,y,-z
-x,-y,-z
x,-y,z
1/2+x,1/2+y,z
1/2-x,1/2+y,-z
1/2-x,1/2-y,-z
1/2+x,1/2-y,z
loop_
_atom_site_type_symbol
_atom_site_label
_atom_site_fract_x
_atom_site_fract_y
_atom_site_fract_z
Si Si1 0.703915 0.597786 0.921700
Si Si2 0.102294 0.352923 0.395437
Si Si3 0.500000 0.639318 0.500000
Si Si4 0.834710 0.405962 0.248561
Si Si5 0.594506 0.643023 0.378695
Si Si6 0.250920 0.773110 0.794321
Si Si7 0.906133 0.407497 0.823913
O O1 0.718872 0.500000 0.889890
O O2 0.544686 0.616397 0.793729
O O3 0.770605 0.674553 0.913494
O O4 0.775327 0.595040 0.086927
O O5 0.258735 0.379588 0.536960
O O6 0.097244 0.248250 0.387613
O O7 0.048499 0.395126 0.247541
O O8 0.992297 0.384520 0.377951
O O9 0.576854 0.600620 0.472734
O O10 0.397010 0.698179 0.355647
O O11 0.814097 0.500000 0.274386
O O12 0.748327 0.328239 0.216975
O O13 0.332548 0.818682 0.780957
O O14 0.833550 0.500000 0.765075
O O15 0.000000 0.411339 0.000000
#
# Coordination Sequence:
#
# PCOD9177211 Si02
#       7
#     8   8   4   8   8   8   8
#     4  10  21  37  60  91 119 155 208 253 300 372
#     4  11  21  39  61  92 129 160 202 250 310 363
#     4  10  18  40  58  86 116 158 216 244 292 382
#     4  11  23  39  64  91 120 160 215 256 298 370
#     4  10  22  37  63  90 122 167 206 250 307 375
#     4  11  21  39  62  85 123 166 197 249 315 355
#     4  11  24  38  60  97 128 156 201 254 311 374
#
# _framework density 24.493925000000001
#
# number of rings (size 3 to 8) (size 9 to 14) (size 15 to 20)
#    0.000    1.385    4.615    2.308    2.154    3.692 
#    0.000    2.308    0.000    1.385    0.000    0.000 
#    0.000    0.000    0.000    0.000    0.000    0.000 
#
# Total GULP energy -144909.527018 kJ/mol
# GULP energy per Si atom -5573.443347 kJ/mol
# Density = 2.443818 g / cm^3
# Si number density = 24.493925 Si / 1000 Ang^3
#
#
#
# Elastic Constant Matrix: (Units=GPa)
#
#
# Indices 1 2 3 4 5 6 
#
# 1 84.9161 44.4933 26.0289 0.0000 7.7496 0.0000
# 2 44.4933 180.9499 -8.1357 0.0000 9.4748 0.0000
# 3 26.0289 -8.1357 61.0813 0.0000 16.2097 0.0000
# 4 0.0000 0.0000 0.0000 11.4909 0.0000 12.4155
# 5 7.7496 9.4748 16.2097 0.0000 26.9333 0.0000
# 6 0.0000 0.0000 0.0000 12.4155 0.0000 45.7753
#
#
#
# Elastic Compliance Matrix: (Units=1/GPa)
#
#
# Indices 1 2 3 4 5 6 
#
# 1 0.016447 -0.004495 -0.008058 0.000000 0.001699 0.000000
# 2 -0.004495 0.006980 0.003753 0.000000 -0.003421 0.000000
# 3 -0.008058 0.003753 0.023850 0.000000 -0.013355 0.000000
# 4 0.000000 0.000000 0.000000 0.123100 0.000000 -0.033388
# 5 0.001699 -0.003421 -0.013355 0.000000 0.045881 0.000000
# 6 0.000000 0.000000 0.000000 -0.033388 0.000000 0.030902
#
#
# Mechanical properties :
#
#
# Convention : Reuss Voigt Hill
#
# Bulk Modulus (GPa) = 33.69833 50.19113 41.94473
# Shear Modulus (GPa) = 18.20489 34.47728 26.34108
#
# Velocity S-wave (km/s) = 2.72920 3.75585 3.28291
# Velocity P-wave (km/s) = 4.87022 6.27250 5.61531
#
# Compressibility (1/GPa) = 0.02967506
#
# Stress axis : x y z
#
# Youngs Moduli (GPa) = 60.80261 143.27536 41.92947
#
# Poissons Ratio (x) = 0.64406 0.33787
# Poissons Ratio (y) = 0.27332 -0.15736
# Poissons Ratio (z) = 0.48995 -0.53771
#
# Static dielectric constant tensor:
#      x y z
#    x 2.027090 0.000000 0.003060 
#    y 0.000000 2.002350 0.000000 
#    z 0.003060 0.000000 1.992510 
# 
# From -- ./inp_files/225796.got.cif
#   From: 2010.05.17/outbox.cif.g08.bks.cpg/sg12_113_cif.got.tgz:225796.got - 2010.06.03 13:09:07.
