data_PCOD9177576
_publ_section_title
;
Structure prediction by ZEFSAII (Michael W. Deem and Ramdas Pophale) SiO2 
 PCOD9177576
Probable space group: C 2/M
;
_chemical_formula_sum "Si O2"
_cell_formula_units_Z 56
_cell_length_a 19.214014
_cell_length_b 15.159060
_cell_length_c 11.948572
_cell_angle_alpha 90.000000
_cell_angle_beta 53.789527
_cell_angle_gamma 90.000000
_cell_volume 2808.021599
_symmetry_space_group_name_H-M "C 2/M"
_symmetry_group_IT_number 12
_symmetry_cell_setting 'monoclinic'
loop_
_space_group_symop_operation_xyz
x,y,z
-x,y,-z
-x,-y,-z
x,-y,z
1/2+x,1/2+y,z
1/2-x,1/2+y,-z
1/2-x,1/2-y,-z
1/2+x,1/2-y,z
loop_
_atom_site_type_symbol
_atom_site_label
_atom_site_fract_x
_atom_site_fract_y
_atom_site_fract_z
Si Si1 0.665068 0.606788 0.700175
Si Si2 0.480353 0.393108 0.772849
Si Si3 0.187561 0.164609 0.930272
Si Si4 0.408881 0.099280 0.104032
Si Si5 0.715536 0.869259 0.961806
Si Si6 0.883544 0.100248 0.655551
Si Si7 0.753042 0.108366 0.601258
O O1 0.663754 0.500000 0.711717
O O2 0.571578 0.633032 0.739080
O O3 0.684288 0.645486 0.802993
O O4 0.734783 0.631058 0.539251
O O5 0.478919 0.500000 0.768899
O O6 0.458028 0.362242 0.666291
O O7 0.403201 0.362789 0.927363
O O8 0.204100 0.266386 0.942830
O O9 0.264030 0.116885 0.927667
O O10 0.365813 0.091201 0.023143
O O11 0.335135 0.138307 0.255132
O O12 0.426046 0.000000 0.131827
O O13 0.500000 0.146678 0.000000
O O14 0.800968 0.902211 0.817235
O O15 0.837495 0.140549 0.590199
O O16 0.907153 0.000000 0.602948
O O17 0.754132 0.000000 0.609686
#
# Coordination Sequence:
#
# PCOD9177576 Si02
#       7
#     8   8   8   8   8   8   8
#     4  10  19  29  44  68  98 127 151 182 227 278
#     4   9  17  28  44  67  93 124 158 186 216 263
#     4  10  19  30  44  64  93 125 156 188 223 265
#     4   9  17  31  52  72  87 108 146 196 238 272
#     4   9  18  31  47  66  87 116 156 194 227 264
#     4   8  14  28  48  66  89 119 151 188 225 265
#     4   8  15  28  45  68  95 120 149 186 230 275
#
# _framework density 19.942868000000001
#
# number of rings (size 3 to 8) (size 9 to 14) (size 15 to 20)
#    0.000    3.000    0.000    2.143    0.000    4.571 
#    0.000    5.714    0.000    0.857    0.000   12.000 
#    0.000    0.000    0.000    0.000    0.000    0.000 
#
# Total GULP energy -155924.453872 kJ/mol
# GULP energy per Si atom -5568.730495 kJ/mol
# Density = 1.989748 g / cm^3
# Si number density = 19.942868 Si / 1000 Ang^3
#
#
#
# Elastic Constant Matrix: (Units=GPa)
#
#
# Indices 1 2 3 4 5 6 
#
# 1 135.6104 13.9010 86.5901 0.0000 7.8701 0.0000
# 2 13.9010 27.7647 15.1212 0.0000 1.7435 0.0000
# 3 86.5901 15.1212 127.1170 0.0000 18.0680 0.0000
# 4 0.0000 0.0000 0.0000 -4.6323 0.0000 4.8890
# 5 7.8701 1.7435 18.0680 0.0000 42.7268 0.0000
# 6 0.0000 0.0000 0.0000 4.8890 0.0000 20.0711
#
#
#
# Elastic Compliance Matrix: (Units=1/GPa)
#
#
# Indices 1 2 3 4 5 6 
#
# 1 0.013219 -0.001811 -0.008994 0.000000 0.001442 0.000000
# 2 -0.001811 0.038766 -0.003405 0.000000 0.000192 0.000000
# 3 -0.008994 -0.003405 0.015048 0.000000 -0.004568 0.000000
# 4 0.000000 0.000000 0.000000 -0.171727 0.000000 0.041830
# 5 0.001442 0.000192 -0.004568 0.000000 0.025063 0.000000
# 6 0.000000 0.000000 0.000000 0.041830 0.000000 0.039634
#
#
# Mechanical properties :
#
#
# Convention : Reuss Voigt Hill
#
# Bulk Modulus (GPa) = 25.89826 57.96851 41.93338
# Shear Modulus (GPa) = 3867.87832 23.29176 1945.58504
#
# Velocity S-wave (km/s) = 44.08730 3.42120 31.26815
# Velocity P-wave (km/s) = 51.03529 6.68854 36.39600
#
# Compressibility (1/GPa) = 0.03861264
#
# Stress axis : x y z
#
# Youngs Moduli (GPa) = 75.64921 25.79577 66.45506
#
# Poissons Ratio (x) = 0.04670 0.59771
# Poissons Ratio (y) = 0.13697 0.22630
# Poissons Ratio (z) = 0.68040 0.08784
#
# Static dielectric constant tensor:
#      x y z
#    x 1.752380 0.000000 0.007660 
#    y 0.000000 1.903990 0.000000 
#    z 0.007660 0.000000 1.726810 
# 
# From -- ./inp_files/168385.got.cif
#   From: 2010.05.17/outbox.cif.g08.bks.cpg/sg12_85_cif.got.tgz:168385.got - 2010.06.03 13:09:07.
