data_PCOD9177277
_publ_section_title
;
Structure prediction by ZEFSAII (Michael W. Deem and Ramdas Pophale) SiO2 
 PCOD9177277
Probable space group: C 2/M
;
_chemical_formula_sum "Si O2"
_cell_formula_units_Z 64
_cell_length_a 22.231600
_cell_length_b 7.271367
_cell_length_c 17.705855
_cell_angle_alpha 90.000000
_cell_angle_beta 94.695369
_cell_angle_gamma 90.000000
_cell_volume 2852.618848
_symmetry_space_group_name_H-M "C 2/M"
_symmetry_group_IT_number 12
_symmetry_cell_setting 'monoclinic'
loop_
_space_group_symop_operation_xyz
x,y,z
-x,y,-z
-x,-y,-z
x,-y,z
1/2+x,1/2+y,z
1/2-x,1/2+y,-z
1/2-x,1/2-y,-z
1/2+x,1/2-y,z
loop_
_atom_site_type_symbol
_atom_site_label
_atom_site_fract_x
_atom_site_fract_y
_atom_site_fract_z
Si Si1 0.954930 0.223138 0.883048
Si Si2 0.158738 0.776857 0.025257
Si Si3 0.737216 0.722156 0.166722
Si Si4 0.377068 0.276645 0.739967
Si Si5 0.639891 0.707563 0.737272
Si Si6 0.191923 0.223739 0.587684
Si Si7 0.587944 0.725377 0.879818
Si Si8 0.332688 0.713032 0.580168
O O1 0.023032 0.281180 0.905530
O O2 0.901284 0.277232 0.933576
O O3 0.933590 0.278008 0.796925
O O4 0.955280 0.000000 0.886380
O O5 0.215908 0.716242 0.080903
O O6 0.161305 0.000000 0.025249
O O7 0.143011 0.715246 0.939317
O O8 0.742035 0.500000 0.167049
O O9 0.682366 0.771590 0.217598
O O10 0.797704 0.798169 0.208946
O O11 0.377441 0.500000 0.737080
O O12 0.370345 0.208697 0.653912
O O13 0.618687 0.500000 0.719816
O O14 0.656438 0.789167 0.657923
O O15 0.595208 0.789664 0.794638
O O16 0.262185 0.278978 0.597160
O O17 0.165676 0.288521 0.504640
O O18 0.192172 0.000000 0.588354
O O19 0.589160 0.500000 0.879012
O O20 0.350102 0.500000 0.574931
#
# Coordination Sequence:
#
# PCOD9177277 Si02
#       8
#     8   8   8   8   8   8   8   8
#     4   8  13  22  38  59  80 101 132 173 207 231
#     4   8  14  24  40  60  78  99 136 179 205 227
#     4   9  16  27  42  60  81 105 135 169 202 234
#     4   8  13  22  39  61  79  97 128 171 207 230
#     4  10  19  28  38  57  88 115 133 156 195 249
#     4   9  17  26  37  57  84 110 132 158 192 238
#     4   9  16  25  37  55  82 113 135 160 203 244
#     4   9  15  25  42  60  79 103 133 166 199 230
#
# _framework density 22.435524000000001
#
# number of rings (size 3 to 8) (size 9 to 14) (size 15 to 20)
#    0.000    3.250    1.250    1.875    0.000    2.000 
#    0.000    0.000    0.000    0.750    0.000    9.625 
#    0.000    5.000    0.000    7.375    0.000    7.750 
#
# Total GULP energy -178526.695205 kJ/mol
# GULP energy per Si atom -5578.959225 kJ/mol
# Density = 2.238446 g / cm^3
# Si number density = 22.435524 Si / 1000 Ang^3
#
#
#
# Elastic Constant Matrix: (Units=GPa)
#
#
# Indices 1 2 3 4 5 6 
#
# 1 37.8331 -6.6499 -0.3776 0.0000 2.8938 0.0000
# 2 -6.6499 99.1713 -2.4861 0.0000 -0.7760 0.0000
# 3 -0.3776 -2.4861 146.4351 0.0000 3.3014 0.0000
# 4 0.0000 0.0000 0.0000 -6.0234 0.0000 4.2357
# 5 2.8938 -0.7760 3.3014 0.0000 31.9361 0.0000
# 6 0.0000 0.0000 0.0000 4.2357 0.0000 2.5302
#
#
#
# Elastic Compliance Matrix: (Units=1/GPa)
#
#
# Indices 1 2 3 4 5 6 
#
# 1 0.026933 0.001791 0.000154 0.000000 -0.002413 0.000000
# 2 0.001791 0.010209 0.000176 0.000000 0.000068 0.000000
# 3 0.000154 0.000176 0.006849 0.000000 -0.000718 0.000000
# 4 0.000000 0.000000 0.000000 -0.076254 0.000000 0.127652
# 5 -0.002413 0.000068 -0.000718 0.000000 0.031607 0.000000
# 6 0.000000 0.000000 0.000000 0.127652 0.000000 0.181528
#
#
# Mechanical properties :
#
#
# Convention : Reuss Voigt Hill
#
# Bulk Modulus (GPa) = 20.73262 29.37913 25.05588
# Shear Modulus (GPa) = 25.94646 25.21880 25.58263
#
# Velocity S-wave (km/s) = 3.40441 3.35633 3.38046
# Velocity P-wave (km/s) = 4.97136 5.30503 5.14090
#
# Compressibility (1/GPa) = 0.04823318
#
# Stress axis : x y z
#
# Youngs Moduli (GPa) = 37.12948 97.95654 146.01658
#
# Poissons Ratio (x) = -0.17544 -0.02252
# Poissons Ratio (y) = -0.06650 -0.02576
# Poissons Ratio (z) = -0.00573 -0.01728
#
# Static dielectric constant tensor:
#      x y z
#    x 1.782750 0.000000 -0.006540 
#    y 0.000000 1.868000 0.000000 
#    z -0.006540 0.000000 1.866470 
# 
# From -- ./inp_files/282600.got.cif
#   From: 2010.05.17/outbox.cif.g08.bks.cpg/sg12_142_cif.got.tgz:282600.got - 2010.06.03 13:09:07.
