data_PCOD9177797
_publ_section_title
;
Structure prediction by ZEFSAII (Michael W. Deem and Ramdas Pophale) SiO2 
 PCOD9177797
Probable space group: C 2/M
;
_chemical_formula_sum "Si O2"
_cell_formula_units_Z 56
_cell_length_a 24.075263
_cell_length_b 7.516895
_cell_length_c 19.380651
_cell_angle_alpha 90.000000
_cell_angle_beta 51.762357
_cell_angle_gamma 90.000000
_cell_volume 2754.841827
_symmetry_space_group_name_H-M "C 2/M"
_symmetry_group_IT_number 12
_symmetry_cell_setting 'monoclinic'
loop_
_space_group_symop_operation_xyz
x,y,z
-x,y,-z
-x,-y,-z
x,-y,z
1/2+x,1/2+y,z
1/2-x,1/2+y,-z
1/2-x,1/2-y,-z
1/2+x,1/2-y,z
loop_
_atom_site_type_symbol
_atom_site_label
_atom_site_fract_x
_atom_site_fract_y
_atom_site_fract_z
Si Si1 0.631006 0.205564 0.501838
Si Si2 0.560058 0.718418 0.744805
Si Si3 0.282003 0.287526 0.220070
Si Si4 0.562853 0.717542 0.902099
Si Si5 0.483432 0.702731 0.676146
Si Si6 0.215555 0.213670 0.617193
Si Si7 0.871678 0.795007 0.655384
O O1 0.560815 0.299861 0.581757
O O2 0.707782 0.281758 0.466468
O O3 0.630080 0.208971 0.418864
O O4 0.626626 0.000000 0.525859
O O5 0.560993 0.500000 0.742817
O O6 0.551962 0.771176 0.830615
O O7 0.499547 0.780563 0.739139
O O8 0.637421 0.776745 0.657100
O O9 0.278045 0.500000 0.214191
O O10 0.358445 0.226009 0.134732
O O11 0.284491 0.251759 0.300321
O O12 0.207461 0.211864 0.252964
O O13 0.563461 0.500000 0.901533
O O14 0.500000 0.776334 0.000000
O O15 0.458707 0.500000 0.706059
O O16 0.428080 0.784837 0.665317
O O17 0.217833 0.000000 0.606993
O O18 0.891631 0.000000 0.627012
#
# Coordination Sequence:
#
# PCOD9177797 Si02
#       7
#     8   8   8   8   8   8   8
#     4  10  19  30  45  64  84 111 150 192 228 255
#     4   8  14  26  42  61  89 118 140 171 219 266
#     4   8  14  26  45  68  90 111 139 177 219 257
#     4   8  13  24  48  78  96 106 132 178 223 262
#     4  10  20  30  41  60  87 120 152 181 215 256
#     4   7  12  24  41  60  82 107 136 173 215 255
#     4  10  19  30  43  60  85 118 156 187 209 247
#
# _framework density 20.327846000000001
#
# number of rings (size 3 to 8) (size 9 to 14) (size 15 to 20)
#    0.000    3.286    0.000    3.857    0.000    3.429 
#    0.000    0.000    0.000    9.000    0.000    0.000 
#    0.000    0.000    0.000    0.000    0.000    0.143 
#
# Total GULP energy -156068.979854 kJ/mol
# GULP energy per Si atom -5573.892138 kJ/mol
# Density = 2.028158 g / cm^3
# Si number density = 20.327846 Si / 1000 Ang^3
#
#
#
# Elastic Constant Matrix: (Units=GPa)
#
#
# Indices 1 2 3 4 5 6 
#
# 1 144.4829 1.8237 39.1230 0.0004 -4.1592 -0.0006
# 2 1.8237 50.7315 1.0209 -0.0067 -1.7804 -0.0038
# 3 39.1230 1.0209 105.4104 0.0034 -7.8322 -0.0025
# 4 0.0004 -0.0067 0.0034 8.8662 -0.0024 -0.8718
# 5 -4.1592 -1.7804 -7.8322 -0.0024 17.9117 0.0013
# 6 -0.0006 -0.0038 -0.0025 -0.8718 0.0013 7.8179
#
#
#
# Elastic Compliance Matrix: (Units=1/GPa)
#
#
# Indices 1 2 3 4 5 6 
#
# 1 0.007702 -0.000201 -0.002817 0.000001 0.000537 0.000000
# 2 -0.000201 0.019786 0.000027 0.000017 0.001932 0.000011
# 3 -0.002817 0.000027 0.010836 -0.000003 0.004087 0.000002
# 4 0.000001 0.000017 -0.000003 0.114038 0.000015 0.012717
# 5 0.000537 0.001932 0.004087 0.000015 0.057933 -0.000006
# 6 0.000000 0.000011 0.000002 0.012717 -0.000006 0.129329
#
#
# Mechanical properties :
#
#
# Convention : Reuss Voigt Hill
#
# Bulk Modulus (GPa) = 30.92081 42.72888 36.82485
# Shear Modulus (GPa) = 14.02969 24.16298 19.09634
#
# Velocity S-wave (km/s) = 2.62996 3.45144 3.06832
# Velocity P-wave (km/s) = 4.94635 6.07855 5.54144
#
# Compressibility (1/GPa) = 0.03234068
#
# Stress axis : x y z
#
# Youngs Moduli (GPa) = 129.83737 50.54048 92.28888
#
# Poissons Ratio (x) = 0.01018 0.25995
# Poissons Ratio (y) = 0.02614 -0.00246
# Poissons Ratio (z) = 0.36572 -0.00135
#
# Static dielectric constant tensor:
#      x y z
#    x 1.775910 0.000000 -0.003820 
#    y 0.000000 1.758010 0.000000 
#    z -0.003820 0.000000 1.722490 
# 
# From -- ./inp_files/323558.got.cif
#   From: 2010.05.17/outbox.cif.g08.bks.cpg/sg12_162_cif.got.tgz:323558.got - 2010.06.03 13:09:07.
