data_PCOD9177638
_publ_section_title
;
Structure prediction by ZEFSAII (Michael W. Deem and Ramdas Pophale) SiO2 
 PCOD9177638
Probable space group: C 2/M
;
_chemical_formula_sum "Si O2"
_cell_formula_units_Z 48
_cell_length_a 28.267917
_cell_length_b 7.830664
_cell_length_c 12.426065
_cell_angle_alpha 90.000000
_cell_angle_beta 73.125732
_cell_angle_gamma 90.000000
_cell_volume 2632.161678
_symmetry_space_group_name_H-M "C 2/M"
_symmetry_group_IT_number 12
_symmetry_cell_setting 'monoclinic'
loop_
_space_group_symop_operation_xyz
x,y,z
-x,y,-z
-x,-y,-z
x,-y,z
1/2+x,1/2+y,z
1/2-x,1/2+y,-z
1/2-x,1/2-y,-z
1/2+x,1/2-y,z
loop_
_atom_site_type_symbol
_atom_site_label
_atom_site_fract_x
_atom_site_fract_y
_atom_site_fract_z
Si Si1 0.382076 0.698454 0.739056
Si Si2 0.930926 0.706013 0.270358
Si Si3 0.444916 0.703462 0.506887
Si Si4 0.959133 0.707204 0.865139
Si Si5 0.307129 0.297156 0.964074
Si Si6 0.882952 0.704795 0.094662
O O1 0.369162 0.500000 0.727783
O O2 0.402347 0.774544 0.614258
O O3 0.429406 0.711501 0.786183
O O4 0.337953 0.775325 0.841054
O O5 0.928620 0.500000 0.278923
O O6 0.931555 0.770451 0.391543
O O7 0.889629 0.767098 0.212436
O O8 0.983767 0.751338 0.182510
O O9 0.500000 0.771631 0.500000
O O10 0.447019 0.500000 0.526143
O O11 0.955409 0.500000 0.859904
O O12 0.929909 0.760919 0.991332
O O13 0.311272 0.500000 0.954572
O O14 0.250000 0.250000 0.000000
O O15 0.335010 0.247085 0.055730
O O16 0.885454 0.500000 0.098177
#
# Coordination Sequence:
#
# PCOD9177638 Si02
#       6
#     8   8   8   8   8   8
#     4   9  18  32  48  70  98 129 164 200 238 283
#     4  10  19  29  45  70 101 135 167 199 235 279
#     4  10  19  31  47  67  99 139 171 197 230 278
#     4   9  16  27  45  68  97 132 165 197 234 281
#     4  10  20  35  56  77  96 120 157 205 254 297
#     4   9  18  32  48  70 100 130 161 199 245 291
#
# _framework density 18.235961
#
# number of rings (size 3 to 8) (size 9 to 14) (size 15 to 20)
#    0.000    2.500    1.667    1.000    0.000    4.333 
#    0.000    0.000    0.000    6.000    0.000    0.000 
#    0.000    0.000    0.000    0.000    0.000    0.000 
#
# Total GULP energy -133716.400842 kJ/mol
# GULP energy per Si atom -5571.516702 kJ/mol
# Density = 1.819446 g / cm^3
# Si number density = 18.235961 Si / 1000 Ang^3
#
#
#
# Elastic Constant Matrix: (Units=GPa)
#
#
# Indices 1 2 3 4 5 6 
#
# 1 93.7293 -4.4491 76.4990 0.0000 -0.6267 0.0000
# 2 -4.4491 15.0988 3.2761 0.0000 -2.0468 0.0000
# 3 76.4990 3.2761 131.5347 0.0000 22.0486 0.0000
# 4 0.0000 0.0000 0.0000 17.3274 0.0000 6.9811
# 5 -0.6267 -2.0468 22.0486 0.0000 19.5189 0.0000
# 6 0.0000 0.0000 0.0000 6.9811 0.0000 21.9392
#
#
#
# Elastic Compliance Matrix: (Units=1/GPa)
#
#
# Indices 1 2 3 4 5 6 
#
# 1 0.030504 0.017897 -0.023025 0.000000 0.028865 0.000000
# 2 0.017897 0.079034 -0.017101 0.000000 0.028179 0.000000
# 3 -0.023025 -0.017101 0.026946 0.000000 -0.032971 0.000000
# 4 0.000000 0.000000 0.000000 0.066199 0.000000 -0.021065
# 5 0.028865 0.028179 -0.032971 0.000000 0.092359 0.000000
# 6 0.000000 0.000000 0.000000 -0.021065 0.000000 0.052283
#
#
# Mechanical properties :
#
#
# Convention : Reuss Voigt Hill
#
# Bulk Modulus (GPa) = 10.86635 43.44608 27.15621
# Shear Modulus (GPa) = 11.83547 22.75954 17.29751
#
# Velocity S-wave (km/s) = 2.55035 3.53662 3.08318
# Velocity P-wave (km/s) = 3.82675 6.36813 5.25343
#
# Compressibility (1/GPa) = 0.09202726
#
# Stress axis : x y z
#
# Youngs Moduli (GPa) = 32.78270 12.65272 37.11072
#
# Poissons Ratio (x) = -0.22645 0.85448
# Poissons Ratio (y) = -0.58672 0.63462
# Poissons Ratio (z) = 0.75482 0.21637
#
# Static dielectric constant tensor:
#      x y z
#    x 1.544710 0.000000 0.011270 
#    y 0.000000 1.682490 0.000000 
#    z 0.011270 0.000000 1.668390 
# 
# From -- ./inp_files/102007.got.cif
#   From: 2010.05.17/outbox.cif.g08.bks.cpg/sg12_52_cif.got.tgz:102007.got - 2010.06.03 13:09:07.
