data_PCOD9177198
_publ_section_title
;
Structure prediction by ZEFSAII (Michael W. Deem and Ramdas Pophale) SiO2 
 PCOD9177198
Probable space group: C 2/M
;
_chemical_formula_sum "Si O2"
_cell_formula_units_Z 34
_cell_length_a 16.383284
_cell_length_b 19.370314
_cell_length_c 9.732196
_cell_angle_alpha 90.000000
_cell_angle_beta 32.486663
_cell_angle_gamma 90.000000
_cell_volume 1658.846752
_symmetry_space_group_name_H-M "C 2/M"
_symmetry_group_IT_number 12
_symmetry_cell_setting 'monoclinic'
loop_
_space_group_symop_operation_xyz
x,y,z
-x,y,-z
-x,-y,-z
x,-y,z
1/2+x,1/2+y,z
1/2-x,1/2+y,-z
1/2-x,1/2-y,-z
1/2+x,1/2-y,z
loop_
_atom_site_type_symbol
_atom_site_label
_atom_site_fract_x
_atom_site_fract_y
_atom_site_fract_z
Si Si1 0.500000 0.500000 0.500000
Si Si2 0.164978 0.000000 0.833918
Si Si3 0.414613 0.150972 0.769280
Si Si4 0.402611 0.615831 0.859607
Si Si5 0.494998 0.000000 0.339515
Si Si6 0.429373 0.739426 0.252067
O O1 0.465579 0.560702 0.663585
O O2 0.322698 0.000000 0.528122
O O3 0.171520 0.069194 0.915263
O O4 0.000000 0.000000 0.000000
O O5 0.500000 0.155303 0.500000
O O6 0.493851 0.202853 0.760859
O O7 0.427371 0.072044 0.807638
O O8 0.234917 0.161636 0.004964
O O9 0.529523 0.665462 0.740867
O O10 0.500000 0.000000 0.500000
O O11 0.250000 0.750000 0.500000
O O12 0.500000 0.742415 0.000000
#
# Coordination Sequence:
#
# PCOD9177198 Si02
#       6
#     2   4   8   8   4   8
#     4  10  26  40  72 102 126 180 240 290 322 412
#     4  11  21  36  67  99 132 175 221 290 356 409
#     4  11  22  43  75  99 132 186 237 289 343 424
#     4  11  23  44  68  97 137 179 236 280 348 417
#     4  10  18  39  66 100 129 166 240 285 343 417
#     4  12  29  46  68 104 147 185 231 291 362 416
#
# _framework density 20.496167
#
# number of rings (size 3 to 8) (size 9 to 14) (size 15 to 20)
#    0.000    0.941    4.706    3.529    8.235    0.000 
#    0.000    0.588    0.000    0.000    0.000    0.000 
#    0.000    0.000    0.000    0.000    0.000    0.000 
#
# Total GULP energy -94759.642267 kJ/mol
# GULP energy per Si atom -5574.096604 kJ/mol
# Density = 2.044952 g / cm^3
# Si number density = 20.496167 Si / 1000 Ang^3
#
#
#
# Elastic Constant Matrix: (Units=GPa)
#
#
# Indices 1 2 3 4 5 6 
#
# 1 128.3473 60.0000 67.2902 -0.0001 -24.3166 0.0004
# 2 60.0000 134.1556 45.0097 0.0002 2.2170 0.0002
# 3 67.2902 45.0097 98.4355 0.0011 -7.8532 0.0009
# 4 -0.0001 0.0002 0.0011 -36.6245 -0.0005 -8.9658
# 5 -24.3166 2.2170 -7.8532 -0.0005 44.9332 -0.0007
# 6 0.0004 0.0002 0.0009 -8.9658 -0.0007 26.5739
#
#
#
# Elastic Compliance Matrix: (Units=1/GPa)
#
#
# Indices 1 2 3 4 5 6 
#
# 1 0.015307 -0.004303 -0.007929 0.000000 0.007110 0.000000
# 2 -0.004303 0.010074 -0.001917 0.000000 -0.003161 0.000000
# 3 -0.007929 -0.001917 0.016349 0.000001 -0.001339 0.000000
# 4 0.000000 0.000000 0.000001 -0.025221 -0.000001 -0.008509
# 5 0.007110 -0.003161 -0.001339 -0.000001 0.026025 0.000000
# 6 0.000000 0.000000 0.000000 -0.008509 0.000000 0.034760
#
#
# Mechanical properties :
#
#
# Convention : Reuss Voigt Hill
#
# Bulk Modulus (GPa) = 74.45016 78.39311 76.42163
# Shear Modulus (GPa) = 45.42577 19.55242 32.48909
#
# Velocity S-wave (km/s) = 4.71287 3.09197 3.98569
# Velocity P-wave (km/s) = 8.12513 7.14687 7.65165
#
# Compressibility (1/GPa) = 0.01343181
#
# Stress axis : x y z
#
# Youngs Moduli (GPa) = 65.32841 99.26564 61.16649
#
# Poissons Ratio (x) = 0.42717 0.48499
# Poissons Ratio (y) = 0.28113 0.11724
# Poissons Ratio (z) = 0.51799 0.19027
#
# Static dielectric constant tensor:
#      x y z
#    x 1.776840 0.000000 -0.038520 
#    y 0.000000 1.716760 0.000000 
#    z -0.038520 0.000000 1.730260 
# 
# From -- ./inp_files/63133.got.cif
#   From: 2010.05.17/outbox.cif.g08.bks.cpg/sg12_32_cif.got.tgz:63133.got - 2010.06.03 13:09:07.
