data_PCOD9177742
_publ_section_title
;
Structure prediction by ZEFSAII (Michael W. Deem and Ramdas Pophale) SiO2 
 PCOD9177742
Probable space group: C 2/M
;
_chemical_formula_sum "Si O2"
_cell_formula_units_Z 58
_cell_length_a 26.182691
_cell_length_b 7.761026
_cell_length_c 13.527620
_cell_angle_alpha 90.000000
_cell_angle_beta 62.820198
_cell_angle_gamma 90.000000
_cell_volume 2445.336226
_symmetry_space_group_name_H-M "C 2/M"
_symmetry_group_IT_number 12
_symmetry_cell_setting 'monoclinic'
loop_
_space_group_symop_operation_xyz
x,y,z
-x,y,-z
-x,-y,-z
x,-y,z
1/2+x,1/2+y,z
1/2-x,1/2+y,-z
1/2-x,1/2-y,-z
1/2+x,1/2-y,z
loop_
_atom_site_type_symbol
_atom_site_label
_atom_site_fract_x
_atom_site_fract_y
_atom_site_fract_z
Si Si1 0.550336 0.199360 0.377763
Si Si2 0.041295 0.195857 0.667185
Si Si3 0.797752 0.706406 0.039018
Si Si4 0.236954 0.287685 0.711204
Si Si5 0.079077 0.700024 0.019385
Si Si6 0.000000 0.000000 0.000000
Si Si7 0.861545 0.198748 0.561766
Si Si8 0.881091 0.694812 0.241690
O O1 0.500000 0.254583 0.500000
O O2 0.519893 0.219136 0.299005
O O3 0.607850 0.295087 0.358077
O O4 0.562061 0.000000 0.384138
O O5 0.091645 0.276594 0.554089
O O6 0.069829 0.200524 0.748162
O O7 0.032168 0.000000 0.643984
O O8 0.800646 0.500000 0.042222
O O9 0.774890 0.769946 0.165940
O O10 0.865042 0.756582 0.964944
O O11 0.750000 0.750000 0.000000
O O12 0.236816 0.500000 0.711801
O O13 0.298558 0.225055 0.620909
O O14 0.183206 0.234706 0.691151
O O15 0.060010 0.500000 0.059214
O O16 0.031957 0.846669 0.040870
O O17 0.107167 0.688242 0.884712
O O18 0.855247 0.000000 0.536849
O O19 0.884315 0.500000 0.276736
#
# Coordination Sequence:
#
# PCOD9177742 Si02
#       8
#     8   8   8   8   8   2   8   8
#     4   9  17  30  47  66  93 134 181 221 266 321
#     4  10  19  29  48  76 103 137 183 225 266 318
#     4   9  18  35  60  84 111 146 190 237 288 357
#     4   8  16  33  54  75 103 142 175 215 277 328
#     4   9  21  39  59  89 119 153 193 238 292 347
#     4  12  22  36  68  86 116 156 192 242 290 362
#     4   9  17  31  50  73 103 137 177 226 271 318
#     4   9  18  35  55  74 106 145 182 218 264 330
#
# _framework density 23.718619
#
# number of rings (size 3 to 8) (size 9 to 14) (size 15 to 20)
#    0.000    2.897    0.000    2.690    1.931    2.759 
#    0.000    2.759    3.034    1.655    0.000    0.000 
#    0.000    0.000    0.000    0.000    0.000    0.000 
#
# Total GULP energy -161454.037032 kJ/mol
# GULP energy per Si atom -5567.380587 kJ/mol
# Density = 2.366463 g / cm^3
# Si number density = 23.718619 Si / 1000 Ang^3
#
#
#
# Elastic Constant Matrix: (Units=GPa)
#
#
# Indices 1 2 3 4 5 6 
#
# 1 144.8915 36.1257 34.2396 0.0000 -9.5156 0.0000
# 2 36.1257 80.1100 7.9254 0.0000 -8.0542 0.0000
# 3 34.2396 7.9254 26.7339 0.0000 -12.6425 0.0000
# 4 0.0000 0.0000 0.0000 4.6089 0.0000 11.3484
# 5 -9.5156 -8.0542 -12.6425 0.0000 35.3018 0.0000
# 6 0.0000 0.0000 0.0000 11.3484 0.0000 31.2346
#
#
#
# Elastic Compliance Matrix: (Units=1/GPa)
#
#
# Indices 1 2 3 4 5 6 
#
# 1 0.011099 -0.003879 -0.014530 0.000000 -0.003097 0.000000
# 2 -0.003879 0.014321 0.002135 0.000000 0.002986 0.000000
# 3 -0.014530 0.002135 0.064721 0.000000 0.019749 0.000000
# 4 0.000000 0.000000 0.000000 2.058800 0.000000 -0.748021
# 5 -0.003097 0.002986 0.019749 0.000000 0.035246 0.000000
# 6 0.000000 0.000000 0.000000 -0.748021 0.000000 0.303793
#
#
# Mechanical properties :
#
#
# Convention : Reuss Voigt Hill
#
# Bulk Modulus (GPa) = 17.36316 45.36854 31.36585
# Shear Modulus (GPa) = 1.96872 25.79204 13.88038
#
# Velocity S-wave (km/s) = 0.91205 3.30118 2.42174
# Velocity P-wave (km/s) = 2.90611 5.80515 4.59049
#
# Compressibility (1/GPa) = 0.05759321
#
# Stress axis : x y z
#
# Youngs Moduli (GPa) = 90.09809 69.82684 15.45099
#
# Poissons Ratio (x) = 0.27086 0.22450
# Poissons Ratio (y) = 0.34949 -0.03298
# Poissons Ratio (z) = 1.30909 -0.14906
#
# Static dielectric constant tensor:
#      x y z
#    x 1.963400 0.000000 0.026150 
#    y 0.000000 1.865730 0.000000 
#    z 0.026150 0.000000 2.013280 
# 
# From -- ./inp_files/287436.got.cif
#   From: 2010.05.17/outbox.cif.g08.bks.cpg/sg12_144_cif.got.tgz:287436.got - 2010.06.03 13:09:07.
