data_PCOD9177960
_publ_section_title
;
Structure prediction by ZEFSAII (Michael W. Deem and Ramdas Pophale) SiO2 
 PCOD9177960
Probable space group: C 2/M
;
_chemical_formula_sum "Si O2"
_cell_formula_units_Z 64
_cell_length_a 14.605910
_cell_length_b 7.504086
_cell_length_c 22.837169
_cell_angle_alpha 90.000000
_cell_angle_beta 85.972959
_cell_angle_gamma 90.000000
_cell_volume 2496.865204
_symmetry_space_group_name_H-M "C 2/M"
_symmetry_group_IT_number 12
_symmetry_cell_setting 'monoclinic'
loop_
_space_group_symop_operation_xyz
x,y,z
-x,y,-z
-x,-y,-z
x,-y,z
1/2+x,1/2+y,z
1/2-x,1/2+y,-z
1/2-x,1/2-y,-z
1/2+x,1/2-y,z
loop_
_atom_site_type_symbol
_atom_site_label
_atom_site_fract_x
_atom_site_fract_y
_atom_site_fract_z
Si Si1 0.359650 0.712455 0.500671
Si Si2 0.870068 0.801243 0.624633
Si Si3 0.387018 0.786154 0.879525
Si Si4 0.602971 0.218500 0.870413
Si Si5 0.093209 0.788693 0.246412
Si Si6 0.832268 0.204833 0.380787
Si Si7 0.888659 0.698122 0.252991
Si Si8 0.388800 0.213858 0.004830
O O1 0.374762 0.500000 0.504987
O O2 0.250000 0.750000 0.500000
O O3 0.396768 0.786109 0.560778
O O4 0.391302 0.767509 0.434026
O O5 0.876937 0.724810 0.690087
O O6 0.760803 0.813176 0.620721
O O7 0.912233 0.000000 0.624803
O O8 0.495028 0.731806 0.876005
O O9 0.350974 0.733165 0.816898
O O10 0.383521 0.000000 0.881681
O O11 0.351054 0.717831 0.944287
O O12 0.643625 0.281746 0.806720
O O13 0.643808 0.281638 0.930297
O O14 0.606841 0.000000 0.868616
O O15 0.997741 0.689860 0.240349
O O16 0.077822 0.000000 0.251573
O O17 0.877096 0.210107 0.315491
O O18 0.806444 0.000000 0.393819
O O19 0.847986 0.500000 0.260255
O O20 0.375444 0.000000 0.005999
O O21 0.500000 0.240058 0.000000
#
# Coordination Sequence:
#
# PCOD9177960 Si02
#       8
#     8   8   8   8   8   8   8   8
#     4   8  15  29  48  68  88 112 145 184 224 264
#     4   9  18  33  51  69  90 119 153 185 220 266
#     4   8  13  22  38  59  84 114 145 180 222 265
#     4   7  11  20  36  58  81 110 148 183 214 254
#     4  10  19  30  45  66  94 124 152 185 223 264
#     4  10  19  31  50  73  93 114 145 188 231 269
#     4  10  19  31  47  66  93 126 154 183 222 269
#     4   7   9  16  33  56  79 105 143 184 215 252
#
# _framework density 25.63214
#
# number of rings (size 3 to 8) (size 9 to 14) (size 15 to 20)
#    0.000    3.375    0.000    3.375    0.000    1.500 
#    0.000    0.625    0.000   13.875    0.000    0.875 
#    0.000    0.000    0.000    0.000    0.000    0.000 
#
# Total GULP energy -178170.722944 kJ/mol
# GULP energy per Si atom -5567.835092 kJ/mol
# Density = 2.557380 g / cm^3
# Si number density = 25.632140 Si / 1000 Ang^3
#
#
#
# Elastic Constant Matrix: (Units=GPa)
#
#
# Indices 1 2 3 4 5 6 
#
# 1 61.7236 -7.0126 17.1933 0.0000 17.9654 0.0000
# 2 -7.0126 82.4117 19.3049 0.0000 0.0602 0.0000
# 3 17.1933 19.3049 384.0657 0.0000 28.6816 0.0000
# 4 0.0000 0.0000 0.0000 16.1467 0.0000 -4.0807
# 5 17.9654 0.0602 28.6816 0.0000 21.3369 0.0000
# 6 0.0000 0.0000 0.0000 -4.0807 0.0000 6.4281
#
#
#
# Elastic Compliance Matrix: (Units=1/GPa)
#
#
# Indices 1 2 3 4 5 6 
#
# 1 0.021782 0.001788 0.000339 0.000000 -0.018801 0.000000
# 2 0.001788 0.012441 -0.000656 0.000000 -0.000658 0.000000
# 3 0.000339 -0.000656 0.002938 0.000000 -0.004232 0.000000
# 4 0.000000 0.000000 0.000000 0.073767 0.000000 0.046829
# 5 -0.018801 -0.000658 -0.004232 0.000000 0.068389 0.000000
# 6 0.000000 0.000000 0.000000 0.046829 0.000000 0.185294
#
#
# Mechanical properties :
#
#
# Convention : Reuss Voigt Hill
#
# Bulk Modulus (GPa) = 24.93653 65.24135 45.08894
# Shear Modulus (GPa) = 13.33206 42.03005 27.68105
#
# Velocity S-wave (km/s) = 2.28311 4.05376 3.28980
# Velocity P-wave (km/s) = 4.08655 6.88614 5.66210
#
# Compressibility (1/GPa) = 0.04010181
#
# Stress axis : x y z
#
# Youngs Moduli (GPa) = 45.90883 80.38250 340.41404
#
# Poissons Ratio (x) = -0.14371 -0.11543
# Poissons Ratio (y) = -0.08208 0.22338
# Poissons Ratio (z) = -0.01557 0.05275
#
# Static dielectric constant tensor:
#      x y z
#    x 2.069250 0.000000 -0.055690 
#    y 0.000000 2.016420 0.000000 
#    z -0.055690 0.000000 2.214770 
# 
# From -- ./inp_files/319172.got.cif
#   From: 2010.05.17/outbox.cif.g08.bks.cpg/sg12_160_cif.got.tgz:319172.got - 2010.06.03 13:09:07.
