data_PCOD9177044
_publ_section_title
;
Structure prediction by ZEFSAII (Michael W. Deem and Ramdas Pophale) SiO2 
 PCOD9177044
Probable space group: C 2/M
;
_chemical_formula_sum "Si O2"
_cell_formula_units_Z 48
_cell_length_a 28.774803
_cell_length_b 14.506867
_cell_length_c 12.164637
_cell_angle_alpha 90.000000
_cell_angle_beta 28.751585
_cell_angle_gamma 90.000000
_cell_volume 2442.541639
_symmetry_space_group_name_H-M "C 2/M"
_symmetry_group_IT_number 12
_symmetry_cell_setting 'monoclinic'
loop_
_space_group_symop_operation_xyz
x,y,z
-x,y,-z
-x,-y,-z
x,-y,z
1/2+x,1/2+y,z
1/2-x,1/2+y,-z
1/2-x,1/2-y,-z
1/2+x,1/2-y,z
loop_
_atom_site_type_symbol
_atom_site_label
_atom_site_fract_x
_atom_site_fract_y
_atom_site_fract_z
Si Si1 0.528487 0.732339 0.820146
Si Si2 0.237203 0.396753 0.801087
Si Si3 0.217505 0.848957 0.521600
Si Si4 0.392022 0.892339 0.725009
Si Si5 0.649105 0.395630 0.889808
Si Si6 0.823557 0.295783 0.653957
O O1 0.612532 0.660833 0.682766
O O2 0.583499 0.801143 0.621488
O O3 0.500000 0.773406 0.000000
O O4 0.441007 0.674269 0.946517
O O5 0.277609 0.500000 0.729150
O O6 0.215108 0.381211 0.717804
O O7 0.304984 0.313475 0.698012
O O8 0.148428 0.388338 0.068256
O O9 0.250000 0.750000 0.500000
O O10 0.202229 0.905608 0.662187
O O11 0.500000 0.856639 0.500000
O O12 0.336891 0.836646 0.746365
O O13 0.391262 0.000000 0.693438
O O14 0.622655 0.500000 0.981965
O O15 0.729022 0.344866 0.798851
#
# Coordination Sequence:
#
# PCOD9177044 Si02
#       6
#     8   8   8   8   8   8
#     4   9  21  34  58  88 126 164 203 248 308 376
#     4  10  21  38  62  87 118 161 209 253 305 374
#     4  10  18  37  60  88 126 164 204 248 308 379
#     4  10  23  41  62  88 118 163 216 257 309 378
#     4  11  22  37  62  96 128 163 206 258 318 374
#     4  11  22  40  65  90 128 164 204 266 318 369
#
# _framework density 19.651662000000002
#
# number of rings (size 3 to 8) (size 9 to 14) (size 15 to 20)
#    0.000    1.833    3.333    1.500    2.333    5.667 
#    0.000    0.000    0.000    1.500    0.000    0.000 
#    0.000    0.000    0.000    0.000    0.000    0.000 
#
# Total GULP energy -133626.526367 kJ/mol
# GULP energy per Si atom -5567.771932 kJ/mol
# Density = 1.960693 g / cm^3
# Si number density = 19.651662 Si / 1000 Ang^3
#
#
#
# Elastic Constant Matrix: (Units=GPa)
#
#
# Indices 1 2 3 4 5 6 
#
# 1 105.4307 35.1670 46.6510 0.0000 -10.8416 0.0000
# 2 35.1670 72.4545 20.1694 0.0000 -15.1377 0.0000
# 3 46.6510 20.1694 77.2107 0.0000 -2.5607 0.0000
# 4 0.0000 0.0000 0.0000 20.1086 0.0000 1.7629
# 5 -10.8416 -15.1377 -2.5607 0.0000 25.5144 0.0000
# 6 0.0000 0.0000 0.0000 1.7629 0.0000 10.3078
#
#
#
# Elastic Compliance Matrix: (Units=1/GPa)
#
#
# Indices 1 2 3 4 5 6 
#
# 1 0.014591 -0.004379 -0.007578 0.000000 0.002841 0.000000
# 2 -0.004379 0.018277 -0.001837 0.000000 0.008799 0.000000
# 3 -0.007578 -0.001837 0.017927 0.000000 -0.002511 0.000000
# 4 0.000000 0.000000 0.000000 0.050487 0.000000 -0.008634
# 5 0.002841 0.008799 -0.002511 0.000000 0.045369 0.000000
# 6 0.000000 0.000000 0.000000 -0.008634 0.000000 0.098490
#
#
# Mechanical properties :
#
#
# Convention : Reuss Voigt Hill
#
# Bulk Modulus (GPa) = 43.08976 51.00787 47.04882
# Shear Modulus (GPa) = 17.82770 21.39340 19.61055
#
# Velocity S-wave (km/s) = 3.01522 3.30302 3.16239
# Velocity P-wave (km/s) = 5.83922 6.36859 6.10964
#
# Compressibility (1/GPa) = 0.02320737
#
# Stress axis : x y z
#
# Youngs Moduli (GPa) = 68.53732 54.71461 55.78303
#
# Poissons Ratio (x) = 0.23958 0.42270
# Poissons Ratio (y) = 0.30011 0.10247
# Poissons Ratio (z) = 0.51935 0.10050
#
# Static dielectric constant tensor:
#      x y z
#    x 1.699010 0.000000 0.033480 
#    y 0.000000 1.773970 0.000000 
#    z 0.033480 0.000000 1.775330 
# 
# From -- ./inp_files/183683.got.cif
#   From: 2010.05.17/outbox.cif.g08.bks.cpg/sg12_92_cif.got.tgz:183683.got - 2010.06.03 13:09:07.
