data_PCOD9177382
_publ_section_title
;
Structure prediction by ZEFSAII (Michael W. Deem and Ramdas Pophale) SiO2 
 PCOD9177382
Probable space group: C 2/M
;
_chemical_formula_sum "Si O2"
_cell_formula_units_Z 48
_cell_length_a 18.651416
_cell_length_b 12.659681
_cell_length_c 14.994531
_cell_angle_alpha 90.000000
_cell_angle_beta 128.044180
_cell_angle_gamma 90.000000
_cell_volume 2788.288823
_symmetry_space_group_name_H-M "C 2/M"
_symmetry_group_IT_number 12
_symmetry_cell_setting 'monoclinic'
loop_
_space_group_symop_operation_xyz
x,y,z
-x,y,-z
-x,-y,-z
x,-y,z
1/2+x,1/2+y,z
1/2-x,1/2+y,-z
1/2-x,1/2-y,-z
1/2+x,1/2-y,z
loop_
_atom_site_type_symbol
_atom_site_label
_atom_site_fract_x
_atom_site_fract_y
_atom_site_fract_z
Si Si1 0.173658 0.500000 0.284351
Si Si2 0.519587 0.771488 0.812315
Si Si3 0.216898 0.500000 0.121969
Si Si4 0.295499 0.625197 0.798026
Si Si5 0.500000 0.691684 0.000000
Si Si6 0.797862 0.222098 0.128963
Si Si7 0.811449 0.734447 0.633241
Si Si8 0.462512 0.000000 0.126907
O O1 0.226758 0.500000 0.234291
O O2 0.193473 0.610040 0.347094
O O3 0.066868 0.500000 0.175862
O O4 0.596025 0.713429 0.814239
O O5 0.419028 0.746192 0.701008
O O6 0.545963 0.894132 0.822755
O O7 0.517515 0.752247 0.918883
O O8 0.261407 0.607502 0.124927
O O9 0.113173 0.500000 0.007114
O O10 0.272671 0.500000 0.774970
O O11 0.235259 0.691098 0.823740
O O12 0.285814 0.689396 0.697028
O O13 0.403274 0.633592 0.908438
O O14 0.750000 0.250000 0.000000
O O15 0.750000 0.750000 0.500000
#
# Coordination Sequence:
#
# PCOD9177382 Si02
#       8
#     4   8   4   8   4   8   8   4
#     4  10  21  38  63  88 111 151 206 253 290 338
#     4  10  22  36  57  89 118 156 198 240 295 349
#     4  12  21  36  57  86 129 157 190 236 296 363
#     4  11  23  37  60  87 122 157 196 242 296 354
#     4  10  19  37  54  84 122 155 198 235 288 360
#     4  12  23  36  55  89 128 161 188 228 300 367
#     4  10  23  44  65  85 113 155 208 255 290 337
#     4  10  19  28  58  87 118 150 189 241 295 344
#
# _framework density 17.214860000000002
#
# number of rings (size 3 to 8) (size 9 to 14) (size 15 to 20)
#    0.000    1.333    5.000    0.500    8.167    0.000 
#    6.000    0.833    0.000    2.000    0.000    0.000 
#    0.000    0.000    0.000    0.000    0.000    0.000 
#
# Total GULP energy -133714.749962 kJ/mol
# GULP energy per Si atom -5571.447915 kJ/mol
# Density = 1.717568 g / cm^3
# Si number density = 17.214860 Si / 1000 Ang^3
#
#
#
# Elastic Constant Matrix: (Units=GPa)
#
#
# Indices 1 2 3 4 5 6 
#
# 1 91.8138 66.2794 82.5653 0.0000 -10.2379 0.0000
# 2 66.2794 149.0119 58.8324 0.0000 -7.3602 0.0000
# 3 82.5653 58.8324 130.1484 0.0000 7.5126 0.0000
# 4 0.0000 0.0000 0.0000 15.4798 0.0000 2.5780
# 5 -10.2379 -7.3602 7.5126 0.0000 17.4342 0.0000
# 6 0.0000 0.0000 0.0000 2.5780 0.0000 43.8893
#
#
#
# Elastic Compliance Matrix: (Units=1/GPa)
#
#
# Indices 1 2 3 4 5 6 
#
# 1 0.043637 -0.007346 -0.026317 0.000000 0.033864 0.000000
# 2 -0.007346 0.009886 0.000205 0.000000 -0.000228 0.000000
# 3 -0.026317 0.000205 0.025815 0.000000 -0.026492 0.000000
# 4 0.000000 0.000000 0.000000 0.065239 0.000000 -0.003832
# 5 0.033864 -0.000228 -0.026492 0.000000 0.088564 0.000000
# 6 0.000000 0.000000 0.000000 -0.003832 0.000000 0.023010
#
#
# Mechanical properties :
#
#
# Convention : Reuss Voigt Hill
#
# Bulk Modulus (GPa) = 80.50502 87.36981 83.93741
# Shear Modulus (GPa) = 15.28080 26.24712 20.76396
#
# Velocity S-wave (km/s) = 2.98258 3.90895 3.47676
# Velocity P-wave (km/s) = 7.66338 8.44014 8.06112
#
# Compressibility (1/GPa) = 0.01242159
#
# Stress axis : x y z
#
# Youngs Moduli (GPa) = 22.91645 101.14883 38.73659
#
# Poissons Ratio (x) = 0.74308 1.01942
# Poissons Ratio (y) = 0.16835 -0.00793
# Poissons Ratio (z) = 0.60309 -0.02070
#
# Static dielectric constant tensor:
#      x y z
#    x 1.717390 0.000000 0.021690 
#    y 0.000000 1.618760 0.000000 
#    z 0.021690 0.000000 1.561730 
# 
# From -- ./inp_files/154357.got.cif
#   From: 2010.05.17/outbox.cif.g08.bks.cpg/sg12_78_cif.got.tgz:154357.got - 2010.06.03 13:09:07.
