data_PCOD9177313
_publ_section_title
;
Structure prediction by ZEFSAII (Michael W. Deem and Ramdas Pophale) SiO2 
 PCOD9177313
Probable space group: C 2/M
;
_chemical_formula_sum "Si O2"
_cell_formula_units_Z 64
_cell_length_a 14.701322
_cell_length_b 12.021005
_cell_length_c 14.275842
_cell_angle_alpha 90.000000
_cell_angle_beta 114.940850
_cell_angle_gamma 90.000000
_cell_volume 2287.617441
_symmetry_space_group_name_H-M "C 2/M"
_symmetry_group_IT_number 12
_symmetry_cell_setting 'monoclinic'
loop_
_space_group_symop_operation_xyz
x,y,z
-x,y,-z
-x,-y,-z
x,-y,z
1/2+x,1/2+y,z
1/2-x,1/2+y,-z
1/2-x,1/2-y,-z
1/2+x,1/2-y,z
loop_
_atom_site_type_symbol
_atom_site_label
_atom_site_fract_x
_atom_site_fract_y
_atom_site_fract_z
Si Si1 0.077405 0.125004 0.119780
Si Si2 0.704163 0.151196 0.376605
Si Si3 0.908500 0.882840 0.366790
Si Si4 0.742334 0.885807 0.596051
Si Si5 0.106839 0.622314 0.139012
Si Si6 0.901899 0.622619 0.145083
Si Si7 0.119772 0.873448 0.856576
Si Si8 0.046922 0.351239 0.618418
O O1 0.132840 0.245579 0.129148
O O2 0.000014 0.132007 0.173899
O O3 0.126884 0.000000 0.142593
O O4 0.000000 0.121490 0.000000
O O5 0.821756 0.128697 0.406580
O O6 0.682191 0.112549 0.471447
O O7 0.687983 0.281705 0.374422
O O8 0.648741 0.110393 0.262459
O O9 0.855414 0.879340 0.242497
O O10 0.978984 0.778176 0.396075
O O11 0.961005 0.000000 0.394716
O O12 0.664662 0.869760 0.646233
O O13 0.798194 0.000000 0.628431
O O14 0.133910 0.500000 0.105701
O O15 0.986624 0.623797 0.101113
O O16 0.850634 0.500000 0.117592
O O17 0.848496 0.743695 0.107611
O O18 0.955664 0.620862 0.272317
O O19 0.148304 0.000000 0.906165
O O20 0.000000 0.394048 0.500000
#
# Coordination Sequence:
#
# PCOD9177313 Si02
#       8
#     8   8   8   8   8   8   8   8
#     4   9  18  33  53  77 102 123 146 186 240 291
#     4  10  20  32  46  66  92 126 166 201 236 276
#     4   9  17  30  46  62  86 120 156 194 230 272
#     4  10  20  32  45  63  91 126 164 205 243 280
#     4  10  19  31  50  73  97 127 161 195 232 282
#     4   9  17  28  42  63  89 116 149 189 231 271
#     4   8  15  29  48  68  88 114 148 181 220 272
#     4  10  19  28  41  63  88 118 156 197 243 284
#
# _framework density 27.976706
#
# number of rings (size 3 to 8) (size 9 to 14) (size 15 to 20)
#    0.000    2.625    0.000    2.250    0.000    3.000 
#    0.000    0.000    0.000    9.750    0.000    0.000 
#    0.000    0.000    0.000    0.000    0.000    0.000 
#
# Total GULP energy -178161.428859 kJ/mol
# GULP energy per Si atom -5567.544652 kJ/mol
# Density = 2.791303 g / cm^3
# Si number density = 27.976706 Si / 1000 Ang^3
#
#
#
# Elastic Constant Matrix: (Units=GPa)
#
#
# Indices 1 2 3 4 5 6 
#
# 1 80.6440 9.7983 20.9094 0.0000 -29.5110 0.0000
# 2 9.7983 379.7592 20.7183 0.0000 12.2956 0.0000
# 3 20.9094 20.7183 108.1175 0.0000 -4.1967 0.0000
# 4 0.0000 0.0000 0.0000 491.9999 0.0000 73.2686
# 5 -29.5110 12.2956 -4.1967 0.0000 41.2636 0.0000
# 6 0.0000 0.0000 0.0000 73.2686 0.0000 12.1101
#
#
#
# Elastic Compliance Matrix: (Units=1/GPa)
#
#
# Indices 1 2 3 4 5 6 
#
# 1 0.017870 -0.000718 -0.002825 0.000000 0.012707 0.000000
# 2 -0.000718 0.002720 -0.000435 0.000000 -0.001368 0.000000
# 3 -0.002825 -0.000435 0.009844 0.000000 -0.000889 0.000000
# 4 0.000000 0.000000 0.000000 0.020530 0.000000 -0.124212
# 5 0.012707 -0.001368 -0.000889 0.000000 0.033640 0.000000
# 6 0.000000 0.000000 0.000000 -0.124212 0.000000 0.834088
#
#
# Mechanical properties :
#
#
# Convention : Reuss Voigt Hill
#
# Bulk Modulus (GPa) = 44.49070 74.59699 59.54384
# Shear Modulus (GPa) = 5.35250 143.54768 74.45009
#
# Velocity S-wave (km/s) = 1.38469 7.17085 5.16423
# Velocity P-wave (km/s) = 4.30044 9.76132 7.54245
#
# Compressibility (1/GPa) = 0.02247661
#
# Stress axis : x y z
#
# Youngs Moduli (GPa) = 55.95983 367.66815 101.58002
#
# Poissons Ratio (x) = 0.26412 0.28697
# Poissons Ratio (y) = 0.04020 0.04423
# Poissons Ratio (z) = 0.15809 0.16008
#
# Static dielectric constant tensor:
#      x y z
#    x 2.131540 0.000000 0.044640 
#    y 0.000000 2.278990 0.000000 
#    z 0.044640 0.000000 2.206450 
# 
# From -- ./inp_files/232511.got.cif
#   From: 2010.05.17/outbox.cif.g08.bks.cpg/sg12_117_cif.got.tgz:232511.got - 2010.06.03 13:09:07.
