data_PCOD9177010
_publ_section_title
;
Structure prediction by ZEFSAII (Michael W. Deem and Ramdas Pophale) SiO2 
 PCOD9177010
Probable space group: C 2/M
;
_chemical_formula_sum "Si O2"
_cell_formula_units_Z 56
_cell_length_a 20.920052
_cell_length_b 20.246316
_cell_length_c 8.940282
_cell_angle_alpha 90.000000
_cell_angle_beta 122.402083
_cell_angle_gamma 90.000000
_cell_volume 3197.136080
_symmetry_space_group_name_H-M "C 2/M"
_symmetry_group_IT_number 12
_symmetry_cell_setting 'monoclinic'
loop_
_space_group_symop_operation_xyz
x,y,z
-x,y,-z
-x,-y,-z
x,-y,z
1/2+x,1/2+y,z
1/2-x,1/2+y,-z
1/2-x,1/2-y,-z
1/2+x,1/2-y,z
loop_
_atom_site_type_symbol
_atom_site_label
_atom_site_fract_x
_atom_site_fract_y
_atom_site_fract_z
Si Si1 0.415392 0.757200 0.359462
Si Si2 0.276227 0.427058 0.765656
Si Si3 0.562844 0.423409 0.191528
Si Si4 0.736392 0.426541 0.891546
Si Si5 0.920781 0.892886 0.449525
Si Si6 0.811349 0.713004 0.972052
Si Si7 0.233169 0.287120 0.631282
O O1 0.500000 0.781981 0.500000
O O2 0.419717 0.677911 0.365949
O O3 0.386770 0.784228 0.164290
O O4 0.348103 0.770698 0.394916
O O5 0.243784 0.500000 0.693967
O O6 0.360388 0.425670 0.806072
O O7 0.235636 0.366066 0.635981
O O8 0.276773 0.418338 0.946093
O O9 0.541413 0.500000 0.200985
O O10 0.576073 0.387921 0.366482
O O11 0.500000 0.395406 0.000000
O O12 0.770405 0.500000 0.911501
O O13 0.656758 0.425332 0.703605
O O14 0.784340 0.361769 0.906044
O O15 0.000000 0.925227 0.500000
O O16 0.750000 0.750000 0.000000
O O17 0.803040 0.759302 0.818810
O O18 0.250000 0.250000 0.500000
#
# Coordination Sequence:
#
# PCOD9177010 Si02
#       7
#     8   8   8   8   8   8   8
#     4  10  20  36  58  80 109 146 186 236 282 321
#     4  10  20  33  52  77 106 139 184 233 278 329
#     4  10  21  34  45  69 114 151 177 222 274 324
#     4  11  20  33  55  79 105 144 188 228 278 335
#     4  11  20  32  51  78 108 146 189 224 270 335
#     4  10  18  37  55  75 109 143 178 232 273 322
#     4  11  20  36  59  81 111 150 187 223 281 337
#
# _framework density 17.515675999999999
#
# number of rings (size 3 to 8) (size 9 to 14) (size 15 to 20)
#    0.000    1.571    5.714    2.143    0.000    3.429 
#    0.000    0.714    0.000    1.714    0.000    0.000 
#    0.000    2.286    0.000    0.000    0.000    0.000 
#
# Total GULP energy -155928.855019 kJ/mol
# GULP energy per Si atom -5568.887679 kJ/mol
# Density = 1.747581 g / cm^3
# Si number density = 17.515676 Si / 1000 Ang^3
#
#
#
# Elastic Constant Matrix: (Units=GPa)
#
#
# Indices 1 2 3 4 5 6 
#
# 1 36.6170 7.0044 16.8348 0.0000 7.8828 0.0000
# 2 7.0044 115.1700 29.0214 0.0000 8.6009 0.0000
# 3 16.8348 29.0214 100.4895 0.0000 8.7072 0.0000
# 4 0.0000 0.0000 0.0000 17.8331 0.0000 1.8642
# 5 7.8828 8.6009 8.7072 0.0000 30.1816 0.0000
# 6 0.0000 0.0000 0.0000 1.8642 0.0000 -5.8471
#
#
#
# Elastic Compliance Matrix: (Units=1/GPa)
#
#
# Indices 1 2 3 4 5 6 
#
# 1 0.030876 -0.000238 -0.004524 0.000000 -0.006691 0.000000
# 2 -0.000238 0.009478 -0.002532 0.000000 -0.001908 0.000000
# 3 -0.004524 -0.002532 0.011565 0.000000 -0.001433 0.000000
# 4 0.000000 0.000000 0.000000 0.054267 0.000000 0.017302
# 5 -0.006691 -0.001908 -0.001433 0.000000 0.035838 0.000000
# 6 0.000000 0.000000 0.000000 0.017302 0.000000 -0.165509
#
#
# Mechanical properties :
#
#
# Convention : Reuss Voigt Hill
#
# Bulk Modulus (GPa) = 26.78820 39.77752 33.28286
# Shear Modulus (GPa) = 1410.55950 21.72791 716.14370
#
# Velocity S-wave (km/s) = 28.40882 3.52587 20.24219
# Velocity P-wave (km/s) = 33.03647 6.27173 23.77754
#
# Compressibility (1/GPa) = 0.03732987
#
# Stress axis : x y z
#
# Youngs Moduli (GPa) = 32.38807 105.50934 86.47075
#
# Poissons Ratio (x) = 0.02512 0.39119
# Poissons Ratio (y) = 0.00771 0.21894
# Poissons Ratio (z) = 0.14652 0.26715
#
# Static dielectric constant tensor:
#      x y z
#    x 1.606510 0.000000 -0.004830 
#    y 0.000000 1.660960 0.000000 
#    z -0.004830 0.000000 1.644800 
# 
# From -- ./inp_files/89691.got.cif
#   From: 2010.05.17/outbox.cif.g08.bks.cpg/sg12_45_cif.got.tgz:89691.got - 2010.06.03 13:09:07.
