data_PCOD9177020
_publ_section_title
;
Structure prediction by ZEFSAII (Michael W. Deem and Ramdas Pophale) SiO2 
 PCOD9177020
Probable space group: C 2/M
;
_chemical_formula_sum "Si O2"
_cell_formula_units_Z 64
_cell_length_a 14.710912
_cell_length_b 20.739441
_cell_length_c 17.641322
_cell_angle_alpha 90.000000
_cell_angle_beta 147.130516
_cell_angle_gamma 90.000000
_cell_volume 2921.119668
_symmetry_space_group_name_H-M "C 2/M"
_symmetry_group_IT_number 12
_symmetry_cell_setting 'monoclinic'
loop_
_space_group_symop_operation_xyz
x,y,z
-x,y,-z
-x,-y,-z
x,-y,z
1/2+x,1/2+y,z
1/2-x,1/2+y,-z
1/2-x,1/2-y,-z
1/2+x,1/2-y,z
loop_
_atom_site_type_symbol
_atom_site_label
_atom_site_fract_x
_atom_site_fract_y
_atom_site_fract_z
Si Si1 0.894582 0.074046 0.098573
Si Si2 0.529114 0.929627 0.897483
Si Si3 0.919683 0.244614 0.262828
Si Si4 0.478700 0.893897 0.690686
Si Si5 0.820369 0.099431 0.885784
Si Si6 0.313720 0.353485 0.611905
Si Si7 0.557200 0.788333 0.958988
Si Si8 0.236210 0.789427 0.277093
O O1 0.054136 0.102120 0.251446
O O2 0.921365 0.000000 0.092127
O O3 0.731311 0.071020 0.036675
O O4 0.840912 0.117782 0.989228
O O5 0.469600 0.921005 0.768876
O O6 0.492813 0.861803 0.910799
O O7 0.472517 0.000000 0.886525
O O8 0.856001 0.246801 0.306490
O O9 0.970083 0.317551 0.275209
O O10 0.075464 0.197470 0.358045
O O11 0.756852 0.221588 0.099231
O O12 0.634137 0.928904 0.757709
O O13 0.306677 0.895009 0.525265
O O14 0.808728 0.152395 0.811899
O O15 0.000000 0.066967 0.000000
O O16 0.204258 0.318106 0.601073
O O17 0.435131 0.747974 0.819474
O O18 0.500000 0.761593 0.000000
#
# Coordination Sequence:
#
# PCOD9177020 Si02
#       8
#     8   8   8   8   8   8   8   8
#     4  10  22  37  58  84 113 158 211 251 296 354
#     4  10  21  40  60  83 115 158 208 256 295 351
#     4  10  21  36  57  89 127 153 194 246 312 363
#     4  10  23  36  57  88 118 158 200 237 304 368
#     4  10  18  37  56  82 118 154 193 252 303 348
#     4  12  22  37  60  87 124 163 197 246 305 364
#     4  10  20  34  61  94 119 154 199 256 306 360
#     4  10  21  35  58  93 124 150 199 246 306 368
#
# _framework density 21.909407000000002
#
# number of rings (size 3 to 8) (size 9 to 14) (size 15 to 20)
#    0.000    1.750    2.500    3.000    1.750    4.000 
#    0.000    1.250    0.000    0.750    0.000    3.500 
#    0.000    0.000    0.000    0.000    0.000    0.000 
#
# Total GULP energy -178312.933815 kJ/mol
# GULP energy per Si atom -5572.279182 kJ/mol
# Density = 2.185954 g / cm^3
# Si number density = 21.909407 Si / 1000 Ang^3
#
#
#
# Elastic Constant Matrix: (Units=GPa)
#
#
# Indices 1 2 3 4 5 6 
#
# 1 67.9016 6.0959 20.6232 0.0019 0.0874 0.0011
# 2 6.0959 58.7342 17.7821 0.0062 -3.1771 0.0028
# 3 20.6232 17.7821 121.2202 0.0045 6.0626 0.0082
# 4 0.0019 0.0062 0.0045 2.6035 0.0019 -8.2981
# 5 0.0874 -3.1771 6.0626 0.0019 19.8364 0.0050
# 6 0.0011 0.0028 0.0082 -8.2981 0.0050 -1.0449
#
#
#
# Elastic Compliance Matrix: (Units=1/GPa)
#
#
# Indices 1 2 3 4 5 6 
#
# 1 0.015577 -0.000810 -0.002560 0.000000 0.000584 0.000001
# 2 -0.000810 0.018132 -0.002709 0.000004 0.003736 0.000014
# 3 -0.002560 -0.002709 0.009245 0.000005 -0.003248 0.000003
# 4 0.000000 0.000004 0.000005 0.014598 0.000027 -0.115930
# 5 0.000584 0.003736 -0.003248 0.000027 0.052001 0.000021
# 6 0.000001 0.000014 0.000003 -0.115930 0.000021 -0.036373
#
#
# Mechanical properties :
#
#
# Convention : Reuss Voigt Hill
#
# Bulk Modulus (GPa) = 32.47248 37.42870 34.95059
# Shear Modulus (GPa) = 52.29961 17.83601 35.06781
#
# Velocity S-wave (km/s) = 4.89108 2.85630 4.00507
# Velocity P-wave (km/s) = 6.83742 5.29136 6.11346
#
# Compressibility (1/GPa) = 0.03079530
#
# Stress axis : x y z
#
# Youngs Moduli (GPa) = 64.19794 55.15079 108.16791
#
# Poissons Ratio (x) = 0.04466 0.27696
# Poissons Ratio (y) = 0.05199 0.29302
# Poissons Ratio (z) = 0.16438 0.14940
#
# Static dielectric constant tensor:
#      x y z
#    x 1.846070 0.000000 0.007320 
#    y 0.000000 1.881980 0.000000 
#    z 0.007320 0.000000 1.845080 
# 
# From -- ./inp_files/317823.got.cif
#   From: 2010.05.17/outbox.cif.g08.bks.cpg/sg12_159_cif.got.tgz:317823.got - 2010.06.03 13:09:07.
