data_PCOD9177285
_publ_section_title
;
Structure prediction by ZEFSAII (Michael W. Deem and Ramdas Pophale) SiO2 
 PCOD9177285
Probable space group: C 2/M
;
_chemical_formula_sum "Si O2"
_cell_formula_units_Z 64
_cell_length_a 33.170409
_cell_length_b 8.810544
_cell_length_c 16.491768
_cell_angle_alpha 90.000000
_cell_angle_beta 109.806667
_cell_angle_gamma 90.000000
_cell_volume 4534.580984
_symmetry_space_group_name_H-M "C 2/M"
_symmetry_group_IT_number 12
_symmetry_cell_setting 'monoclinic'
loop_
_space_group_symop_operation_xyz
x,y,z
-x,y,-z
-x,-y,-z
x,-y,z
1/2+x,1/2+y,z
1/2-x,1/2+y,-z
1/2-x,1/2-y,-z
1/2+x,1/2-y,z
loop_
_atom_site_type_symbol
_atom_site_label
_atom_site_fract_x
_atom_site_fract_y
_atom_site_fract_z
Si Si1 0.832205 0.818335 0.176057
Si Si2 0.595669 0.816220 0.477779
Si Si3 0.705210 0.182015 0.001358
Si Si4 0.239864 0.318089 0.192253
Si Si5 0.317387 0.318646 0.521683
Si Si6 0.591945 0.184223 0.665539
Si Si7 0.502102 0.823666 0.403078
Si Si8 0.757974 0.181095 0.631811
O O1 0.829428 0.750614 0.083431
O O2 0.787526 0.777805 0.191520
O O3 0.871664 0.753006 0.253376
O O4 0.834015 0.000000 0.173018
O O5 0.635836 0.750574 0.457699
O O6 0.599759 0.776711 0.576196
O O7 0.549007 0.759552 0.415335
O O8 0.592547 0.000000 0.670990
O O9 0.705917 0.000000 0.994447
O O10 0.750000 0.250000 0.000000
O O11 0.706197 0.219690 0.097603
O O12 0.239277 0.500000 0.203142
O O13 0.231884 0.237616 0.271559
O O14 0.319289 0.500000 0.517084
O O15 0.285865 0.255706 0.430488
O O16 0.294551 0.277653 0.591168
O O17 0.543804 0.239472 0.655412
O O18 0.497349 0.000000 0.622150
O O19 0.500000 0.823730 0.500000
O O20 0.595712 0.000000 0.473500
O O21 0.752889 0.000000 0.627299
#
# Coordination Sequence:
#
# PCOD9177285 Si02
#       8
#     8   8   8   8   8   8   8   8
#     4  10  19  28  39  59  85 110 136 165 197 235
#     4   9  16  27  44  61  77 105 141 169 199 239
#     4   9  17  29  43  59  79 104 133 164 200 238
#     4   9  18  30  43  59  80 105 133 168 204 234
#     4  10  20  31  41  57  82 107 134 171 206 233
#     4   9  16  26  41  60  82 108 137 168 199 233
#     4   7  12  24  40  58  79 102 132 168 199 231
#     4  10  20  31  43  58  77 106 140 169 200 238
#
# _framework density 14.113761999999999
#
# number of rings (size 3 to 8) (size 9 to 14) (size 15 to 20)
#    0.000    2.875    0.000    4.500    0.000    7.000 
#    0.000    0.625    0.000    2.250    0.000    0.000 
#    0.000    1.000    0.000   11.250    0.000    5.625 
#
# Total GULP energy -178148.228669 kJ/mol
# GULP energy per Si atom -5567.132146 kJ/mol
# Density = 1.408164 g / cm^3
# Si number density = 14.113762 Si / 1000 Ang^3
#
#
#
# Elastic Constant Matrix: (Units=GPa)
#
#
# Indices 1 2 3 4 5 6 
#
# 1 86.3046 22.4321 31.9878 0.0000 10.3454 0.0000
# 2 22.4321 23.1734 27.8988 0.0000 2.2830 0.0000
# 3 31.9878 27.8988 86.9908 0.0000 8.9787 0.0000
# 4 0.0000 0.0000 0.0000 22.3184 0.0000 0.1028
# 5 10.3454 2.2830 8.9787 0.0000 19.8134 0.0000
# 6 0.0000 0.0000 0.0000 0.1028 0.0000 18.3500
#
#
#
# Elastic Compliance Matrix: (Units=1/GPa)
#
#
# Indices 1 2 3 4 5 6 
#
# 1 0.016367 -0.014280 -0.000762 0.000000 -0.006555 0.000000
# 2 -0.014280 0.082846 -0.022138 0.000000 0.007942 0.000000
# 3 -0.000762 -0.022138 0.019483 0.000000 -0.005880 0.000000
# 4 0.000000 0.000000 0.000000 0.044807 0.000000 -0.000251
# 5 -0.006555 0.007942 -0.005880 0.000000 0.055643 0.000000
# 6 0.000000 0.000000 0.000000 -0.000251 0.000000 0.054497
#
#
# Mechanical properties :
#
#
# Convention : Reuss Voigt Hill
#
# Bulk Modulus (GPa) = 22.55565 40.12291 31.33928
# Shear Modulus (GPa) = 13.78239 19.70637 16.74438
#
# Velocity S-wave (km/s) = 3.12832 3.74070 3.44813
# Velocity P-wave (km/s) = 5.39116 6.86637 6.17299
#
# Compressibility (1/GPa) = 0.04433478
#
# Stress axis : x y z
#
# Youngs Moduli (GPa) = 61.09986 12.07056 51.32793
#
# Poissons Ratio (x) = 0.17237 0.03911
# Poissons Ratio (y) = 0.87250 1.13632
# Poissons Ratio (z) = 0.04656 0.26722
#
# Static dielectric constant tensor:
#      x y z
#    x 1.475970 0.000000 0.011950 
#    y 0.000000 1.474120 0.000000 
#    z 0.011950 0.000000 1.465940 
# 
# From -- ./inp_files/248511.got.cif
#   From: 2010.05.17/outbox.cif.g08.bks.cpg/sg12_125_cif.got.tgz:248511.got - 2010.06.03 13:09:07.
