data_PCOD9177342
_publ_section_title
;
Structure prediction by ZEFSAII (Michael W. Deem and Ramdas Pophale) SiO2 
 PCOD9177342
Probable space group: C 2/M
;
_chemical_formula_sum "Si O2"
_cell_formula_units_Z 56
_cell_length_a 28.236588
_cell_length_b 8.802092
_cell_length_c 16.627084
_cell_angle_alpha 90.000000
_cell_angle_beta 115.187269
_cell_angle_gamma 90.000000
_cell_volume 3739.600284
_symmetry_space_group_name_H-M "C 2/M"
_symmetry_group_IT_number 12
_symmetry_cell_setting 'monoclinic'
loop_
_space_group_symop_operation_xyz
x,y,z
-x,y,-z
-x,-y,-z
x,-y,z
1/2+x,1/2+y,z
1/2-x,1/2+y,-z
1/2-x,1/2-y,-z
1/2+x,1/2-y,z
loop_
_atom_site_type_symbol
_atom_site_label
_atom_site_fract_x
_atom_site_fract_y
_atom_site_fract_z
Si Si1 0.563063 0.815485 0.460720
Si Si2 0.145809 0.818203 0.814820
Si Si3 0.745308 0.817608 0.194993
Si Si4 0.264954 0.318642 0.636725
Si Si5 0.555836 0.183844 0.640942
Si Si6 0.831947 0.683347 0.547628
Si Si7 0.303365 0.182111 0.001873
O O1 0.504861 0.770488 0.391360
O O2 0.570179 0.772001 0.559409
O O3 0.611190 0.763861 0.440924
O O4 0.563512 0.000000 0.460578
O O5 0.197992 0.773743 0.801404
O O6 0.095517 0.756986 0.731988
O O7 0.145388 0.000000 0.819547
O O8 0.152120 0.749826 0.908795
O O9 0.736075 0.742525 0.273866
O O10 0.701470 0.779116 0.095997
O O11 0.745693 0.000000 0.204360
O O12 0.268067 0.500000 0.639418
O O13 0.211217 0.275370 0.551313
O O14 0.311533 0.251661 0.616157
O O15 0.559063 0.000000 0.648508
O O16 0.832343 0.500000 0.554236
O O17 0.302768 0.000000 0.008429
O O18 0.250000 0.250000 0.000000
#
# Coordination Sequence:
#
# PCOD9177342 Si02
#       7
#     8   8   8   8   8   8   8
#     4   8  15  28  46  65  85 115 151 182 213 253
#     4  10  19  29  42  64  92 119 146 175 214 260
#     4   9  18  30  43  61  87 116 143 174 211 254
#     4  10  19  28  43  66  86 111 147 180 214 254
#     4   9  16  28  46  66  87 113 149 184 213 252
#     4   9  17  30  44  60  87 118 146 177 212 251
#     4   9  17  29  44  63  87 115 145 176 214 257
#
# _framework density 14.974861000000001
#
# number of rings (size 3 to 8) (size 9 to 14) (size 15 to 20)
#    0.000    2.857    0.000    3.857    0.000    5.143 
#    0.000    2.857    0.000    0.000    0.000    1.000 
#    0.000    8.000    0.000    0.000    0.000    0.000 
#
# Total GULP energy -155961.997073 kJ/mol
# GULP energy per Si atom -5570.071324 kJ/mol
# Density = 1.494078 g / cm^3
# Si number density = 14.974861 Si / 1000 Ang^3
#
#
#
# Elastic Constant Matrix: (Units=GPa)
#
#
# Indices 1 2 3 4 5 6 
#
# 1 98.1541 26.8812 60.4565 0.0000 -4.3123 0.0000
# 2 26.8812 27.3364 41.0981 0.0000 -1.9970 0.0000
# 3 60.4565 41.0981 140.9851 0.0000 -0.6616 0.0000
# 4 0.0000 0.0000 0.0000 25.4971 0.0000 0.2212
# 5 -4.3123 -1.9970 -0.6616 0.0000 23.6556 0.0000
# 6 0.0000 0.0000 0.0000 0.2212 0.0000 16.8935
#
#
#
# Elastic Compliance Matrix: (Units=1/GPa)
#
#
# Indices 1 2 3 4 5 6 
#
# 1 0.015088 -0.008874 -0.003874 0.000000 0.001893 0.000000
# 2 -0.008874 0.070929 -0.016853 0.000000 0.003899 0.000000
# 3 -0.003874 -0.016853 0.013659 0.000000 -0.001747 0.000000
# 4 0.000000 0.000000 0.000000 0.039225 0.000000 -0.000514
# 5 0.001893 0.003899 -0.001747 0.000000 0.042899 0.000000
# 6 0.000000 0.000000 0.000000 -0.000514 0.000000 0.059201
#
#
# Mechanical properties :
#
#
# Convention : Reuss Voigt Hill
#
# Bulk Modulus (GPa) = 24.70716 58.14969 41.42843
# Shear Modulus (GPa) = 15.93919 22.41190 19.17554
#
# Velocity S-wave (km/s) = 3.26605 3.87283 3.58231
# Velocity P-wave (km/s) = 5.54596 7.67556 6.69597
#
# Compressibility (1/GPa) = 0.04047409
#
# Stress axis : x y z
#
# Youngs Moduli (GPa) = 66.27932 14.09863 73.21278
#
# Poissons Ratio (x) = 0.12510 0.28364
# Poissons Ratio (y) = 0.58813 1.23385
# Poissons Ratio (z) = 0.25678 0.23760
#
# Static dielectric constant tensor:
#      x y z
#    x 1.491460 0.000000 0.012220 
#    y 0.000000 1.499070 0.000000 
#    z 0.012220 0.000000 1.503770 
# 
# From -- ./inp_files/243033.got.cif
#   From: 2010.05.17/outbox.cif.g08.bks.cpg/sg12_122_cif.got.tgz:243033.got - 2010.06.03 13:09:07.
