data_PCOD9177893
_publ_section_title
;
Structure prediction by ZEFSAII (Michael W. Deem and Ramdas Pophale) SiO2 
 PCOD9177893
Probable space group: C 2/M
;
_chemical_formula_sum "Si O2"
_cell_formula_units_Z 64
_cell_length_a 29.930570
_cell_length_b 7.614030
_cell_length_c 16.964078
_cell_angle_alpha 90.000000
_cell_angle_beta 53.848086
_cell_angle_gamma 90.000000
_cell_volume 3121.609229
_symmetry_space_group_name_H-M "C 2/M"
_symmetry_group_IT_number 12
_symmetry_cell_setting 'monoclinic'
loop_
_space_group_symop_operation_xyz
x,y,z
-x,y,-z
-x,-y,-z
x,-y,z
1/2+x,1/2+y,z
1/2-x,1/2+y,-z
1/2-x,1/2-y,-z
1/2+x,1/2-y,z
loop_
_atom_site_type_symbol
_atom_site_label
_atom_site_fract_x
_atom_site_fract_y
_atom_site_fract_z
Si Si1 0.790365 0.709715 0.229390
Si Si2 0.172432 0.202734 0.328877
Si Si3 0.412593 0.288874 0.080564
Si Si4 0.004437 0.293829 0.685126
Si Si5 0.626721 0.786237 0.539743
Si Si6 0.554830 0.703320 0.399915
Si Si7 0.989301 0.212011 0.137754
Si Si8 0.303552 0.789975 0.391923
O O1 0.781843 0.500000 0.244507
O O2 0.733593 0.779175 0.249797
O O3 0.849904 0.736787 0.128408
O O4 0.797733 0.783238 0.310490
O O5 0.165176 0.211740 0.431225
O O6 0.114874 0.283535 0.357261
O O7 0.172828 0.000000 0.301329
O O8 0.414353 0.500000 0.080347
O O9 0.436134 0.227098 0.141488
O O10 0.457100 0.231842 0.968907
O O11 0.001157 0.500000 0.672883
O O12 0.063977 0.228719 0.592382
O O13 0.005272 0.269624 0.778031
O O14 0.957488 0.209078 0.680408
O O15 0.646021 0.727800 0.606140
O O16 0.629377 0.000000 0.533627
O O17 0.500000 0.780638 0.500000
O O18 0.557646 0.500000 0.423099
O O19 0.987999 0.000000 0.139715
O O20 0.250000 0.750000 0.500000
O O21 0.309079 0.000000 0.379121
#
# Coordination Sequence:
#
# PCOD9177893 Si02
#       8
#     8   8   8   8   8   8   8   8
#     4  10  20  33  50  74 107 141 174 216 263 312
#     4  10  20  34  51  72 100 138 180 216 254 305
#     4   9  19  36  58  82 107 138 176 215 259 315
#     4  11  22  34  53  80 108 137 172 219 274 319
#     4  10  20  31  45  70 104 137 170 211 257 306
#     4  10  20  35  55  76 101 139 185 224 263 313
#     4   9  19  37  58  81 108 137 174 218 261 312
#     4  10  19  30  44  66  99 136 171 206 245 296
#
# _framework density 20.502247000000001
#
# number of rings (size 3 to 8) (size 9 to 14) (size 15 to 20)
#    0.000    2.125    2.500    1.875    0.000    4.250 
#    0.000    1.250    0.000    0.750    0.000    0.000 
#    0.000    0.000    0.000    0.000    0.000    0.000 
#
# Total GULP energy -178537.182728 kJ/mol
# GULP energy per Si atom -5579.286960 kJ/mol
# Density = 2.045558 g / cm^3
# Si number density = 20.502247 Si / 1000 Ang^3
#
#
#
# Elastic Constant Matrix: (Units=GPa)
#
#
# Indices 1 2 3 4 5 6 
#
# 1 157.6198 8.4801 36.3245 0.0002 -28.2468 -0.0003
# 2 8.4801 48.2572 -4.2417 0.0002 -0.7147 -0.0001
# 3 36.3245 -4.2417 58.7197 0.0000 -13.0641 -0.0002
# 4 0.0002 0.0002 0.0000 18.3144 0.0000 -1.6217
# 5 -28.2468 -0.7147 -13.0641 0.0000 35.6271 0.0001
# 6 -0.0003 -0.0001 -0.0002 -1.6217 0.0001 12.5680
#
#
#
# Elastic Compliance Matrix: (Units=1/GPa)
#
#
# Indices 1 2 3 4 5 6 
#
# 1 0.008292 -0.001747 -0.004138 0.000000 0.005022 0.000000
# 2 -0.001747 0.021259 0.002616 0.000000 0.000001 0.000000
# 3 -0.004138 0.002616 0.020754 0.000000 0.004382 0.000000
# 4 0.000000 0.000000 0.000000 0.055233 0.000000 0.007127
# 5 0.005022 0.000001 0.004382 0.000000 0.033657 0.000000
# 6 0.000000 0.000000 0.000000 0.007127 0.000000 0.080487
#
#
# Mechanical properties :
#
#
# Convention : Reuss Voigt Hill
#
# Bulk Modulus (GPa) = 22.84773 38.41361 30.63067
# Shear Modulus (GPa) = 20.76343 28.23749 24.50046
#
# Velocity S-wave (km/s) = 3.18581 3.71521 3.46065
# Velocity P-wave (km/s) = 4.96998 6.09760 5.56244
#
# Compressibility (1/GPa) = 0.04376803
#
# Stress axis : x y z
#
# Youngs Moduli (GPa) = 120.59799 47.03844 48.18357
#
# Poissons Ratio (x) = 0.08215 0.19940
# Poissons Ratio (y) = 0.21063 -0.12607
# Poissons Ratio (z) = 0.49909 -0.12307
#
# Static dielectric constant tensor:
#      x y z
#    x 1.797800 0.000040 -0.024960 
#    y 0.000040 -0.740370 -0.000010 
#    z -0.024960 -0.000010 1.715010 
# 
# From -- ./inp_files/249751.got.cif
#   From: 2010.05.17/outbox.cif.g08.bks.cpg/sg12_125_cif.got.tgz:249751.got - 2010.06.03 13:09:07.
