data_PCOD9177858
_publ_section_title
;
Structure prediction by ZEFSAII (Michael W. Deem and Ramdas Pophale) SiO2 
 PCOD9177858
Probable space group: C 2/M
;
_chemical_formula_sum "Si O2"
_cell_formula_units_Z 64
_cell_length_a 20.938145
_cell_length_b 7.349213
_cell_length_c 27.341338
_cell_angle_alpha 90.000000
_cell_angle_beta 48.620955
_cell_angle_gamma 90.000000
_cell_volume 3156.925675
_symmetry_space_group_name_H-M "C 2/M"
_symmetry_group_IT_number 12
_symmetry_cell_setting 'monoclinic'
loop_
_space_group_symop_operation_xyz
x,y,z
-x,y,-z
-x,-y,-z
x,-y,z
1/2+x,1/2+y,z
1/2-x,1/2+y,-z
1/2-x,1/2-y,-z
1/2+x,1/2-y,z
loop_
_atom_site_type_symbol
_atom_site_label
_atom_site_fract_x
_atom_site_fract_y
_atom_site_fract_z
Si Si1 0.114090 0.781879 0.576508
Si Si2 0.714842 0.783005 0.964217
Si Si3 0.276998 0.722118 0.675996
Si Si4 0.079604 0.777953 0.319532
Si Si5 0.475891 0.222109 0.956991
Si Si6 0.854499 0.720853 0.177372
Si Si7 0.264722 0.283594 0.571413
Si Si8 0.789945 0.778978 0.826897
O O1 0.171864 0.744630 0.594748
O O2 0.167267 0.712186 0.502716
O O3 0.017453 0.715226 0.628009
O O4 0.109727 0.000000 0.574138
O O5 0.774526 0.715319 0.889806
O O6 0.709914 0.000000 0.959883
O O7 0.750000 0.750000 0.000000
O O8 0.618516 0.714225 0.007709
O O9 0.276681 0.500000 0.675752
O O10 0.360013 0.775656 0.665514
O O11 0.194003 0.779579 0.749053
O O12 0.275142 0.786021 0.621147
O O13 0.128031 0.719351 0.245507
O O14 0.078738 0.000000 0.319950
O O15 0.550357 0.282147 0.882536
O O16 0.475615 0.000000 0.956175
O O17 0.500000 0.274214 0.000000
O O18 0.855989 0.500000 0.177744
O O19 0.792719 0.770535 0.163543
O O20 0.278022 0.500000 0.567387
O O21 0.793605 0.000000 0.825282
#
# Coordination Sequence:
#
# PCOD9177858 Si02
#       8
#     8   8   8   8   8   8   8   8
#     4   9  17  29  45  63  86 117 147 171 201 252
#     4  10  19  30  44  64  90 115 140 176 217 254
#     4   8  14  24  40  63  88 108 133 178 224 249
#     4   8  14  25  43  65  84 108 145 180 211 249
#     4   9  14  23  42  64  82 106 144 181 208 242
#     4   8  12  21  39  63  85 104 135 180 219 246
#     4   9  17  29  44  64  90 115 138 172 216 253
#     4   8  13  24  42  62  85 111 139 176 216 250
#
# _framework density 20.272887000000001
#
# number of rings (size 3 to 8) (size 9 to 14) (size 15 to 20)
#    0.000    3.375    1.250    1.500    0.000    0.500 
#    2.250    2.500    0.000    1.125    0.000    6.125 
#    0.000    0.000    0.000    0.000    0.000    0.000 
#
# Total GULP energy -178454.509846 kJ/mol
# GULP energy per Si atom -5576.703433 kJ/mol
# Density = 2.022675 g / cm^3
# Si number density = 20.272887 Si / 1000 Ang^3
#
#
#
# Elastic Constant Matrix: (Units=GPa)
#
#
# Indices 1 2 3 4 5 6 
#
# 1 155.0753 -0.0895 134.3630 -0.0011 -0.4061 0.0029
# 2 -0.0895 74.8498 5.7854 -0.0165 -0.6187 -0.0149
# 3 134.3630 5.7854 191.0369 -0.0004 1.2124 -0.0015
# 4 -0.0011 -0.0165 -0.0004 -5.9848 -0.0004 5.3813
# 5 -0.4061 -0.6187 1.2124 -0.0004 37.1842 -0.0001
# 6 0.0029 -0.0149 -0.0015 5.3813 -0.0001 8.4186
#
#
#
# Elastic Compliance Matrix: (Units=1/GPa)
#
#
# Indices 1 2 3 4 5 6 
#
# 1 0.016585 0.000929 -0.011696 -0.000007 0.000578 -0.000002
# 2 0.000929 0.013446 -0.001062 -0.000010 0.000269 0.000030
# 3 -0.011696 -0.001062 0.013497 0.000005 -0.000585 0.000001
# 4 -0.000007 -0.000010 0.000005 -0.106105 -0.000001 0.067824
# 5 0.000578 0.000269 -0.000585 -0.000001 0.026923 0.000001
# 6 -0.000002 0.000030 0.000001 0.067824 0.000001 0.075430
#
#
# Mechanical properties :
#
#
# Convention : Reuss Voigt Hill
#
# Bulk Modulus (GPa) = 50.33318 77.89774 64.11546
# Shear Modulus (GPa) = 71.36987 26.65047 49.01017
#
# Velocity S-wave (km/s) = 5.93978 3.62966 4.92217
# Velocity P-wave (km/s) = 8.48075 7.48825 7.99991
#
# Compressibility (1/GPa) = 0.01986761
#
# Stress axis : x y z
#
# Youngs Moduli (GPa) = 60.29635 74.37423 74.09064
#
# Poissons Ratio (x) = -0.06907 0.86660
# Poissons Ratio (y) = -0.05599 0.07869
# Poissons Ratio (z) = 0.70525 0.07899
#
# Static dielectric constant tensor:
#      x y z
#    x 1.666820 0.000000 -0.002210 
#    y 0.000000 1.816830 0.000000 
#    z -0.002210 0.000000 1.727220 
# 
# From -- ./inp_files/315088.got.cif
#   From: 2010.05.17/outbox.cif.g08.bks.cpg/sg12_158_cif.got.tgz:315088.got - 2010.06.03 13:09:07.
