data_PCOD9177302
_publ_section_title
;
Structure prediction by ZEFSAII (Michael W. Deem and Ramdas Pophale) SiO2 
 PCOD9177302
Probable space group: C 2/M
;
_chemical_formula_sum "Si O2"
_cell_formula_units_Z 48
_cell_length_a 19.483306
_cell_length_b 7.177887
_cell_length_c 12.441861
_cell_angle_alpha 90.000000
_cell_angle_beta 84.468447
_cell_angle_gamma 90.000000
_cell_volume 1731.878799
_symmetry_space_group_name_H-M "C 2/M"
_symmetry_group_IT_number 12
_symmetry_cell_setting 'monoclinic'
loop_
_space_group_symop_operation_xyz
x,y,z
-x,y,-z
-x,-y,-z
x,-y,z
1/2+x,1/2+y,z
1/2-x,1/2+y,-z
1/2-x,1/2-y,-z
1/2+x,1/2-y,z
loop_
_atom_site_type_symbol
_atom_site_label
_atom_site_fract_x
_atom_site_fract_y
_atom_site_fract_z
Si Si1 0.377561 0.226427 0.372103
Si Si2 0.731164 0.224403 0.175473
Si Si3 0.324324 0.774224 0.595577
Si Si4 0.028493 0.725142 0.327662
Si Si5 0.083899 0.726567 0.098365
Si Si6 0.380480 0.789564 0.130867
O O1 0.324694 0.290315 0.471955
O O2 0.456314 0.276993 0.391139
O O3 0.373901 0.294418 0.250331
O O4 0.372900 0.000000 0.371300
O O5 0.726569 0.286799 0.301686
O O6 0.659498 0.279340 0.131649
O O7 0.799820 0.297049 0.109782
O O8 0.733646 0.000000 0.173040
O O9 0.400430 0.719152 0.627782
O O10 0.321797 0.000000 0.595648
O O11 0.030054 0.500000 0.329062
O O12 0.031971 0.781856 0.201131
O O13 0.082052 0.500000 0.093664
O O14 0.079159 0.791343 0.976399
O O15 0.407155 0.000000 0.142242
#
# Coordination Sequence:
#
# PCOD9177302 Si02
#       6
#     8   8   8   8   8   8
#     4   9  16  24  37  61  89 111 131 165 214 254
#     4   9  17  30  46  60  79 112 148 173 196 237
#     4   8  14  25  41  60  81 107 141 175 202 237
#     4   8  13  23  40  60  83 110 137 167 206 249
#     4   8  15  27  42  61  83 108 139 173 206 241
#     4  10  19  28  40  63  92 112 131 168 212 248
#
# _framework density 27.715565999999999
#
# number of rings (size 3 to 8) (size 9 to 14) (size 15 to 20)
#    0.000    3.333    0.000    3.000    0.000    3.333 
#    0.000    3.333    0.000    0.000    0.000    7.000 
#    0.000    6.667    0.000    0.000    0.000    0.000 
#
# Total GULP energy -134234.584182 kJ/mol
# GULP energy per Si atom -5593.107674 kJ/mol
# Density = 2.765248 g / cm^3
# Si number density = 27.715566 Si / 1000 Ang^3
#
#
#
# Elastic Constant Matrix: (Units=GPa)
#
#
# Indices 1 2 3 4 5 6 
#
# 1 97.5529 -5.1942 26.0748 0.0000 -29.1732 0.0000
# 2 -5.1942 149.9427 1.9817 0.0000 0.9534 0.0000
# 3 26.0748 1.9817 228.3577 0.0000 -30.3895 0.0000
# 4 0.0000 0.0000 0.0000 -17.4725 0.0000 -3.9073
# 5 -29.1732 0.9534 -30.3895 0.0000 50.5185 0.0000
# 6 0.0000 0.0000 0.0000 -3.9073 0.0000 -2.4949
#
#
#
# Elastic Compliance Matrix: (Units=1/GPa)
#
#
# Indices 1 2 3 4 5 6 
#
# 1 0.012467 0.000395 -0.000511 0.000000 0.006885 0.000000
# 2 0.000395 0.006684 -0.000097 0.000000 0.000043 0.000000
# 3 -0.000511 -0.000097 0.004782 0.000000 0.002584 0.000000
# 4 0.000000 0.000000 0.000000 -0.088079 0.000000 0.137937
# 5 0.006885 0.000043 0.002584 0.000000 0.025324 0.000000
# 6 0.000000 0.000000 0.000000 0.137937 0.000000 -0.616830
#
#
# Mechanical properties :
#
#
# Convention : Reuss Voigt Hill
#
# Bulk Modulus (GPa) = 42.54082 57.95307 50.24694
# Shear Modulus (GPa) = -7.72333 36.30960 14.29314
#
# Velocity S-wave (km/s) = -1.67113 3.62343 2.27338
# Velocity P-wave (km/s) = 3.41450 6.20169 5.00599
#
# Compressibility (1/GPa) = 0.02350684
#
# Stress axis : x y z
#
# Youngs Moduli (GPa) = 80.20975 149.61317 209.11425
#
# Poissons Ratio (x) = -0.05908 0.10681
# Poissons Ratio (y) = -0.03167 0.02035
# Poissons Ratio (z) = 0.04097 0.01456
#
# Static dielectric constant tensor:
#      x y z
#    x 2.130490 0.000000 0.089420 
#    y 0.000000 2.086500 0.000000 
#    z 0.089420 0.000000 2.153080 
# 
# From -- ./inp_files/163992.got.cif
#   From: 2010.05.17/outbox.cif.g08.bks.cpg/sg12_82_cif.got.tgz:163992.got - 2010.06.03 13:09:07.
