data_PCOD9177573
_publ_section_title
;
Structure prediction by ZEFSAII (Michael W. Deem and Ramdas Pophale) SiO2 
 PCOD9177573
Probable space group: C 2/M
;
_chemical_formula_sum "Si O2"
_cell_formula_units_Z 64
_cell_length_a 23.572228
_cell_length_b 9.466195
_cell_length_c 18.188226
_cell_angle_alpha 90.000000
_cell_angle_beta 85.098985
_cell_angle_gamma 90.000000
_cell_volume 4043.669355
_symmetry_space_group_name_H-M "C 2/M"
_symmetry_group_IT_number 12
_symmetry_cell_setting 'monoclinic'
loop_
_space_group_symop_operation_xyz
x,y,z
-x,y,-z
-x,-y,-z
x,-y,z
1/2+x,1/2+y,z
1/2-x,1/2+y,-z
1/2-x,1/2-y,-z
1/2+x,1/2-y,z
loop_
_atom_site_type_symbol
_atom_site_label
_atom_site_fract_x
_atom_site_fract_y
_atom_site_fract_z
Si Si1 0.619221 0.833704 0.129994
Si Si2 0.075793 0.336530 0.563111
Si Si3 0.061559 0.664368 0.401979
Si Si4 0.064889 0.333540 0.976416
Si Si5 0.754048 0.669439 0.921951
Si Si6 0.451160 0.331376 0.740879
Si Si7 0.361819 0.330427 0.148583
Si Si8 0.414686 0.331562 0.294663
O O1 0.686062 0.797857 0.123876
O O2 0.580876 0.740490 0.187707
O O3 0.611761 0.000000 0.149153
O O4 0.599654 0.814877 0.047910
O O5 0.092943 0.500000 0.568412
O O6 0.087552 0.290975 0.477778
O O7 0.099110 0.244766 0.627351
O O8 0.007004 0.332324 0.579623
O O9 0.076769 0.500000 0.386193
O O10 0.073280 0.763117 0.331435
O O11 0.065952 0.500000 0.956860
O O12 0.092607 0.243511 0.909117
O O13 0.000000 0.293280 0.000000
O O14 0.753444 0.500000 0.935901
O O15 0.700346 0.704906 0.876487
O O16 0.750000 0.750000 0.000000
O O17 0.444449 0.500000 0.742227
O O18 0.519235 0.300340 0.734185
O O19 0.368590 0.500000 0.143512
O O20 0.374747 0.289145 0.231090
O O21 0.410943 0.500000 0.305333
#
# Coordination Sequence:
#
# PCOD9177573 Si02
#       8
#     8   8   8   8   8   8   8   8
#     4  10  20  33  47  65  90 119 153 193 236 275
#     4   8  14  25  43  66  91 124 159 184 216 267
#     4   8  14  26  43  64  93 125 155 186 220 264
#     4  10  20  32  47  68  93 121 153 188 229 278
#     4  10  20  35  53  69  86 115 157 201 240 278
#     4  10  19  29  44  68  96 125 155 185 224 276
#     4  10  20  33  49  68  91 121 155 192 235 278
#     4   9  18  30  43  66  99 126 150 185 228 275
#
# _framework density 15.827209
#
# number of rings (size 3 to 8) (size 9 to 14) (size 15 to 20)
#    0.000    2.625    1.250    1.875    0.000    2.750 
#    0.000    2.500    0.000    0.000    0.000    0.875 
#    0.000    0.000    0.000    0.000    0.000    0.000 
#
# Total GULP energy -178309.060532 kJ/mol
# GULP energy per Si atom -5572.158142 kJ/mol
# Density = 1.579119 g / cm^3
# Si number density = 15.827209 Si / 1000 Ang^3
#
#
#
# Elastic Constant Matrix: (Units=GPa)
#
#
# Indices 1 2 3 4 5 6 
#
# 1 53.3970 14.7316 19.7506 0.0000 23.6046 0.0000
# 2 14.7316 27.6477 32.6355 0.0000 11.4754 0.0000
# 3 19.7506 32.6355 77.7829 0.0000 29.0740 0.0000
# 4 0.0000 0.0000 0.0000 33.1255 0.0000 -0.7732
# 5 23.6046 11.4754 29.0740 0.0000 18.2109 0.0000
# 6 0.0000 0.0000 0.0000 -0.7732 0.0000 10.6421
#
#
#
# Elastic Compliance Matrix: (Units=1/GPa)
#
#
# Indices 1 2 3 4 5 6 
#
# 1 0.126777 -0.073438 0.106005 0.000000 -0.287287 0.000000
# 2 -0.073438 0.114568 -0.094278 0.000000 0.173511 0.000000
# 3 0.106005 -0.094278 0.135520 0.000000 -0.294353 0.000000
# 4 0.000000 0.000000 0.000000 0.030240 0.000000 0.002197
# 5 -0.287287 0.173511 -0.294353 0.000000 0.787892 0.000000
# 6 0.000000 0.000000 0.000000 0.002197 0.000000 0.094126
#
#
# Mechanical properties :
#
#
# Convention : Reuss Voigt Hill
#
# Bulk Modulus (GPa) = 3.94566 32.56256 18.25411
# Shear Modulus (GPa) = 3.33996 18.50968 10.92482
#
# Velocity S-wave (km/s) = 1.45425 3.42348 2.63012
# Velocity P-wave (km/s) = 2.30611 6.02042 4.55871
#
# Compressibility (1/GPa) = 0.25344326
#
# Stress axis : x y z
#
# Youngs Moduli (GPa) = 7.88788 8.72842 7.37897
#
# Poissons Ratio (x) = 0.64100 -0.78221
# Poissons Ratio (y) = 0.57927 0.69567
# Poissons Ratio (z) = -0.83615 0.82289
#
# Static dielectric constant tensor:
#      x y z
#    x 1.523550 0.000000 0.019600 
#    y 0.000000 1.525940 0.000000 
#    z 0.019600 0.000000 1.524690 
# 
# From -- ./inp_files/287631.got.cif
#   From: 2010.05.17/outbox.cif.g08.bks.cpg/sg12_144_cif.got.tgz:287631.got - 2010.06.03 13:09:07.
