data_PCOD9177397
_publ_section_title
;
Structure prediction by ZEFSAII (Michael W. Deem and Ramdas Pophale) SiO2 
 PCOD9177397
Probable space group: C 2/M
;
_chemical_formula_sum "Si O2"
_cell_formula_units_Z 40
_cell_length_a 6.626383
_cell_length_b 14.500690
_cell_length_c 17.353653
_cell_angle_alpha 90.000000
_cell_angle_beta 55.206874
_cell_angle_gamma 90.000000
_cell_volume 1369.349788
_symmetry_space_group_name_H-M "C 2/M"
_symmetry_group_IT_number 12
_symmetry_cell_setting 'monoclinic'
loop_
_space_group_symop_operation_xyz
x,y,z
-x,y,-z
-x,-y,-z
x,-y,z
1/2+x,1/2+y,z
1/2-x,1/2+y,-z
1/2-x,1/2-y,-z
1/2+x,1/2-y,z
loop_
_atom_site_type_symbol
_atom_site_label
_atom_site_fract_x
_atom_site_fract_y
_atom_site_fract_z
Si Si1 0.393710 0.889581 0.424880
Si Si2 0.097713 0.607646 0.818977
Si Si3 0.202210 0.857605 0.019142
Si Si4 0.710863 0.611617 0.775973
Si Si5 0.993801 0.889810 0.374611
O O1 0.652205 0.856315 0.332177
O O2 0.198954 0.880945 0.397292
O O3 0.253258 0.852082 0.531053
O O4 0.418821 0.000000 0.431309
O O5 0.122798 0.500000 0.795115
O O6 0.891264 0.646230 0.805243
O O7 0.358758 0.646638 0.732479
O O8 0.963624 0.607337 0.930585
O O9 0.059850 0.870855 0.130589
O O10 0.250000 0.750000 0.000000
O O11 0.000000 0.891091 0.000000
O O12 0.721240 0.500000 0.769950
O O13 0.948198 0.000000 0.373602
#
# Coordination Sequence:
#
# PCOD9177397 Si02
#       5
#     8   8   8   8   8
#     4   7   9  14  27  50  77  97 114 147 195 233
#     4   8  13  22  38  58  76  97 129 164 193 224
#     4  10  19  29  41  57  79 106 132 160 194 230
#     4   8  13  22  38  58  76  97 129 164 193 224
#     4   7   9  14  27  50  77  97 114 147 195 233
#
# _framework density 29.210946
#
# number of rings (size 3 to 8) (size 9 to 14) (size 15 to 20)
#    0.000    4.000    0.000    4.200    0.000    2.400 
#    0.000    0.000    0.000    3.600    0.000    0.000 
#    0.000    0.000    0.000   10.000    0.000    8.000 
#
# Total GULP energy -111709.862647 kJ/mol
# GULP energy per Si atom -5585.493132 kJ/mol
# Density = 2.914446 g / cm^3
# Si number density = 29.210946 Si / 1000 Ang^3
#
#
#
# Elastic Constant Matrix: (Units=GPa)
#
#
# Indices 1 2 3 4 5 6 
#
# 1 117.8289 -11.9756 142.0039 -0.0004 -22.8224 0.0000
# 2 -11.9756 83.3020 18.5765 -0.0001 -1.4144 0.0000
# 3 142.0039 18.5765 489.0921 -0.0002 -18.6028 0.0000
# 4 -0.0004 -0.0001 -0.0002 612.5132 0.0002 -52.7414
# 5 -22.8224 -1.4144 -18.6028 0.0002 102.8236 0.0000
# 6 0.0000 0.0000 0.0000 -52.7414 0.0000 2.4974
#
#
#
# Elastic Compliance Matrix: (Units=1/GPa)
#
#
# Indices 1 2 3 4 5 6 
#
# 1 0.014301 0.003029 -0.004174 0.000000 0.002461 0.000000
# 2 0.003029 0.012749 -0.001341 0.000000 0.000605 0.000000
# 3 -0.004174 -0.001341 0.003294 0.000000 -0.000349 0.000000
# 4 0.000000 0.000000 0.000000 -0.001995 0.000000 -0.042127
# 5 0.002461 0.000605 -0.000349 0.000000 0.010217 0.000000
# 6 0.000000 0.000000 0.000000 -0.042127 0.000000 -0.489245
#
#
# Mechanical properties :
#
#
# Convention : Reuss Voigt Hill
#
# Bulk Modulus (GPa) = 39.41186 109.71474 74.56330
# Shear Modulus (GPa) = -11.43512 179.67472 84.11980
#
# Velocity S-wave (km/s) = -1.98070 7.85130 5.37214
# Velocity P-wave (km/s) = 2.87933 10.94676 8.00381
#
# Compressibility (1/GPa) = 0.02537308
#
# Stress axis : x y z
#
# Youngs Moduli (GPa) = 69.92341 78.43683 303.57722
#
# Poissons Ratio (x) = -0.23755 1.26704
# Poissons Ratio (y) = -0.21176 0.40695
# Poissons Ratio (z) = 0.29184 0.10515
#
# Static dielectric constant tensor:
#      x y z
#    x 2.231290 0.000000 -0.067390 
#    y 0.000000 2.204290 0.000000 
#    z -0.067390 0.000000 2.224720 
# 
# From -- ./inp_files/195105.got.cif
#   From: 2010.05.17/outbox.cif.g08.bks.cpg/sg12_98_cif.got.tgz:195105.got - 2010.06.03 13:09:07.
