data_PCOD9177000
_publ_section_title
;
Structure prediction by ZEFSAII (Michael W. Deem and Ramdas Pophale) SiO2 
 PCOD9177000
Probable space group: C 2/M
;
_chemical_formula_sum "Si O2"
_cell_formula_units_Z 60
_cell_length_a 14.644792
_cell_length_b 32.423618
_cell_length_c 20.530865
_cell_angle_alpha 90.000000
_cell_angle_beta 160.385980
_cell_angle_gamma 90.000000
_cell_volume 3272.503219
_symmetry_space_group_name_H-M "C 2/M"
_symmetry_group_IT_number 12
_symmetry_cell_setting 'monoclinic'
loop_
_space_group_symop_operation_xyz
x,y,z
-x,y,-z
-x,-y,-z
x,-y,z
1/2+x,1/2+y,z
1/2-x,1/2+y,-z
1/2-x,1/2-y,-z
1/2+x,1/2-y,z
loop_
_atom_site_type_symbol
_atom_site_label
_atom_site_fract_x
_atom_site_fract_y
_atom_site_fract_z
Si Si1 0.076636 0.328725 0.809610
Si Si2 0.401215 0.085875 0.022885
Si Si3 0.928695 0.950929 0.303074
Si Si4 0.500000 0.674408 0.000000
Si Si5 0.335947 0.257794 0.645919
Si Si6 0.708421 0.180451 0.048472
Si Si7 0.259733 0.904320 0.626848
Si Si8 0.286719 0.747131 0.769295
O O1 0.266378 0.349015 0.882130
O O2 0.002781 0.282705 0.738534
O O3 0.814573 0.357273 0.643197
O O4 0.206755 0.323489 0.968450
O O5 0.665206 0.066233 0.165326
O O6 0.481844 0.083409 0.153764
O O7 0.139313 0.062929 0.816607
O O8 0.358429 0.133999 0.975489
O O9 0.183700 0.931147 0.512659
O O10 0.938064 0.000000 0.313806
O O11 0.610731 0.705473 0.129026
O O12 0.505580 0.298334 0.739888
O O13 0.317068 0.257627 0.712011
O O14 0.025240 0.250137 0.418247
O O15 0.470265 0.212736 0.907336
O O16 0.000000 0.905793 0.500000
#
# Coordination Sequence:
#
# PCOD9177000 Si02
#       8
#     8   8   8   4   8   8   8   8
#     4  10  20  33  52  71 108 139 186 228 279 310
#     4   9  19  31  53  75 108 145 175 213 271 332
#     4  10  20  35  53  83 115 137 170 221 284 353
#     4  12  20  34  44  74 105 134 179 240 266 314
#     4  10  19  35  52  67  96 153 187 227 272 321
#     4  10  18  37  50  73 104 147 191 230 269 326
#     4   9  20  34  54  82 107 147 181 220 272 340
#     4  10  21  31  51  70  98 141 191 229 277 304
#
# _framework density 18.334588
#
# number of rings (size 3 to 8) (size 9 to 14) (size 15 to 20)
#    0.000    2.133    2.667    1.600    7.467    5.600 
#    0.000    0.000    0.000    0.000    0.000    0.467 
#    0.000    4.267    0.000    0.000    0.000    0.000 
#
# Total GULP energy -167117.120787 kJ/mol
# GULP energy per Si atom -5570.570693 kJ/mol
# Density = 1.829286 g / cm^3
# Si number density = 18.334588 Si / 1000 Ang^3
#
#
#
# Elastic Constant Matrix: (Units=GPa)
#
#
# Indices 1 2 3 4 5 6 
#
# 1 59.8948 10.1579 31.3447 0.0152 -15.8337 0.0048
# 2 10.1579 90.5649 31.6601 0.0058 -8.1977 0.0030
# 3 31.3447 31.6601 78.2451 0.0186 -3.0156 0.0181
# 4 0.0152 0.0058 0.0186 23.0605 0.0217 -2.2618
# 5 -15.8337 -8.1977 -3.0156 0.0217 29.5107 0.0106
# 6 0.0048 0.0030 0.0181 -2.2618 0.0106 10.6731
#
#
#
# Elastic Compliance Matrix: (Units=1/GPa)
#
#
# Indices 1 2 3 4 5 6 
#
# 1 0.025260 0.001991 -0.010422 -0.000022 0.013041 -0.000012
# 2 0.001991 0.013298 -0.006018 -0.000004 0.004147 0.000001
# 3 -0.010422 -0.006018 0.019186 -0.000004 -0.005303 -0.000022
# 4 -0.000022 -0.000004 -0.000004 0.044285 -0.000049 0.009385
# 5 0.013041 0.004147 -0.005303 -0.000049 0.041493 -0.000050
# 6 -0.000012 0.000001 -0.000022 0.009385 -0.000050 0.095683
#
#
# Mechanical properties :
#
#
# Convention : Reuss Voigt Hill
#
# Bulk Modulus (GPa) = 34.66834 41.67000 38.16917
# Shear Modulus (GPa) = 18.00383 23.01831 20.51107
#
# Velocity S-wave (km/s) = 3.13702 3.54709 3.34834
# Velocity P-wave (km/s) = 5.66312 6.28909 5.98430
#
# Compressibility (1/GPa) = 0.02884476
#
# Stress axis : x y z
#
# Youngs Moduli (GPa) = 39.58836 75.20042 52.12106
#
# Poissons Ratio (x) = -0.14969 0.54320
# Poissons Ratio (y) = -0.07880 0.31368
# Poissons Ratio (z) = 0.41259 0.45257
#
# Static dielectric constant tensor:
#      x y z
#    x 1.696300 0.000000 -0.032060 
#    y 0.000000 1.597270 -0.000010 
#    z -0.032060 -0.000010 1.731120 
# 
# From -- ./inp_files/312869.got.cif
#   From: 2010.05.17/outbox.cif.g08.bks.cpg/sg12_157_cif.got.tgz:312869.got - 2010.06.03 13:09:07.
