data_PCOD9177773
_publ_section_title
;
Structure prediction by ZEFSAII (Michael W. Deem and Ramdas Pophale) SiO2 
 PCOD9177773
Probable space group: C 2/M
;
_chemical_formula_sum "Si O2"
_cell_formula_units_Z 56
_cell_length_a 11.244328
_cell_length_b 17.940897
_cell_length_c 19.559092
_cell_angle_alpha 90.000000
_cell_angle_beta 44.658865
_cell_angle_gamma 90.000000
_cell_volume 2773.384824
_symmetry_space_group_name_H-M "C 2/M"
_symmetry_group_IT_number 12
_symmetry_cell_setting 'monoclinic'
loop_
_space_group_symop_operation_xyz
x,y,z
-x,y,-z
-x,-y,-z
x,-y,z
1/2+x,1/2+y,z
1/2-x,1/2+y,-z
1/2-x,1/2-y,-z
1/2+x,1/2-y,z
loop_
_atom_site_type_symbol
_atom_site_label
_atom_site_fract_x
_atom_site_fract_y
_atom_site_fract_z
Si Si1 0.952607 0.634426 0.751997
Si Si2 0.821184 0.170799 0.599569
Si Si3 0.809574 0.667149 0.062154
Si Si4 0.941148 0.415049 0.617231
Si Si5 0.104575 0.197373 0.277445
Si Si6 0.829361 0.846229 0.027838
Si Si7 0.766825 0.667489 0.565708
O O1 0.153609 0.619823 0.671242
O O2 0.875094 0.589940 0.720602
O O3 0.934750 0.721062 0.736932
O O4 0.839166 0.624443 0.864925
O O5 0.819657 0.202726 0.677988
O O6 0.803103 0.244677 0.559359
O O7 0.000000 0.137389 0.500000
O O8 0.712187 0.659456 0.173846
O O9 0.828993 0.755944 0.037381
O O10 0.702555 0.637773 0.040010
O O11 0.000000 0.638650 0.000000
O O12 0.968806 0.500000 0.587079
O O13 0.115915 0.368985 0.539387
O O14 0.822868 0.373675 0.611954
O O15 0.929470 0.155874 0.362382
O O16 0.000000 0.870852 0.000000
#
# Coordination Sequence:
#
# PCOD9177773 Si02
#       7
#     8   8   8   8   8   8   8
#     4  10  20  31  50  77 105 139 178 211 272 316
#     4  11  18  30  50  77 114 137 169 218 267 326
#     4   9  17  29  44  73 108 141 167 202 273 334
#     4  11  21  36  52  71 105 144 182 220 256 310
#     4  10  19  29  52  77 110 137 169 217 266 330
#     4   9  18  29  47  70 106 139 173 216 266 324
#     4  10  19  32  49  76 104 138 181 210 267 310
#
# _framework density 20.191932999999999
#
# number of rings (size 3 to 8) (size 9 to 14) (size 15 to 20)
#    0.000    2.000    2.857    2.571    2.000    5.714 
#    0.000    0.000    0.000    5.143    0.000    0.000 
#    0.000    4.000    0.000    0.000    0.000    0.000 
#
# Total GULP energy -155967.374361 kJ/mol
# GULP energy per Si atom -5570.263370 kJ/mol
# Density = 2.014598 g / cm^3
# Si number density = 20.191933 Si / 1000 Ang^3
#
#
#
# Elastic Constant Matrix: (Units=GPa)
#
#
# Indices 1 2 3 4 5 6 
#
# 1 82.8939 3.6321 46.8946 0.0000 0.8129 0.0000
# 2 3.6321 23.4613 -2.1868 -0.0001 -1.4695 0.0002
# 3 46.8946 -2.1868 59.0438 -0.0002 18.8262 0.0005
# 4 0.0000 -0.0001 -0.0002 -6.1832 0.0002 -12.1430
# 5 0.8129 -1.4695 18.8262 0.0002 33.5798 -0.0004
# 6 0.0000 0.0002 0.0005 -12.1430 -0.0004 -16.6156
#
#
#
# Elastic Compliance Matrix: (Units=1/GPa)
#
#
# Indices 1 2 3 4 5 6 
#
# 1 0.026781 -0.005702 -0.025809 -0.000008 0.013572 0.000005
# 2 -0.005702 0.044025 0.006698 0.000005 -0.001691 -0.000003
# 3 -0.025809 0.006698 0.045529 0.000014 -0.024608 -0.000008
# 4 -0.000008 0.000005 0.000014 0.371586 -0.000012 -0.271562
# 5 0.013572 -0.001691 -0.024608 -0.000012 0.043173 0.000007
# 6 0.000005 -0.000003 -0.000008 -0.271562 0.000007 0.138278
#
#
# Mechanical properties :
#
#
# Convention : Reuss Voigt Hill
#
# Bulk Modulus (GPa) = 14.99032 29.11987 22.05509
# Shear Modulus (GPa) = 6.74552 9.96014 8.35283
#
# Velocity S-wave (km/s) = 1.82974 2.22338 2.03610
# Velocity P-wave (km/s) = 3.45021 4.58738 4.05882
#
# Compressibility (1/GPa) = 0.06670971
#
# Stress axis : x y z
#
# Youngs Moduli (GPa) = 37.34016 22.71459 21.96403
#
# Poissons Ratio (x) = 0.12951 0.56686
# Poissons Ratio (y) = 0.21290 -0.14712
# Poissons Ratio (z) = 0.96370 -0.15214
#
# Static dielectric constant tensor:
#      x y z
#    x 1.797830 0.000000 -0.007280 
#    y 0.000000 1.704770 0.000000 
#    z -0.007280 0.000000 1.751050 
# 
# From -- ./inp_files/306593.got.cif
#   From: 2010.05.17/outbox.cif.g08.bks.cpg/sg12_154_cif.got.tgz:306593.got - 2010.06.03 13:09:07.
