data_PCOD9177184
_publ_section_title
;
Structure prediction by ZEFSAII (Michael W. Deem and Ramdas Pophale) SiO2 
 PCOD9177184
Probable space group: C 2/M
;
_chemical_formula_sum "Si O2"
_cell_formula_units_Z 56
_cell_length_a 14.899111
_cell_length_b 17.563248
_cell_length_c 13.093880
_cell_angle_alpha 90.000000
_cell_angle_beta 61.646097
_cell_angle_gamma 90.000000
_cell_volume 3015.306693
_symmetry_space_group_name_H-M "C 2/M"
_symmetry_group_IT_number 12
_symmetry_cell_setting 'monoclinic'
loop_
_space_group_symop_operation_xyz
x,y,z
-x,y,-z
-x,-y,-z
x,-y,z
1/2+x,1/2+y,z
1/2-x,1/2+y,-z
1/2-x,1/2-y,-z
1/2+x,1/2-y,z
loop_
_atom_site_type_symbol
_atom_site_label
_atom_site_fract_x
_atom_site_fract_y
_atom_site_fract_z
Si Si1 0.118428 0.584195 0.903345
Si Si2 0.616820 0.245225 0.978395
Si Si3 0.486171 0.412640 0.386630
Si Si4 0.251523 0.411634 0.441024
Si Si5 0.735205 0.799615 0.269018
Si Si6 0.147646 0.671782 0.680943
Si Si7 0.439965 0.265406 0.763589
O O1 0.163888 0.500000 0.895112
O O2 0.157747 0.658316 0.943091
O O3 0.127406 0.609474 0.780294
O O4 0.000000 0.579253 0.000000
O O5 0.683163 0.296838 0.867214
O O6 0.500000 0.245672 0.000000
O O7 0.614156 0.268121 0.097163
O O8 0.500000 0.399118 0.500000
O O9 0.518699 0.500000 0.348365
O O10 0.367424 0.405851 0.419912
O O11 0.545398 0.348856 0.291308
O O12 0.223828 0.500000 0.452749
O O13 0.243775 0.372906 0.334943
O O14 0.180754 0.366856 0.558679
O O15 0.764456 0.727678 0.324749
O O16 0.626399 0.784887 0.277698
O O17 0.048418 0.724449 0.721694
#
# Coordination Sequence:
#
# PCOD9177184 Si02
#       7
#     8   8   8   8   8   8   8
#     4   9  16  31  55  82 112 151 191 243 297 341
#     4  10  18  39  59  87 116 154 200 253 295 359
#     4  10  22  40  63  90 120 155 202 260 305 344
#     4  11  23  41  59  88 127 161 198 248 302 361
#     4  11  23  38  62  87 121 158 204 244 302 361
#     4  11  21  37  59  87 118 157 205 241 302 355
#     4  12  22  37  63  89 118 156 204 249 299 362
#
# _framework density 18.571909000000002
#
# number of rings (size 3 to 8) (size 9 to 14) (size 15 to 20)
#    0.000    1.429    5.714    2.143    2.000    0.000 
#    0.000    6.429    0.000    2.571    0.000    0.000 
#    0.000    0.000    0.000    0.000    0.000    0.000 
#
# Total GULP energy -156343.178287 kJ/mol
# GULP energy per Si atom -5583.684939 kJ/mol
# Density = 1.852964 g / cm^3
# Si number density = 18.571909 Si / 1000 Ang^3
#
#
#
# Elastic Constant Matrix: (Units=GPa)
#
#
# Indices 1 2 3 4 5 6 
#
# 1 44.0311 16.2244 22.3487 0.0000 19.2055 0.0000
# 2 16.2244 85.2636 78.0666 0.0000 15.1034 0.0000
# 3 22.3487 78.0666 125.0809 0.0000 21.2821 0.0000
# 4 0.0000 0.0000 0.0000 262.2574 0.0000 -68.4452
# 5 19.2055 15.1034 21.2821 0.0000 18.0985 0.0000
# 6 0.0000 0.0000 0.0000 -68.4452 0.0000 39.4319
#
#
#
# Elastic Compliance Matrix: (Units=1/GPa)
#
#
# Indices 1 2 3 4 5 6 
#
# 1 0.042288 -0.000395 0.000337 0.000000 -0.044942 0.000000
# 2 -0.000395 0.027544 -0.016602 0.000000 -0.003044 0.000000
# 3 0.000337 -0.016602 0.020002 0.000000 -0.010024 0.000000
# 4 0.000000 0.000000 0.000000 0.006971 0.000000 0.012100
# 5 -0.044942 -0.003044 -0.010024 0.000000 0.117272 0.000000
# 6 0.000000 0.000000 0.000000 0.012100 0.000000 0.046363
#
#
# Mechanical properties :
#
#
# Convention : Reuss Voigt Hill
#
# Bulk Modulus (GPa) = 17.69453 54.18391 35.93922
# Shear Modulus (GPa) = 15.99500 73.13993 44.56747
#
# Velocity S-wave (km/s) = 2.93788 6.28232 4.90401
# Velocity P-wave (km/s) = 4.58873 9.04776 7.17351
#
# Compressibility (1/GPa) = 0.05651464
#
# Stress axis : x y z
#
# Youngs Moduli (GPa) = 23.64709 36.30613 49.99495
#
# Poissons Ratio (x) = 0.01433 -0.01686
# Poissons Ratio (y) = 0.00933 0.83003
# Poissons Ratio (z) = -0.00798 0.60277
#
# Static dielectric constant tensor:
#      x y z
#    x 1.649390 0.000000 -0.012240 
#    y 0.000000 1.634980 0.000000 
#    z -0.012240 0.000000 1.631330 
# 
# From -- ./inp_files/145506.got.cif
#   From: 2010.05.17/outbox.cif.g08.bks.cpg/sg12_73_cif.got.tgz:145506.got - 2010.06.03 13:09:07.
