data_PCOD9177861
_publ_section_title
;
Structure prediction by ZEFSAII (Michael W. Deem and Ramdas Pophale) SiO2 
 PCOD9177861
Probable space group: C 2/M
;
_chemical_formula_sum "Si O2"
_cell_formula_units_Z 64
_cell_length_a 25.197417
_cell_length_b 7.499532
_cell_length_c 21.866829
_cell_angle_alpha 90.000000
_cell_angle_beta 53.494553
_cell_angle_gamma 90.000000
_cell_volume 3321.422804
_symmetry_space_group_name_H-M "C 2/M"
_symmetry_group_IT_number 12
_symmetry_cell_setting 'monoclinic'
loop_
_space_group_symop_operation_xyz
x,y,z
-x,y,-z
-x,-y,-z
x,-y,z
1/2+x,1/2+y,z
1/2-x,1/2+y,-z
1/2-x,1/2-y,-z
1/2+x,1/2-y,z
loop_
_atom_site_type_symbol
_atom_site_label
_atom_site_fract_x
_atom_site_fract_y
_atom_site_fract_z
Si Si1 0.505977 0.217677 0.333973
Si Si2 0.858065 0.294724 0.442747
Si Si3 0.268079 0.710770 0.398456
Si Si4 0.185204 0.286514 0.003332
Si Si5 0.435648 0.707561 0.577191
Si Si6 0.101793 0.289714 0.167829
Si Si7 0.209960 0.785389 0.313986
Si Si8 0.730317 0.716280 0.162166
O O1 0.431223 0.282281 0.395211
O O2 0.550022 0.279547 0.360605
O O3 0.539110 0.280415 0.248106
O O4 0.506233 0.000000 0.333724
O O5 0.864822 0.500000 0.457628
O O6 0.799657 0.215385 0.524362
O O7 0.829194 0.289330 0.393846
O O8 0.270362 0.500000 0.408696
O O9 0.262054 0.741629 0.330801
O O10 0.176871 0.500000 0.004729
O O11 0.206979 0.221903 0.921384
O O12 0.250000 0.250000 0.000000
O O13 0.125186 0.215370 0.086092
O O14 0.500000 0.788096 0.500000
O O15 0.432896 0.500000 0.560069
O O16 0.362759 0.783912 0.616384
O O17 0.090449 0.500000 0.166683
O O18 0.164148 0.270221 0.171109
O O19 0.227515 0.721531 0.233944
O O20 0.204788 0.000000 0.313855
O O21 0.731128 0.500000 0.161835
#
# Coordination Sequence:
#
# PCOD9177861 Si02
#       8
#     8   8   8   8   8   8   8   8
#     4  10  19  30  46  67  91 119 147 179 223 268
#     4   9  19  35  50  65  87 114 146 185 229 271
#     4  10  20  33  50  68  84 110 150 192 228 261
#     4   8  14  24  39  59  85 116 148 179 211 252
#     4  10  20  31  43  62  90 123 154 181 214 260
#     4   9  16  26  41  64  91 117 146 181 217 255
#     4  10  19  30  44  64  91 121 149 180 221 263
#     4   9  16  27  42  61  88 122 152 177 213 260
#
# _framework density 19.26885
#
# number of rings (size 3 to 8) (size 9 to 14) (size 15 to 20)
#    0.000    2.625    1.250    1.125    0.000    2.250 
#    0.000    0.000    0.000    0.000    0.000    0.875 
#    0.000    7.000    0.000    0.000    0.000    0.000 
#
# Total GULP energy -178372.194263 kJ/mol
# GULP energy per Si atom -5574.131071 kJ/mol
# Density = 1.922499 g / cm^3
# Si number density = 19.268850 Si / 1000 Ang^3
#
#
#
# Elastic Constant Matrix: (Units=GPa)
#
#
# Indices 1 2 3 4 5 6 
#
# 1 39.7356 -11.9491 -11.6353 -0.0008 10.0566 0.0013
# 2 -11.9491 56.1548 -0.2527 0.0118 -2.5068 -0.0089
# 3 -11.6353 -0.2527 67.6708 -0.0026 12.0308 0.0026
# 4 -0.0008 0.0118 -0.0026 2.9722 0.0023 10.4470
# 5 10.0566 -2.5068 12.0308 0.0023 20.4955 -0.0014
# 6 0.0013 -0.0089 0.0026 10.4470 -0.0014 6.7410
#
#
#
# Elastic Compliance Matrix: (Units=1/GPa)
#
#
# Indices 1 2 3 4 5 6 
#
# 1 0.035970 0.006680 0.010274 -0.000007 -0.022863 0.000005
# 2 0.006680 0.019154 0.001548 0.000034 -0.001843 -0.000030
# 3 0.010274 0.001548 0.019441 -0.000014 -0.016264 0.000012
# 4 -0.000007 0.000034 -0.000014 -0.075652 0.000033 0.117244
# 5 -0.022863 -0.001843 -0.016264 0.000033 0.069331 -0.000029
# 6 0.000005 -0.000030 0.000012 0.117244 -0.000029 -0.033357
#
#
# Mechanical properties :
#
#
# Convention : Reuss Voigt Hill
#
# Bulk Modulus (GPa) = 8.96311 12.87635 10.91973
# Shear Modulus (GPa) = 142.55662 18.53496 80.54579
#
# Velocity S-wave (km/s) = 8.61067 3.10484 6.47239
# Velocity P-wave (km/s) = 10.17447 4.42158 7.84443
#
# Compressibility (1/GPa) = 0.11156845
#
# Stress axis : x y z
#
# Youngs Moduli (GPa) = 27.80095 52.20865 51.43705
#
# Poissons Ratio (x) = -0.34873 -0.52848
# Poissons Ratio (y) = -0.18570 -0.07961
# Poissons Ratio (z) = -0.28564 -0.08080
#
# Static dielectric constant tensor:
#      x y z
#    x 1.632300 0.000000 -0.007080 
#    y 0.000000 1.695020 0.000000 
#    z -0.007080 0.000000 1.748510 
# 
# From -- ./inp_files/323647.got.cif
#   From: 2010.05.17/outbox.cif.g08.bks.cpg/sg12_162_cif.got.tgz:323647.got - 2010.06.03 13:09:07.
