data_PCOD9177869
_publ_section_title
;
Structure prediction by ZEFSAII (Michael W. Deem and Ramdas Pophale) SiO2 
 PCOD9177869
Probable space group: C 2/M
;
_chemical_formula_sum "Si O2"
_cell_formula_units_Z 64
_cell_length_a 25.360329
_cell_length_b 7.420868
_cell_length_c 17.875377
_cell_angle_alpha 90.000000
_cell_angle_beta 114.250925
_cell_angle_gamma 90.000000
_cell_volume 3067.207448
_symmetry_space_group_name_H-M "C 2/M"
_symmetry_group_IT_number 12
_symmetry_cell_setting 'monoclinic'
loop_
_space_group_symop_operation_xyz
x,y,z
-x,y,-z
-x,-y,-z
x,-y,z
1/2+x,1/2+y,z
1/2-x,1/2+y,-z
1/2-x,1/2-y,-z
1/2+x,1/2-y,z
loop_
_atom_site_type_symbol
_atom_site_label
_atom_site_fract_x
_atom_site_fract_y
_atom_site_fract_z
Si Si1 0.389933 0.712369 0.633662
Si Si2 0.010424 0.778871 0.767450
Si Si3 0.292026 0.217782 0.698952
Si Si4 0.365221 0.296699 0.199492
Si Si5 0.835707 0.291874 0.016075
Si Si6 0.200352 0.214899 0.532611
Si Si7 0.242643 0.278606 0.162020
Si Si8 0.462628 0.718037 0.048563
O O1 0.397976 0.500000 0.625002
O O2 0.452358 0.784424 0.693318
O O3 0.345444 0.728021 0.677542
O O4 0.357423 0.787020 0.540989
O O5 0.070593 0.716243 0.765106
O O6 0.012083 0.726536 0.855897
O O7 0.011488 0.000000 0.767367
O O8 0.231542 0.280755 0.625890
O O9 0.293029 0.275714 0.785482
O O10 0.291568 0.000000 0.697424
O O11 0.371406 0.500000 0.232350
O O12 0.346370 0.303255 0.101040
O O13 0.309019 0.216503 0.206171
O O14 0.823150 0.500000 0.026053
O O15 0.896587 0.281700 0.007944
O O16 0.786883 0.219356 0.932300
O O17 0.250000 0.250000 0.500000
O O18 0.192789 0.000000 0.536592
O O19 0.243079 0.500000 0.159977
O O20 0.461603 0.500000 0.047037
O O21 0.500000 0.779719 0.000000
#
# Coordination Sequence:
#
# PCOD9177869 Si02
#       8
#     8   8   8   8   8   8   8   8
#     4   9  16  27  44  67  89 110 140 177 213 253
#     4   8  15  27  44  63  82 108 145 180 208 245
#     4   9  17  29  43  64  90 115 140 169 213 266
#     4   9  17  33  50  61  80 117 154 182 213 256
#     4  10  19  30  44  65  88 111 144 187 225 254
#     4   8  14  25  42  61  86 114 137 167 209 255
#     4   9  18  30  46  65  87 114 147 182 218 260
#     4   9  18  31  45  61  86 120 151 175 208 261
#
# _framework density 20.865886
#
# number of rings (size 3 to 8) (size 9 to 14) (size 15 to 20)
#    0.000    3.125    0.000    1.500    1.750    0.250 
#    0.000    4.375    0.000    0.750    0.000    5.250 
#    0.000    0.000    0.000   22.875    0.000   17.750 
#
# Total GULP energy -178358.136058 kJ/mol
# GULP energy per Si atom -5573.691752 kJ/mol
# Density = 2.081839 g / cm^3
# Si number density = 20.865886 Si / 1000 Ang^3
#
#
#
# Elastic Constant Matrix: (Units=GPa)
#
#
# Indices 1 2 3 4 5 6 
#
# 1 57.8062 -7.4276 20.3685 0.0000 25.7595 0.0000
# 2 -7.4276 71.3908 1.1549 0.0000 2.8998 0.0000
# 3 20.3685 1.1549 79.1495 0.0000 39.8026 0.0000
# 4 0.0000 0.0000 0.0000 -0.1797 0.0000 -0.2307
# 5 25.7595 2.8998 39.8026 0.0000 36.8730 0.0000
# 6 0.0000 0.0000 0.0000 -0.2307 0.0000 5.9582
#
#
#
# Elastic Compliance Matrix: (Units=1/GPa)
#
#
# Indices 1 2 3 4 5 6 
#
# 1 0.027090 0.003759 0.005773 0.000000 -0.025453 0.000000
# 2 0.003759 0.014595 0.001569 0.000000 -0.005468 0.000000
# 3 0.005773 0.001569 0.028909 0.000000 -0.035362 0.000000
# 4 0.000000 0.000000 0.000000 -5.301760 0.000000 -0.205290
# 5 -0.025453 -0.005468 -0.035362 0.000000 0.083503 0.000000
# 6 0.000000 0.000000 0.000000 -0.205290 0.000000 0.159888
#
#
# Mechanical properties :
#
#
# Convention : Reuss Voigt Hill
#
# Bulk Modulus (GPa) = 10.77614 26.28199 18.52907
# Shear Modulus (GPa) = -1.00421 21.48036 10.23808
#
# Velocity S-wave (km/s) = -0.69449 3.21198 2.21749
# Velocity P-wave (km/s) = 2.12899 5.13603 3.93137
#
# Compressibility (1/GPa) = 0.09279761
#
# Stress axis : x y z
#
# Youngs Moduli (GPa) = 36.91386 68.51558 34.59189
#
# Poissons Ratio (x) = -0.25755 -0.19972
# Poissons Ratio (y) = -0.13876 -0.05429
# Poissons Ratio (z) = -0.21312 -0.10753
#
# Static dielectric constant tensor:
#      x y z
#    x 1.735820 0.000000 0.025160 
#    y 0.000000 1.800250 0.000000 
#    z 0.025160 0.000000 1.759920 
# 
# From -- ./inp_files/323696.got.cif
#   From: 2010.05.17/outbox.cif.g08.bks.cpg/sg12_162_cif.got.tgz:323696.got - 2010.06.03 13:09:07.
