data_PCOD9177881
_publ_section_title
;
Structure prediction by ZEFSAII (Michael W. Deem and Ramdas Pophale) SiO2 
 PCOD9177881
Probable space group: C 2/M
;
_chemical_formula_sum "Si O2"
_cell_formula_units_Z 64
_cell_length_a 14.355127
_cell_length_b 9.483983
_cell_length_c 23.149249
_cell_angle_alpha 90.000000
_cell_angle_beta 68.755617
_cell_angle_gamma 90.000000
_cell_volume 2937.452456
_symmetry_space_group_name_H-M "C 2/M"
_symmetry_group_IT_number 12
_symmetry_cell_setting 'monoclinic'
loop_
_space_group_symop_operation_xyz
x,y,z
-x,y,-z
-x,-y,-z
x,-y,z
1/2+x,1/2+y,z
1/2-x,1/2+y,-z
1/2-x,1/2-y,-z
1/2+x,1/2-y,z
loop_
_atom_site_type_symbol
_atom_site_label
_atom_site_fract_x
_atom_site_fract_y
_atom_site_fract_z
Si Si1 0.559580 0.840287 0.112538
Si Si2 0.166940 0.341266 0.877864
Si Si3 0.546738 0.662679 0.632332
Si Si4 0.257163 0.158407 0.754640
Si Si5 0.815290 0.163068 0.637673
Si Si6 0.616780 0.338790 0.995117
Si Si7 0.482479 0.841534 0.750061
Si Si8 0.890631 0.171502 0.502029
O O1 0.450992 0.854135 0.107850
O O2 0.618937 0.741171 0.055634
O O3 0.538408 0.781437 0.181396
O O4 0.601669 0.000000 0.109076
O O5 0.208448 0.500000 0.873427
O O6 0.209794 0.256491 0.814089
O O7 0.175521 0.249143 0.933547
O O8 0.572576 0.500000 0.638365
O O9 0.431553 0.662304 0.633904
O O10 0.546270 0.752587 0.690546
O O11 0.612843 0.718180 0.563614
O O12 0.255795 0.235973 0.693660
O O13 0.373472 0.147293 0.745843
O O14 0.214594 0.000000 0.763519
O O15 0.817966 0.212513 0.570509
O O16 0.781756 0.000000 0.648462
O O17 0.650664 0.500000 0.991709
O O18 0.500000 0.342504 0.000000
O O19 0.523773 0.000000 0.748853
O O20 0.000000 0.214735 0.500000
O O21 0.888983 0.000000 0.500960
#
# Coordination Sequence:
#
# PCOD9177881 Si02
#       8
#     8   8   8   8   8   8   8   8
#     4   9  18  33  51  69  89 116 151 184 214 257
#     4  10  19  32  51  70  88 115 151 185 216 257
#     4   8  13  22  38  60  85 114 148 183 218 258
#     4  10  19  30  44  65  95 123 146 179 224 267
#     4   8  13  23  39  58  83 116 151 182 215 259
#     4   9  17  30  49  72  94 113 139 181 228 264
#     4   9  18  31  45  64  93 124 148 177 221 266
#     4   7  10  18  34  56  81 110 145 183 217 252
#
# _framework density 21.787586999999998
#
# number of rings (size 3 to 8) (size 9 to 14) (size 15 to 20)
#    0.000    3.250    0.000    2.625    0.000    3.000 
#    0.000    1.250    0.000    3.750    0.000    0.875 
#    0.000    0.000    0.000    0.000    0.000    0.000 
#
# Total GULP energy -178516.096659 kJ/mol
# GULP energy per Si atom -5578.628021 kJ/mol
# Density = 2.173800 g / cm^3
# Si number density = 21.787587 Si / 1000 Ang^3
#
#
#
# Elastic Constant Matrix: (Units=GPa)
#
#
# Indices 1 2 3 4 5 6 
#
# 1 58.3249 3.9159 2.6322 0.0000 6.9000 0.0000
# 2 3.9159 138.8256 126.5131 0.0000 -0.8944 0.0000
# 3 2.6322 126.5131 268.1952 0.0000 21.3037 0.0000
# 4 0.0000 0.0000 0.0000 24.0306 0.0000 1.4773
# 5 6.9000 -0.8944 21.3037 0.0000 26.4090 0.0000
# 6 0.0000 0.0000 0.0000 1.4773 0.0000 1.8445
#
#
#
# Elastic Compliance Matrix: (Units=1/GPa)
#
#
# Indices 1 2 3 4 5 6 
#
# 1 0.017838 -0.001353 0.000894 0.000000 -0.005428 0.000000
# 2 -0.001353 0.013561 -0.006890 0.000000 0.006371 0.000000
# 3 0.000894 -0.006890 0.007487 0.000000 -0.006507 0.000000
# 4 0.000000 0.000000 0.000000 0.043768 0.000000 -0.035054
# 5 -0.005428 0.006371 -0.006507 0.000000 0.044749 0.000000
# 6 0.000000 0.000000 0.000000 -0.035054 0.000000 0.570226
#
#
# Mechanical properties :
#
#
# Convention : Reuss Voigt Hill
#
# Bulk Modulus (GPa) = 41.34170 81.27424 61.30797
# Shear Modulus (GPa) = 6.94068 32.60911 19.77490
#
# Velocity S-wave (km/s) = 1.78677 3.87290 3.01595
# Velocity P-wave (km/s) = 4.82419 7.57516 6.35043
#
# Compressibility (1/GPa) = 0.02418865
#
# Stress axis : x y z
#
# Youngs Moduli (GPa) = 56.06019 73.73875 133.56802
#
# Poissons Ratio (x) = 0.09979 -0.11947
# Poissons Ratio (y) = 0.07586 0.92028
# Poissons Ratio (z) = -0.05014 0.50806
#
# Static dielectric constant tensor:
#      x y z
#    x 1.863750 0.000000 -0.014160 
#    y 0.000000 1.774660 0.000000 
#    z -0.014160 0.000000 1.793320 
# 
# From -- ./inp_files/323760.got.cif
#   From: 2010.05.17/outbox.cif.g08.bks.cpg/sg12_162_cif.got.tgz:323760.got - 2010.06.03 13:09:07.
