data_PCOD9177979
_publ_section_title
;
Structure prediction by ZEFSAII (Michael W. Deem and Ramdas Pophale) SiO2 
 PCOD9177979
Probable space group: C 2/M
;
_chemical_formula_sum "Si O2"
_cell_formula_units_Z 56
_cell_length_a 13.843628
_cell_length_b 9.263061
_cell_length_c 19.031754
_cell_angle_alpha 90.000000
_cell_angle_beta 96.006638
_cell_angle_gamma 90.000000
_cell_volume 2427.125973
_symmetry_space_group_name_H-M "C 2/M"
_symmetry_group_IT_number 12
_symmetry_cell_setting 'monoclinic'
loop_
_space_group_symop_operation_xyz
x,y,z
-x,y,-z
-x,-y,-z
x,-y,z
1/2+x,1/2+y,z
1/2-x,1/2+y,-z
1/2-x,1/2-y,-z
1/2+x,1/2-y,z
loop_
_atom_site_type_symbol
_atom_site_label
_atom_site_fract_x
_atom_site_fract_y
_atom_site_fract_z
Si Si1 0.889425 0.337493 0.552411
Si Si2 0.072181 0.837557 0.304354
Si Si3 0.665969 0.335798 0.579772
Si Si4 0.857234 0.331384 0.131273
Si Si5 0.158314 0.836787 0.733376
Si Si6 0.616907 0.171778 0.018559
Si Si7 0.907166 0.669497 0.831427
O O1 0.929014 0.500000 0.558032
O O2 0.923353 0.242760 0.620867
O O3 0.773221 0.349036 0.556269
O O4 0.896914 0.260536 0.477463
O O5 0.117894 0.749222 0.242969
O O6 0.958652 0.846555 0.276472
O O7 0.111738 0.000000 0.312826
O O8 0.625569 0.500000 0.583149
O O9 0.679952 0.271244 0.658564
O O10 0.829383 0.500000 0.131536
O O11 0.815237 0.245937 0.194053
O O12 0.974983 0.326307 0.150416
O O13 0.839266 0.270142 0.051258
O O14 0.196979 0.000000 0.736793
O O15 0.634674 0.231443 0.098128
O O16 0.639084 0.000000 0.021950
O O17 0.500000 0.182410 0.000000
O O18 0.883805 0.500000 0.825055
#
# Coordination Sequence:
#
# PCOD9177979 Si02
#       7
#     8   8   8   8   8   8   8
#     4  10  20  34  52  70  87 112 149 188 222 260
#     4  10  19  30  45  67  96 123 146 178 222 268
#     4   9  19  36  53  67  87 116 149 183 220 265
#     4   8  13  22  38  61  88 117 149 184 219 255
#     4   9  18  31  46  66  93 123 149 176 219 270
#     4   7  10  18  34  56  83 116 149 180 216 255
#     4   8  13  23  39  59  86 119 153 184 214 255
#
# _framework density 23.072555000000001
#
# number of rings (size 3 to 8) (size 9 to 14) (size 15 to 20)
#    0.000    3.286    0.000    2.571    0.000    2.286 
#    0.000    3.571    0.000    4.286    0.000    1.000 
#    0.000    0.000    0.000    0.000    0.000    0.000 
#
# Total GULP energy -156301.307014 kJ/mol
# GULP energy per Si atom -5582.189536 kJ/mol
# Density = 2.302004 g / cm^3
# Si number density = 23.072555 Si / 1000 Ang^3
#
#
#
# Elastic Constant Matrix: (Units=GPa)
#
#
# Indices 1 2 3 4 5 6 
#
# 1 46.4583 -5.7140 21.0075 0.0000 0.4633 0.0000
# 2 -5.7140 93.3513 97.4431 0.0000 0.1236 0.0000
# 3 21.0075 97.4431 271.2553 0.0000 -14.1027 0.0000
# 4 0.0000 0.0000 0.0000 36.2502 0.0000 -6.5819
# 5 0.4633 0.1236 -14.1027 0.0000 47.1263 0.0000
# 6 0.0000 0.0000 0.0000 -6.5819 0.0000 2.1034
#
#
#
# Elastic Compliance Matrix: (Units=1/GPa)
#
#
# Indices 1 2 3 4 5 6 
#
# 1 0.024007 0.005583 -0.003939 0.000000 -0.001429 0.000000
# 2 0.005583 0.018610 -0.007235 0.000000 -0.002269 0.000000
# 3 -0.003939 -0.007235 0.006698 0.000000 0.002062 0.000000
# 4 0.000000 0.000000 0.000000 0.063878 0.000000 0.199879
# 5 -0.001429 -0.002269 0.002062 0.000000 0.021857 0.000000
# 6 0.000000 0.000000 0.000000 0.199879 0.000000 1.100850
#
#
# Mechanical properties :
#
#
# Convention : Reuss Voigt Hill
#
# Bulk Modulus (GPa) = 26.22504 70.72647 48.47576
# Shear Modulus (GPa) = 3.96891 36.98456 20.47673
#
# Velocity S-wave (km/s) = 1.31298 4.00805 2.98231
# Velocity P-wave (km/s) = 3.69994 7.22079 5.73713
#
# Compressibility (1/GPa) = 0.03813150
#
# Stress axis : x y z
#
# Youngs Moduli (GPa) = 41.65485 53.73566 149.29712
#
# Poissons Ratio (x) = -0.30002 0.58811
# Poissons Ratio (y) = -0.23257 1.08024
# Poissons Ratio (z) = 0.16409 0.38880
#
# Static dielectric constant tensor:
#      x y z
#    x 1.952660 0.000000 -0.008380 
#    y 0.000000 1.818830 0.000000 
#    z -0.008380 0.000000 1.881000 
# 
# From -- ./inp_files/280425.got.cif
#   From: 2010.05.17/outbox.cif.g08.bks.cpg/sg12_141_cif.got.tgz:280425.got - 2010.06.03 13:09:07.
