data_PCOD9177796
_publ_section_title
;
Structure prediction by ZEFSAII (Michael W. Deem and Ramdas Pophale) SiO2 
 PCOD9177796
Probable space group: C 2/M
;
_chemical_formula_sum "Si O2"
_cell_formula_units_Z 64
_cell_length_a 13.472219
_cell_length_b 22.996580
_cell_length_c 9.015201
_cell_angle_alpha 90.000000
_cell_angle_beta 89.999932
_cell_angle_gamma 90.000000
_cell_volume 2793.044155
_symmetry_space_group_name_H-M "C 2/M"
_symmetry_group_IT_number 12
_symmetry_cell_setting 'monoclinic'
loop_
_space_group_symop_operation_xyz
x,y,z
-x,y,-z
-x,-y,-z
x,-y,z
1/2+x,1/2+y,z
1/2-x,1/2+y,-z
1/2-x,1/2-y,-z
1/2+x,1/2-y,z
loop_
_atom_site_type_symbol
_atom_site_label
_atom_site_fract_x
_atom_site_fract_y
_atom_site_fract_z
Si Si1 0.401303 0.912565 0.423141
Si Si2 0.825803 0.935191 0.571484
Si Si3 0.133922 0.817544 0.582666
Si Si4 0.866078 0.182456 0.082667
Si Si5 0.174197 0.064809 0.071483
Si Si6 0.128982 0.703233 0.415077
Si Si7 0.598697 0.912565 0.923141
Si Si8 0.128982 0.703233 0.084923
O O1 0.500000 0.936217 0.500000
O O2 0.292028 0.934122 0.470272
O O3 0.399689 0.844191 0.463003
O O4 0.408992 0.923168 0.250000
O O5 0.875882 0.881805 0.485804
O O6 0.830943 0.925654 0.750000
O O7 0.864262 0.000000 0.538701
O O8 0.093062 0.813800 0.750000
O O9 0.102031 0.767337 0.469316
O O10 0.251993 0.804122 0.594782
O O11 0.748007 0.195877 0.094782
O O12 0.875882 0.118195 0.014196
O O13 0.897969 0.232663 0.969316
O O14 0.292028 0.065878 0.029727
O O15 0.135738 0.000000 0.038699
O O16 0.089616 0.690239 0.250000
O O17 0.500000 0.936217 0.000000
O O18 0.600311 0.844191 0.963002
#
# Coordination Sequence:
#
# PCOD9177796 Si02
#       8
#     8   8   8   8   8   8   8   8
#     4  10  19  30  43  60  84 114 148 183 216 252
#     4   9  18  31  44  59  83 116 150 181 213 251
#     4   9  16  26  42  63  83 104 134 174 218 259
#     4   9  16  26  42  63  83 104 134 174 218 259
#     4   9  18  31  44  59  83 116 150 181 213 251
#     4   9  16  27  43  61  81 106 136 172 216 261
#     4  10  19  30  43  60  84 114 148 183 216 252
#     4   9  16  27  43  61  81 106 136 172 216 261
#
# _framework density 22.914065999999998
#
# number of rings (size 3 to 8) (size 9 to 14) (size 15 to 20)
#    0.000    2.750    0.000    2.250    0.000    8.000 
#    0.000    0.000    0.000    0.000    0.000    0.000 
#    0.000    1.000    0.000    3.750    0.000    5.750 
#
# Total GULP energy -178697.040634 kJ/mol
# GULP energy per Si atom -5584.282520 kJ/mol
# Density = 2.286191 g / cm^3
# Si number density = 22.914066 Si / 1000 Ang^3
#
#
#
# Elastic Constant Matrix: (Units=GPa)
#
#
# Indices 1 2 3 4 5 6 
#
# 1 53.4613 -15.1340 5.4293 0.0000 0.3640 0.0000
# 2 -15.1340 164.6659 32.8144 0.0000 -3.2856 0.0000
# 3 5.4293 32.8144 63.3710 0.0000 -1.0432 0.0000
# 4 0.0000 0.0000 0.0000 13.2100 0.0000 -1.7542
# 5 0.3640 -3.2856 -1.0432 0.0000 21.4557 0.0000
# 6 0.0000 0.0000 0.0000 -1.7542 0.0000 -12.3930
#
#
#
# Elastic Compliance Matrix: (Units=1/GPa)
#
#
# Indices 1 2 3 4 5 6 
#
# 1 0.019679 0.002389 -0.002925 0.000000 -0.000110 0.000000
# 2 0.002389 0.007078 -0.003856 0.000000 0.000856 0.000000
# 3 -0.002925 -0.003856 0.018033 0.000000 0.000336 0.000000
# 4 0.000000 0.000000 0.000000 0.074303 0.000000 -0.010517
# 5 -0.000110 0.000856 0.000336 0.000000 0.046757 0.000000
# 6 0.000000 0.000000 0.000000 -0.010517 0.000000 -0.079202
#
#
# Mechanical properties :
#
#
# Convention : Reuss Voigt Hill
#
# Bulk Modulus (GPa) = 27.77216 36.41304 32.09260
# Shear Modulus (GPa) = 46.54039 21.68045 34.11042
#
# Velocity S-wave (km/s) = 4.51164 3.07931 3.86245
# Velocity P-wave (km/s) = 6.26788 5.34495 5.82473
#
# Compressibility (1/GPa) = 0.03600728
#
# Stress axis : x y z
#
# Youngs Moduli (GPa) = 50.81474 141.28409 55.45464
#
# Poissons Ratio (x) = -0.33758 0.16221
# Poissons Ratio (y) = -0.12142 0.21382
# Poissons Ratio (z) = 0.14864 0.54475
#
# Static dielectric constant tensor:
#      x y z
#    x 1.940650 0.000000 0.010160 
#    y 0.000000 1.840170 0.000000 
#    z 0.010160 0.000000 1.792340 
# 
# From -- ./inp_files/89201.got.cif
#   From: 2010.05.17/outbox.cif.g08.bks.cpg/sg12_45_cif.got.tgz:89201.got - 2010.06.03 13:09:07.
