data_PCOD9177494
_publ_section_title
;
Structure prediction by ZEFSAII (Michael W. Deem and Ramdas Pophale) SiO2 
 PCOD9177494
Probable space group: C 2/M
;
_chemical_formula_sum "Si O2"
_cell_formula_units_Z 64
_cell_length_a 28.701702
_cell_length_b 9.191867
_cell_length_c 14.849768
_cell_angle_alpha 90.000000
_cell_angle_beta 88.515324
_cell_angle_gamma 90.000000
_cell_volume 3916.383662
_symmetry_space_group_name_H-M "C 2/M"
_symmetry_group_IT_number 12
_symmetry_cell_setting 'monoclinic'
loop_
_space_group_symop_operation_xyz
x,y,z
-x,y,-z
-x,-y,-z
x,-y,z
1/2+x,1/2+y,z
1/2-x,1/2+y,-z
1/2-x,1/2-y,-z
1/2+x,1/2-y,z
loop_
_atom_site_type_symbol
_atom_site_label
_atom_site_fract_x
_atom_site_fract_y
_atom_site_fract_z
Si Si1 0.736935 0.325793 0.407509
Si Si2 0.585558 0.332437 0.193270
Si Si3 0.197659 0.327132 0.764760
Si Si4 0.605891 0.826238 0.856216
Si Si5 0.160182 0.332441 0.298097
Si Si6 0.270937 0.833364 0.879388
Si Si7 0.845301 0.833891 0.981900
Si Si8 0.001420 0.675149 0.892652
O O1 0.732941 0.500000 0.417113
O O2 0.750000 0.250000 0.500000
O O3 0.777262 0.295587 0.330979
O O4 0.689454 0.258123 0.369622
O O5 0.576872 0.500000 0.219344
O O6 0.612558 0.244850 0.269870
O O7 0.539370 0.254138 0.159439
O O8 0.621119 0.334057 0.106903
O O9 0.204070 0.500000 0.781547
O O10 0.142725 0.294291 0.774885
O O11 0.224826 0.238896 0.840631
O O12 0.628482 0.755777 0.943183
O O13 0.552200 0.781209 0.852170
O O14 0.605087 0.000000 0.868752
O O15 0.153052 0.500000 0.326005
O O16 0.193371 0.334490 0.207803
O O17 0.264531 0.000000 0.908087
O O18 0.297267 0.739253 0.952962
O O19 0.838509 0.000000 0.010732
O O20 0.995642 0.500000 0.885670
O O21 0.000000 0.710140 0.000000
#
# Coordination Sequence:
#
# PCOD9177494 Si02
#       8
#     8   8   8   8   8   8   8   8
#     4  10  19  33  54  79 104 127 154 188 234 290
#     4  10  19  30  46  68  97 129 164 207 249 285
#     4   9  19  34  49  67  94 125 156 194 235 282
#     4  10  20  33  47  64  90 125 165 204 242 280
#     4   9  17  30  49  73  99 126 159 197 239 285
#     4   9  17  29  46  65  89 123 161 198 235 279
#     4  10  19  29  43  64  90 124 164 203 241 280
#     4  10  19  31  48  68  91 125 170 214 249 281
#
# _framework density 16.341607
#
# number of rings (size 3 to 8) (size 9 to 14) (size 15 to 20)
#    0.000    2.375    1.250    1.875    0.000    6.250 
#    0.000    0.000    0.000    0.000    0.000    0.875 
#    0.000    7.000    0.000    0.000    0.000    0.000 
#
# Total GULP energy -178504.327143 kJ/mol
# GULP energy per Si atom -5578.260223 kJ/mol
# Density = 1.630441 g / cm^3
# Si number density = 16.341607 Si / 1000 Ang^3
#
#
#
# Elastic Constant Matrix: (Units=GPa)
#
#
# Indices 1 2 3 4 5 6 
#
# 1 143.2841 64.4610 47.8574 0.0000 22.9216 0.0000
# 2 64.4610 67.2616 44.6973 0.0000 13.5481 0.0000
# 3 47.8574 44.6973 74.2495 0.0000 20.2668 0.0000
# 4 0.0000 0.0000 0.0000 21.8821 0.0000 8.5681
# 5 22.9216 13.5481 20.2668 0.0000 20.8219 0.0000
# 6 0.0000 0.0000 0.0000 8.5681 0.0000 22.8702
#
#
#
# Elastic Compliance Matrix: (Units=1/GPa)
#
#
# Indices 1 2 3 4 5 6 
#
# 1 0.013156 -0.011373 0.000408 0.000000 -0.007480 0.000000
# 2 -0.011373 0.034685 -0.014717 0.000000 0.004276 0.000000
# 3 0.000408 -0.014717 0.026655 0.000000 -0.016818 0.000000
# 4 0.000000 0.000000 0.000000 0.053556 0.000000 -0.020064
# 5 -0.007480 0.004276 -0.016818 0.000000 0.069849 0.000000
# 6 0.000000 0.000000 0.000000 -0.020064 0.000000 0.051242
#
#
# Mechanical properties :
#
#
# Convention : Reuss Voigt Hill
#
# Bulk Modulus (GPa) = 43.22736 66.53627 54.88181
# Shear Modulus (GPa) = 16.22245 21.63347 18.92796
#
# Velocity S-wave (km/s) = 3.15415 3.64239 3.40703
# Velocity P-wave (km/s) = 6.30671 7.64811 7.00957
#
# Compressibility (1/GPa) = 0.02313349
#
# Stress axis : x y z
#
# Youngs Moduli (GPa) = 76.01259 28.83090 37.51677
#
# Poissons Ratio (x) = 0.32789 -0.01532
# Poissons Ratio (y) = 0.86447 0.55213
# Poissons Ratio (z) = -0.03105 0.42430
#
# Static dielectric constant tensor:
#      x y z
#    x 1.568140 0.000000 -0.031850 
#    y 0.000000 1.549180 0.000000 
#    z -0.031850 0.000000 1.523600 
# 
# From -- ./inp_files/244030.got.cif
#   From: 2010.05.17/outbox.cif.g08.bks.cpg/sg12_123_cif.got.tgz:244030.got - 2010.06.03 13:09:07.
