data_PCOD9177335
_publ_section_title
;
Structure prediction by ZEFSAII (Michael W. Deem and Ramdas Pophale) SiO2 
 PCOD9177335
Probable space group: C 2/M
;
_chemical_formula_sum "Si O2"
_cell_formula_units_Z 56
_cell_length_a 29.347748
_cell_length_b 9.690766
_cell_length_c 10.389319
_cell_angle_alpha 90.000000
_cell_angle_beta 122.813357
_cell_angle_gamma 90.000000
_cell_volume 2483.286550
_symmetry_space_group_name_H-M "C 2/M"
_symmetry_group_IT_number 12
_symmetry_cell_setting 'monoclinic'
loop_
_space_group_symop_operation_xyz
x,y,z
-x,y,-z
-x,-y,-z
x,-y,z
1/2+x,1/2+y,z
1/2-x,1/2+y,-z
1/2-x,1/2-y,-z
1/2+x,1/2-y,z
loop_
_atom_site_type_symbol
_atom_site_label
_atom_site_fract_x
_atom_site_fract_y
_atom_site_fract_z
Si Si1 0.830264 0.832872 0.822035
Si Si2 0.926056 0.774000 0.635132
Si Si3 0.627044 0.659280 0.719223
Si Si4 0.032863 0.657264 0.685465
Si Si5 0.056399 0.847504 0.062453
Si Si6 0.273586 0.160143 0.208787
Si Si7 0.177347 0.351638 0.432254
O O1 0.892779 0.786302 0.934957
O O2 0.789354 0.797975 0.874710
O O3 0.813406 0.763594 0.660922
O O4 0.830231 0.000000 0.810996
O O5 0.900440 0.837658 0.466577
O O6 0.923515 0.862808 0.759913
O O7 0.884841 0.653008 0.612987
O O8 0.987553 0.728307 0.704690
O O9 0.632018 0.500000 0.768519
O O10 0.585039 0.748477 0.739133
O O11 0.684677 0.736937 0.794908
O O12 0.046163 0.500000 0.744467
O O13 0.000000 0.648326 0.500000
O O14 0.044866 0.000000 0.988713
O O15 0.000000 0.770551 0.000000
O O16 0.290424 0.162332 0.385730
O O17 0.278798 0.000000 0.172889
O O18 0.189909 0.500000 0.392274
#
# Coordination Sequence:
#
# PCOD9177335 Si02
#       7
#     8   8   8   8   8   8   8
#     4   9  17  28  42  60  83 113 147 181 217 259
#     4   9  17  28  44  63  90 122 151 181 217 259
#     4  10  19  28  42  67  94 118 148 183 218 260
#     4   9  17  29  45  64  90 123 152 177 214 267
#     4   9  17  29  45  66  91 118 150 187 224 259
#     4   9  17  28  40  57  85 118 147 175 213 263
#     4   9  16  25  39  60  85 113 145 178 213 258
#
# _framework density 22.550761000000001
#
# number of rings (size 3 to 8) (size 9 to 14) (size 15 to 20)
#    0.000    2.857    0.000    1.714    0.000   10.571 
#    0.000    0.000    0.000   10.714    0.000    1.000 
#    0.000    0.000    0.000    0.000    0.000    0.000 
#
# Total GULP energy -156026.082612 kJ/mol
# GULP energy per Si atom -5572.360093 kJ/mol
# Density = 2.249943 g / cm^3
# Si number density = 22.550761 Si / 1000 Ang^3
#
#
#
# Elastic Constant Matrix: (Units=GPa)
#
#
# Indices 1 2 3 4 5 6 
#
# 1 180.2348 71.3983 39.0640 0.0000 51.0223 0.0000
# 2 71.3983 109.1640 6.8303 0.0000 18.5724 0.0000
# 3 39.0640 6.8303 44.2713 0.0000 1.7649 0.0000
# 4 0.0000 0.0000 0.0000 0.3539 0.0000 4.2285
# 5 51.0223 18.5724 1.7649 0.0000 51.7733 0.0000
# 6 0.0000 0.0000 0.0000 4.2285 0.0000 12.5150
#
#
#
# Elastic Compliance Matrix: (Units=1/GPa)
#
#
# Indices 1 2 3 4 5 6 
#
# 1 0.013175 -0.006205 -0.010253 0.000000 -0.010409 0.000000
# 2 -0.006205 0.012761 0.003449 0.000000 0.001419 0.000000
# 3 -0.010253 0.003449 0.030791 0.000000 0.007817 0.000000
# 4 0.000000 0.000000 0.000000 -0.930395 0.000000 0.314355
# 5 -0.010409 0.001419 0.007817 0.000000 0.028797 0.000000
# 6 0.000000 0.000000 0.000000 0.314355 0.000000 -0.026308
#
#
# Mechanical properties :
#
#
# Convention : Reuss Voigt Hill
#
# Bulk Modulus (GPa) = 32.56167 63.13949 47.85058
# Shear Modulus (GPa) = -5.98857 27.35361 10.68252
#
# Velocity S-wave (km/s) = -1.63137 3.48656 2.17885
# Velocity P-wave (km/s) = 3.30487 6.65340 5.25309
#
# Compressibility (1/GPa) = 0.03071095
#
# Stress axis : x y z
#
# Youngs Moduli (GPa) = 75.90081 78.36124 32.47670
#
# Poissons Ratio (x) = 0.48621 0.33299
# Poissons Ratio (y) = 0.47094 -0.11203
# Poissons Ratio (z) = 0.77822 -0.27030
#
# Static dielectric constant tensor:
#      x y z
#    x 1.844310 0.000000 0.047880 
#    y 0.000000 1.801420 0.000000 
#    z 0.047880 0.000000 1.926850 
# 
# From -- ./inp_files/249263.got.cif
#   From: 2010.05.17/outbox.cif.g08.bks.cpg/sg12_125_cif.got.tgz:249263.got - 2010.06.03 13:09:07.
