data_PCOD9177566
_publ_section_title
;
Structure prediction by ZEFSAII (Michael W. Deem and Ramdas Pophale) SiO2 
 PCOD9177566
Probable space group: C 2/M
;
_chemical_formula_sum "Si O2"
_cell_formula_units_Z 64
_cell_length_a 20.104874
_cell_length_b 7.651893
_cell_length_c 22.220735
_cell_angle_alpha 90.000000
_cell_angle_beta 102.409014
_cell_angle_gamma 90.000000
_cell_volume 3338.585458
_symmetry_space_group_name_H-M "C 2/M"
_symmetry_group_IT_number 12
_symmetry_cell_setting 'monoclinic'
loop_
_space_group_symop_operation_xyz
x,y,z
-x,y,-z
-x,-y,-z
x,-y,z
1/2+x,1/2+y,z
1/2-x,1/2+y,-z
1/2-x,1/2-y,-z
1/2+x,1/2-y,z
loop_
_atom_site_type_symbol
_atom_site_label
_atom_site_fract_x
_atom_site_fract_y
_atom_site_fract_z
Si Si1 0.728049 0.205955 0.197269
Si Si2 0.496319 0.713192 0.692756
Si Si3 0.656284 0.289555 0.307936
Si Si4 0.187324 0.790670 0.445076
Si Si5 0.880672 0.784919 0.198830
Si Si6 0.854190 0.800701 0.064864
Si Si7 0.036299 0.213638 0.446518
Si Si8 0.299140 0.706139 0.935610
O O1 0.694312 0.239561 0.254698
O O2 0.805994 0.272842 0.207307
O O3 0.685645 0.275133 0.131770
O O4 0.731872 0.000000 0.189283
O O5 0.496913 0.500000 0.693503
O O6 0.422560 0.768499 0.703757
O O7 0.559080 0.772029 0.745617
O O8 0.499039 0.765914 0.623172
O O9 0.655209 0.500000 0.309159
O O10 0.691920 0.227486 0.376824
O O11 0.250000 0.750000 0.500000
O O12 0.114921 0.729201 0.457335
O O13 0.182599 0.000000 0.441018
O O14 0.889136 0.723650 0.131142
O O15 0.880708 0.000000 0.197850
O O16 0.773883 0.796608 0.067614
O O17 0.878749 0.000000 0.064956
O O18 0.851724 0.726706 0.996568
O O19 0.000000 0.274537 0.500000
O O20 0.035781 0.000000 0.447501
O O21 0.289285 0.500000 0.945739
#
# Coordination Sequence:
#
# PCOD9177566 Si02
#       8
#     8   8   8   8   8   8   8   8
#     4  10  19  29  44  68  93 115 146 188 225 260
#     4   8  14  26  44  63  85 115 146 179 220 260
#     4   9  18  32  47  64  89 120 150 178 215 265
#     4   9  18  31  47  68  92 117 146 180 217 260
#     4   8  14  25  42  66  90 109 140 187 228 258
#     4   8  14  24  39  62  90 116 145 184 226 266
#     4   8  14  25  42  65  90 114 144 181 217 256
#     4   9  15  24  40  61  88 120 148 178 222 270
#
# _framework density 19.169796000000002
#
# number of rings (size 3 to 8) (size 9 to 14) (size 15 to 20)
#    0.000    3.375    0.000    3.000    0.000    2.000 
#    0.000    2.500    0.000    4.875    0.000    5.250 
#    0.000    0.000    0.000    0.000    0.000    0.000 
#
# Total GULP energy -178151.115972 kJ/mol
# GULP energy per Si atom -5567.222374 kJ/mol
# Density = 1.912616 g / cm^3
# Si number density = 19.169796 Si / 1000 Ang^3
#
#
#
# Elastic Constant Matrix: (Units=GPa)
#
#
# Indices 1 2 3 4 5 6 
#
# 1 69.5176 3.6711 105.5879 0.0000 8.0686 0.0000
# 2 3.6711 39.8354 5.4664 0.0000 -0.0520 0.0000
# 3 105.5879 5.4664 232.7272 0.0000 11.7623 0.0000
# 4 0.0000 0.0000 0.0000 17.1718 0.0000 -0.0997
# 5 8.0686 -0.0520 11.7623 0.0000 29.4670 0.0000
# 6 0.0000 0.0000 0.0000 -0.0997 0.0000 10.5242
#
#
#
# Elastic Compliance Matrix: (Units=1/GPa)
#
#
# Indices 1 2 3 4 5 6 
#
# 1 0.046912 -0.001444 -0.021025 0.000000 -0.004456 0.000000
# 2 -0.001444 0.025231 0.000041 0.000000 0.000424 0.000000
# 3 -0.021025 0.000041 0.013823 0.000000 0.000239 0.000000
# 4 0.000000 0.000000 0.000000 0.058238 0.000000 0.000552
# 5 -0.004456 0.000424 0.000239 0.000000 0.035061 0.000000
# 6 0.000000 0.000000 0.000000 0.000552 0.000000 0.095024
#
#
# Mechanical properties :
#
#
# Convention : Reuss Voigt Hill
#
# Bulk Modulus (GPa) = 24.32456 63.50345 43.91401
# Shear Modulus (GPa) = 15.02183 26.58959 20.80571
#
# Velocity S-wave (km/s) = 2.80236 3.72836 3.29802
# Velocity P-wave (km/s) = 4.81534 7.19256 6.12048
#
# Compressibility (1/GPa) = 0.04111070
#
# Stress axis : x y z
#
# Youngs Moduli (GPa) = 21.31646 39.63333 72.34460
#
# Poissons Ratio (x) = 0.05723 1.52103
# Poissons Ratio (y) = 0.03078 -0.00297
# Poissons Ratio (z) = 0.44817 -0.00163
#
# Static dielectric constant tensor:
#      x y z
#    x 1.632450 0.000000 0.006550 
#    y 0.000000 1.739120 0.000000 
#    z 0.006550 0.000000 1.724930 
# 
# From -- ./inp_files/319218.got.cif
#   From: 2010.05.17/outbox.cif.g08.bks.cpg/sg12_160_cif.got.tgz:319218.got - 2010.06.03 13:09:07.
