data_PCOD9177329
_publ_section_title
;
Structure prediction by ZEFSAII (Michael W. Deem and Ramdas Pophale) SiO2 
 PCOD9177329
Probable space group: C 2/M
;
_chemical_formula_sum "Si O2"
_cell_formula_units_Z 56
_cell_length_a 17.760310
_cell_length_b 14.431310
_cell_length_c 17.203043
_cell_angle_alpha 90.000000
_cell_angle_beta 153.907688
_cell_angle_gamma 90.000000
_cell_volume 1939.256391
_symmetry_space_group_name_H-M "C 2/M"
_symmetry_group_IT_number 12
_symmetry_cell_setting 'monoclinic'
loop_
_space_group_symop_operation_xyz
x,y,z
-x,y,-z
-x,-y,-z
x,-y,z
1/2+x,1/2+y,z
1/2-x,1/2+y,-z
1/2-x,1/2-y,-z
1/2+x,1/2-y,z
loop_
_atom_site_type_symbol
_atom_site_label
_atom_site_fract_x
_atom_site_fract_y
_atom_site_fract_z
Si Si1 0.384154 0.357950 0.072086
Si Si2 0.646577 0.389797 0.192577
Si Si3 0.250379 0.610458 0.226564
Si Si4 0.890747 0.114238 0.514194
Si Si5 0.919060 0.391240 0.332665
Si Si6 0.381170 0.860735 0.055316
Si Si7 0.678350 0.106497 0.450928
O O1 0.568931 0.381857 0.206776
O O2 0.299391 0.394137 0.073313
O O3 0.242183 0.388398 0.876697
O O4 0.385746 0.248020 0.073882
O O5 0.653875 0.500000 0.184851
O O6 0.828504 0.355713 0.327818
O O7 0.500000 0.348090 0.000000
O O8 0.263862 0.500000 0.247301
O O9 0.261391 0.645370 0.325076
O O10 0.424638 0.644320 0.345801
O O11 0.111937 0.624097 0.030581
O O12 0.833310 0.149988 0.545255
O O13 0.891025 0.000000 0.518737
O O14 0.963367 0.500000 0.383639
O O15 0.076150 0.349851 0.428619
O O16 0.533463 0.900001 0.248144
O O17 0.719343 0.000000 0.507863
#
# Coordination Sequence:
#
# PCOD9177329 Si02
#       7
#     8   8   8   8   8   8   8
#     4   9  17  28  39  61 101 125 147 185 239 280
#     4   8  13  24  42  62  85 118 155 186 224 278
#     4   9  17  31  48  66  90 127 166 196 227 274
#     4   8  16  31  48  65  91 123 160 200 233 272
#     4   8  14  26  45  64  86 117 153 189 228 275
#     4  10  19  28  42  66 100 125 151 189 236 282
#     4   9  16  28  46  69  95 121 151 192 235 277
#
# _framework density 28.877047999999998
#
# number of rings (size 3 to 8) (size 9 to 14) (size 15 to 20)
#    0.000    3.286    0.000    2.571    0.000    2.286 
#    7.714    2.143    0.000    7.714    0.000    1.000 
#    0.000    5.714    0.000    3.429    0.000    0.000 
#
# Total GULP energy -156635.258163 kJ/mol
# GULP energy per Si atom -5594.116363 kJ/mol
# Density = 2.881132 g / cm^3
# Si number density = 28.877048 Si / 1000 Ang^3
#
#
#
# Elastic Constant Matrix: (Units=GPa)
#
#
# Indices 1 2 3 4 5 6 
#
# 1 229.8898 16.4640 35.3201 -0.0011 -6.1356 0.0061
# 2 16.4640 98.3140 -0.5487 -0.0016 0.2506 -0.0074
# 3 35.3201 -0.5487 100.4631 -0.0036 4.7764 -0.0022
# 4 -0.0011 -0.0016 -0.0036 -44.9141 -0.0002 40.3639
# 5 -6.1356 0.2506 4.7764 -0.0002 76.8663 -0.0035
# 6 0.0061 -0.0074 -0.0022 40.3639 -0.0035 -27.3935
#
#
#
# Elastic Compliance Matrix: (Units=1/GPa)
#
#
# Indices 1 2 3 4 5 6 
#
# 1 0.004676 -0.000794 -0.001671 -0.000004 0.000480 -0.000004
# 2 -0.000794 0.010307 0.000341 0.000009 -0.000118 0.000011
# 3 -0.001671 0.000341 0.010581 0.000006 -0.000792 0.000007
# 4 -0.000004 0.000009 0.000006 0.068674 0.000004 0.101191
# 5 0.000480 -0.000118 -0.000792 0.000004 0.013097 0.000005
# 6 -0.000004 0.000011 0.000007 0.101191 0.000005 0.112598
#
#
# Mechanical properties :
#
#
# Convention : Reuss Voigt Hill
#
# Bulk Modulus (GPa) = 46.91304 59.01529 52.96417
# Shear Modulus (GPa) = 21.61819 26.07383 23.84601
#
# Velocity S-wave (km/s) = 2.73908 3.00813 2.87675
# Velocity P-wave (km/s) = 5.12684 5.70493 5.42359
#
# Compressibility (1/GPa) = 0.02131603
#
# Stress axis : x y z
#
# Youngs Moduli (GPa) = 213.84352 97.02518 94.50928
#
# Poissons Ratio (x) = 0.07701 0.15794
# Poissons Ratio (y) = 0.16972 -0.03222
# Poissons Ratio (z) = 0.35738 -0.03308
#
# Static dielectric constant tensor:
#      x y z
#    x 2.279270 0.000000 0.011710 
#    y 0.000000 2.100430 0.000000 
#    z 0.011710 0.000000 2.388440 
# 
# From -- ./inp_files/279017.got.cif
#   From: 2010.05.17/outbox.cif.g08.bks.cpg/sg12_140_cif.got.tgz:279017.got - 2010.06.03 13:09:07.
