data_PCOD9177442
_publ_section_title
;
Structure prediction by ZEFSAII (Michael W. Deem and Ramdas Pophale) SiO2 
 PCOD9177442
Probable space group: C 2/M
;
_chemical_formula_sum "Si O2"
_cell_formula_units_Z 64
_cell_length_a 28.585691
_cell_length_b 8.870970
_cell_length_c 15.306866
_cell_angle_alpha 90.000000
_cell_angle_beta 91.270780
_cell_angle_gamma 90.000000
_cell_volume 3880.603380
_symmetry_space_group_name_H-M "C 2/M"
_symmetry_group_IT_number 12
_symmetry_cell_setting 'monoclinic'
loop_
_space_group_symop_operation_xyz
x,y,z
-x,y,-z
-x,-y,-z
x,-y,z
1/2+x,1/2+y,z
1/2-x,1/2+y,-z
1/2-x,1/2-y,-z
1/2+x,1/2-y,z
loop_
_atom_site_type_symbol
_atom_site_label
_atom_site_fract_x
_atom_site_fract_y
_atom_site_fract_z
Si Si1 0.056911 0.183766 0.257237
Si Si2 0.352982 0.320973 0.647995
Si Si3 0.010008 0.184265 0.901928
Si Si4 0.667897 0.172353 0.679208
Si Si5 0.406714 0.673943 0.211685
Si Si6 0.255767 0.178499 0.596811
Si Si7 0.522009 0.325510 0.620030
Si Si8 0.096936 0.672904 0.511183
O O1 0.110685 0.225654 0.274314
O O2 0.030427 0.231749 0.168115
O O3 0.025615 0.235108 0.338881
O O4 0.989430 0.000000 0.099577
O O5 0.445157 0.500000 0.740625
O O6 0.303853 0.237159 0.640826
O O7 0.380639 0.279555 0.560467
O O8 0.060542 0.231325 0.865746
O O9 0.845182 0.000000 0.651964
O O10 0.000000 0.232847 0.000000
O O11 0.638114 0.232794 0.759835
O O12 0.712052 0.271891 0.654016
O O13 0.632635 0.175242 0.594847
O O14 0.682701 0.000000 0.693122
O O15 0.393460 0.500000 0.194701
O O16 0.442139 0.673569 0.296050
O O17 0.242691 0.500000 0.413463
O O18 0.250000 0.250000 0.500000
O O19 0.515901 0.500000 0.593963
O O20 0.547838 0.233582 0.545956
O O21 0.093734 0.500000 0.480333
#
# Coordination Sequence:
#
# PCOD9177442 Si02
#       8
#     8   8   8   8   8   8   8   8
#     4   8  16  29  44  66  94 126 160 193 232 285
#     4  11  21  32  46  63  90 126 163 200 240 281
#     4   8  13  25  49  79 106 128 155 193 233 280
#     4  10  19  31  47  66  92 125 161 202 243 281
#     4   8  14  25  44  71  98 124 156 193 235 280
#     4  12  23  35  50  68  90 120 163 208 248 284
#     4   8  14  27  44  60  86 122 160 193 226 273
#     4  10  19  29  42  62  88 119 161 203 238 277
#
# _framework density 16.492281999999999
#
# number of rings (size 3 to 8) (size 9 to 14) (size 15 to 20)
#    0.000    2.625    1.250    3.750    0.000    1.500 
#    0.000    3.750    0.000    1.875    0.000    0.875 
#    0.000    0.000    0.000    0.000    0.000    0.000 
#
# Total GULP energy -178400.889928 kJ/mol
# GULP energy per Si atom -5575.027810 kJ/mol
# Density = 1.645474 g / cm^3
# Si number density = 16.492282 Si / 1000 Ang^3
#
#
#
# Elastic Constant Matrix: (Units=GPa)
#
#
# Indices 1 2 3 4 5 6 
#
# 1 120.8067 42.4279 42.8930 0.0000 -9.1136 0.0000
# 2 42.4279 67.2438 18.6684 0.0000 -4.7861 0.0000
# 3 42.8930 18.6684 83.7837 0.0000 -13.5540 0.0000
# 4 0.0000 0.0000 0.0000 9.1345 0.0000 -3.3140
# 5 -9.1136 -4.7861 -13.5540 0.0000 17.2593 0.0000
# 6 0.0000 0.0000 0.0000 -3.3140 0.0000 16.5743
#
#
#
# Elastic Compliance Matrix: (Units=1/GPa)
#
#
# Indices 1 2 3 4 5 6 
#
# 1 0.012253 -0.006356 -0.004691 0.000000 0.001023 0.000000
# 2 -0.006356 0.019201 -0.000809 0.000000 0.001333 0.000000
# 3 -0.004691 -0.000809 0.016129 0.000000 0.009965 0.000000
# 4 0.000000 0.000000 0.000000 0.118037 0.000000 0.023601
# 5 0.001023 0.001333 0.009965 0.000000 0.066676 0.000000
# 6 0.000000 0.000000 0.000000 0.023601 0.000000 0.065054
#
#
# Mechanical properties :
#
#
# Convention : Reuss Voigt Hill
#
# Bulk Modulus (GPa) = 41.89021 53.31253 47.60137
# Shear Modulus (GPa) = 15.19676 19.78327 17.49001
#
# Velocity S-wave (km/s) = 3.03883 3.46721 3.26006
# Velocity P-wave (km/s) = 6.14554 6.95878 6.56476
#
# Compressibility (1/GPa) = 0.02387192
#
# Stress axis : x y z
#
# Youngs Moduli (GPa) = 81.61526 52.08100 61.99858
#
# Poissons Ratio (x) = 0.33101 0.29084
# Poissons Ratio (y) = 0.51872 0.05014
# Poissons Ratio (z) = 0.38286 0.04212
#
# Static dielectric constant tensor:
#      x y z
#    x 1.577810 0.000000 0.007330 
#    y 0.000000 1.558380 0.000000 
#    z 0.007330 0.000000 1.553470 
# 
# From -- ./inp_files/248250.got.cif
#   From: 2010.05.17/outbox.cif.g08.bks.cpg/sg12_125_cif.got.tgz:248250.got - 2010.06.03 13:09:07.
