data_PCOD9177138
_publ_section_title
;
Structure prediction by ZEFSAII (Michael W. Deem and Ramdas Pophale) SiO2 
 PCOD9177138
Probable space group: C 2/M
;
_chemical_formula_sum "Si O2"
_cell_formula_units_Z 48
_cell_length_a 13.941346
_cell_length_b 23.754984
_cell_length_c 11.163582
_cell_angle_alpha 90.000000
_cell_angle_beta 137.196084
_cell_angle_gamma 90.000000
_cell_volume 2512.158355
_symmetry_space_group_name_H-M "C 2/M"
_symmetry_group_IT_number 12
_symmetry_cell_setting 'monoclinic'
loop_
_space_group_symop_operation_xyz
x,y,z
-x,y,-z
-x,-y,-z
x,-y,z
1/2+x,1/2+y,z
1/2-x,1/2+y,-z
1/2-x,1/2-y,-z
1/2+x,1/2-y,z
loop_
_atom_site_type_symbol
_atom_site_label
_atom_site_fract_x
_atom_site_fract_y
_atom_site_fract_z
Si Si1 0.063384 0.500000 0.190420
Si Si2 0.393439 0.000000 0.286756
Si Si3 0.024105 0.281678 0.790021
Si Si4 0.166384 0.611659 0.650150
Si Si5 0.828352 0.613114 0.621596
Si Si6 0.366234 0.295142 0.461318
Si Si7 0.704592 0.718916 0.134746
O O1 0.150312 0.557334 0.283432
O O2 0.960326 0.500000 0.214968
O O3 0.000000 0.500000 0.000000
O O4 0.500000 0.000000 0.500000
O O5 0.317782 0.940568 0.244288
O O6 0.167714 0.287603 0.845044
O O7 0.958985 0.342789 0.757911
O O8 0.912851 0.249842 0.603569
O O9 0.068235 0.240757 0.939212
O O10 0.181933 0.595065 0.526202
O O11 0.279737 0.659717 0.783658
O O12 0.000000 0.632539 0.500000
O O13 0.693416 0.649095 0.534750
O O14 0.500000 0.306171 0.500000
O O15 0.249631 0.266812 0.269720
#
# Coordination Sequence:
#
# PCOD9177138 Si02
#       7
#     4   4   8   8   8   8   8
#     4  12  26  38  59  99 126 153 209 263 309 374
#     4  10  18  38  62  87 123 157 201 256 308 356
#     4  10  20  34  57  89 121 155 199 248 306 372
#     4  11  17  35  63  88 120 155 202 251 303 371
#     4  12  22  39  61  87 123 163 205 257 309 367
#     4  10  22  40  55  82 126 166 201 251 310 370
#     4  10  19  33  56  87 123 158 193 246 312 370
#
# _framework density 19.107075999999999
#
# number of rings (size 3 to 8) (size 9 to 14) (size 15 to 20)
#    0.000    1.333    6.667    1.000    2.333    0.000 
#    3.000    0.417    0.000    1.000    0.000    2.333 
#    0.000    0.000    0.000    0.000    0.000    0.000 
#
# Total GULP energy -133942.953140 kJ/mol
# GULP energy per Si atom -5580.956381 kJ/mol
# Density = 1.906359 g / cm^3
# Si number density = 19.107076 Si / 1000 Ang^3
#
#
#
# Elastic Constant Matrix: (Units=GPa)
#
#
# Indices 1 2 3 4 5 6 
#
# 1 50.7360 13.0836 12.4234 0.0000 -4.8882 0.0000
# 2 13.0836 99.7041 11.8345 0.0000 1.2071 0.0000
# 3 12.4234 11.8345 65.0225 0.0000 -10.8460 0.0000
# 4 0.0000 0.0000 0.0000 24.0889 0.0000 -6.0426
# 5 -4.8882 1.2071 -10.8460 0.0000 24.4804 0.0000
# 6 0.0000 0.0000 0.0000 -6.0426 0.0000 32.1151
#
#
#
# Elastic Compliance Matrix: (Units=1/GPa)
#
#
# Indices 1 2 3 4 5 6 
#
# 1 0.021406 -0.002473 -0.003138 0.000000 0.003006 0.000000
# 2 -0.002473 0.010584 -0.001753 0.000000 -0.001792 0.000000
# 3 -0.003138 -0.001753 0.017501 0.000000 0.007214 0.000000
# 4 0.000000 0.000000 0.000000 0.043569 0.000000 0.008198
# 5 0.003006 -0.001792 0.007214 0.000000 0.044734 0.000000
# 6 0.000000 0.000000 0.000000 0.008198 0.000000 0.032680
#
#
# Mechanical properties :
#
#
# Convention : Reuss Voigt Hill
#
# Bulk Modulus (GPa) = 28.76648 32.23839 30.50244
# Shear Modulus (GPa) = 25.40783 28.01162 26.70972
#
# Velocity S-wave (km/s) = 3.65054 3.83304 3.74290
# Velocity P-wave (km/s) = 5.73208 6.04141 5.88878
#
# Compressibility (1/GPa) = 0.03476269
#
# Stress axis : x y z
#
# Youngs Moduli (GPa) = 46.71673 94.48297 57.13892
#
# Poissons Ratio (x) = 0.23364 0.17932
# Poissons Ratio (y) = 0.11552 0.10015
# Poissons Ratio (z) = 0.14662 0.16561
#
# Static dielectric constant tensor:
#      x y z
#    x 1.739220 0.000000 0.002590 
#    y 0.000000 1.676760 0.000000 
#    z 0.002590 0.000000 1.665410 
# 
# From -- ./inp_files/148056.got.cif
#   From: 2010.05.17/outbox.cif.g08.bks.cpg/sg12_75_cif.got.tgz:148056.got - 2010.06.03 13:09:07.
