data_PCOD9177886
_publ_section_title
;
Structure prediction by ZEFSAII (Michael W. Deem and Ramdas Pophale) SiO2 
 PCOD9177886
Probable space group: C 2/M
;
_chemical_formula_sum "Si O2"
_cell_formula_units_Z 64
_cell_length_a 29.159716
_cell_length_b 7.507053
_cell_length_c 15.450867
_cell_angle_alpha 90.000000
_cell_angle_beta 93.078517
_cell_angle_gamma 90.000000
_cell_volume 3377.368379
_symmetry_space_group_name_H-M "C 2/M"
_symmetry_group_IT_number 12
_symmetry_cell_setting 'monoclinic'
loop_
_space_group_symop_operation_xyz
x,y,z
-x,y,-z
-x,-y,-z
x,-y,z
1/2+x,1/2+y,z
1/2-x,1/2+y,-z
1/2-x,1/2-y,-z
1/2+x,1/2-y,z
loop_
_atom_site_type_symbol
_atom_site_label
_atom_site_fract_x
_atom_site_fract_y
_atom_site_fract_z
Si Si1 0.309007 0.704900 0.247754
Si Si2 0.918979 0.705785 0.693562
Si Si3 0.003831 0.289313 0.598631
Si Si4 0.891768 0.784255 0.356602
Si Si5 0.162291 0.717004 0.210772
Si Si6 0.234256 0.794192 0.371544
Si Si7 0.261089 0.213361 0.902205
Si Si8 0.651765 0.283068 0.466513
O O1 0.316829 0.500000 0.224042
O O2 0.358397 0.782488 0.277133
O O3 0.278596 0.704808 0.333274
O O4 0.277715 0.784811 0.168391
O O5 0.928631 0.500000 0.716960
O O6 0.888620 0.781640 0.769592
O O7 0.883442 0.714313 0.609512
O O8 0.965790 0.786493 0.660606
O O9 0.993365 0.500000 0.590351
O O10 0.055354 0.268891 0.637764
O O11 0.000000 0.215994 0.500000
O O12 0.868482 0.725923 0.444220
O O13 0.890454 0.000000 0.355906
O O14 0.161041 0.500000 0.214016
O O15 0.196519 0.778743 0.290424
O O16 0.188755 0.773335 0.126574
O O17 0.203857 0.724782 0.449024
O O18 0.245557 0.000000 0.386308
O O19 0.261294 0.000000 0.891291
O O20 0.250000 0.250000 0.000000
O O21 0.651898 0.500000 0.462364
#
# Coordination Sequence:
#
# PCOD9177886 Si02
#       8
#     8   8   8   8   8   8   8   8
#     4   9  19  34  46  61  88 120 150 179 216 270
#     4   9  16  28  45  62  87 121 152 185 223 259
#     4  10  19  30  44  66  91 116 154 199 232 255
#     4  10  20  32  45  60  85 122 158 188 221 261
#     4   8  15  28  45  65  89 119 148 173 212 268
#     4   9  16  26  41  62  87 114 147 186 220 250
#     4   9  17  30  49  71  92 112 139 175 218 271
#     4   9  17  27  40  61  86 114 152 191 220 250
#
# _framework density 18.949666000000001
#
# number of rings (size 3 to 8) (size 9 to 14) (size 15 to 20)
#    0.000    2.875    1.250    1.125    0.000    4.250 
#    0.000    0.000    0.000    0.000    0.000    0.875 
#    0.000    7.000    0.000    0.000    0.000    0.000 
#
# Total GULP energy -178276.040423 kJ/mol
# GULP energy per Si atom -5571.126263 kJ/mol
# Density = 1.890654 g / cm^3
# Si number density = 18.949666 Si / 1000 Ang^3
#
#
#
# Elastic Constant Matrix: (Units=GPa)
#
#
# Indices 1 2 3 4 5 6 
#
# 1 157.3437 -5.3309 67.1092 0.0000 -22.8786 0.0000
# 2 -5.3309 53.2821 1.8272 0.0000 -2.4201 0.0000
# 3 67.1092 1.8272 85.8971 0.0000 -26.8280 0.0000
# 4 0.0000 0.0000 0.0000 11.8918 0.0000 -1.2572
# 5 -22.8786 -2.4201 -26.8280 0.0000 26.3577 0.0000
# 6 0.0000 0.0000 0.0000 -1.2572 0.0000 12.5424
#
#
#
# Elastic Compliance Matrix: (Units=1/GPa)
#
#
# Indices 1 2 3 4 5 6 
#
# 1 0.009634 0.001263 -0.007192 0.000000 0.001158 0.000000
# 2 0.001263 0.019015 -0.000738 0.000000 0.002091 0.000000
# 3 -0.007192 -0.000738 0.022439 0.000000 0.016529 0.000000
# 4 0.000000 0.000000 0.000000 0.084992 0.000000 0.008519
# 5 0.001158 0.002091 0.016529 0.000000 0.055960 0.000000
# 6 0.000000 0.000000 0.000000 0.008519 0.000000 0.080584
#
#
# Mechanical properties :
#
#
# Convention : Reuss Voigt Hill
#
# Bulk Modulus (GPa) = 26.48784 47.08156 36.78470
# Shear Modulus (GPa) = 16.74800 25.68620 21.21710
#
# Velocity S-wave (km/s) = 2.97613 3.68570 3.34976
# Velocity P-wave (km/s) = 5.08115 6.55836 5.86644
#
# Compressibility (1/GPa) = 0.03775318
#
# Stress axis : x y z
#
# Youngs Moduli (GPa) = 103.79633 52.59090 44.56544
#
# Poissons Ratio (x) = -0.06643 0.32052
# Poissons Ratio (y) = -0.13111 0.03290
# Poissons Ratio (z) = 0.74652 0.03883
#
# Static dielectric constant tensor:
#      x y z
#    x 1.698950 0.000000 -0.031540 
#    y 0.000000 1.525570 0.000000 
#    z -0.031540 0.000000 1.672470 
# 
# From -- ./inp_files/244102.got.cif
#   From: 2010.05.17/outbox.cif.g08.bks.cpg/sg12_123_cif.got.tgz:244102.got - 2010.06.03 13:09:07.
