data_PCOD9177768
_publ_section_title
;
Structure prediction by ZEFSAII (Michael W. Deem and Ramdas Pophale) SiO2 
 PCOD9177768
Probable space group: C 2/M
;
_chemical_formula_sum "Si O2"
_cell_formula_units_Z 58
_cell_length_a 10.711244
_cell_length_b 29.746996
_cell_length_c 7.272640
_cell_angle_alpha 90.000000
_cell_angle_beta 82.575538
_cell_angle_gamma 90.000000
_cell_volume 2297.834153
_symmetry_space_group_name_H-M "C 2/M"
_symmetry_group_IT_number 12
_symmetry_cell_setting 'monoclinic'
loop_
_space_group_symop_operation_xyz
x,y,z
-x,y,-z
-x,-y,-z
x,-y,z
1/2+x,1/2+y,z
1/2-x,1/2+y,-z
1/2-x,1/2-y,-z
1/2+x,1/2-y,z
loop_
_atom_site_type_symbol
_atom_site_label
_atom_site_fract_x
_atom_site_fract_y
_atom_site_fract_z
Si Si1 0.061889 0.550820 0.288810
Si Si2 0.740306 0.807600 0.212157
Si Si3 0.500000 0.500000 0.000000
Si Si4 0.516702 0.851273 0.783798
Si Si5 0.313967 0.553655 0.429899
Si Si6 0.252100 0.704872 0.762916
Si Si7 0.005084 0.172489 0.194986
Si Si8 0.089364 0.924547 0.214523
O O1 0.058364 0.500000 0.204878
O O2 0.992832 0.594529 0.221046
O O3 0.204866 0.565630 0.308609
O O4 0.000000 0.545804 0.500000
O O5 0.605984 0.828931 0.286759
O O6 0.767859 0.757055 0.273327
O O7 0.859691 0.835301 0.267075
O O8 0.744151 0.803413 0.987132
O O9 0.400944 0.460990 0.945456
O O10 0.647505 0.828158 0.699724
O O11 0.500000 0.839141 0.000000
O O12 0.303300 0.500000 0.454820
O O13 0.312414 0.572983 0.636809
O O14 0.453009 0.562376 0.326127
O O15 0.398419 0.695954 0.687478
O O16 0.075763 0.125473 0.147755
O O17 0.000000 0.198321 0.000000
#
# Coordination Sequence:
#
# PCOD9177768 Si02
#       8
#     8   8   2   8   8   8   8   8
#     4  10  23  41  60  79 111 161 210 240 286 357
#     4   9  17  33  53  83 119 152 179 233 302 362
#     4  12  20  34  56  92 122 146 174 248 302 328
#     4  10  20  36  60  89 117 150 198 251 301 345
#     4  10  20  38  57  75 110 157 200 225 273 366
#     4   9  18  31  54  84 118 148 187 232 295 358
#     4  10  19  29  50  83 115 137 184 238 282 338
#     4  11  20  34  55  87 115 149 185 231 296 341
#
# _framework density 25.241157999999999
#
# number of rings (size 3 to 8) (size 9 to 14) (size 15 to 20)
#    0.000    2.069    2.069    2.069    1.931    3.586 
#    0.000    0.000    0.000    0.828    7.172    0.000 
#    0.000    0.000    0.000    0.000    0.000    0.000 
#
# Total GULP energy -161634.205860 kJ/mol
# GULP energy per Si atom -5573.593306 kJ/mol
# Density = 2.518371 g / cm^3
# Si number density = 25.241158 Si / 1000 Ang^3
#
#
#
# Elastic Constant Matrix: (Units=GPa)
#
#
# Indices 1 2 3 4 5 6 
#
# 1 158.4675 61.0454 8.8443 0.0000 5.6107 0.0000
# 2 61.0454 153.4920 -4.1354 0.0000 19.4839 0.0000
# 3 8.8443 -4.1354 67.7352 0.0000 12.2564 0.0000
# 4 0.0000 0.0000 0.0000 -6.6181 0.0000 7.7385
# 5 5.6107 19.4839 12.2564 0.0000 14.3653 0.0000
# 6 0.0000 0.0000 0.0000 7.7385 0.0000 47.3327
#
#
#
# Elastic Compliance Matrix: (Units=1/GPa)
#
#
# Indices 1 2 3 4 5 6 
#
# 1 0.007647 -0.003512 -0.001815 0.000000 0.003325 0.000000
# 2 -0.003512 0.009978 0.003865 0.000000 -0.015460 0.000000
# 3 -0.001815 0.003865 0.018988 0.000000 -0.020734 0.000000
# 4 0.000000 0.000000 0.000000 -0.126851 0.000000 0.020739
# 5 0.003325 -0.015460 -0.020734 0.000000 0.106972 0.000000
# 6 0.000000 0.000000 0.000000 0.020739 0.000000 0.017736
#
#
# Mechanical properties :
#
#
# Convention : Reuss Voigt Hill
#
# Bulk Modulus (GPa) = 29.68230 56.80038 43.24134
# Shear Modulus (GPa) = 102.82921 31.94535 67.38728
#
# Velocity S-wave (km/s) = 6.38961 3.56139 5.17256
# Velocity P-wave (km/s) = 8.13764 6.28198 7.26927
#
# Compressibility (1/GPa) = 0.03369011
#
# Stress axis : x y z
#
# Youngs Moduli (GPa) = 130.77034 100.21602 52.66478
#
# Poissons Ratio (x) = 0.35199 0.09557
# Poissons Ratio (y) = 0.45930 -0.20356
# Poissons Ratio (z) = 0.23730 -0.38736
#
# Static dielectric constant tensor:
#      x y z
#    x 2.089830 0.000000 -0.008200 
#    y 0.000000 2.044040 0.000000 
#    z -0.008200 0.000000 2.053060 
# 
# From -- ./inp_files/54268.got.cif
#   From: 2010.05.17/outbox.cif.g08.bks.cpg/sg12_28_cif.got.tgz:54268.got - 2010.06.03 13:09:07.
