data_PCOD9177995
_publ_section_title
;
Structure prediction by ZEFSAII (Michael W. Deem and Ramdas Pophale) SiO2 
 PCOD9177995
Probable space group: C 2/M
;
_chemical_formula_sum "Si O2"
_cell_formula_units_Z 40
_cell_length_a 5.380549
_cell_length_b 35.670908
_cell_length_c 12.502964
_cell_angle_alpha 90.000000
_cell_angle_beta 114.857305
_cell_angle_gamma 90.000000
_cell_volume 2177.369683
_symmetry_space_group_name_H-M "C 2/M"
_symmetry_group_IT_number 12
_symmetry_cell_setting 'monoclinic'
loop_
_space_group_symop_operation_xyz
x,y,z
-x,y,-z
-x,-y,-z
x,-y,z
1/2+x,1/2+y,z
1/2-x,1/2+y,-z
1/2-x,1/2-y,-z
1/2+x,1/2-y,z
loop_
_atom_site_type_symbol
_atom_site_label
_atom_site_fract_x
_atom_site_fract_y
_atom_site_fract_z
Si Si1 0.858736 0.411936 0.856896
Si Si2 0.235746 0.739671 0.155777
Si Si3 0.859976 0.042678 0.857657
Si Si4 0.421335 0.798449 0.367756
Si Si5 0.315283 0.666457 0.275797
O O1 0.591046 0.437580 0.827747
O O2 0.757950 0.374196 0.781231
O O3 0.086352 0.433093 0.826473
O O4 0.000000 0.404997 0.000000
O O5 0.451371 0.739737 0.101374
O O6 0.377846 0.762939 0.280602
O O7 0.176947 0.696908 0.172367
O O8 0.800826 0.000000 0.812772
O O9 0.000000 0.040661 0.000000
O O10 0.500000 0.785336 0.500000
O O11 0.663941 0.823762 0.360284
O O12 0.136807 0.822054 0.327055
#
# Coordination Sequence:
#
# PCOD9177995 Si02
#       5
#     8   8   8   8   8
#     4  10  19  31  48  70 100 132 153 182 231 277
#     4   8  16  27  42  61  87 118 153 190 231 275
#     4   9  17  30  49  72  96 122 153 188 229 280
#     4  10  19  31  48  68  93 125 158 200 250 281
#     4  10  19  30  45  68  97 123 157 194 231 285
#
# _framework density 18.370788000000001
#
# number of rings (size 3 to 8) (size 9 to 14) (size 15 to 20)
#    0.000    2.600    0.000    2.400    0.000    9.600 
#    0.000    0.000    0.000   10.800    0.000    0.000 
#    0.000   56.000    0.000    0.000    0.000    0.000 
#
# Total GULP energy -111346.316579 kJ/mol
# GULP energy per Si atom -5567.315829 kJ/mol
# Density = 1.832898 g / cm^3
# Si number density = 18.370788 Si / 1000 Ang^3
#
#
#
# Elastic Constant Matrix: (Units=GPa)
#
#
# Indices 1 2 3 4 5 6 
#
# 1 146.6796 47.3213 15.6631 0.0000 -20.9153 0.0000
# 2 47.3213 129.2028 21.9749 0.0000 -3.2216 0.0000
# 3 15.6631 21.9749 53.1531 0.0000 -8.8385 0.0000
# 4 0.0000 0.0000 0.0000 18.4995 0.0000 2.0942
# 5 -20.9153 -3.2216 -8.8385 0.0000 20.7598 0.0000
# 6 0.0000 0.0000 0.0000 2.0942 0.0000 27.9714
#
#
#
# Elastic Compliance Matrix: (Units=1/GPa)
#
#
# Indices 1 2 3 4 5 6 
#
# 1 0.009049 -0.003108 0.000058 0.000000 0.008659 0.000000
# 2 -0.003108 0.009393 -0.003493 0.000000 -0.003161 0.000000
# 3 0.000058 -0.003493 0.021696 0.000000 0.008754 0.000000
# 4 0.000000 0.000000 0.000000 0.054518 0.000000 -0.004082
# 5 0.008659 -0.003161 0.008754 0.000000 0.060130 0.000000
# 6 0.000000 0.000000 0.000000 -0.004082 0.000000 0.036056
#
#
# Mechanical properties :
#
#
# Convention : Reuss Voigt Hill
#
# Bulk Modulus (GPa) = 36.96526 55.43933 46.20230
# Shear Modulus (GPa) = 23.48007 29.71788 26.59898
#
# Velocity S-wave (km/s) = 3.57896 4.02639 3.80925
# Velocity P-wave (km/s) = 6.10279 7.20134 6.67470
#
# Compressibility (1/GPa) = 0.02705242
#
# Stress axis : x y z
#
# Youngs Moduli (GPa) = 110.51150 106.45675 46.09105
#
# Poissons Ratio (x) = 0.33089 -0.00269
# Poissons Ratio (y) = 0.34349 0.16101
# Poissons Ratio (z) = -0.00645 0.37188
#
# Static dielectric constant tensor:
#      x y z
#    x 1.700620 0.000000 -0.008830 
#    y 0.000000 1.606950 0.000000 
#    z -0.008830 0.000000 1.750430 
# 
# From -- ./inp_files/115433.got.cif
#   From: 2010.05.17/outbox.cif.g08.bks.cpg/sg12_58_cif.got.tgz:115433.got - 2010.06.03 13:09:07.
