data_PCOD9177786
_publ_section_title
;
Structure prediction by ZEFSAII (Michael W. Deem and Ramdas Pophale) SiO2 
 PCOD9177786
Probable space group: C 2/M
;
_chemical_formula_sum "Si O2"
_cell_formula_units_Z 64
_cell_length_a 23.871435
_cell_length_b 8.293489
_cell_length_c 14.842837
_cell_angle_alpha 90.000000
_cell_angle_beta 122.930371
_cell_angle_gamma 90.000000
_cell_volume 2466.416449
_symmetry_space_group_name_H-M "C 2/M"
_symmetry_group_IT_number 12
_symmetry_cell_setting 'monoclinic'
loop_
_space_group_symop_operation_xyz
x,y,z
-x,y,-z
-x,-y,-z
x,-y,z
1/2+x,1/2+y,z
1/2-x,1/2+y,-z
1/2-x,1/2-y,-z
1/2+x,1/2-y,z
loop_
_atom_site_type_symbol
_atom_site_label
_atom_site_fract_x
_atom_site_fract_y
_atom_site_fract_z
Si Si1 0.743857 0.690811 0.723389
Si Si2 0.882901 0.309123 0.494948
Si Si3 0.513967 0.823322 0.220700
Si Si4 0.666727 0.694799 0.820483
Si Si5 0.523827 0.317281 0.635949
Si Si6 0.635571 0.180342 0.986318
Si Si7 0.075580 0.816562 0.108317
Si Si8 0.813848 0.693741 0.613432
O O1 0.756703 0.500000 0.741207
O O2 0.672867 0.714828 0.609809
O O3 0.727555 0.751557 0.810109
O O4 0.797113 0.761853 0.698523
O O5 0.871811 0.500000 0.472953
O O6 0.958147 0.262436 0.534181
O O7 0.871425 0.267593 0.591088
O O8 0.500098 0.685432 0.280385
O O9 0.442275 0.832913 0.109466
O O10 0.567999 0.795167 0.189743
O O11 0.523921 0.000000 0.273684
O O12 0.663522 0.500000 0.814020
O O13 0.597539 0.759172 0.713682
O O14 0.668798 0.742618 0.926889
O O15 0.532340 0.500000 0.613056
O O16 0.662462 0.000000 0.020552
O O17 0.627213 0.264829 0.075770
O O18 0.086850 0.000000 0.146352
O O19 0.000000 0.812887 0.000000
O O20 0.813094 0.500000 0.619608
O O21 0.750000 0.750000 0.500000
#
# Coordination Sequence:
#
# PCOD9177786 Si02
#       8
#     8   8   8   8   8   8   8   8
#     4   9  17  31  48  63  80 106 139 175 213 251
#     4  10  19  30  44  63  84 107 137 174 213 251
#     4   9  16  26  39  56  79 107 139 174 209 243
#     4   9  18  30  43  59  82 112 144 174 205 245
#     4  10  19  30  42  58  83 115 145 171 203 246
#     4   9  16  25  38  56  80 109 139 171 207 244
#     4   9  15  23  37  56  78 106 140 173 204 242
#     4   8  15  28  46  64  80  99 129 171 216 254
#
# _framework density 25.948577
#
# number of rings (size 3 to 8) (size 9 to 14) (size 15 to 20)
#    0.000    2.875    0.000    1.875    0.000    6.500 
#    0.000    2.500    0.000    0.000    0.000    0.000 
#    0.000    1.000    0.000    2.750    0.000    4.000 
#
# Total GULP energy -178729.350621 kJ/mol
# GULP energy per Si atom -5585.292207 kJ/mol
# Density = 2.588952 g / cm^3
# Si number density = 25.948577 Si / 1000 Ang^3
#
#
#
# Elastic Constant Matrix: (Units=GPa)
#
#
# Indices 1 2 3 4 5 6 
#
# 1 189.0728 -2.5199 31.7652 0.0000 -43.9338 0.0000
# 2 -2.5199 39.9811 -4.7255 0.0000 -8.1022 0.0000
# 3 31.7652 -4.7255 110.5021 0.0000 -31.4330 0.0000
# 4 0.0000 0.0000 0.0000 26.4006 0.0000 -5.4028
# 5 -43.9338 -8.1022 -31.4330 0.0000 61.5733 0.0000
# 6 0.0000 0.0000 0.0000 -5.4028 0.0000 17.8388
#
#
#
# Elastic Compliance Matrix: (Units=1/GPa)
#
#
# Indices 1 2 3 4 5 6 
#
# 1 0.006437 0.001255 -0.000519 0.000000 0.004493 0.000000
# 2 0.001255 0.026503 0.002362 0.000000 0.005589 0.000000
# 3 -0.000519 0.002362 0.010860 0.000000 0.005485 0.000000
# 4 0.000000 0.000000 0.000000 0.040381 0.000000 0.012230
# 5 0.004493 0.005589 0.005485 0.000000 0.022982 0.000000
# 6 0.000000 0.000000 0.000000 0.012230 0.000000 0.059762
#
#
# Mechanical properties :
#
#
# Convention : Reuss Voigt Hill
#
# Bulk Modulus (GPa) = 20.00119 43.17731 31.58925
# Shear Modulus (GPa) = 28.18609 42.16494 35.17552
#
# Velocity S-wave (km/s) = 3.29937 4.03543 3.68582
# Velocity P-wave (km/s) = 4.71585 6.19586 5.50581
#
# Compressibility (1/GPa) = 0.04999703
#
# Stress axis : x y z
#
# Youngs Moduli (GPa) = 155.35452 37.73202 92.08213
#
# Poissons Ratio (x) = -0.04735 0.04775
# Poissons Ratio (y) = -0.19497 -0.21753
# Poissons Ratio (z) = 0.08056 -0.08914
#
# Static dielectric constant tensor:
#      x y z
#    x 2.130440 0.000000 0.084290 
#    y 0.000000 1.942330 0.000000 
#    z 0.084290 0.000000 2.184680 
# 
# From -- ./inp_files/248513.got.cif
#   From: 2010.05.17/outbox.cif.g08.bks.cpg/sg12_125_cif.got.tgz:248513.got - 2010.06.03 13:09:07.
