data_PCOD9177520
_publ_section_title
;
Structure prediction by ZEFSAII (Michael W. Deem and Ramdas Pophale) SiO2 
 PCOD9177520
Probable space group: C 2/M
;
_chemical_formula_sum "Si O2"
_cell_formula_units_Z 56
_cell_length_a 29.638248
_cell_length_b 9.042038
_cell_length_c 17.883891
_cell_angle_alpha 90.000000
_cell_angle_beta 48.971087
_cell_angle_gamma 90.000000
_cell_volume 3615.514650
_symmetry_space_group_name_H-M "C 2/M"
_symmetry_group_IT_number 12
_symmetry_cell_setting 'monoclinic'
loop_
_space_group_symop_operation_xyz
x,y,z
-x,y,-z
-x,-y,-z
x,-y,z
1/2+x,1/2+y,z
1/2-x,1/2+y,-z
1/2-x,1/2-y,-z
1/2+x,1/2-y,z
loop_
_atom_site_type_symbol
_atom_site_label
_atom_site_fract_x
_atom_site_fract_y
_atom_site_fract_z
Si Si1 0.153522 0.324153 0.590211
Si Si2 0.721863 0.177121 0.265322
Si Si3 0.075020 0.676989 0.280531
Si Si4 0.772337 0.824369 0.365080
Si Si5 0.041258 0.175426 0.636593
Si Si6 0.713241 0.176515 0.105984
Si Si7 0.905757 0.825032 0.585462
O O1 0.145018 0.500000 0.600323
O O2 0.179255 0.265859 0.640776
O O3 0.207073 0.291323 0.472528
O O4 0.092828 0.244718 0.631805
O O5 0.768239 0.207182 0.281319
O O6 0.738354 0.211877 0.161777
O O7 0.662035 0.267998 0.347503
O O8 0.707988 0.000000 0.283476
O O9 0.070357 0.500000 0.285469
O O10 0.142820 0.718381 0.183214
O O11 0.067914 0.737525 0.372738
O O12 0.023293 0.748513 0.286869
O O13 0.782589 0.000000 0.364604
O O14 0.062491 0.201368 0.527877
O O15 0.037138 0.000000 0.652930
O O16 0.715894 0.000000 0.094537
O O17 0.750000 0.250000 0.000000
O O18 0.908266 0.000000 0.598760
#
# Coordination Sequence:
#
# PCOD9177520 Si02
#       7
#     8   8   8   8   8   8   8
#     4  10  19  29  45  66  93 130 166 197 232 271
#     4   9  17  31  49  69  94 127 162 193 233 282
#     4  10  21  34  48  66  91 124 160 193 232 285
#     4   9  17  30  46  65  93 127 163 200 233 268
#     4  11  21  31  44  66  96 128 162 196 232 273
#     4   9  19  34  52  73  95 119 152 194 238 286
#     4  10  19  29  43  66  95 125 159 196 230 270
#
# _framework density 15.488804999999999
#
# number of rings (size 3 to 8) (size 9 to 14) (size 15 to 20)
#    0.000    2.286    1.429    3.000    0.000    7.429 
#    0.000    0.000    0.000    0.000    0.000    1.000 
#    0.000    8.000    0.000    0.000    0.000    0.000 
#
# Total GULP energy -156128.020448 kJ/mol
# GULP energy per Si atom -5576.000730 kJ/mol
# Density = 1.545355 g / cm^3
# Si number density = 15.488805 Si / 1000 Ang^3
#
#
#
# Elastic Constant Matrix: (Units=GPa)
#
#
# Indices 1 2 3 4 5 6 
#
# 1 139.2845 56.5192 52.2829 -0.0001 0.1599 0.0000
# 2 56.5192 42.8795 38.4146 -0.0006 1.0335 0.0002
# 3 52.2829 38.4146 70.9380 0.0001 9.7623 0.0000
# 4 -0.0001 -0.0006 0.0001 20.0901 0.0000 -0.3001
# 5 0.1599 1.0335 9.7623 0.0000 12.3018 0.0000
# 6 0.0000 0.0002 0.0000 -0.3001 0.0000 30.6073
#
#
#
# Elastic Compliance Matrix: (Units=1/GPa)
#
#
# Indices 1 2 3 4 5 6 
#
# 1 0.015514 -0.019349 -0.001293 0.000000 0.002450 0.000000
# 2 -0.019349 0.073088 -0.027513 0.000002 0.015944 0.000000
# 3 -0.001293 -0.027513 0.033261 -0.000001 -0.024066 0.000000
# 4 0.000000 0.000002 -0.000001 0.049783 0.000000 0.000488
# 5 0.002450 0.015944 -0.024066 0.000000 0.099016 0.000000
# 6 0.000000 0.000000 0.000000 0.000488 0.000000 0.032677
#
#
# Mechanical properties :
#
#
# Convention : Reuss Voigt Hill
#
# Bulk Modulus (GPa) = 39.13429 60.83728 49.98579
# Shear Modulus (GPa) = 12.24992 19.65885 15.95438
#
# Velocity S-wave (km/s) = 2.81533 3.56649 3.21294
# Velocity P-wave (km/s) = 5.99075 7.50488 6.79015
#
# Compressibility (1/GPa) = 0.02555304
#
# Stress axis : x y z
#
# Youngs Moduli (GPa) = 64.45955 13.68205 30.06554
#
# Poissons Ratio (x) = 0.26473 0.03888
# Poissons Ratio (y) = 1.24722 0.82719
# Poissons Ratio (z) = 0.08336 0.37643
#
# Static dielectric constant tensor:
#      x y z
#    x 1.530920 0.000000 0.003540 
#    y 0.000000 1.513860 0.000000 
#    z 0.003540 0.000000 1.495920 
# 
# From -- ./inp_files/288171.got.cif
#   From: 2010.05.17/outbox.cif.g08.bks.cpg/sg12_145_cif.got.tgz:288171.got - 2010.06.03 13:09:07.
