data_PCOD9177421
_publ_section_title
;
Structure prediction by ZEFSAII (Michael W. Deem and Ramdas Pophale) SiO2 
 PCOD9177421
Probable space group: C 2/M
;
_chemical_formula_sum "Si O2"
_cell_formula_units_Z 50
_cell_length_a 19.699358
_cell_length_b 7.453164
_cell_length_c 17.838622
_cell_angle_alpha 90.000000
_cell_angle_beta 50.243102
_cell_angle_gamma 90.000000
_cell_volume 2013.481145
_symmetry_space_group_name_H-M "C 2/M"
_symmetry_group_IT_number 12
_symmetry_cell_setting 'monoclinic'
loop_
_space_group_symop_operation_xyz
x,y,z
-x,y,-z
-x,-y,-z
x,-y,z
1/2+x,1/2+y,z
1/2-x,1/2+y,-z
1/2-x,1/2-y,-z
1/2+x,1/2-y,z
loop_
_atom_site_type_symbol
_atom_site_label
_atom_site_fract_x
_atom_site_fract_y
_atom_site_fract_z
Si Si1 0.500000 0.000000 0.000000
Si Si2 0.257462 0.216303 0.768985
Si Si3 0.868455 0.788343 0.829722
Si Si4 0.438004 0.716943 0.359768
Si Si5 0.118534 0.796601 0.753531
Si Si6 0.081969 0.205722 0.047671
Si Si7 0.404690 0.211984 0.550036
O O1 0.436431 0.843043 0.005572
O O2 0.285878 0.264237 0.832897
O O3 0.171247 0.283616 0.785677
O O4 0.333541 0.282319 0.658300
O O5 0.254576 0.000000 0.772892
O O6 0.862164 0.723199 0.920136
O O7 0.959259 0.720892 0.724287
O O8 0.881243 0.000000 0.830138
O O9 0.440252 0.500000 0.354745
O O10 0.381916 0.786338 0.328504
O O11 0.393817 0.766278 0.469219
O O12 0.016300 0.805471 0.846846
O O13 0.152956 0.000000 0.720206
O O14 0.106621 0.000000 0.007339
O O15 0.500000 0.291877 0.500000
O O16 0.407510 0.000000 0.563343
#
# Coordination Sequence:
#
# PCOD9177421 Si02
#       7
#     2   8   8   8   8   8   8
#     4  12  22  36  68 102 108 138 180 214 276 354
#     4  10  19  31  52  74 104 148 191 224 273 330
#     4   9  18  33  52  78 105 141 183 226 268 319
#     4   9  17  31  50  66  99 142 188 231 274 322
#     4   8  17  36  54  75 105 147 182 221 278 324
#     4   9  20  39  61  88 119 141 175 228 272 324
#     4  10  19  29  41  71 107 140 182 240 284 308
#
# _framework density 24.832614
#
# number of rings (size 3 to 8) (size 9 to 14) (size 15 to 20)
#    0.000    2.720    1.600    2.160    1.120    1.600 
#    5.760    0.000    0.000    0.960    0.000    0.000 
#    0.000    0.000    0.000    0.000    0.000    0.000 
#
# Total GULP energy -139286.885805 kJ/mol
# GULP energy per Si atom -5571.475432 kJ/mol
# Density = 2.477609 g / cm^3
# Si number density = 24.832614 Si / 1000 Ang^3
#
#
#
# Elastic Constant Matrix: (Units=GPa)
#
#
# Indices 1 2 3 4 5 6 
#
# 1 169.3704 0.7548 50.2572 0.0004 55.2185 -0.0010
# 2 0.7548 87.2315 3.8041 0.0010 12.8688 -0.0028
# 3 50.2572 3.8041 112.0222 0.0003 36.2814 -0.0006
# 4 0.0004 0.0010 0.0003 11.4111 -0.0002 20.9725
# 5 55.2185 12.8688 36.2814 -0.0002 38.3153 0.0003
# 6 -0.0010 -0.0028 -0.0006 20.9725 0.0003 17.1748
#
#
#
# Elastic Compliance Matrix: (Units=1/GPa)
#
#
# Indices 1 2 3 4 5 6 
#
# 1 0.011657 0.002560 0.000581 0.000003 -0.018210 -0.000002
# 2 0.002560 0.012757 0.001444 0.000005 -0.009341 -0.000003
# 3 0.000581 0.001444 0.013047 0.000002 -0.013676 -0.000001
# 4 0.000003 0.000005 0.000002 -0.070428 -0.000008 0.086001
# 5 -0.018210 -0.009341 -0.013676 -0.000008 0.068431 0.000006
# 6 -0.000002 -0.000003 -0.000001 0.086001 0.000006 -0.046793
#
#
# Mechanical properties :
#
#
# Convention : Reuss Voigt Hill
#
# Bulk Modulus (GPa) = 21.44531 53.13957 37.29244
# Shear Modulus (GPa) = -1008.80661 34.30077 -487.25292
#
# Velocity S-wave (km/s) = -20.17733 3.72059 -14.02287
# Velocity P-wave (km/s) = 23.11229 6.31685 15.72061
#
# Compressibility (1/GPa) = 0.04663025
#
# Stress axis : x y z
#
# Youngs Moduli (GPa) = 85.78304 78.39012 76.64885
#
# Poissons Ratio (x) = -0.20070 -0.04453
# Poissons Ratio (y) = -0.21963 -0.11065
# Poissons Ratio (z) = -0.04984 -0.11316
#
# Static dielectric constant tensor:
#      x y z
#    x 2.006490 0.000000 0.027130 
#    y 0.000000 1.907220 0.000000 
#    z 0.027130 0.000000 2.088850 
# 
# From -- ./inp_files/274225.got.cif
#   From: 2010.05.17/outbox.cif.g08.bks.cpg/sg12_138_cif.got.tgz:274225.got - 2010.06.03 13:09:07.
