data_PCOD9177511
_publ_section_title
;
Structure prediction by ZEFSAII (Michael W. Deem and Ramdas Pophale) SiO2 
 PCOD9177511
Probable space group: C 2/M
;
_chemical_formula_sum "Si O2"
_cell_formula_units_Z 56
_cell_length_a 19.719724
_cell_length_b 7.644678
_cell_length_c 25.812249
_cell_angle_alpha 90.000000
_cell_angle_beta 137.827633
_cell_angle_gamma 90.000000
_cell_volume 2612.422573
_symmetry_space_group_name_H-M "C 2/M"
_symmetry_group_IT_number 12
_symmetry_cell_setting 'monoclinic'
loop_
_space_group_symop_operation_xyz
x,y,z
-x,y,-z
-x,-y,-z
x,-y,z
1/2+x,1/2+y,z
1/2-x,1/2+y,-z
1/2-x,1/2-y,-z
1/2+x,1/2-y,z
loop_
_atom_site_type_symbol
_atom_site_label
_atom_site_fract_x
_atom_site_fract_y
_atom_site_fract_z
Si Si1 0.615603 0.713387 0.574741
Si Si2 0.269956 0.709787 0.176106
Si Si3 0.034409 0.711327 0.228496
Si Si4 0.661557 0.290301 0.489573
Si Si5 0.710856 0.214268 0.251902
Si Si6 0.503135 0.291058 0.679207
Si Si7 0.806647 0.705778 0.084737
O O1 0.500000 0.770012 0.500000
O O2 0.612051 0.500000 0.575869
O O3 0.673607 0.768784 0.555186
O O4 0.682390 0.768249 0.661627
O O5 0.272570 0.500000 0.180874
O O6 0.205522 0.770636 0.188931
O O7 0.384027 0.778800 0.249818
O O8 0.246106 0.748487 0.102905
O O9 0.034092 0.500000 0.225284
O O10 0.118805 0.773724 0.236050
O O11 0.055107 0.757170 0.300049
O O12 0.921015 0.780480 0.152459
O O13 0.653426 0.500000 0.488041
O O14 0.750000 0.250000 0.500000
O O15 0.559048 0.222712 0.404748
O O16 0.709317 0.000000 0.251883
O O17 0.511978 0.500000 0.677700
O O18 0.819537 0.500000 0.092973
O O19 0.750000 0.750000 0.000000
#
# Coordination Sequence:
#
# PCOD9177511 Si02
#       7
#     8   8   8   8   8   8   8
#     4   9  16  26  43  68  96 127 164 204 241 277
#     4   9  17  31  52  74  96 124 157 194 236 283
#     4   9  18  32  51  74  97 125 160 197 238 283
#     4  10  19  29  43  65  93 125 163 207 249 285
#     4   9  16  28  47  70  96 126 162 201 238 278
#     4   9  17  29  45  67  94 125 162 201 242 287
#     4  10  20  35  55  77 100 125 155 190 231 284
#
# _framework density 21.436042
#
# number of rings (size 3 to 8) (size 9 to 14) (size 15 to 20)
#    0.000    2.714    0.000    2.143    0.000    5.714 
#    0.000    1.429    0.000    5.571    0.000    0.000 
#    0.000    0.000    0.000    0.000    0.000    0.000 
#
# Total GULP energy -156187.577200 kJ/mol
# GULP energy per Si atom -5578.127757 kJ/mol
# Density = 2.138725 g / cm^3
# Si number density = 21.436042 Si / 1000 Ang^3
#
#
#
# Elastic Constant Matrix: (Units=GPa)
#
#
# Indices 1 2 3 4 5 6 
#
# 1 80.9874 -1.5886 20.9356 0.0000 -24.8617 0.0000
# 2 -1.5886 38.5522 1.2783 0.0000 -0.4596 0.0000
# 3 20.9356 1.2783 89.3710 0.0000 -30.4716 0.0000
# 4 0.0000 0.0000 0.0000 8.1556 0.0000 -4.6298
# 5 -24.8617 -0.4596 -30.4716 0.0000 34.3149 0.0000
# 6 0.0000 0.0000 0.0000 -4.6298 0.0000 16.1097
#
#
#
# Elastic Compliance Matrix: (Units=1/GPa)
#
#
# Indices 1 2 3 4 5 6 
#
# 1 0.015908 0.000787 0.000280 0.000000 0.011785 0.000000
# 2 0.000787 0.025990 -0.000349 0.000000 0.000609 0.000000
# 3 0.000280 -0.000349 0.016058 0.000000 0.014458 0.000000
# 4 0.000000 0.000000 0.000000 0.146519 0.000000 0.042109
# 5 0.011785 0.000609 0.014458 0.000000 0.050527 0.000000
# 6 0.000000 0.000000 0.000000 0.042109 0.000000 0.074176
#
#
# Mechanical properties :
#
#
# Convention : Reuss Voigt Hill
#
# Bulk Modulus (GPa) = 16.83670 27.79569 22.31619
# Shear Modulus (GPa) = 14.38681 24.26839 19.32760
#
# Velocity S-wave (km/s) = 2.59347 3.36836 3.00599
# Velocity P-wave (km/s) = 4.10360 5.30309 4.74143
#
# Compressibility (1/GPa) = 0.05939408
#
# Stress axis : x y z
#
# Youngs Moduli (GPa) = 62.85963 38.47617 62.27350
#
# Poissons Ratio (x) = -0.03027 -0.01746
# Poissons Ratio (y) = -0.04945 0.02170
# Poissons Ratio (z) = -0.01763 0.01341
#
# Static dielectric constant tensor:
#      x y z
#    x 1.806020 0.000000 0.032300 
#    y 0.000000 1.848880 0.000000 
#    z 0.032300 0.000000 1.607490 
# 
# From -- ./inp_files/342532.got.cif
#   From: 2010.05.17/outbox.cif.g08.bks.cpg/sg12_172_cif.got.tgz:342532.got - 2010.06.03 13:09:07.
