data_PCOD9177269
_publ_section_title
;
Structure prediction by ZEFSAII (Michael W. Deem and Ramdas Pophale) SiO2 
 PCOD9177269
Probable space group: C 2/M
;
_chemical_formula_sum "Si O2"
_cell_formula_units_Z 48
_cell_length_a 14.972522
_cell_length_b 30.643800
_cell_length_c 11.383066
_cell_angle_alpha 90.000000
_cell_angle_beta 32.006992
_cell_angle_gamma 90.000000
_cell_volume 2768.160993
_symmetry_space_group_name_H-M "C 2/M"
_symmetry_group_IT_number 12
_symmetry_cell_setting 'monoclinic'
loop_
_space_group_symop_operation_xyz
x,y,z
-x,y,-z
-x,-y,-z
x,-y,z
1/2+x,1/2+y,z
1/2-x,1/2+y,-z
1/2-x,1/2-y,-z
1/2+x,1/2-y,z
loop_
_atom_site_type_symbol
_atom_site_label
_atom_site_fract_x
_atom_site_fract_y
_atom_site_fract_z
Si Si1 0.739956 0.683107 0.939311
Si Si2 0.320612 0.208527 0.349744
Si Si3 0.418593 0.049315 0.722090
Si Si4 0.348366 0.393512 0.090866
Si Si5 0.407203 0.133071 0.420218
Si Si6 0.220215 0.723654 0.863531
O O1 0.607589 0.648479 0.036795
O O2 0.755039 0.725200 0.840240
O O3 0.921210 0.659257 0.741520
O O4 0.696719 0.699383 0.118394
O O5 0.250000 0.250000 0.500000
O O6 0.315526 0.162942 0.425930
O O7 0.237795 0.207455 0.313159
O O8 0.519658 0.217558 0.107116
O O9 0.500000 0.048119 0.500000
O O10 0.237219 0.070535 0.896494
O O11 0.524884 0.083913 0.680836
O O12 0.413717 0.000000 0.772370
O O13 0.212157 0.374172 0.335003
O O14 0.500000 0.410727 0.000000
#
# Coordination Sequence:
#
# PCOD9177269 Si02
#       6
#     8   8   8   8   8   8
#     4   9  17  31  45  61  91 121 165 191 228 279
#     4  10  19  29  46  69  95 124 162 204 234 278
#     4   8  15  30  48  68  92 119 152 191 239 293
#     4  10  19  27  47  68  94 123 148 194 239 288
#     4   9  18  31  46  68  91 128 159 189 241 281
#     4   9  19  31  45  65  89 129 165 199 233 264
#
# _framework density 17.340032999999998
#
# number of rings (size 3 to 8) (size 9 to 14) (size 15 to 20)
#    0.000    2.833    0.000    2.500    4.667    1.667 
#    0.000    2.500    0.000    0.000    0.000   21.000 
#    0.000    0.000    0.000   45.833    0.000    0.000 
#
# Total GULP energy -133655.703851 kJ/mol
# GULP energy per Si atom -5568.987660 kJ/mol
# Density = 1.730057 g / cm^3
# Si number density = 17.340033 Si / 1000 Ang^3
#
#
#
# Elastic Constant Matrix: (Units=GPa)
#
#
# Indices 1 2 3 4 5 6 
#
# 1 81.1980 52.5796 4.1405 0.0000 12.3413 0.0000
# 2 52.5796 146.0741 12.9613 0.0000 6.7474 0.0000
# 3 4.1405 12.9613 29.7907 0.0000 3.4755 0.0000
# 4 0.0000 0.0000 0.0000 10.7470 0.0000 1.0540
# 5 12.3413 6.7474 3.4755 0.0000 15.0511 0.0000
# 6 0.0000 0.0000 0.0000 1.0540 0.0000 22.4245
#
#
#
# Elastic Compliance Matrix: (Units=1/GPa)
#
#
# Indices 1 2 3 4 5 6 
#
# 1 0.018054 -0.006064 0.001582 0.000000 -0.012450 0.000000
# 2 -0.006064 0.009254 -0.003370 0.000000 0.001602 0.000000
# 3 0.001582 -0.003370 0.035752 0.000000 -0.008042 0.000000
# 4 0.000000 0.000000 0.000000 0.093480 0.000000 -0.004394
# 5 -0.012450 0.001602 -0.008042 0.000000 0.077788 0.000000
# 6 0.000000 0.000000 0.000000 -0.004394 0.000000 0.044801
#
#
# Mechanical properties :
#
#
# Convention : Reuss Voigt Hill
#
# Bulk Modulus (GPa) = 21.11717 44.04729 32.58223
# Shear Modulus (GPa) = 16.09694 22.13661 19.11677
#
# Velocity S-wave (km/s) = 3.05012 3.57686 3.32394
# Velocity P-wave (km/s) = 4.96075 6.52041 5.79331
#
# Compressibility (1/GPa) = 0.04735483
#
# Stress axis : x y z
#
# Youngs Moduli (GPa) = 55.38997 108.06689 27.97030
#
# Poissons Ratio (x) = 0.65529 -0.04424
# Poissons Ratio (y) = 0.33587 0.09426
# Poissons Ratio (z) = -0.08760 0.36420
#
# Static dielectric constant tensor:
#      x y z
#    x 1.651270 0.000000 -0.026960 
#    y 0.000000 1.601040 0.000000 
#    z -0.026960 0.000000 1.619730 
# 
# From -- ./inp_files/150033.got.cif
#   From: 2010.05.17/outbox.cif.g08.bks.cpg/sg12_76_cif.got.tgz:150033.got - 2010.06.03 13:09:07.
