data_PCOD9177048
_publ_section_title
;
Structure prediction by ZEFSAII (Michael W. Deem and Ramdas Pophale) SiO2 
 PCOD9177048
Probable space group: C 2/M
;
_chemical_formula_sum "Si O2"
_cell_formula_units_Z 64
_cell_length_a 11.921671
_cell_length_b 29.271209
_cell_length_c 17.602656
_cell_angle_alpha 90.000000
_cell_angle_beta 29.815007
_cell_angle_gamma 90.000000
_cell_volume 3054.134717
_symmetry_space_group_name_H-M "C 2/M"
_symmetry_group_IT_number 12
_symmetry_cell_setting 'monoclinic'
loop_
_space_group_symop_operation_xyz
x,y,z
-x,y,-z
-x,-y,-z
x,-y,z
1/2+x,1/2+y,z
1/2-x,1/2+y,-z
1/2-x,1/2-y,-z
1/2+x,1/2-y,z
loop_
_atom_site_type_symbol
_atom_site_label
_atom_site_fract_x
_atom_site_fract_y
_atom_site_fract_z
Si Si1 0.009840 0.405732 0.679403
Si Si2 0.771165 0.308922 0.850805
Si Si3 0.659464 0.284607 0.245041
Si Si4 0.858961 0.692284 0.972272
Si Si5 0.650221 0.948568 0.754087
Si Si6 0.749767 0.591178 0.060524
Si Si7 0.022219 0.116436 0.353713
Si Si8 0.408554 0.446337 0.139277
O O1 0.034967 0.435098 0.741809
O O2 0.262903 0.397496 0.503395
O O3 0.888578 0.357357 0.767597
O O4 0.851098 0.431551 0.712921
O O5 0.887967 0.269542 0.730070
O O6 0.800453 0.295007 0.921604
O O7 0.500000 0.311698 0.000000
O O8 0.532533 0.328140 0.355640
O O9 0.906123 0.287375 0.137984
O O10 0.680970 0.297312 0.143162
O O11 0.877642 0.637659 0.962665
O O12 0.840692 0.911478 0.662936
O O13 0.741005 0.000000 0.698357
O O14 0.445806 0.945765 0.935051
O O15 0.646471 0.600150 0.203544
O O16 0.552122 0.581126 0.116579
O O17 0.433771 0.500000 0.139930
O O18 0.500000 0.437455 0.000000
#
# Coordination Sequence:
#
# PCOD9177048 Si02
#       8
#     8   8   8   8   8   8   8   8
#     4  12  25  42  63  96 136 172 212 264 324 392
#     4  12  22  36  66  95 122 169 223 263 312 381
#     4  10  21  37  63  90 125 165 206 267 324 365
#     4  10  18  37  60  93 121 153 208 271 310 364
#     4  12  24  43  72  98 125 171 224 270 323 386
#     4  11  21  41  70  93 127 168 215 270 324 372
#     4  11  26  43  62  95 140 170 206 268 331 391
#     4  11  22  41  67  93 123 163 217 268 312 373
#
# _framework density 20.955199
#
# number of rings (size 3 to 8) (size 9 to 14) (size 15 to 20)
#    0.000    0.875    5.000    3.000    0.000    4.000 
#    0.000    0.625    0.000    0.000    0.000    0.000 
#    0.000    0.000    0.000    0.000    0.000    0.000 
#
# Total GULP energy -178715.262114 kJ/mol
# GULP energy per Si atom -5584.851941 kJ/mol
# Density = 2.090750 g / cm^3
# Si number density = 20.955199 Si / 1000 Ang^3
#
#
#
# Elastic Constant Matrix: (Units=GPa)
#
#
# Indices 1 2 3 4 5 6 
#
# 1 98.5817 19.7196 8.0915 0.0001 -5.9033 -0.0005
# 2 19.7196 108.1407 7.6346 0.0003 1.6038 -0.0003
# 3 8.0915 7.6346 70.2890 -0.0022 -13.6084 0.0002
# 4 0.0001 0.0003 -0.0022 6.8750 0.0009 0.2748
# 5 -5.9033 1.6038 -13.6084 0.0009 23.1786 -0.0001
# 6 -0.0005 -0.0003 0.0002 0.2748 -0.0001 26.7022
#
#
#
# Elastic Compliance Matrix: (Units=1/GPa)
#
#
# Indices 1 2 3 4 5 6 
#
# 1 0.010732 -0.001958 -0.000527 -0.000001 0.002559 0.000000
# 2 -0.001958 0.009716 -0.001192 -0.000001 -0.001871 0.000000
# 3 -0.000527 -0.001192 0.016255 0.000004 0.009492 0.000000
# 4 -0.000001 -0.000001 0.000004 0.145515 -0.000003 -0.001497
# 5 0.002559 -0.001871 0.009492 -0.000003 0.049497 0.000000
# 6 0.000000 0.000000 0.000000 -0.001497 0.000000 0.037465
#
#
# Mechanical properties :
#
#
# Convention : Reuss Voigt Hill
#
# Bulk Modulus (GPa) = 34.07333 38.65587 36.36460
# Shear Modulus (GPa) = 17.46313 27.45554 22.45933
#
# Velocity S-wave (km/s) = 2.88992 3.62360 3.27735
# Velocity P-wave (km/s) = 5.23745 5.99952 5.63139
#
# Compressibility (1/GPa) = 0.02934846
#
# Stress axis : x y z
#
# Youngs Moduli (GPa) = 93.17922 102.92184 61.52029
#
# Poissons Ratio (x) = 0.20149 0.03244
# Poissons Ratio (y) = 0.18242 0.07334
# Poissons Ratio (z) = 0.04914 0.12270
#
# Static dielectric constant tensor:
#      x y z
#    x 1.732700 0.000000 0.009100 
#    y 0.000000 1.833060 0.000000 
#    z 0.009100 0.000000 1.746660 
# 
# From -- ./inp_files/266280.got.cif
#   From: 2010.05.17/outbox.cif.g08.bks.cpg/sg12_134_cif.got.tgz:266280.got - 2010.06.03 13:09:07.
