data_PCOD9177627
_publ_section_title
;
Structure prediction by ZEFSAII (Michael W. Deem and Ramdas Pophale) SiO2 
 PCOD9177627
Probable space group: C 2/M
;
_chemical_formula_sum "Si O2"
_cell_formula_units_Z 64
_cell_length_a 21.190969
_cell_length_b 24.085111
_cell_length_c 11.521097
_cell_angle_alpha 90.000000
_cell_angle_beta 45.392061
_cell_angle_gamma 90.000000
_cell_volume 4186.295025
_symmetry_space_group_name_H-M "C 2/M"
_symmetry_group_IT_number 12
_symmetry_cell_setting 'monoclinic'
loop_
_space_group_symop_operation_xyz
x,y,z
-x,y,-z
-x,-y,-z
x,-y,z
1/2+x,1/2+y,z
1/2-x,1/2+y,-z
1/2-x,1/2-y,-z
1/2+x,1/2-y,z
loop_
_atom_site_type_symbol
_atom_site_label
_atom_site_fract_x
_atom_site_fract_y
_atom_site_fract_z
Si Si1 0.940727 0.563488 0.339774
Si Si2 0.645167 0.065437 0.032283
Si Si3 0.900683 0.377024 0.151376
Si Si4 0.271596 0.160201 0.924487
Si Si5 0.092930 0.228544 0.519130
Si Si6 0.257355 0.313972 0.528079
Si Si7 0.610313 0.268827 0.222019
Si Si8 0.816465 0.348898 0.602342
O O1 0.916712 0.500000 0.388758
O O2 0.915015 0.582077 0.242233
O O3 0.887285 0.602722 0.494341
O O4 0.046319 0.569445 0.214066
O O5 0.707395 0.105903 0.026732
O O6 0.669695 0.000000 0.998004
O O7 0.633615 0.090148 0.917241
O O8 0.827105 0.332643 0.286027
O O9 0.000000 0.353563 0.000000
O O10 0.347163 0.207511 0.850257
O O11 0.275248 0.149263 0.782442
O O12 0.178588 0.188381 0.077271
O O13 0.153411 0.185674 0.512152
O O14 0.104320 0.218467 0.367182
O O15 0.130470 0.291109 0.483510
O O16 0.990807 0.228081 0.689102
O O17 0.250000 0.250000 0.500000
O O18 0.252280 0.349470 0.416338
#
# Coordination Sequence:
#
# PCOD9177627 Si02
#       8
#     8   8   8   8   8   8   8   8
#     4   9  17  29  45  65  91 123 154 182 220 273
#     4  10  19  29  45  69  93 120 155 194 231 270
#     4   9  17  30  47  67  93 123 153 190 230 267
#     4  10  19  31  44  65  95 123 154 186 226 282
#     4   9  16  30  48  67  88 116 153 192 229 269
#     4   9  17  30  46  67  93 120 153 190 225 268
#     4   9  18  30  48  67  88 121 154 189 234 276
#     4   9  18  30  43  63  94 124 148 180 222 271
#
# _framework density 15.287981
#
# number of rings (size 3 to 8) (size 9 to 14) (size 15 to 20)
#    0.000    2.750    0.000    1.875    0.000    5.500 
#    0.000    1.875    0.000    0.000    0.000   10.500 
#    0.000    5.000    0.000    0.000    0.000    0.000 
#
# Total GULP energy -178196.355477 kJ/mol
# GULP energy per Si atom -5568.636109 kJ/mol
# Density = 1.525319 g / cm^3
# Si number density = 15.287981 Si / 1000 Ang^3
#
#
#
# Elastic Constant Matrix: (Units=GPa)
#
#
# Indices 1 2 3 4 5 6 
#
# 1 68.0093 25.0862 38.6883 0.0000 -8.8192 0.0000
# 2 25.0862 71.1501 45.6258 0.0000 2.7727 0.0000
# 3 38.6883 45.6258 98.9970 0.0000 -2.4932 0.0000
# 4 0.0000 0.0000 0.0000 24.2338 0.0000 -4.5037
# 5 -8.8192 2.7727 -2.4932 0.0000 11.4317 0.0000
# 6 0.0000 0.0000 0.0000 -4.5037 0.0000 14.7008
#
#
#
# Elastic Compliance Matrix: (Units=1/GPa)
#
#
# Indices 1 2 3 4 5 6 
#
# 1 0.022006 -0.004495 -0.006107 0.000000 0.016736 0.000000
# 2 -0.004495 0.021423 -0.008381 0.000000 -0.010492 0.000000
# 3 -0.006107 -0.008381 0.016373 0.000000 0.000892 0.000000
# 4 0.000000 0.000000 0.000000 0.043756 0.000000 0.013405
# 5 0.016736 -0.010492 0.000892 0.000000 0.103127 0.000000
# 6 0.000000 0.000000 0.000000 0.013405 0.000000 0.072130
#
#
# Mechanical properties :
#
#
# Convention : Reuss Voigt Hill
#
# Bulk Modulus (GPa) = 45.79534 50.77300 48.28417
# Shear Modulus (GPa) = 15.42927 18.65699 17.04313
#
# Velocity S-wave (km/s) = 3.18030 3.49717 3.34249
# Velocity P-wave (km/s) = 6.59590 7.04202 6.82261
#
# Compressibility (1/GPa) = 0.02183628
#
# Stress axis : x y z
#
# Youngs Moduli (GPa) = 45.44182 46.67914 61.07612
#
# Poissons Ratio (x) = 0.20982 0.37299
# Poissons Ratio (y) = 0.20426 0.51188
# Poissons Ratio (z) = 0.27751 0.39121
#
# Static dielectric constant tensor:
#      x y z
#    x 1.546080 0.000000 0.013080 
#    y 0.000000 1.492730 0.000000 
#    z 0.013080 0.000000 1.496260 
# 
# From -- ./inp_files/159267.got.cif
#   From: 2010.05.17/outbox.cif.g08.bks.cpg/sg12_80_cif.got.tgz:159267.got - 2010.06.03 13:09:07.
