data_PCOD9177028
_publ_section_title
;
Structure prediction by ZEFSAII (Michael W. Deem and Ramdas Pophale) SiO2 
 PCOD9177028
Probable space group: C 2/M
;
_chemical_formula_sum "Si O2"
_cell_formula_units_Z 56
_cell_length_a 22.855417
_cell_length_b 16.046806
_cell_length_c 9.641568
_cell_angle_alpha 90.000000
_cell_angle_beta 66.475047
_cell_angle_gamma 90.000000
_cell_volume 3242.208327
_symmetry_space_group_name_H-M "C 2/M"
_symmetry_group_IT_number 12
_symmetry_cell_setting 'monoclinic'
loop_
_space_group_symop_operation_xyz
x,y,z
-x,y,-z
-x,-y,-z
x,-y,z
1/2+x,1/2+y,z
1/2-x,1/2+y,-z
1/2-x,1/2-y,-z
1/2+x,1/2-y,z
loop_
_atom_site_type_symbol
_atom_site_label
_atom_site_fract_x
_atom_site_fract_y
_atom_site_fract_z
Si Si1 0.312204 0.736493 0.621203
Si Si2 0.334886 0.730538 0.177369
Si Si3 0.515189 0.656561 0.644796
Si Si4 0.892621 0.754320 0.824606
Si Si5 0.904598 0.318911 0.352203
Si Si6 0.858188 0.094092 0.367202
Si Si7 0.978837 0.593670 0.680739
O O1 0.238018 0.747521 0.720216
O O2 0.350513 0.729338 0.728293
O O3 0.342252 0.815604 0.508916
O O4 0.325233 0.656186 0.510702
O O5 0.381238 0.789788 0.224427
O O6 0.347908 0.639089 0.229539
O O7 0.351382 0.741187 0.001980
O O8 0.500000 0.635424 0.500000
O O9 0.448283 0.675925 0.780620
O O10 0.552694 0.744974 0.618900
O O11 0.566323 0.596518 0.666793
O O12 0.928630 0.665223 0.770635
O O13 0.953832 0.393992 0.303164
O O14 0.834600 0.000000 0.395116
O O15 0.953881 0.500000 0.723346
O O16 0.000000 0.603798 0.500000
#
# Coordination Sequence:
#
# PCOD9177028 Si02
#       7
#     8   8   8   8   8   8   8
#     4  10  18  37  58  76 103 151 191 211 254 331
#     4  10  22  34  55  81 110 147 183 214 268 329
#     4   9  15  31  54  77 100 139 178 217 261 319
#     4  11  18  35  57  82 110 144 181 220 264 336
#     4   9  16  32  53  75 105 138 182 217 258 318
#     4  10  21  37  57  82 107 137 184 236 271 308
#     4  10  19  33  57  86 110 135 179 237 274 307
#
# _framework density 17.272179000000001
#
# number of rings (size 3 to 8) (size 9 to 14) (size 15 to 20)
#    0.000    2.429    4.286    3.000    0.000    5.429 
#    0.000    7.857    0.000    0.000    0.000    0.000 
#    0.000    0.000    0.000    0.000    0.000    0.000 
#
# Total GULP energy -155887.265056 kJ/mol
# GULP energy per Si atom -5567.402323 kJ/mol
# Density = 1.723287 g / cm^3
# Si number density = 17.272179 Si / 1000 Ang^3
#
#
#
# Elastic Constant Matrix: (Units=GPa)
#
#
# Indices 1 2 3 4 5 6 
#
# 1 62.3854 24.0339 7.7421 0.0000 0.4577 0.0000
# 2 24.0339 78.1511 28.2584 0.0000 -4.2163 0.0000
# 3 7.7421 28.2584 80.8178 0.0000 8.7053 0.0000
# 4 0.0000 0.0000 0.0000 9.4291 0.0000 -1.0897
# 5 0.4577 -4.2163 8.7053 0.0000 17.4798 0.0000
# 6 0.0000 0.0000 0.0000 -1.0897 0.0000 7.2583
#
#
#
# Elastic Compliance Matrix: (Units=1/GPa)
#
#
# Indices 1 2 3 4 5 6 
#
# 1 0.018263 -0.005938 0.000563 0.000000 -0.002191 0.000000
# 2 -0.005938 0.017296 -0.006282 0.000000 0.007456 0.000000
# 3 0.000563 -0.006282 0.015513 0.000000 -0.009256 0.000000
# 4 0.000000 0.000000 0.000000 0.107927 0.000000 0.016203
# 5 -0.002191 0.007456 -0.009256 0.000000 0.063674 0.000000
# 6 0.000000 0.000000 0.000000 0.016203 0.000000 0.140207
#
#
# Mechanical properties :
#
#
# Convention : Reuss Voigt Hill
#
# Bulk Modulus (GPa) = 36.02628 37.93589 36.98109
# Shear Modulus (GPa) = 12.64393 17.58809 15.11601
#
# Velocity S-wave (km/s) = 2.70856 3.19453 2.96153
# Velocity P-wave (km/s) = 5.53940 5.96808 5.75773
#
# Compressibility (1/GPa) = 0.02775751
#
# Stress axis : x y z
#
# Youngs Moduli (GPa) = 54.75453 57.81845 64.46205
#
# Poissons Ratio (x) = 0.34334 -0.03628
# Poissons Ratio (y) = 0.32514 0.40493
# Poissons Ratio (z) = -0.03081 0.36320
#
# Static dielectric constant tensor:
#      x y z
#    x 1.623830 0.000000 0.000790 
#    y 0.000000 1.603760 0.000000 
#    z 0.000790 0.000000 1.583410 
# 
# From -- ./inp_files/87227.got.cif
#   From: 2010.05.17/outbox.cif.g08.bks.cpg/sg12_44_cif.got.tgz:87227.got - 2010.06.03 13:09:07.
