data_PCOD9177803
_publ_section_title
;
Structure prediction by ZEFSAII (Michael W. Deem and Ramdas Pophale) SiO2 
 PCOD9177803
Probable space group: C 2/M
;
_chemical_formula_sum "Si O2"
_cell_formula_units_Z 64
_cell_length_a 23.596003
_cell_length_b 7.308722
_cell_length_c 14.286473
_cell_angle_alpha 90.000000
_cell_angle_beta 80.730509
_cell_angle_gamma 90.000000
_cell_volume 2431.623757
_symmetry_space_group_name_H-M "C 2/M"
_symmetry_group_IT_number 12
_symmetry_cell_setting 'monoclinic'
loop_
_space_group_symop_operation_xyz
x,y,z
-x,y,-z
-x,-y,-z
x,-y,z
1/2+x,1/2+y,z
1/2-x,1/2+y,-z
1/2-x,1/2-y,-z
1/2+x,1/2-y,z
loop_
_atom_site_type_symbol
_atom_site_label
_atom_site_fract_x
_atom_site_fract_y
_atom_site_fract_z
Si Si1 0.401145 0.281135 0.175679
Si Si2 0.203279 0.219114 0.924626
Si Si3 0.649375 0.725256 0.124741
Si Si4 0.183414 0.712211 0.630115
Si Si5 0.973688 0.278508 0.645912
Si Si6 0.026713 0.204247 0.140442
Si Si7 0.283051 0.294792 0.730214
Si Si8 0.093409 0.277805 0.512624
O O1 0.407057 0.500000 0.187178
O O2 0.360387 0.246565 0.099752
O O3 0.366520 0.216806 0.276941
O O4 0.464900 0.208642 0.140513
O O5 0.241162 0.306564 0.832518
O O6 0.210791 0.000000 0.917720
O O7 0.196892 0.279006 0.034579
O O8 0.648182 0.500000 0.126833
O O9 0.588074 0.790300 0.104348
O O10 0.663885 0.790532 0.226379
O O11 0.196717 0.500000 0.608291
O O12 0.242062 0.790167 0.661069
O O13 0.151633 0.788795 0.546699
O O14 0.972539 0.500000 0.653524
O O15 0.969819 0.193943 0.747941
O O16 0.923904 0.221305 0.587040
O O17 0.036301 0.230815 0.586897
O O18 0.026746 0.000000 0.098300
O O19 0.298678 0.500000 0.696644
O O20 0.096784 0.500000 0.511477
#
# Coordination Sequence:
#
# PCOD9177803 Si02
#       8
#     8   8   8   8   8   8   8   8
#     4   9  17  27  41  64  88 112 142 175 213 251
#     4   9  17  30  47  64  85 112 143 182 220 250
#     4   9  18  31  45  62  86 118 149 175 208 253
#     4   9  15  26  46  67  86 109 138 175 217 255
#     4   9  16  28  45  64  87 113 141 174 211 254
#     4  10  19  30  43  61  90 120 145 173 207 254
#     4   9  17  29  47  68  86 108 143 183 217 249
#     4   8  14  25  44  67  87 109 138 173 213 255
#
# _framework density 26.319859000000001
#
# number of rings (size 3 to 8) (size 9 to 14) (size 15 to 20)
#    0.000    3.000    1.250    1.125    0.000    0.500 
#    0.000    5.625    0.000    0.750    0.000    4.375 
#    0.000    0.000    0.000    0.000    0.000    0.000 
#
# Total GULP energy -178627.410401 kJ/mol
# GULP energy per Si atom -5582.106575 kJ/mol
# Density = 2.625995 g / cm^3
# Si number density = 26.319859 Si / 1000 Ang^3
#
#
#
# Elastic Constant Matrix: (Units=GPa)
#
#
# Indices 1 2 3 4 5 6 
#
# 1 47.2553 9.8111 -9.8494 0.0000 -0.1556 0.0000
# 2 9.8111 105.4644 8.0018 0.0000 10.3483 0.0000
# 3 -9.8494 8.0018 66.3494 0.0000 15.8184 0.0000
# 4 0.0000 0.0000 0.0000 3.6353 0.0000 -3.4729
# 5 -0.1556 10.3483 15.8184 0.0000 53.0100 0.0000
# 6 0.0000 0.0000 0.0000 -3.4729 0.0000 -4.7625
#
#
#
# Elastic Compliance Matrix: (Units=1/GPa)
#
#
# Indices 1 2 3 4 5 6 
#
# 1 0.022421 -0.002311 0.003751 0.000000 -0.000602 0.000000
# 2 -0.002311 0.009942 -0.001160 0.000000 -0.001601 0.000000
# 3 0.003751 -0.001160 0.016915 0.000000 -0.004810 0.000000
# 4 0.000000 0.000000 0.000000 0.162134 0.000000 -0.118229
# 5 -0.000602 -0.001601 -0.004810 0.000000 0.020611 0.000000
# 6 0.000000 0.000000 0.000000 -0.118229 0.000000 -0.123760
#
#
# Mechanical properties :
#
#
# Convention : Reuss Voigt Hill
#
# Bulk Modulus (GPa) = 20.06553 26.11068 23.08811
# Shear Modulus (GPa) = 40.21954 24.45026 32.33490
#
# Velocity S-wave (km/s) = 3.91334 3.05120 3.50885
# Velocity P-wave (km/s) = 5.29710 4.72813 5.02068
#
# Compressibility (1/GPa) = 0.04983670
#
# Stress axis : x y z
#
# Youngs Moduli (GPa) = 44.60045 100.58288 59.11837
#
# Poissons Ratio (x) = 0.23248 -0.22174
# Poissons Ratio (y) = 0.10308 0.06860
# Poissons Ratio (z) = -0.16728 0.11671
#
# Static dielectric constant tensor:
#      x y z
#    x 2.217130 0.000000 0.053640 
#    y 0.000000 1.747810 0.000000 
#    z 0.053640 0.000000 2.026650 
# 
# From -- ./inp_files/287607.got.cif
#   From: 2010.05.17/outbox.cif.g08.bks.cpg/sg12_144_cif.got.tgz:287607.got - 2010.06.03 13:09:07.
