data_PCOD9177833
_publ_section_title
;
Structure prediction by ZEFSAII (Michael W. Deem and Ramdas Pophale) SiO2 
 PCOD9177833
Probable space group: C 2/M
;
_chemical_formula_sum "Si O2"
_cell_formula_units_Z 56
_cell_length_a 30.006311
_cell_length_b 8.784536
_cell_length_c 13.874184
_cell_angle_alpha 90.000000
_cell_angle_beta 101.986267
_cell_angle_gamma 90.000000
_cell_volume 3577.382597
_symmetry_space_group_name_H-M "C 2/M"
_symmetry_group_IT_number 12
_symmetry_cell_setting 'monoclinic'
loop_
_space_group_symop_operation_xyz
x,y,z
-x,y,-z
-x,-y,-z
x,-y,z
1/2+x,1/2+y,z
1/2-x,1/2+y,-z
1/2-x,1/2-y,-z
1/2+x,1/2-y,z
loop_
_atom_site_type_symbol
_atom_site_label
_atom_site_fract_x
_atom_site_fract_y
_atom_site_fract_z
Si Si1 0.055663 0.822265 0.431189
Si Si2 0.518056 0.686397 0.112002
Si Si3 0.892281 0.179228 0.749743
Si Si4 0.799408 0.818078 0.409139
Si Si5 0.965090 0.816879 0.280380
Si Si6 0.109826 0.320676 0.629721
Si Si7 0.798178 0.815683 0.634767
O O1 0.085071 0.813504 0.346280
O O2 0.079069 0.723829 0.523334
O O3 0.004695 0.779390 0.376232
O O4 0.055753 0.000000 0.462453
O O5 0.519398 0.500000 0.113818
O O6 0.569142 0.741327 0.161102
O O7 0.484761 0.730102 0.185112
O O8 0.500000 0.734657 0.000000
O O9 0.841289 0.241307 0.716072
O O10 0.887329 0.000000 0.770710
O O11 0.841224 0.754581 0.366665
O O12 0.806160 0.775745 0.525434
O O13 0.750401 0.751760 0.358099
O O14 0.798889 0.000000 0.403693
O O15 0.918133 0.743627 0.292136
O O16 0.961072 0.000000 0.278653
O O17 0.114845 0.500000 0.638907
O O18 0.796462 0.000000 0.638671
#
# Coordination Sequence:
#
# PCOD9177833 Si02
#       7
#     8   8   8   8   8   8   8
#     4   9  16  29  44  60  85 122 157 180 213 262
#     4   8  14  26  47  74  95 112 144 186 221 261
#     4   8  13  24  43  65  91 120 146 178 220 264
#     4  10  19  30  44  60  86 121 156 188 219 260
#     4   9  18  30  46  64  88 120 151 182 221 268
#     4  12  22  29  40  61  90 121 155 189 221 257
#     4   9  16  28  44  63  88 118 152 185 220 261
#
# _framework density 15.653903
#
# number of rings (size 3 to 8) (size 9 to 14) (size 15 to 20)
#    0.000    2.714    1.429    3.857    0.000    2.857 
#    0.000    0.000    0.000    0.429    0.000    1.000 
#    0.000    0.000    0.000    0.000    0.000    0.000 
#
# Total GULP energy -156015.711567 kJ/mol
# GULP energy per Si atom -5571.989699 kJ/mol
# Density = 1.561827 g / cm^3
# Si number density = 15.653903 Si / 1000 Ang^3
#
#
#
# Elastic Constant Matrix: (Units=GPa)
#
#
# Indices 1 2 3 4 5 6 
#
# 1 161.2276 34.4494 55.9230 0.0000 10.5259 0.0000
# 2 34.4494 18.6757 15.2749 0.0000 2.4753 0.0000
# 3 55.9230 15.2749 75.0737 0.0000 13.5201 0.0000
# 4 0.0000 0.0000 0.0000 -2.3906 0.0000 2.8968
# 5 10.5259 2.4753 13.5201 0.0000 15.5886 0.0000
# 6 0.0000 0.0000 0.0000 2.8968 0.0000 22.5971
#
#
#
# Elastic Compliance Matrix: (Units=1/GPa)
#
#
# Indices 1 2 3 4 5 6 
#
# 1 0.011720 -0.017383 -0.005055 0.000000 -0.000769 0.000000
# 2 -0.017383 0.090040 -0.005819 0.000000 0.002487 0.000000
# 3 -0.005055 -0.005819 0.020726 0.000000 -0.013638 0.000000
# 4 0.000000 0.000000 0.000000 -0.362059 0.000000 0.046414
# 5 -0.000769 0.002487 -0.013638 0.000000 0.076102 0.000000
# 6 0.000000 0.000000 0.000000 0.046414 0.000000 0.038303
#
#
# Mechanical properties :
#
#
# Convention : Reuss Voigt Hill
#
# Bulk Modulus (GPa) = 15.15796 51.80795 33.48295
# Shear Modulus (GPa) = -107.15460 17.11432 -45.02014
#
# Velocity S-wave (km/s) = -8.28257 3.31009 -5.36862
# Velocity P-wave (km/s) = 9.04233 6.91206 4.12232
#
# Compressibility (1/GPa) = 0.06597194
#
# Stress axis : x y z
#
# Youngs Moduli (GPa) = 85.32269 11.10615 48.24838
#
# Poissons Ratio (x) = 0.19305 0.24390
# Poissons Ratio (y) = 1.48314 0.28078
# Poissons Ratio (z) = 0.43132 0.06463
#
# Static dielectric constant tensor:
#      x y z
#    x 1.543540 0.000000 0.008200 
#    y 0.000000 1.522610 0.000000 
#    z 0.008200 0.000000 1.513830 
# 
# From -- ./inp_files/247882.got.cif
#   From: 2010.05.17/outbox.cif.g08.bks.cpg/sg12_124_cif.got.tgz:247882.got - 2010.06.03 13:09:07.
