data_PCOD9177472
_publ_section_title
;
Structure prediction by ZEFSAII (Michael W. Deem and Ramdas Pophale) SiO2 
 PCOD9177472
Probable space group: C 2/M
;
_chemical_formula_sum "Si O2"
_cell_formula_units_Z 64
_cell_length_a 25.391927
_cell_length_b 7.397144
_cell_length_c 21.705644
_cell_angle_alpha 90.000000
_cell_angle_beta 128.396256
_cell_angle_gamma 90.000000
_cell_volume 3195.222622
_symmetry_space_group_name_H-M "C 2/M"
_symmetry_group_IT_number 12
_symmetry_cell_setting 'monoclinic'
loop_
_space_group_symop_operation_xyz
x,y,z
-x,y,-z
-x,-y,-z
x,-y,z
1/2+x,1/2+y,z
1/2-x,1/2+y,-z
1/2-x,1/2-y,-z
1/2+x,1/2-y,z
loop_
_atom_site_type_symbol
_atom_site_label
_atom_site_fract_x
_atom_site_fract_y
_atom_site_fract_z
Si Si1 0.282921 0.287270 0.372752
Si Si2 0.773695 0.787790 0.114519
Si Si3 0.017317 0.219221 0.665256
Si Si4 0.648044 0.718085 0.949997
Si Si5 0.134757 0.779469 0.451220
Si Si6 0.510003 0.720065 0.802277
Si Si7 0.640135 0.717479 0.314840
Si Si8 0.343577 0.721761 0.289039
O O1 0.298548 0.500000 0.384376
O O2 0.316021 0.213888 0.459608
O O3 0.202988 0.268416 0.319053
O O4 0.314611 0.214309 0.332975
O O5 0.814447 0.714308 0.084985
O O6 0.798724 0.717788 0.198168
O O7 0.789844 0.000000 0.127281
O O8 0.695370 0.768775 0.041292
O O9 0.026547 0.271748 0.743558
O O10 0.079937 0.277807 0.669749
O O11 0.942431 0.274054 0.591496
O O12 0.017745 0.000000 0.664990
O O13 0.647997 0.500000 0.948345
O O14 0.570981 0.779226 0.890027
O O15 0.151545 0.719844 0.393846
O O16 0.136668 0.000000 0.451151
O O17 0.509382 0.500000 0.802915
O O18 0.433876 0.780003 0.759736
O O19 0.637705 0.500000 0.314927
O O20 0.342510 0.500000 0.289365
#
# Coordination Sequence:
#
# PCOD9177472 Si02
#       8
#     8   8   8   8   8   8   8   8
#     4  10  19  29  42  65  91 115 144 178 213 251
#     4   9  16  26  41  64  91 115 136 165 209 262
#     4   8  12  22  40  63  88 113 139 172 215 255
#     4   9  15  25  44  67  87 108 137 175 214 250
#     4   8  15  26  43  66  88 108 141 187 220 244
#     4   8  13  24  44  66  85 107 142 181 213 249
#     4   9  17  30  47  64  83 113 149 182 214 249
#     4   9  16  26  41  61  91 122 142 166 209 263
#
# _framework density 20.029900999999999
#
# number of rings (size 3 to 8) (size 9 to 14) (size 15 to 20)
#    0.000    3.250    1.250    1.875    0.000    0.500 
#    0.000    3.750    0.000    0.750    0.000    8.750 
#    0.000    0.000    0.000    0.000    0.000    0.000 
#
# Total GULP energy -178418.191371 kJ/mol
# GULP energy per Si atom -5575.568480 kJ/mol
# Density = 1.998431 g / cm^3
# Si number density = 20.029901 Si / 1000 Ang^3
#
#
#
# Elastic Constant Matrix: (Units=GPa)
#
#
# Indices 1 2 3 4 5 6 
#
# 1 110.8418 -8.2292 20.7192 0.0000 16.0992 0.0000
# 2 -8.2292 64.0215 -6.2042 -0.0001 -5.9514 -0.0001
# 3 20.7192 -6.2042 42.4054 0.0000 19.1108 0.0000
# 4 0.0000 -0.0001 0.0000 5.6289 0.0000 6.1654
# 5 16.0992 -5.9514 19.1108 0.0000 19.6991 0.0000
# 6 0.0000 -0.0001 0.0000 6.1654 0.0000 6.7148
#
#
#
# Elastic Compliance Matrix: (Units=1/GPa)
#
#
# Indices 1 2 3 4 5 6 
#
# 1 0.010371 0.000546 -0.002207 0.000002 -0.006170 -0.000002
# 2 0.000546 0.016102 0.000174 -0.000001 0.004250 0.000001
# 3 -0.002207 0.000174 0.042377 -0.000033 -0.039255 0.000030
# 4 0.000002 -0.000001 -0.000033-31.165122 0.000035 28.615224
# 5 -0.006170 0.004250 -0.039255 0.000035 0.095173 -0.000033
# 6 -0.000002 0.000001 0.000030 28.615224 -0.000033-26.125031
#
#
# Mechanical properties :
#
#
# Convention : Reuss Voigt Hill
#
# Bulk Modulus (GPa) = 15.18024 25.53780 20.35902
# Shear Modulus (GPa) = -0.08756 20.47408 10.19326
#
# Velocity S-wave (km/s) = -0.20931 3.20062 2.25833
# Velocity P-wave (km/s) = 2.74533 5.14161 4.12146
#
# Compressibility (1/GPa) = 0.06587510
#
# Stress axis : x y z
#
# Youngs Moduli (GPa) = 96.42217 62.10479 23.59789
#
# Poissons Ratio (x) = -0.03389 0.05207
# Poissons Ratio (y) = -0.05261 -0.00410
# Poissons Ratio (z) = 0.21278 -0.01080
#
# Static dielectric constant tensor:
#      x y z
#    x 1.684580 0.000000 0.023920 
#    y 0.000000 1.793000 0.000000 
#    z 0.023920 0.000000 1.710190 
# 
# From -- ./inp_files/288844.got.cif
#   From: 2010.05.17/outbox.cif.g08.bks.cpg/sg12_145_cif.got.tgz:288844.got - 2010.06.03 13:09:07.
