data_PCOD9177018
_publ_section_title
;
Structure prediction by ZEFSAII (Michael W. Deem and Ramdas Pophale) SiO2 
 PCOD9177018
Probable space group: C 2/M
;
_chemical_formula_sum "Si O2"
_cell_formula_units_Z 56
_cell_length_a 15.414691
_cell_length_b 19.154368
_cell_length_c 18.143137
_cell_angle_alpha 90.000000
_cell_angle_beta 150.288138
_cell_angle_gamma 90.000000
_cell_volume 2655.094950
_symmetry_space_group_name_H-M "C 2/M"
_symmetry_group_IT_number 12
_symmetry_cell_setting 'monoclinic'
loop_
_space_group_symop_operation_xyz
x,y,z
-x,y,-z
-x,-y,-z
x,-y,z
1/2+x,1/2+y,z
1/2-x,1/2+y,-z
1/2-x,1/2-y,-z
1/2+x,1/2-y,z
loop_
_atom_site_type_symbol
_atom_site_label
_atom_site_fract_x
_atom_site_fract_y
_atom_site_fract_z
Si Si1 0.879974 0.307516 0.030823
Si Si2 0.518370 0.650889 0.929836
Si Si3 0.857190 0.696570 0.331960
Si Si4 0.333771 0.077905 0.792612
Si Si5 0.386482 0.866873 0.190211
Si Si6 0.763983 0.077494 0.445143
Si Si7 0.906355 0.157853 0.285488
O O1 0.686617 0.327120 0.860596
O O2 0.910661 0.311422 0.141049
O O3 0.916166 0.231286 0.025511
O O4 0.014733 0.364094 0.097282
O O5 0.317499 0.663277 0.759797
O O6 0.500000 0.626729 0.000000
O O7 0.686857 0.607897 0.025264
O O8 0.887041 0.659586 0.274772
O O9 0.861582 0.777897 0.308378
O O10 0.000000 0.688334 0.500000
O O11 0.230128 0.083165 0.638993
O O12 0.196381 0.093025 0.754961
O O13 0.408399 0.000000 0.851727
O O14 0.557810 0.914274 0.310228
O O15 0.890486 0.137618 0.569564
O O16 0.820970 0.000000 0.510331
#
# Coordination Sequence:
#
# PCOD9177018 Si02
#       7
#     8   8   8   8   8   8   8
#     4  11  20  35  54  84 120 156 195 239 279 336
#     4  10  18  37  56  80 116 153 188 237 281 339
#     4  11  23  37  60  88 120 147 191 241 297 352
#     4  10  20  35  55  80 118 166 202 226 271 343
#     4  10  23  39  60  83 114 160 193 239 294 342
#     4  10  23  40  57  83 121 157 197 244 285 334
#     4  12  21  33  56  86 122 159 192 232 283 345
#
# _framework density 21.091525000000001
#
# number of rings (size 3 to 8) (size 9 to 14) (size 15 to 20)
#    0.000    1.429    4.286    2.571    2.000    4.571 
#    0.000    0.000    0.000    4.286    0.000    0.000 
#    0.000    0.000    0.000    0.000    0.000    0.000 
#
# Total GULP energy -155917.298601 kJ/mol
# GULP energy per Si atom -5568.474950 kJ/mol
# Density = 2.104352 g / cm^3
# Si number density = 21.091525 Si / 1000 Ang^3
#
#
#
# Elastic Constant Matrix: (Units=GPa)
#
#
# Indices 1 2 3 4 5 6 
#
# 1 70.5327 10.1560 22.5104 -0.0060 3.7522 -0.0002
# 2 10.1560 32.2593 15.6260 -0.0118 7.7141 -0.0011
# 3 22.5104 15.6260 146.3438 -0.0252 4.1206 -0.0056
# 4 -0.0060 -0.0118 -0.0252 18.6391 -0.0085 8.8081
# 5 3.7522 7.7141 4.1206 -0.0085 39.9440 0.0006
# 6 -0.0002 -0.0011 -0.0056 8.8081 0.0006 12.0077
#
#
#
# Elastic Compliance Matrix: (Units=1/GPa)
#
#
# Indices 1 2 3 4 5 6 
#
# 1 0.015370 -0.003773 -0.001947 0.000000 -0.000514 -0.000001
# 2 -0.003773 0.035100 -0.002995 0.000020 -0.006115 -0.000013
# 3 -0.001947 -0.002995 0.007453 0.000009 -0.000007 -0.000004
# 4 0.000000 0.000020 0.000009 0.082116 0.000013 -0.060235
# 5 -0.000514 -0.006115 -0.000007 0.000013 0.026265 -0.000012
# 6 -0.000001 -0.000013 -0.000004 -0.060235 -0.000012 0.127465
#
#
# Mechanical properties :
#
#
# Convention : Reuss Voigt Hill
#
# Bulk Modulus (GPa) = 24.69591 38.41339 31.55465
# Shear Modulus (GPa) = 15.39905 27.50769 21.45337
#
# Velocity S-wave (km/s) = 2.70498 3.61530 3.19275
# Velocity P-wave (km/s) = 4.63576 5.97322 5.34648
#
# Compressibility (1/GPa) = 0.04049253
#
# Stress axis : x y z
#
# Youngs Moduli (GPa) = 65.06283 28.49017 134.17915
#
# Poissons Ratio (x) = 0.10749 0.26122
# Poissons Ratio (y) = 0.24547 0.40191
# Poissons Ratio (z) = 0.12667 0.08534
#
# Static dielectric constant tensor:
#      x y z
#    x 1.803600 0.000000 0.047950 
#    y 0.000000 1.759180 -0.000010 
#    z 0.047950 -0.000010 1.829670 
# 
# From -- ./inp_files/272400.got.cif
#   From: 2010.05.17/outbox.cif.g08.bks.cpg/sg12_137_cif.got.tgz:272400.got - 2010.06.03 13:09:07.
