data_PCOD9177072
_publ_section_title
;
Structure prediction by ZEFSAII (Michael W. Deem and Ramdas Pophale) SiO2 
 PCOD9177072
Probable space group: C 2/M
;
_chemical_formula_sum "Si O2"
_cell_formula_units_Z 56
_cell_length_a 27.968747
_cell_length_b 17.849202
_cell_length_c 8.635230
_cell_angle_alpha 90.000000
_cell_angle_beta 40.980644
_cell_angle_gamma 90.000000
_cell_volume 2827.091119
_symmetry_space_group_name_H-M "C 2/M"
_symmetry_group_IT_number 12
_symmetry_cell_setting 'monoclinic'
loop_
_space_group_symop_operation_xyz
x,y,z
-x,y,-z
-x,-y,-z
x,-y,z
1/2+x,1/2+y,z
1/2-x,1/2+y,-z
1/2-x,1/2-y,-z
1/2+x,1/2-y,z
loop_
_atom_site_type_symbol
_atom_site_label
_atom_site_fract_x
_atom_site_fract_y
_atom_site_fract_z
Si Si1 0.846621 0.915667 0.310979
Si Si2 0.553526 0.081093 0.723201
Si Si3 0.799668 0.773381 0.622123
Si Si4 0.574463 0.775472 0.469861
Si Si5 0.689666 0.880899 0.581865
Si Si6 0.134152 0.307870 0.996829
Si Si7 0.036295 0.812872 0.080167
O O1 0.834015 0.849603 0.467670
O O2 0.770899 0.912720 0.399566
O O3 0.855171 0.000000 0.351089
O O4 0.919167 0.890358 0.040844
O O5 0.544836 0.153560 0.638937
O O6 0.635294 0.082837 0.592470
O O7 0.540342 0.000000 0.680330
O O8 0.500000 0.088275 0.000000
O O9 0.847187 0.746713 0.650460
O O10 0.801599 0.704783 0.496021
O O11 0.714931 0.787477 0.857011
O O12 0.584497 0.803430 0.270659
O O13 0.523916 0.704577 0.641077
O O14 0.649218 0.879076 0.848554
O O15 0.098469 0.246767 0.970993
O O16 0.000000 0.798670 0.000000
#
# Coordination Sequence:
#
# PCOD9177072 Si02
#       7
#     8   8   8   8   8   8   8
#     4  11  21  35  60  90 115 152 204 253 290 334
#     4  10  21  37  59  87 121 156 190 241 302 357
#     4  10  19  39  60  85 112 155 198 241 285 354
#     4  11  22  35  59  88 118 152 200 238 293 356
#     4  10  18  37  64  87 114 152 204 242 286 355
#     4  11  20  35  61  90 113 148 197 251 290 341
#     4  12  21  38  58  86 114 158 202 248 283 351
#
# _framework density 19.808347999999999
#
# number of rings (size 3 to 8) (size 9 to 14) (size 15 to 20)
#    0.000    1.286    4.286    4.286    0.000    0.286 
#    0.000    3.571    0.000    6.000    0.000    0.000 
#    0.000    0.000    0.000    0.000    0.000    0.000 
#
# Total GULP energy -156067.059997 kJ/mol
# GULP energy per Si atom -5573.823571 kJ/mol
# Density = 1.976326 g / cm^3
# Si number density = 19.808348 Si / 1000 Ang^3
#
#
#
# Elastic Constant Matrix: (Units=GPa)
#
#
# Indices 1 2 3 4 5 6 
#
# 1 72.9512 19.7638 15.3647 0.0000 -8.7386 0.0000
# 2 19.7638 115.9195 29.2162 0.0000 4.2803 0.0000
# 3 15.3647 29.2162 96.8592 0.0000 0.7812 0.0000
# 4 0.0000 0.0000 0.0000 9.4893 0.0000 -1.8634
# 5 -8.7386 4.2803 0.7812 0.0000 27.1377 0.0000
# 6 0.0000 0.0000 0.0000 -1.8634 0.0000 3.5586
#
#
#
# Elastic Compliance Matrix: (Units=1/GPa)
#
#
# Indices 1 2 3 4 5 6 
#
# 1 0.015366 -0.002373 -0.001765 0.000000 0.005373 0.000000
# 2 -0.002373 0.009756 -0.002548 0.000000 -0.002230 0.000000
# 3 -0.001765 -0.002548 0.011377 0.000000 -0.000494 0.000000
# 4 0.000000 0.000000 0.000000 0.117461 0.000000 0.061507
# 5 0.005373 -0.002230 -0.000494 0.000000 0.038945 0.000000
# 6 0.000000 0.000000 0.000000 0.061507 0.000000 0.313217
#
#
# Mechanical properties :
#
#
# Convention : Reuss Voigt Hill
#
# Bulk Modulus (GPa) = 43.24198 46.04659 44.64428
# Shear Modulus (GPa) = 9.48400 22.79613 16.14007
#
# Velocity S-wave (km/s) = 2.19050 3.39608 2.85759
# Velocity P-wave (km/s) = 5.31745 6.21887 5.78574
#
# Compressibility (1/GPa) = 0.02312568
#
# Stress axis : x y z
#
# Youngs Moduli (GPa) = 65.07807 102.50181 87.89764
#
# Poissons Ratio (x) = 0.24328 0.15513
# Poissons Ratio (y) = 0.15446 0.22399
# Poissons Ratio (z) = 0.11486 0.26120
#
# Static dielectric constant tensor:
#      x y z
#    x 1.739710 0.000000 -0.021150 
#    y 0.000000 1.696850 0.000000 
#    z -0.021150 0.000000 1.755290 
# 
# From -- ./inp_files/112619.got.cif
#   From: 2010.05.17/outbox.cif.g08.bks.cpg/sg12_57_cif.got.tgz:112619.got - 2010.06.03 13:09:07.
