data_PCOD9177266
_publ_section_title
;
Structure prediction by ZEFSAII (Michael W. Deem and Ramdas Pophale) SiO2 
 PCOD9177266
Probable space group: C 2/M
;
_chemical_formula_sum "Si O2"
_cell_formula_units_Z 50
_cell_length_a 14.540906
_cell_length_b 14.722555
_cell_length_c 14.785963
_cell_angle_alpha 90.000000
_cell_angle_beta 106.658006
_cell_angle_gamma 90.000000
_cell_volume 3032.526956
_symmetry_space_group_name_H-M "C 2/M"
_symmetry_group_IT_number 12
_symmetry_cell_setting 'monoclinic'
loop_
_space_group_symop_operation_xyz
x,y,z
-x,y,-z
-x,-y,-z
x,-y,z
1/2+x,1/2+y,z
1/2-x,1/2+y,-z
1/2-x,1/2-y,-z
1/2+x,1/2-y,z
loop_
_atom_site_type_symbol
_atom_site_label
_atom_site_fract_x
_atom_site_fract_y
_atom_site_fract_z
Si Si1 0.000000 0.500000 0.500000
Si Si2 0.918074 0.500000 0.674817
Si Si3 0.763768 0.683858 0.203487
Si Si4 0.851301 0.895380 0.990553
Si Si5 0.869697 0.500000 0.290073
Si Si6 0.564367 0.246898 0.872132
Si Si7 0.855093 0.396822 0.968194
Si Si8 0.135415 0.325464 0.233649
O O1 0.070873 0.500000 0.429893
O O2 0.091754 0.500000 0.596903
O O3 0.868940 0.409191 0.698791
O O4 0.030582 0.500000 0.739986
O O5 0.809836 0.590066 0.250709
O O6 0.846876 0.735785 0.171618
O O7 0.719277 0.751026 0.265078
O O8 0.678938 0.657223 0.109139
O O9 0.928360 0.840876 0.071267
O O10 0.752320 0.892865 0.020775
O O11 0.875760 0.000000 0.980178
O O12 0.465964 0.226803 0.793990
O O13 0.582363 0.169388 0.952440
O O14 0.888393 0.500000 0.985927
O O15 0.853662 0.366995 0.864065
#
# Coordination Sequence:
#
# PCOD9177266 Si02
#       8
#     2   4   8   8   4   8   8   8
#     4   8  20  44  68  88 100 136 168 230 312 360
#     4  10  22  38  64  84 106 133 182 240 289 345
#     4  11  20  35  52  81 112 147 188 233 276 318
#     4  10  19  32  46  65 109 165 197 218 274 305
#     4  10  20  42  65  74 111 141 173 229 293 350
#     4  11  20  32  44  71 115 158 191 239 256 307
#     4  10  19  27  46  70 103 145 192 238 265 297
#     4  12  21  31  53  84 108 143 196 230 271 314
#
# _framework density 16.487898999999999
#
# number of rings (size 3 to 8) (size 9 to 14) (size 15 to 20)
#    0.480    0.960    6.400    1.440    2.240    0.640 
#    1.440    1.600    0.000    0.000    0.000    0.000 
#    0.000    2.560    0.000    0.000    0.000    0.000 
#
# Total GULP energy -139240.993082 kJ/mol
# GULP energy per Si atom -5569.639723 kJ/mol
# Density = 1.645037 g / cm^3
# Si number density = 16.487899 Si / 1000 Ang^3
#
#
#
# Elastic Constant Matrix: (Units=GPa)
#
#
# Indices 1 2 3 4 5 6 
#
# 1 53.1415 35.6470 11.2435 0.0000 -9.3384 0.0000
# 2 35.6470 103.9780 18.8854 0.0000 -10.0670 0.0000
# 3 11.2435 18.8854 53.5110 0.0000 -10.2019 0.0000
# 4 0.0000 0.0000 0.0000 2.7436 0.0000 0.8261
# 5 -9.3384 -10.0670 -10.2019 0.0000 17.0087 0.0000
# 6 0.0000 0.0000 0.0000 0.8261 0.0000 18.9807
#
#
#
# Elastic Compliance Matrix: (Units=1/GPa)
#
#
# Indices 1 2 3 4 5 6 
#
# 1 0.025842 -0.007815 -0.000958 0.000000 0.008988 0.000000
# 2 -0.007815 0.012941 -0.002578 0.000000 0.001823 0.000000
# 3 -0.000958 -0.002578 0.021914 0.000000 0.011092 0.000000
# 4 0.000000 0.000000 0.000000 0.369326 0.000000 -0.016074
# 5 0.008988 0.001823 0.011092 0.000000 0.071460 0.000000
# 6 0.000000 0.000000 0.000000 -0.016074 0.000000 0.053385
#
#
# Mechanical properties :
#
#
# Convention : Reuss Voigt Hill
#
# Bulk Modulus (GPa) = 26.31930 38.02025 32.16977
# Shear Modulus (GPa) = 8.47120 17.40358 12.93739
#
# Velocity S-wave (km/s) = 2.26914 3.25243 2.80422
# Velocity P-wave (km/s) = 4.78150 6.10032 5.48072
#
# Compressibility (1/GPa) = 0.03799494
#
# Stress axis : x y z
#
# Youngs Moduli (GPa) = 38.69625 77.27121 45.63396
#
# Poissons Ratio (x) = 0.60390 0.04372
# Poissons Ratio (y) = 0.30242 0.11763
# Poissons Ratio (z) = 0.03707 0.19919
#
# Static dielectric constant tensor:
#      x y z
#    x 1.610190 0.000000 -0.001130 
#    y 0.000000 1.575310 0.000000 
#    z -0.001130 0.000000 1.508380 
# 
# From -- ./inp_files/214397.got.cif
#   From: 2010.05.17/outbox.cif.g08.bks.cpg/sg12_108_cif.got.tgz:214397.got - 2010.06.03 13:09:07.
