data_PCOD9177381
_publ_section_title
;
Structure prediction by ZEFSAII (Michael W. Deem and Ramdas Pophale) SiO2 
 PCOD9177381
Probable space group: C 2/M
;
_chemical_formula_sum "Si O2"
_cell_formula_units_Z 40
_cell_length_a 9.342313
_cell_length_b 28.240730
_cell_length_c 17.639564
_cell_angle_alpha 90.000000
_cell_angle_beta 25.982916
_cell_angle_gamma 90.000000
_cell_volume 2038.893478
_symmetry_space_group_name_H-M "C 2/M"
_symmetry_group_IT_number 12
_symmetry_cell_setting 'monoclinic'
loop_
_space_group_symop_operation_xyz
x,y,z
-x,y,-z
-x,-y,-z
x,-y,z
1/2+x,1/2+y,z
1/2-x,1/2+y,-z
1/2-x,1/2-y,-z
1/2+x,1/2-y,z
loop_
_atom_site_type_symbol
_atom_site_label
_atom_site_fract_x
_atom_site_fract_y
_atom_site_fract_z
Si Si1 0.854910 0.361662 0.865509
Si Si2 0.115024 0.553518 0.664990
Si Si3 0.763096 0.694521 0.210601
Si Si4 0.883409 0.353565 0.413031
Si Si5 0.196683 0.216972 0.700276
O O1 0.934391 0.417455 0.818175
O O2 0.941025 0.339711 0.905062
O O3 0.088875 0.338863 0.688856
O O4 0.500000 0.353065 0.000000
O O5 0.500000 0.552690 0.500000
O O6 0.000400 0.500000 0.708999
O O7 0.083224 0.589720 0.609464
O O8 0.447378 0.666053 0.394045
O O9 0.826487 0.742729 0.225885
O O10 0.633548 0.709026 0.189593
O O11 0.176118 0.330628 0.320323
O O12 0.500000 0.230373 0.500000
#
# Coordination Sequence:
#
# PCOD9177381 Si02
#       5
#     8   8   8   8   8
#     4  10  19  32  50  72 104 132 166 201 243 292
#     4   9  17  31  56  76  97 127 164 209 251 284
#     4  11  18  32  49  76  98 132 167 207 242 299
#     4   9  17  33  49  72 100 125 166 205 247 291
#     4  10  19  28  54  74  99 130 170 203 252 286
#
# _framework density 19.618485
#
# number of rings (size 3 to 8) (size 9 to 14) (size 15 to 20)
#    1.200    1.000    2.000    5.400    0.000    0.400 
#    0.000    5.000    0.000    6.600    0.000    1.400 
#    0.000    0.000    0.000    0.000    0.000    0.000 
#
# Total GULP energy -111412.200534 kJ/mol
# GULP energy per Si atom -5570.610027 kJ/mol
# Density = 1.957383 g / cm^3
# Si number density = 19.618485 Si / 1000 Ang^3
#
#
#
# Elastic Constant Matrix: (Units=GPa)
#
#
# Indices 1 2 3 4 5 6 
#
# 1 115.1409 68.8677 22.5317 0.0000 -31.1466 0.0000
# 2 68.8677 167.0193 21.9543 0.0000 -24.1064 0.0000
# 3 22.5317 21.9543 59.1240 0.0002 -24.3607 -0.0003
# 4 0.0000 0.0000 0.0002 1.5860 -0.0001 -6.9280
# 5 -31.1466 -24.1064 -24.3607 -0.0001 36.6121 0.0001
# 6 0.0000 0.0000 -0.0003 -6.9280 0.0001 23.8588
#
#
#
# Elastic Compliance Matrix: (Units=1/GPa)
#
#
# Indices 1 2 3 4 5 6 
#
# 1 0.013667 -0.004374 0.000027 -0.000001 0.008765 0.000000
# 2 -0.004374 0.008052 -0.000925 -0.000001 0.000965 0.000000
# 3 0.000027 -0.000925 0.023428 0.000002 0.015002 0.000001
# 4 -0.000001 -0.000001 0.000002 -2.349102 -0.000004 -0.682116
# 5 0.008765 0.000965 0.015002 -0.000004 0.045387 -0.000001
# 6 0.000000 0.000000 0.000001 -0.682116 -0.000001 -0.156155
#
#
# Mechanical properties :
#
#
# Convention : Reuss Voigt Hill
#
# Bulk Modulus (GPa) = 28.89970 63.11016 46.00493
# Shear Modulus (GPa) = -2.08974 27.60675 12.75851
#
# Velocity S-wave (km/s) = -1.03320 3.75531 2.55293
# Velocity P-wave (km/s) = 3.65233 7.14435 5.67368
#
# Compressibility (1/GPa) = 0.03460244
#
# Stress axis : x y z
#
# Youngs Moduli (GPa) = 73.17085 124.19764 42.68353
#
# Poissons Ratio (x) = 0.54321 -0.00116
# Poissons Ratio (y) = 0.32003 0.03950
# Poissons Ratio (z) = -0.00199 0.11494
#
# Static dielectric constant tensor:
#      x y z
#    x 1.705760 0.000000 0.026790 
#    y 0.000000 1.694410 0.000000 
#    z 0.026790 0.000000 1.787170 
# 
# From -- ./inp_files/124714.got.cif
#   From: 2010.05.17/outbox.cif.g08.bks.cpg/sg12_63_cif.got.tgz:124714.got - 2010.06.03 13:09:07.
