data_PCOD9177554
_publ_section_title
;
Structure prediction by ZEFSAII (Michael W. Deem and Ramdas Pophale) SiO2 
 PCOD9177554
Probable space group: C 2/M
;
_chemical_formula_sum "Si O2"
_cell_formula_units_Z 64
_cell_length_a 24.259574
_cell_length_b 9.644715
_cell_length_c 16.111407
_cell_angle_alpha 90.000000
_cell_angle_beta 100.943920
_cell_angle_gamma 90.000000
_cell_volume 3701.135845
_symmetry_space_group_name_H-M "C 2/M"
_symmetry_group_IT_number 12
_symmetry_cell_setting 'monoclinic'
loop_
_space_group_symop_operation_xyz
x,y,z
-x,y,-z
-x,-y,-z
x,-y,z
1/2+x,1/2+y,z
1/2-x,1/2+y,-z
1/2-x,1/2-y,-z
1/2+x,1/2-y,z
loop_
_atom_site_type_symbol
_atom_site_label
_atom_site_fract_x
_atom_site_fract_y
_atom_site_fract_z
Si Si1 0.290318 0.144375 0.052290
Si Si2 0.725986 0.160406 0.756943
Si Si3 0.339633 0.164136 0.797455
Si Si4 0.479378 0.161762 0.401275
Si Si5 0.595662 0.841892 0.012700
Si Si6 0.456946 0.335359 0.139142
Si Si7 0.950927 0.340023 0.740158
Si Si8 0.884277 0.834483 0.284465
O O1 0.286575 0.150514 0.148839
O O2 0.352539 0.153237 0.036509
O O3 0.266337 0.000000 0.014829
O O4 0.250000 0.250000 0.000000
O O5 0.772708 0.500000 0.274281
O O6 0.785412 0.240498 0.767778
O O7 0.673820 0.254836 0.712801
O O8 0.385391 0.181012 0.738000
O O9 0.324054 0.000000 0.800020
O O10 0.375101 0.198492 0.891739
O O11 0.500000 0.188958 0.500000
O O12 0.529665 0.175887 0.349036
O O13 0.431184 0.264825 0.356416
O O14 0.460201 0.000000 0.391009
O O15 0.555299 0.736833 0.952909
O O16 0.573296 0.000000 0.015185
O O17 0.463659 0.500000 0.131733
O O18 0.511463 0.262206 0.194042
O O19 0.408312 0.313766 0.196540
O O20 0.963837 0.500000 0.768760
O O21 0.878982 0.000000 0.294605
#
# Coordination Sequence:
#
# PCOD9177554 Si02
#       8
#     8   8   8   8   8   8   8   8
#     4  10  19  29  44  66  94 131 175 222 259 290
#     4  11  21  32  49  73 102 137 174 215 258 295
#     4  10  21  35  50  70  99 140 181 212 248 300
#     4   9  18  35  61  88 108 127 156 200 254 309
#     4  10  19  31  46  66  96 135 179 219 256 297
#     4  10  20  32  49  72  99 133 174 221 263 294
#     4   9  19  36  55  74 101 135 168 203 251 311
#     4  10  20  33  52  79 108 135 166 208 255 302
#
# _framework density 17.291989000000001
#
# number of rings (size 3 to 8) (size 9 to 14) (size 15 to 20)
#    0.000    2.125    2.500    1.125    0.000    3.750 
#    0.000    2.500    0.000    0.750    0.000    0.000 
#    0.000    0.000    0.000    0.000    0.000    0.000 
#
# Total GULP energy -178261.233341 kJ/mol
# GULP energy per Si atom -5570.663542 kJ/mol
# Density = 1.725263 g / cm^3
# Si number density = 17.291989 Si / 1000 Ang^3
#
#
#
# Elastic Constant Matrix: (Units=GPa)
#
#
# Indices 1 2 3 4 5 6 
#
# 1 96.8839 61.5596 45.0967 0.0000 -3.9498 0.0000
# 2 61.5596 113.4579 54.6000 0.0000 7.8310 0.0000
# 3 45.0967 54.6000 65.2466 0.0000 6.9184 0.0000
# 4 0.0000 0.0000 0.0000 18.0640 0.0000 6.3363
# 5 -3.9498 7.8310 6.9184 0.0000 10.9017 0.0000
# 6 0.0000 0.0000 0.0000 6.3363 0.0000 24.6831
#
#
#
# Elastic Compliance Matrix: (Units=1/GPa)
#
#
# Indices 1 2 3 4 5 6 
#
# 1 0.020616 -0.007828 -0.009743 0.000000 0.019275 0.000000
# 2 -0.007828 0.017818 -0.008408 0.000000 -0.010299 0.000000
# 3 -0.009743 -0.008408 0.030911 0.000000 -0.017106 0.000000
# 4 0.000000 0.000000 0.000000 0.060837 0.000000 -0.015617
# 5 0.019275 -0.010299 -0.017106 0.000000 0.116967 0.000000
# 6 0.000000 0.000000 0.000000 -0.015617 0.000000 0.044523
#
#
# Mechanical properties :
#
#
# Convention : Reuss Voigt Hill
#
# Bulk Modulus (GPa) = 57.51317 66.45570 61.98444
# Shear Modulus (GPa) = 14.30923 18.35189 16.33056
#
# Velocity S-wave (km/s) = 2.87976 3.26129 3.07644
# Velocity P-wave (km/s) = 6.66255 7.25922 6.96727
#
# Compressibility (1/GPa) = 0.01738732
#
# Stress axis : x y z
#
# Youngs Moduli (GPa) = 48.50576 56.12219 32.35137
#
# Poissons Ratio (x) = 0.43931 0.31519
# Poissons Ratio (y) = 0.37969 0.27202
# Poissons Ratio (z) = 0.47258 0.47190
#
# Static dielectric constant tensor:
#      x y z
#    x 1.597610 0.000000 -0.015400 
#    y 0.000000 1.608290 0.000000 
#    z -0.015400 0.000000 1.568230 
# 
# From -- ./inp_files/287706.got.cif
#   From: 2010.05.17/outbox.cif.g08.bks.cpg/sg12_144_cif.got.tgz:287706.got - 2010.06.03 13:09:07.
