data_PCOD9177274
_publ_section_title
;
Structure prediction by ZEFSAII (Michael W. Deem and Ramdas Pophale) SiO2 
 PCOD9177274
Probable space group: C 2/M
;
_chemical_formula_sum "Si O2"
_cell_formula_units_Z 56
_cell_length_a 28.135180
_cell_length_b 7.454029
_cell_length_c 16.895893
_cell_angle_alpha 90.000000
_cell_angle_beta 114.296574
_cell_angle_gamma 90.000000
_cell_volume 3229.566537
_symmetry_space_group_name_H-M "C 2/M"
_symmetry_group_IT_number 12
_symmetry_cell_setting 'monoclinic'
loop_
_space_group_symop_operation_xyz
x,y,z
-x,y,-z
-x,-y,-z
x,-y,z
1/2+x,1/2+y,z
1/2-x,1/2+y,-z
1/2-x,1/2-y,-z
1/2+x,1/2-y,z
loop_
_atom_site_type_symbol
_atom_site_label
_atom_site_fract_x
_atom_site_fract_y
_atom_site_fract_z
Si Si1 0.397523 0.779530 0.810117
Si Si2 0.417736 0.783928 0.464026
Si Si3 0.992020 0.280284 0.189714
Si Si4 0.301512 0.793821 0.643606
Si Si5 0.311325 0.290054 0.473501
Si Si6 0.057666 0.290999 0.999858
Si Si7 0.015295 0.718860 0.636141
O O1 0.449541 0.728370 0.797109
O O2 0.345489 0.715764 0.730867
O O3 0.404965 0.717700 0.905967
O O4 0.397603 0.000000 0.810659
O O5 0.360270 0.728837 0.449835
O O6 0.439362 0.724496 0.393496
O O7 0.460592 0.725845 0.558460
O O8 0.418610 0.000000 0.464430
O O9 0.991071 0.500000 0.187602
O O10 0.980321 0.221497 0.270618
O O11 0.951796 0.216770 0.094342
O O12 0.321957 0.791885 0.567094
O O13 0.243123 0.715717 0.598417
O O14 0.295300 0.000000 0.665064
O O15 0.302483 0.500000 0.483163
O O16 0.071949 0.500000 0.999910
O O17 0.000000 0.286090 0.000000
O O18 0.015278 0.500000 0.637014
#
# Coordination Sequence:
#
# PCOD9177274 Si02
#       7
#     8   8   8   8   8   8   8
#     4   8  12  19  33  52  74  99 121 142 177 223
#     4   9  16  27  41  55  74 100 128 155 183 218
#     4   8  11  16  29  51  78  99 115 144 184 219
#     4   9  17  28  41  55  73 100 129 152 179 220
#     4  10  19  28  38  55  77  98 124 157 188 217
#     4   7  10  15  25  47  77  99 112 137 182 224
#     4   8  14  23  37  56  74  98 130 154 178 220
#
# _framework density 17.339787999999999
#
# number of rings (size 3 to 8) (size 9 to 14) (size 15 to 20)
#    0.000    3.571    0.000    3.857    0.000    2.857 
#    0.000    1.429    0.000    0.000    0.000    1.000 
#    0.000   15.429    0.000    0.000    0.000    0.000 
#
# Total GULP energy -155899.052166 kJ/mol
# GULP energy per Si atom -5567.823292 kJ/mol
# Density = 1.730032 g / cm^3
# Si number density = 17.339788 Si / 1000 Ang^3
#
#
#
# Elastic Constant Matrix: (Units=GPa)
#
#
# Indices 1 2 3 4 5 6 
#
# 1 101.3105 0.6527 76.7126 0.0000 -4.3553 0.0000
# 2 0.6527 50.2769 6.2407 0.0000 1.4215 0.0000
# 3 76.7126 6.2407 188.1732 0.0000 -4.0079 0.0000
# 4 0.0000 0.0000 0.0000 -3.1973 0.0000 0.9240
# 5 -4.3553 1.4215 -4.0079 0.0000 27.3719 0.0000
# 6 0.0000 0.0000 0.0000 0.9240 0.0000 6.9062
#
#
#
# Elastic Compliance Matrix: (Units=1/GPa)
#
#
# Indices 1 2 3 4 5 6 
#
# 1 0.014346 0.000498 -0.005835 0.000000 0.001402 0.000000
# 2 0.000498 0.020025 -0.000891 0.000000 -0.001091 0.000000
# 3 -0.005835 -0.000891 0.007728 0.000000 0.000249 0.000000
# 4 0.000000 0.000000 0.000000 -0.301122 0.000000 0.040290
# 5 0.001402 -0.001091 0.000249 0.000000 0.036850 0.000000
# 6 0.000000 0.000000 0.000000 0.040290 0.000000 0.139407
#
#
# Mechanical properties :
#
#
# Convention : Reuss Voigt Hill
#
# Bulk Modulus (GPa) = 33.73333 56.33027 45.03180
# Shear Modulus (GPa) = -82.73962 23.29314 -29.72324
#
# Velocity S-wave (km/s) = -6.91522 3.66913 -4.14474
# Velocity P-wave (km/s) = 6.65310 7.10680 1.76676
#
# Compressibility (1/GPa) = 0.02964427
#
# Stress axis : x y z
#
# Youngs Moduli (GPa) = 69.70537 49.93811 129.40116
#
# Poissons Ratio (x) = -0.02489 0.75507
# Poissons Ratio (y) = -0.03474 0.11524
# Poissons Ratio (z) = 0.40674 0.04447
#
# Static dielectric constant tensor:
#      x y z
#    x 1.560920 0.000000 0.005970 
#    y 0.000000 1.677610 0.000000 
#    z 0.005970 0.000000 1.620110 
# 
# From -- ./inp_files/291666.got.cif
#   From: 2010.05.17/outbox.cif.g08.bks.cpg/sg12_146_cif.got.tgz:291666.got - 2010.06.03 13:09:07.
