data_PCOD9177230
_publ_section_title
;
Structure prediction by ZEFSAII (Michael W. Deem and Ramdas Pophale) SiO2 
 PCOD9177230
Probable space group: C 2/M
;
_chemical_formula_sum "Si O2"
_cell_formula_units_Z 42
_cell_length_a 12.981262
_cell_length_b 16.067242
_cell_length_c 7.666754
_cell_angle_alpha 90.000000
_cell_angle_beta 102.024065
_cell_angle_gamma 90.000000
_cell_volume 1563.995000
_symmetry_space_group_name_H-M "C 2/M"
_symmetry_group_IT_number 12
_symmetry_cell_setting 'monoclinic'
loop_
_space_group_symop_operation_xyz
x,y,z
-x,y,-z
-x,-y,-z
x,-y,z
1/2+x,1/2+y,z
1/2-x,1/2+y,-z
1/2-x,1/2-y,-z
1/2+x,1/2-y,z
loop_
_atom_site_type_symbol
_atom_site_label
_atom_site_fract_x
_atom_site_fract_y
_atom_site_fract_z
Si Si1 0.201685 0.400934 0.792286
Si Si2 0.621200 0.903198 0.121371
Si Si3 0.497979 0.196893 0.309751
Si Si4 0.073624 0.134858 0.790772
Si Si5 0.152409 0.903192 0.456810
Si Si6 0.000000 0.000000 0.000000
O O1 0.212669 0.500000 0.799396
O O2 0.083692 0.377601 0.692756
O O3 0.276637 0.363672 0.670487
O O4 0.198790 0.374099 0.994437
O O5 0.605711 0.840431 0.275449
O O6 0.641877 0.000000 0.172790
O O7 0.500000 0.902040 0.000000
O O8 0.500000 0.238583 0.500000
O O9 0.448793 0.269444 0.173253
O O10 0.152959 0.128797 0.655128
O O11 0.964503 0.098966 0.667209
O O12 0.081700 0.073260 0.956479
O O13 0.181501 0.000000 0.480898
#
# Coordination Sequence:
#
# PCOD9177230 Si02
#       6
#     8   8   8   8   8   2
#     4   9  20  36  62  85 116 160 193 239 290 347
#     4   8  16  33  53  79 112 154 193 228 284 343
#     4  11  21  35  58  89 119 156 197 239 289 345
#     4  11  22  38  60  85 113 152 196 246 292 350
#     4  10  18  41  62  79 115 158 196 231 305 353
#     4  12  24  38  64  88 106 150 200 248 286 346
#
# _framework density 26.854305
#
# number of rings (size 3 to 8) (size 9 to 14) (size 15 to 20)
#    0.000    2.095    3.810    2.286    4.000    2.286 
#    0.000    2.857    0.000    0.000    0.000    0.000 
#    0.000    0.000    0.000    0.000    0.000    0.000 
#
# Total GULP energy -117109.464571 kJ/mol
# GULP energy per Si atom -5576.641170 kJ/mol
# Density = 2.679318 g / cm^3
# Si number density = 26.854305 Si / 1000 Ang^3
#
#
#
# Elastic Constant Matrix: (Units=GPa)
#
#
# Indices 1 2 3 4 5 6 
#
# 1 85.0904 5.0660 50.1555 0.0000 -37.7091 0.0000
# 2 5.0660 109.1195 66.2046 0.0000 -29.0825 0.0000
# 3 50.1555 66.2046 163.9787 0.0000 -57.3226 0.0000
# 4 0.0000 0.0000 0.0000 52.6083 0.0000 -48.8373
# 5 -37.7091 -29.0825 -57.3226 0.0000 71.4041 0.0000
# 6 0.0000 0.0000 0.0000 -48.8373 0.0000 76.2835
#
#
#
# Elastic Compliance Matrix: (Units=1/GPa)
#
#
# Indices 1 2 3 4 5 6 
#
# 1 0.017221 0.003692 -0.004244 0.000000 0.007191 0.000000
# 2 0.003692 0.013031 -0.005357 0.000000 0.002957 0.000000
# 3 -0.004244 -0.005357 0.011139 0.000000 0.004519 0.000000
# 4 0.000000 0.000000 0.000000 0.046855 0.000000 0.029997
# 5 0.007191 0.002957 0.004519 0.000000 0.022635 0.000000
# 6 0.000000 0.000000 0.000000 0.029997 0.000000 0.032313
#
#
# Mechanical properties :
#
#
# Convention : Reuss Voigt Hill
#
# Bulk Modulus (GPa) = 33.81430 66.78231 50.29830
# Shear Modulus (GPa) = 30.32700 55.84335 43.08517
#
# Velocity S-wave (km/s) = 3.36418 4.56509 4.00985
# Velocity P-wave (km/s) = 5.26397 7.26011 6.34108
#
# Compressibility (1/GPa) = 0.02957329
#
# Stress axis : x y z
#
# Youngs Moduli (GPa) = 58.06907 76.74042 89.77500
#
# Poissons Ratio (x) = -0.28333 0.38101
# Poissons Ratio (y) = -0.21439 0.48090
# Poissons Ratio (z) = 0.24645 0.41108
#
# Static dielectric constant tensor:
#      x y z
#    x 2.228860 0.000000 0.080160 
#    y 0.000000 1.995830 0.000000 
#    z 0.080160 0.000000 2.291870 
# 
# From -- ./inp_files/72923.got.cif
#   From: 2010.05.17/outbox.cif.g08.bks.cpg/sg12_37_cif.got.tgz:72923.got - 2010.06.03 13:09:07.
