data_PCOD9177602
_publ_section_title
;
Structure prediction by ZEFSAII (Michael W. Deem and Ramdas Pophale) SiO2 
 PCOD9177602
Probable space group: C 2/M
;
_chemical_formula_sum "Si O2"
_cell_formula_units_Z 64
_cell_length_a 11.531003
_cell_length_b 21.688943
_cell_length_c 15.817461
_cell_angle_alpha 90.000000
_cell_angle_beta 104.806654
_cell_angle_gamma 90.000000
_cell_volume 3824.512316
_symmetry_space_group_name_H-M "C 2/M"
_symmetry_group_IT_number 12
_symmetry_cell_setting 'monoclinic'
loop_
_space_group_symop_operation_xyz
x,y,z
-x,y,-z
-x,-y,-z
x,-y,z
1/2+x,1/2+y,z
1/2-x,1/2+y,-z
1/2-x,1/2-y,-z
1/2+x,1/2-y,z
loop_
_atom_site_type_symbol
_atom_site_label
_atom_site_fract_x
_atom_site_fract_y
_atom_site_fract_z
Si Si1 0.123482 0.629709 0.374731
Si Si2 0.682436 0.069958 0.560190
Si Si3 0.615660 0.075040 0.912962
Si Si4 0.312335 0.572924 0.294345
Si Si5 0.948013 0.103876 0.583677
Si Si6 0.387891 0.926193 0.270774
Si Si7 0.894045 0.753886 0.550906
Si Si8 0.661748 0.925409 0.104383
O O1 0.125279 0.606611 0.471910
O O2 0.249730 0.613694 0.355518
O O3 0.093135 0.701482 0.375406
O O4 0.027480 0.590999 0.303951
O O5 0.823640 0.069496 0.571093
O O6 0.662999 0.097793 0.649768
O O7 0.635962 0.000000 0.549933
O O8 0.659099 0.096415 0.828766
O O9 0.474811 0.091599 0.896545
O O10 0.619961 0.000000 0.912876
O O11 0.681088 0.095675 0.011107
O O12 0.285946 0.500000 0.303354
O O13 0.453221 0.583424 0.330413
O O14 0.255475 0.592503 0.194155
O O15 0.919139 0.176525 0.584232
O O16 0.000000 0.091314 0.500000
O O17 0.372677 0.000000 0.268958
O O18 0.750000 0.750000 0.500000
O O19 0.000000 0.742173 0.500000
O O20 0.664048 0.000000 0.103124
#
# Coordination Sequence:
#
# PCOD9177602 Si02
#       8
#     8   8   8   8   8   8   8   8
#     4  12  20  31  50  73 101 136 165 206 258 306
#     4  11  21  31  45  69 102 136 165 197 251 312
#     4   8  13  25  44  68 101 131 158 199 254 313
#     4  11  20  32  52  80 110 133 167 215 264 318
#     4  11  22  36  50  68  95 142 181 214 250 291
#     4  10  19  29  44  72 104 129 159 200 254 316
#     4  11  22  39  54  69  99 142 193 227 250 293
#     4   8  14  25  45  71 100 131 158 200 257 308
#
# _framework density 16.734159999999999
#
# number of rings (size 3 to 8) (size 9 to 14) (size 15 to 20)
#    0.000    1.750    3.750    4.125    0.000    1.500 
#    0.000    0.000    0.000    0.750    0.000    5.250 
#    3.750    0.000    0.000    0.000    0.000    0.000 
#
# Total GULP energy -178224.405686 kJ/mol
# GULP energy per Si atom -5569.512678 kJ/mol
# Density = 1.669607 g / cm^3
# Si number density = 16.734160 Si / 1000 Ang^3
#
#
#
# Elastic Constant Matrix: (Units=GPa)
#
#
# Indices 1 2 3 4 5 6 
#
# 1 52.7729 1.6892 20.8250 0.0000 3.3221 0.0000
# 2 1.6892 33.5313 13.1595 0.0000 -3.5851 0.0000
# 3 20.8250 13.1595 130.3885 0.0000 -3.9221 0.0000
# 4 0.0000 0.0000 0.0000 0.0627 0.0000 1.4278
# 5 3.3221 -3.5851 -3.9221 0.0000 23.6188 0.0000
# 6 0.0000 0.0000 0.0000 1.4278 0.0000 20.8691
#
#
#
# Elastic Compliance Matrix: (Units=1/GPa)
#
#
# Indices 1 2 3 4 5 6 
#
# 1 0.020499 -0.000080 -0.003370 0.000000 -0.003455 0.000000
# 2 -0.000080 0.031476 -0.003035 0.000000 0.004285 0.000000
# 3 -0.003370 -0.003035 0.008557 0.000000 0.001434 0.000000
# 4 0.000000 0.000000 0.000000-28.573526 0.000000 1.954927
# 5 -0.003455 0.004285 0.001434 0.000000 0.043714 0.000000
# 6 0.000000 0.000000 0.000000 1.954927 0.000000 -0.085833
#
#
# Mechanical properties :
#
#
# Convention : Reuss Voigt Hill
#
# Bulk Modulus (GPa) = 21.02470 32.00445 26.51458
# Shear Modulus (GPa) = -0.17528 20.97807 10.40140
#
# Velocity S-wave (km/s) = -0.32399 3.54447 2.49583
# Velocity P-wave (km/s) = 3.52863 5.99315 4.91778
#
# Compressibility (1/GPa) = 0.04756309
#
# Stress axis : x y z
#
# Youngs Moduli (GPa) = 48.78292 31.77007 116.86237
#
# Poissons Ratio (x) = 0.00253 0.39381
# Poissons Ratio (y) = 0.00388 0.35469
# Poissons Ratio (z) = 0.16439 0.09643
#
# Static dielectric constant tensor:
#      x y z
#    x 1.599820 0.000000 -0.017050 
#    y 0.000000 1.559220 0.000000 
#    z -0.017050 0.000000 1.600700 
# 
# From -- ./inp_files/208419.got.cif
#   From: 2010.05.17/outbox.cif.g08.bks.cpg/sg12_105_cif.got.tgz:208419.got - 2010.06.03 13:09:07.
