data_PCOD9177477
_publ_section_title
;
Structure prediction by ZEFSAII (Michael W. Deem and Ramdas Pophale) SiO2 
 PCOD9177477
Probable space group: C 2/M
;
_chemical_formula_sum "Si O2"
_cell_formula_units_Z 64
_cell_length_a 25.638866
_cell_length_b 7.395788
_cell_length_c 23.965093
_cell_angle_alpha 90.000000
_cell_angle_beta 45.005751
_cell_angle_gamma 90.000000
_cell_volume 3213.593753
_symmetry_space_group_name_H-M "C 2/M"
_symmetry_group_IT_number 12
_symmetry_cell_setting 'monoclinic'
loop_
_space_group_symop_operation_xyz
x,y,z
-x,y,-z
-x,-y,-z
x,-y,z
1/2+x,1/2+y,z
1/2-x,1/2+y,-z
1/2-x,1/2-y,-z
1/2+x,1/2-y,z
loop_
_atom_site_type_symbol
_atom_site_label
_atom_site_fract_x
_atom_site_fract_y
_atom_site_fract_z
Si Si1 0.095785 0.218774 0.689166
Si Si2 0.194485 0.778801 0.163815
Si Si3 0.918783 0.720026 0.047304
Si Si4 0.254957 0.786868 0.355996
Si Si5 0.658410 0.217985 0.008042
Si Si6 0.228019 0.279132 0.781419
Si Si7 0.067791 0.209229 0.185983
Si Si8 0.675236 0.284820 0.522082
O O1 0.163075 0.273175 0.678835
O O2 0.113554 0.280306 0.612117
O O3 0.013451 0.283062 0.766194
O O4 0.098638 0.000000 0.688267
O O5 0.219186 0.724220 0.207224
O O6 0.116012 0.713959 0.200427
O O7 0.194394 0.000000 0.163471
O O8 0.259362 0.723191 0.071566
O O9 0.919867 0.500000 0.047374
O O10 0.854740 0.775609 0.138408
O O11 0.892609 0.772370 0.005525
O O12 0.000000 0.784633 0.000000
O O13 0.253109 0.713976 0.294691
O O14 0.195493 0.711980 0.445522
O O15 0.239616 0.000000 0.363166
O O16 0.621825 0.284222 0.092136
O O17 0.659527 0.000000 0.010021
O O18 0.228721 0.500000 0.780288
O O19 0.054447 0.000000 0.210365
O O20 0.664265 0.500000 0.524819
O O21 0.750000 0.250000 0.500000
#
# Coordination Sequence:
#
# PCOD9177477 Si02
#       8
#     8   8   8   8   8   8   8   8
#     4   9  18  29  40  59  89 118 135 156 203 259
#     4   8  15  29  44  60  82 109 142 173 206 245
#     4   8  14  23  36  57  84 107 125 158 210 251
#     4   9  16  26  46  69  83 101 135 178 208 235
#     4   9  17  28  44  63  80 104 141 181 210 234
#     4   8  14  24  40  62  82 102 134 173 207 239
#     4  10  19  29  43  60  83 115 143 168 201 247
#     4   8  14  26  41  59  84 109 133 162 201 245
#
# _framework density 19.915399000000001
#
# number of rings (size 3 to 8) (size 9 to 14) (size 15 to 20)
#    0.000    3.375    0.000    1.875    1.750    0.500 
#    0.000    0.000    0.000    4.875    0.000    5.250 
#    0.000    0.000    0.000   19.500    0.000   14.000 
#
# Total GULP energy -178270.002532 kJ/mol
# GULP energy per Si atom -5570.937579 kJ/mol
# Density = 1.987007 g / cm^3
# Si number density = 19.915399 Si / 1000 Ang^3
#
#
#
# Elastic Constant Matrix: (Units=GPa)
#
#
# Indices 1 2 3 4 5 6 
#
# 1 44.0904 -6.4673 36.9422 0.0039 9.3909 -0.0023
# 2 -6.4673 65.8557 -4.1765 0.0011 -0.6691 0.0121
# 3 36.9422 -4.1765 83.1613 0.0033 31.1460 -0.0012
# 4 0.0039 0.0011 0.0033 4.2772 -0.0051 -0.6483
# 5 9.3909 -0.6691 31.1460 -0.0051 28.8737 0.0088
# 6 -0.0023 0.0121 -0.0012 -0.6483 0.0088 -0.2678
#
#
#
# Elastic Compliance Matrix: (Units=1/GPa)
#
#
# Indices 1 2 3 4 5 6 
#
# 1 0.038111 0.002545 -0.020439 0.000015 0.009711 0.000152
# 2 0.002545 0.015414 -0.000302 0.000070 -0.000145 0.000500
# 3 -0.020439 -0.000302 0.031212 -0.000123 -0.027027 -0.000560
# 4 0.000015 0.000070 -0.000123 0.171034 0.000285 -0.414076
# 5 0.009711 -0.000145 -0.027027 0.000285 0.060625 0.001322
# 6 0.000152 0.000500 -0.000560 -0.414076 0.001322 -2.731866
#
#
# Mechanical properties :
#
#
# Convention : Reuss Voigt Hill
#
# Bulk Modulus (GPa) = 20.68526 27.30048 23.99287
# Shear Modulus (GPa) = -2.11599 17.69723 7.79062
#
# Velocity S-wave (km/s) = -1.03189 2.98421 1.97999
# Velocity P-wave (km/s) = 2.99823 5.06083 4.15941
#
# Compressibility (1/GPa) = 0.04834360
#
# Stress axis : x y z
#
# Youngs Moduli (GPa) = 26.23919 64.87643 32.03946
#
# Poissons Ratio (x) = -0.16511 0.65486
# Poissons Ratio (y) = -0.06678 0.00969
# Poissons Ratio (z) = 0.53631 0.01961
#
# Static dielectric constant tensor:
#      x y z
#    x 1.688970 -0.000020 0.010960 
#    y -0.000020 1.778670 0.000010 
#    z 0.010960 0.000010 1.722540 
# 
# From -- ./inp_files/324953.got.cif
#   From: 2010.05.17/outbox.cif.g08.bks.cpg/sg12_163_cif.got.tgz:324953.got - 2010.06.03 13:09:07.
