data_PCOD9177109
_publ_section_title
;
Structure prediction by ZEFSAII (Michael W. Deem and Ramdas Pophale) SiO2 
 PCOD9177109
Probable space group: C 2/M
;
_chemical_formula_sum "Si O2"
_cell_formula_units_Z 56
_cell_length_a 9.667158
_cell_length_b 23.163734
_cell_length_c 15.839801
_cell_angle_alpha 90.000000
_cell_angle_beta 124.638843
_cell_angle_gamma 90.000000
_cell_volume 2918.271139
_symmetry_space_group_name_H-M "C 2/M"
_symmetry_group_IT_number 12
_symmetry_cell_setting 'monoclinic'
loop_
_space_group_symop_operation_xyz
x,y,z
-x,y,-z
-x,-y,-z
x,-y,z
1/2+x,1/2+y,z
1/2-x,1/2+y,-z
1/2-x,1/2-y,-z
1/2+x,1/2-y,z
loop_
_atom_site_type_symbol
_atom_site_label
_atom_site_fract_x
_atom_site_fract_y
_atom_site_fract_z
Si Si1 0.228131 0.321429 0.247644
Si Si2 0.312947 0.748434 0.926908
Si Si3 0.576194 0.385149 0.338430
Si Si4 0.307170 0.436298 0.786841
Si Si5 0.150429 0.292100 0.613105
Si Si6 0.364811 0.500000 0.527833
Si Si7 0.910720 0.654220 0.232383
Si Si8 0.012713 0.500000 0.604235
O O1 0.174961 0.302668 0.133839
O O2 0.401510 0.356295 0.303794
O O3 0.256065 0.263126 0.313377
O O4 0.083228 0.357481 0.244495
O O5 0.168970 0.711329 0.833789
O O6 0.500000 0.723288 0.000000
O O7 0.250000 0.750000 0.000000
O O8 0.572570 0.406810 0.239506
O O9 0.719044 0.335227 0.388298
O O10 0.615641 0.441972 0.408262
O O11 0.365199 0.500000 0.833559
O O12 0.236807 0.392997 0.831362
O O13 0.130968 0.448224 0.675352
O O14 0.071940 0.328466 0.663566
O O15 0.000000 0.273507 0.500000
O O16 0.500000 0.500000 0.500000
O O17 0.174680 0.500000 0.426300
O O18 0.000000 0.500000 0.500000
#
# Coordination Sequence:
#
# PCOD9177109 Si02
#       8
#     8   8   8   8   8   4   8   4
#     4  11  24  40  57  95 129 156 204 260 321 379
#     4  11  22  41  68  95 123 154 202 260 318 384
#     4  11  23  38  58  81 126 161 209 263 302 362
#     4   9  20  36  59  79 112 164 205 248 302 356
#     4  10  23  38  58  80 122 176 209 243 307 378
#     4  12  26  36  56  94 118 160 230 268 310 345
#     4  10  22  37  60  91 119 158 204 254 310 369
#     4  10  18  38  58  76 116 166 222 261 286 359
#
# _framework density 19.189444000000002
#
# number of rings (size 3 to 8) (size 9 to 14) (size 15 to 20)
#    0.429    1.143    3.571    1.714   10.000    2.857 
#    0.000    0.000    0.000    0.429    1.857    1.500 
#    0.000    0.000    0.000    0.000    0.000    0.000 
#
# Total GULP energy -155940.866255 kJ/mol
# GULP energy per Si atom -5569.316652 kJ/mol
# Density = 1.914577 g / cm^3
# Si number density = 19.189444 Si / 1000 Ang^3
#
#
#
# Elastic Constant Matrix: (Units=GPa)
#
#
# Indices 1 2 3 4 5 6 
#
# 1 151.4189 19.8605 7.9664 0.0000 -1.2213 0.0000
# 2 19.8605 68.0178 -7.0427 0.0000 -8.5830 0.0000
# 3 7.9664 -7.0427 45.5411 0.0000 -2.1882 0.0000
# 4 0.0000 0.0000 0.0000 -8.2945 0.0000 4.9331
# 5 -1.2213 -8.5830 -2.1882 0.0000 22.8231 0.0000
# 6 0.0000 0.0000 0.0000 4.9331 0.0000 27.8308
#
#
#
# Elastic Compliance Matrix: (Units=1/GPa)
#
#
# Indices 1 2 3 4 5 6 
#
# 1 0.006983 -0.002286 -0.001606 0.000000 -0.000640 0.000000
# 2 -0.002286 0.016515 0.003261 0.000000 0.006401 0.000000
# 3 -0.001606 0.003261 0.022904 0.000000 0.003336 0.000000
# 4 0.000000 0.000000 0.000000 -0.109065 0.000000 0.019332
# 5 -0.000640 0.006401 0.003336 0.000000 0.046508 0.000000
# 6 0.000000 0.000000 0.000000 0.019332 0.000000 0.032505
#
#
# Mechanical properties :
#
#
# Convention : Reuss Voigt Hill
#
# Bulk Modulus (GPa) = 22.15281 34.06067 28.10674
# Shear Modulus (GPa) = 153.09945 24.75147 88.92546
#
# Velocity S-wave (km/s) = 8.94183 3.59534 6.81479
# Velocity P-wave (km/s) = 10.87096 5.91807 8.75218
#
# Compressibility (1/GPa) = 0.04514100
#
# Stress axis : x y z
#
# Youngs Moduli (GPa) = 143.19730 60.55106 43.66096
#
# Poissons Ratio (x) = 0.13843 0.07011
# Poissons Ratio (y) = 0.32736 -0.14240
# Poissons Ratio (z) = 0.22995 -0.19748
#
# Static dielectric constant tensor:
#      x y z
#    x 1.892520 0.000000 -0.122890 
#    y 0.000000 1.668210 0.000000 
#    z -0.122890 0.000000 1.726920 
# 
# From -- ./inp_files/199011.got.cif
#   From: 2010.05.17/outbox.cif.g08.bks.cpg/sg12_100_cif.got.tgz:199011.got - 2010.06.03 13:09:07.
