data_PCOD9177305
_publ_section_title
;
Structure prediction by ZEFSAII (Michael W. Deem and Ramdas Pophale) SiO2 
 PCOD9177305
Probable space group: C 2/M
;
_chemical_formula_sum "Si O2"
_cell_formula_units_Z 48
_cell_length_a 5.064278
_cell_length_b 24.627718
_cell_length_c 24.398613
_cell_angle_alpha 90.000000
_cell_angle_beta 79.261583
_cell_angle_gamma 90.000000
_cell_volume 2989.744950
_symmetry_space_group_name_H-M "C 2/M"
_symmetry_group_IT_number 12
_symmetry_cell_setting 'monoclinic'
loop_
_space_group_symop_operation_xyz
x,y,z
-x,y,-z
-x,-y,-z
x,-y,z
1/2+x,1/2+y,z
1/2-x,1/2+y,-z
1/2-x,1/2-y,-z
1/2+x,1/2-y,z
loop_
_atom_site_type_symbol
_atom_site_label
_atom_site_fract_x
_atom_site_fract_y
_atom_site_fract_z
Si Si1 0.131404 0.711477 0.319257
Si Si2 0.298167 0.000000 0.771187
Si Si3 0.470409 0.786811 0.064646
Si Si4 0.378101 0.882678 0.151430
Si Si5 0.807788 0.117908 0.230008
Si Si6 0.268115 0.000000 0.153993
Si Si7 0.617601 0.787003 0.441576
O O1 0.353685 0.759335 0.313998
O O2 0.219099 0.665783 0.273363
O O3 0.112342 0.687147 0.381684
O O4 0.256983 0.057754 0.743542
O O5 0.580956 0.000000 0.792357
O O6 0.052028 0.000000 0.824844
O O7 0.248878 0.739273 0.073721
O O8 0.384602 0.835875 0.106477
O O9 0.500000 0.803872 0.000000
O O10 0.637014 0.879056 0.180427
O O11 0.357360 0.942759 0.125718
O O12 0.118563 0.877741 0.200967
O O13 0.500000 0.816347 0.500000
O O14 0.415010 0.735395 0.442187
#
# Coordination Sequence:
#
# PCOD9177305 Si02
#       7
#     8   4   8   8   8   4   8
#     4  10  19  28  40  64  93 113 138 178 216 253
#     4   8  16  30  44  60  84 116 146 168 202 254
#     4  10  21  35  49  66  89 117 147 174 204 254
#     4  10  19  32  49  66  87 114 143 176 216 254
#     4  10  19  30  46  66  89 115 142 175 214 256
#     4   8  16  30  47  66  84 106 141 180 210 246
#     4   8  14  25  39  54  78 113 144 169 204 249
#
# _framework density 16.054883
#
# number of rings (size 3 to 8) (size 9 to 14) (size 15 to 20)
#    0.000    2.667    0.000    2.000    0.000    4.000 
#    0.000    0.417    0.000    0.000    0.000   11.083 
#    0.000    0.000    0.000   38.500    0.000    0.000 
#
# Total GULP energy -133626.077009 kJ/mol
# GULP energy per Si atom -5567.753209 kJ/mol
# Density = 1.601834 g / cm^3
# Si number density = 16.054883 Si / 1000 Ang^3
#
#
#
# Elastic Constant Matrix: (Units=GPa)
#
#
# Indices 1 2 3 4 5 6 
#
# 1 62.2847 -14.5775 -6.6185 0.0000 -1.6794 0.0000
# 2 -14.5775 66.4243 45.0886 0.0000 -5.0140 0.0000
# 3 -6.6185 45.0886 50.4763 0.0000 -5.8475 0.0000
# 4 0.0000 0.0000 0.0000 -2.0895 0.0000 0.9248
# 5 -1.6794 -5.0140 -5.8475 0.0000 15.6491 0.0000
# 6 0.0000 0.0000 0.0000 0.9248 0.0000 12.0449
#
#
#
# Elastic Compliance Matrix: (Units=1/GPa)
#
#
# Indices 1 2 3 4 5 6 
#
# 1 0.017192 0.005675 -0.002499 0.000000 0.002730 0.000000
# 2 0.005675 0.040121 -0.035052 0.000000 0.000366 0.000000
# 3 -0.002499 -0.035052 0.051701 0.000000 0.007820 0.000000
# 4 0.000000 0.000000 0.000000 -0.462859 0.000000 0.035539
# 5 0.002730 0.000366 0.007820 0.000000 0.067234 0.000000
# 6 0.000000 0.000000 0.000000 0.035539 0.000000 0.080294
#
#
# Mechanical properties :
#
#
# Convention : Reuss Voigt Hill
#
# Bulk Modulus (GPa) = 22.09406 25.21895 23.65651
# Shear Modulus (GPa) = -39.22223 15.47375 -11.87424
#
# Velocity S-wave (km/s) = -4.94804 3.10789 -2.72251
# Velocity P-wave (km/s) = 4.34197 5.34983 2.20997
#
# Compressibility (1/GPa) = 0.04526104
#
# Stress axis : x y z
#
# Youngs Moduli (GPa) = 58.16780 24.92437 19.34216
#
# Poissons Ratio (x) = -0.14146 0.04834
# Poissons Ratio (y) = -0.33013 0.67799
# Poissons Ratio (z) = 0.14538 0.87366
#
# Static dielectric constant tensor:
#      x y z
#    x 1.546990 0.000000 -0.002530 
#    y 0.000000 1.538670 0.000000 
#    z -0.002530 0.000000 1.541700 
# 
# From -- ./inp_files/297769.got.cif
#   From: 2010.05.17/outbox.cif.g08.bks.cpg/sg12_149_cif.got.tgz:297769.got - 2010.06.03 13:09:07.
