data_PCOD9177089
_publ_section_title
;
Structure prediction by ZEFSAII (Michael W. Deem and Ramdas Pophale) SiO2 
 PCOD9177089
Probable space group: C 2/M
;
_chemical_formula_sum "Si O2"
_cell_formula_units_Z 44
_cell_length_a 13.290780
_cell_length_b 14.931542
_cell_length_c 10.993069
_cell_angle_alpha 90.000000
_cell_angle_beta 58.121237
_cell_angle_gamma 90.000000
_cell_volume 1852.539371
_symmetry_space_group_name_H-M "C 2/M"
_symmetry_group_IT_number 12
_symmetry_cell_setting 'monoclinic'
loop_
_space_group_symop_operation_xyz
x,y,z
-x,y,-z
-x,-y,-z
x,-y,z
1/2+x,1/2+y,z
1/2-x,1/2+y,-z
1/2-x,1/2-y,-z
1/2+x,1/2-y,z
loop_
_atom_site_type_symbol
_atom_site_label
_atom_site_fract_x
_atom_site_fract_y
_atom_site_fract_z
Si Si1 0.239449 0.314010 0.204202
Si Si2 0.200311 0.000000 0.415557
Si Si3 0.534831 0.321790 0.796550
Si Si4 0.857092 0.666331 0.976089
Si Si5 0.550477 0.500000 0.267672
Si Si6 0.665210 0.000000 0.848607
Si Si7 0.874351 0.799103 0.521875
O O1 0.364902 0.349940 0.171121
O O2 0.180182 0.369312 0.133621
O O3 0.168302 0.283889 0.368621
O O4 0.258520 0.221960 0.115404
O O5 0.204177 0.112525 0.419665
O O6 0.068848 0.000000 0.574637
O O7 0.347035 0.000000 0.285316
O O8 0.459388 0.239123 0.893588
O O9 0.458811 0.408816 0.804281
O O10 0.600608 0.283135 0.635303
O O11 0.875688 0.583767 0.051516
O O12 0.678536 0.500000 0.262068
O O13 0.000000 0.824862 0.500000
#
# Coordination Sequence:
#
# PCOD9177089 Si02
#       7
#     8   4   8   8   4   4   8
#     4  11  23  39  61  91 129 166 210 259 318 384
#     4  10  18  37  66  95 119 161 219 263 321 359
#     4  12  24  38  65  98 128 166 212 263 318 380
#     4  11  22  43  62  89 129 169 210 255 321 382
#     4  10  19  37  60  97 123 156 212 264 319 357
#     4  10  20  39  68  87 123 174 205 263 309 371
#     4  12  19  38  64  93 127 165 210 265 316 372
#
# _framework density 23.751182
#
# number of rings (size 3 to 8) (size 9 to 14) (size 15 to 20)
#    0.545    0.364    5.455    4.091    0.000    0.727 
#    0.000    5.455    0.000    3.273    0.000    0.000 
#    0.000    0.000    0.000    0.000    0.000    0.000 
#
# Total GULP energy -122510.548484 kJ/mol
# GULP energy per Si atom -5568.661295 kJ/mol
# Density = 2.369712 g / cm^3
# Si number density = 23.751182 Si / 1000 Ang^3
#
#
#
# Elastic Constant Matrix: (Units=GPa)
#
#
# Indices 1 2 3 4 5 6 
#
# 1 70.0995 1.9462 26.8780 0.0000 10.1880 0.0000
# 2 1.9462 78.5866 38.1629 0.0000 -19.5535 0.0000
# 3 26.8780 38.1629 135.5138 0.0000 -0.4686 0.0000
# 4 0.0000 0.0000 0.0000 45.2088 0.0000 -2.0312
# 5 10.1880 -19.5535 -0.4686 0.0000 21.5880 0.0000
# 6 0.0000 0.0000 0.0000 -2.0312 0.0000 9.4560
#
#
#
# Elastic Compliance Matrix: (Units=1/GPa)
#
#
# Indices 1 2 3 4 5 6 
#
# 1 0.016776 -0.001208 -0.003018 0.000000 -0.009077 0.000000
# 2 -0.001208 0.019942 -0.005312 0.000000 0.018517 0.000000
# 3 -0.003018 -0.005312 0.009463 0.000000 -0.003182 0.000000
# 4 0.000000 0.000000 0.000000 0.022335 0.000000 0.004798
# 5 -0.009077 0.018517 -0.003182 0.000000 0.067309 0.000000
# 6 0.000000 0.000000 0.000000 0.004798 0.000000 0.106784
#
#
# Mechanical properties :
#
#
# Convention : Reuss Voigt Hill
#
# Bulk Modulus (GPa) = 36.89654 46.46379 41.68017
# Shear Modulus (GPa) = 18.46925 29.73140 24.10032
#
# Velocity S-wave (km/s) = 2.79160 3.54190 3.18889
# Velocity P-wave (km/s) = 5.09500 6.02760 5.58081
#
# Compressibility (1/GPa) = 0.02710281
#
# Stress axis : x y z
#
# Youngs Moduli (GPa) = 59.61074 50.14574 105.67420
#
# Poissons Ratio (x) = 0.06058 0.31898
# Poissons Ratio (y) = 0.07201 0.56138
# Poissons Ratio (z) = 0.17993 0.26639
#
# Static dielectric constant tensor:
#      x y z
#    x 2.130980 0.000000 -0.019530 
#    y 0.000000 1.896920 0.000000 
#    z -0.019530 0.000000 2.002180 
# 
# From -- ./inp_files/142669.got.cif
#   From: 2010.05.17/outbox.cif.g08.bks.cpg/sg12_72_cif.got.tgz:142669.got - 2010.06.03 13:09:07.
