data_PCOD9177004
_publ_section_title
;
Structure prediction by ZEFSAII (Michael W. Deem and Ramdas Pophale) SiO2 
 PCOD9177004
Probable space group: C 2/M
;
_chemical_formula_sum "Si O2"
_cell_formula_units_Z 60
_cell_length_a 16.650771
_cell_length_b 15.179938
_cell_length_c 12.643396
_cell_angle_alpha 90.000000
_cell_angle_beta 75.699678
_cell_angle_gamma 90.000000
_cell_volume 3096.693994
_symmetry_space_group_name_H-M "C 2/M"
_symmetry_group_IT_number 12
_symmetry_cell_setting 'monoclinic'
loop_
_space_group_symop_operation_xyz
x,y,z
-x,y,-z
-x,-y,-z
x,-y,z
1/2+x,1/2+y,z
1/2-x,1/2+y,-z
1/2-x,1/2-y,-z
1/2+x,1/2-y,z
loop_
_atom_site_type_symbol
_atom_site_label
_atom_site_fract_x
_atom_site_fract_y
_atom_site_fract_z
Si Si1 0.255002 0.903353 0.982554
Si Si2 0.645071 0.798585 0.877134
Si Si3 0.573152 0.897375 0.709956
Si Si4 0.548021 0.730671 0.271107
Si Si5 0.280467 0.179227 0.749465
Si Si6 0.674669 0.816757 0.492505
Si Si7 0.431705 0.650149 0.957307
Si Si8 0.000000 0.217231 0.500000
O O1 0.277724 0.882028 0.853648
O O2 0.285356 0.000000 0.999712
O O3 0.294117 0.836924 0.053592
O O4 0.156321 0.896322 0.024218
O O5 0.604124 0.872677 0.817679
O O6 0.695988 0.735112 0.781489
O O7 0.586229 0.736252 0.964513
O O8 0.500628 0.824885 0.712552
O O9 0.646120 0.877201 0.600281
O O10 0.548333 0.000000 0.709808
O O11 0.644319 0.753467 0.252777
O O12 0.535999 0.680645 0.166415
O O13 0.515944 0.674423 0.381325
O O14 0.295843 0.139726 0.628089
O O15 0.750000 0.750000 0.500000
O O16 0.586737 0.769961 0.490033
O O17 0.500000 0.598119 0.000000
#
# Coordination Sequence:
#
# PCOD9177004 Si02
#       8
#     8   8   8   8   8   8   8   4
#     4  11  23  35  52  83 114 140 182 237 278 323
#     4  11  19  36  56  81 109 143 189 228 266 334
#     4  11  23  35  54  88 119 139 178 235 284 330
#     4  10  18  37  53  78 111 144 180 220 274 332
#     4  10  19  36  60  78 104 152 195 220 270 340
#     4  10  19  36  59  80 111 153 191 226 278 332
#     4  11  20  35  59  75 103 147 188 224 266 336
#     4   8  20  30  53  86 103 132 196 232 252 322
#
# _framework density 19.375501
#
# number of rings (size 3 to 8) (size 9 to 14) (size 15 to 20)
#    0.000    1.600    5.333    1.200    0.000    1.333 
#    0.000   12.000    0.000    0.000    0.000    0.933 
#    0.000    0.000    0.000    0.000    0.000    0.000 
#
# Total GULP energy -167068.608279 kJ/mol
# GULP energy per Si atom -5568.953609 kJ/mol
# Density = 1.933140 g / cm^3
# Si number density = 19.375501 Si / 1000 Ang^3
#
#
#
# Elastic Constant Matrix: (Units=GPa)
#
#
# Indices 1 2 3 4 5 6 
#
# 1 73.8907 -2.9683 12.0666 0.0000 -1.3342 0.0000
# 2 -2.9683 34.8323 23.1621 0.0000 -5.3103 0.0000
# 3 12.0666 23.1621 155.9095 0.0000 -1.4728 0.0000
# 4 0.0000 0.0000 0.0000 7.4686 0.0000 7.2633
# 5 -1.3342 -5.3103 -1.4728 0.0000 31.4676 0.0000
# 6 0.0000 0.0000 0.0000 7.2633 0.0000 1.9034
#
#
#
# Elastic Compliance Matrix: (Units=1/GPa)
#
#
# Indices 1 2 3 4 5 6 
#
# 1 0.013869 0.002250 -0.001399 0.000000 0.000902 0.000000
# 2 0.002250 0.033080 -0.005037 0.000000 0.005442 0.000000
# 3 -0.001399 -0.005037 0.007265 0.000000 -0.000569 0.000000
# 4 0.000000 0.000000 0.000000 -0.049389 0.000000 0.188464
# 5 0.000902 0.005442 -0.000569 0.000000 0.032709 0.000000
# 6 0.000000 0.000000 0.000000 0.188464 0.000000 -0.193792
#
#
# Mechanical properties :
#
#
# Convention : Reuss Voigt Hill
#
# Bulk Modulus (GPa) = 21.81467 36.57260 29.19363
# Shear Modulus (GPa) = -37.70578 23.65938 -7.02320
#
# Velocity S-wave (km/s) = -4.41620 3.49821 -1.90595
# Velocity P-wave (km/s) = 3.83672 5.93577 3.20257
#
# Compressibility (1/GPa) = 0.04584071
#
# Stress axis : x y z
#
# Youngs Moduli (GPa) = 72.10510 30.22994 137.64248
#
# Poissons Ratio (x) = -0.06801 0.19257
# Poissons Ratio (y) = -0.16221 0.69332
# Poissons Ratio (z) = 0.10088 0.15227
#
# Static dielectric constant tensor:
#      x y z
#    x 1.715290 0.000000 0.009590 
#    y 0.000000 1.640010 0.000000 
#    z 0.009590 0.000000 1.724550 
# 
# From -- ./inp_files/156582.got.cif
#   From: 2010.05.17/outbox.cif.g08.bks.cpg/sg12_79_cif.got.tgz:156582.got - 2010.06.03 13:09:07.
