data_PCOD9177014
_publ_section_title
;
Structure prediction by ZEFSAII (Michael W. Deem and Ramdas Pophale) SiO2 
 PCOD9177014
Probable space group: C 2/M
;
_chemical_formula_sum "Si O2"
_cell_formula_units_Z 42
_cell_length_a 25.876113
_cell_length_b 12.173176
_cell_length_c 24.509041
_cell_angle_alpha 90.000000
_cell_angle_beta 163.725728
_cell_angle_gamma 90.000000
_cell_volume 2163.479106
_symmetry_space_group_name_H-M "C 2/M"
_symmetry_group_IT_number 12
_symmetry_cell_setting 'monoclinic'
loop_
_space_group_symop_operation_xyz
x,y,z
-x,y,-z
-x,-y,-z
x,-y,z
1/2+x,1/2+y,z
1/2-x,1/2+y,-z
1/2-x,1/2-y,-z
1/2+x,1/2-y,z
loop_
_atom_site_type_symbol
_atom_site_label
_atom_site_fract_x
_atom_site_fract_y
_atom_site_fract_z
Si Si1 0.029777 0.371624 0.254028
Si Si2 0.874448 0.763304 0.544533
Si Si3 0.729940 0.372410 0.857263
Si Si4 0.763259 0.183368 0.808596
Si Si5 0.356122 0.125479 0.424797
Si Si6 0.000000 0.000000 0.000000
O O1 0.043378 0.500000 0.282104
O O2 0.026845 0.299165 0.305498
O O3 0.209210 0.333741 0.401969
O O4 0.855513 0.356161 0.038050
O O5 0.802420 0.671853 0.428740
O O6 0.022604 0.837045 0.662814
O O7 0.739296 0.500000 0.851200
O O8 0.798455 0.291165 0.879241
O O9 0.578838 0.126933 0.646945
O O10 0.708229 0.203158 0.689577
O O11 0.925916 0.097021 0.967889
O O12 0.289008 0.000000 0.342822
#
# Coordination Sequence:
#
# PCOD9177014 Si02
#       6
#     8   8   8   8   8   2
#     4  10  21  38  57  85 114 148 190 236 282 338
#     4  10  21  36  61  83 112 149 192 232 287 338
#     4  10  22  40  59  81 119 154 189 232 277 344
#     4  10  21  34  56  83 112 146 187 230 292 331
#     4  10  18  37  55  81 112 148 184 239 288 338
#     4  12  20  34  58  84 120 138 188 250 276 338
#
# _framework density 19.413176
#
# number of rings (size 3 to 8) (size 9 to 14) (size 15 to 20)
#    0.000    1.905    1.905    2.286    2.667    0.000 
#    0.000    9.048    2.095    0.000    0.000    0.000 
#    0.000    0.000    0.000    0.000    0.000    0.000 
#
# Total GULP energy -116974.455257 kJ/mol
# GULP energy per Si atom -5570.212155 kJ/mol
# Density = 1.936899 g / cm^3
# Si number density = 19.413176 Si / 1000 Ang^3
#
#
#
# Elastic Constant Matrix: (Units=GPa)
#
#
# Indices 1 2 3 4 5 6 
#
# 1 64.1769 45.3991 8.1729 -0.0033 -5.5320 -0.0043
# 2 45.3991 95.9316 13.8718 0.0036 -7.2272 0.0004
# 3 8.1729 13.8718 20.3079 0.0093 3.0592 0.0015
# 4 -0.0033 0.0036 0.0093 29.8337 0.0013 -3.3055
# 5 -5.5320 -7.2272 3.0592 0.0013 29.0406 0.0010
# 6 -0.0043 0.0004 0.0015 -3.3055 0.0010 28.4270
#
#
#
# Elastic Compliance Matrix: (Units=1/GPa)
#
#
# Indices 1 2 3 4 5 6 
#
# 1 0.023624 -0.010652 -0.002551 0.000005 0.002118 0.000004
# 2 -0.010652 0.016790 -0.007627 -0.000001 0.002953 -0.000002
# 3 -0.002551 -0.007627 0.056738 -0.000017 -0.008361 -0.000005
# 4 0.000005 -0.000001 -0.000017 0.033957 0.000001 0.003948
# 5 0.002118 0.002953 -0.008361 0.000001 0.036454 0.000000
# 6 0.000004 -0.000002 -0.000005 0.003948 0.000000 0.035637
#
#
# Mechanical properties :
#
#
# Convention : Reuss Voigt Hill
#
# Bulk Modulus (GPa) = 18.02019 35.03378 26.52699
# Shear Modulus (GPa) = 18.98567 24.99178 21.98873
#
# Velocity S-wave (km/s) = 3.13066 3.59187 3.36917
# Velocity P-wave (km/s) = 4.72976 5.94034 5.36928
#
# Compressibility (1/GPa) = 0.05549330
#
# Stress axis : x y z
#
# Youngs Moduli (GPa) = 42.32905 59.55828 17.62496
#
# Poissons Ratio (x) = 0.63440 0.04496
# Poissons Ratio (y) = 0.45088 0.13443
# Poissons Ratio (z) = 0.10798 0.45425
#
# Static dielectric constant tensor:
#      x y z
#    x 1.646310 0.000000 0.003010 
#    y 0.000000 1.656650 0.000000 
#    z 0.003010 0.000000 1.586670 
# 
# From -- ./inp_files/349285.got.cif
#   From: 2010.05.17/outbox.cif.g08.bks.cpg/sg12_175_cif.got.tgz:349285.got - 2010.06.03 13:09:07.
