data_PCOD9177983
_publ_section_title
;
Structure prediction by ZEFSAII (Michael W. Deem and Ramdas Pophale) SiO2 
 PCOD9177983
Probable space group: C 2/M
;
_chemical_formula_sum "Si O2"
_cell_formula_units_Z 56
_cell_length_a 31.009747
_cell_length_b 8.135672
_cell_length_c 19.553885
_cell_angle_alpha 90.000000
_cell_angle_beta 141.825633
_cell_angle_gamma 90.000000
_cell_volume 3048.969425
_symmetry_space_group_name_H-M "C 2/M"
_symmetry_group_IT_number 12
_symmetry_cell_setting 'monoclinic'
loop_
_space_group_symop_operation_xyz
x,y,z
-x,y,-z
-x,-y,-z
x,-y,z
1/2+x,1/2+y,z
1/2-x,1/2+y,-z
1/2-x,1/2-y,-z
1/2+x,1/2-y,z
loop_
_atom_site_type_symbol
_atom_site_label
_atom_site_fract_x
_atom_site_fract_y
_atom_site_fract_z
Si Si1 0.809423 0.694950 0.522405
Si Si2 0.117728 0.798958 0.754419
Si Si3 0.466978 0.309135 0.553703
Si Si4 0.607838 0.304741 0.900148
Si Si5 0.537176 0.805367 0.297769
Si Si6 0.257300 0.198639 0.849584
Si Si7 0.186268 0.198431 0.628171
O O1 0.807708 0.500000 0.518791
O O2 0.750000 0.750000 0.500000
O O3 0.888704 0.743462 0.642140
O O4 0.799777 0.754327 0.432421
O O5 0.121248 0.747399 0.838405
O O6 0.187926 0.747485 0.804164
O O7 0.043541 0.742198 0.629413
O O8 0.115522 0.000000 0.749815
O O9 0.465391 0.500000 0.530586
O O10 0.468951 0.295061 0.639025
O O11 0.390402 0.237778 0.443328
O O12 0.599970 0.500000 0.888121
O O13 0.533938 0.229204 0.830855
O O14 0.672902 0.261119 0.028334
O O15 0.539912 0.000000 0.317795
O O16 0.244006 0.250631 0.754798
O O17 0.259105 0.000000 0.854290
O O18 0.181931 0.000000 0.625079
#
# Coordination Sequence:
#
# PCOD9177983 Si02
#       7
#     8   8   8   8   8   8   8
#     4  10  20  34  56  81 102 122 148 187 236 290
#     4   8  15  27  44  67  93 125 170 213 245 274
#     4   8  14  27  45  66  94 126 160 200 240 282
#     4  10  19  31  47  67  94 131 171 209 242 276
#     4   9  17  30  49  73  96 121 154 193 236 282
#     4  10  19  30  45  67  97 134 170 205 241 280
#     4   9  18  31  48  71 100 131 161 194 240 291
#
# _framework density 18.366861
#
# number of rings (size 3 to 8) (size 9 to 14) (size 15 to 20)
#    0.000    2.857    0.000    2.571    0.000    2.857 
#    0.000    5.714    0.000    0.857    0.000   20.000 
#    0.000    0.000    0.000    0.000    0.000    0.000 
#
# Total GULP energy -156008.977628 kJ/mol
# GULP energy per Si atom -5571.749201 kJ/mol
# Density = 1.832506 g / cm^3
# Si number density = 18.366861 Si / 1000 Ang^3
#
#
#
# Elastic Constant Matrix: (Units=GPa)
#
#
# Indices 1 2 3 4 5 6 
#
# 1 119.8555 20.1696 65.5397 0.0000 19.3119 0.0000
# 2 20.1696 25.0631 16.2821 0.0000 3.4713 0.0000
# 3 65.5397 16.2821 129.4704 0.0000 11.3164 0.0000
# 4 0.0000 0.0000 0.0000 20.4266 0.0000 3.3376
# 5 19.3119 3.4713 11.3164 0.0000 19.1307 0.0000
# 6 0.0000 0.0000 0.0000 3.3376 0.0000 12.8795
#
#
#
# Elastic Compliance Matrix: (Units=1/GPa)
#
#
# Indices 1 2 3 4 5 6 
#
# 1 0.013934 -0.006357 -0.005405 0.000000 -0.009715 0.000000
# 2 -0.006357 0.046790 -0.002621 0.000000 -0.000523 0.000000
# 3 -0.005405 -0.002621 0.010831 0.000000 -0.000475 0.000000
# 4 0.000000 0.000000 0.000000 0.051120 0.000000 -0.013247
# 5 -0.009715 -0.000523 -0.000475 0.000000 0.062455 0.000000
# 6 0.000000 0.000000 0.000000 -0.013247 0.000000 0.081076
#
#
# Mechanical properties :
#
#
# Convention : Reuss Voigt Hill
#
# Bulk Modulus (GPa) = 23.36990 53.15243 38.26116
# Shear Modulus (GPa) = 16.16897 21.98053 19.07475
#
# Velocity S-wave (km/s) = 2.97026 3.46316 3.22614
# Velocity P-wave (km/s) = 4.95125 6.70771 5.89526
#
# Compressibility (1/GPa) = 0.04279008
#
# Stress axis : x y z
#
# Youngs Moduli (GPa) = 71.76640 21.37224 92.32755
#
# Poissons Ratio (x) = 0.13585 0.49904
# Poissons Ratio (y) = 0.45618 0.24197
# Poissons Ratio (z) = 0.38790 0.05601
#
# Static dielectric constant tensor:
#      x y z
#    x 1.686760 0.000000 0.020820 
#    y 0.000000 1.662970 0.000000 
#    z 0.020820 0.000000 1.668090 
# 
# From -- ./inp_files/287873.got.cif
#   From: 2010.05.17/outbox.cif.g08.bks.cpg/sg12_144_cif.got.tgz:287873.got - 2010.06.03 13:09:07.
