data_PCOD9177889
_publ_section_title
;
Structure prediction by ZEFSAII (Michael W. Deem and Ramdas Pophale) SiO2 
 PCOD9177889
Probable space group: C 2/M
;
_chemical_formula_sum "Si O2"
_cell_formula_units_Z 56
_cell_length_a 26.582424
_cell_length_b 7.607601
_cell_length_c 30.453724
_cell_angle_alpha 90.000000
_cell_angle_beta 29.461647
_cell_angle_gamma 90.000000
_cell_volume 3029.056037
_symmetry_space_group_name_H-M "C 2/M"
_symmetry_group_IT_number 12
_symmetry_cell_setting 'monoclinic'
loop_
_space_group_symop_operation_xyz
x,y,z
-x,y,-z
-x,-y,-z
x,-y,z
1/2+x,1/2+y,z
1/2-x,1/2+y,-z
1/2-x,1/2-y,-z
1/2+x,1/2-y,z
loop_
_atom_site_type_symbol
_atom_site_label
_atom_site_fract_x
_atom_site_fract_y
_atom_site_fract_z
Si Si1 0.592981 0.709975 0.599552
Si Si2 0.047145 0.289677 0.897997
Si Si3 0.062752 0.789205 0.785096
Si Si4 0.133219 0.215463 0.213673
Si Si5 0.709745 0.711267 0.598202
Si Si6 0.856440 0.210797 0.895387
Si Si7 0.659272 0.215016 0.899106
O O1 0.586974 0.500000 0.608811
O O2 0.476890 0.773479 0.684318
O O3 0.645935 0.777787 0.604250
O O4 0.672136 0.746032 0.500340
O O5 0.044679 0.500000 0.903702
O O6 0.073365 0.248251 0.828263
O O7 0.125866 0.227729 0.875690
O O8 0.933377 0.228769 0.998358
O O9 0.154728 0.724579 0.684078
O O10 0.954544 0.722265 0.847971
O O11 0.060590 0.000000 0.782510
O O12 0.141962 0.272369 0.156227
O O13 0.231290 0.274965 0.166677
O O14 0.134978 0.000000 0.212612
O O15 0.702625 0.500000 0.603194
O O16 0.865979 0.000000 0.886104
O O17 0.750000 0.250000 0.000000
O O18 0.661209 0.000000 0.897930
#
# Coordination Sequence:
#
# PCOD9177889 Si02
#       7
#     8   8   8   8   8   8   8
#     4   9  16  28  47  68  87 114 153 188 221 269
#     4   9  17  30  48  70  91 117 158 195 221 256
#     4  10  19  31  46  66  95 126 150 178 225 279
#     4   9  15  27  47  67  90 120 149 182 229 275
#     4   9  17  30  45  64  92 121 147 181 226 272
#     4  10  19  30  44  66  95 123 149 178 219 273
#     4   8  15  28  47  69  92 118 151 193 231 261
#
# _framework density 18.487608000000002
#
# number of rings (size 3 to 8) (size 9 to 14) (size 15 to 20)
#    0.000    2.857    1.429    1.714    0.000    2.286 
#    0.000    2.143    0.000    3.429    0.000    6.000 
#    0.000    0.000    0.000    0.000    0.000    0.000 
#
# Total GULP energy -156131.094569 kJ/mol
# GULP energy per Si atom -5576.110520 kJ/mol
# Density = 1.844553 g / cm^3
# Si number density = 18.487608 Si / 1000 Ang^3
#
#
#
# Elastic Constant Matrix: (Units=GPa)
#
#
# Indices 1 2 3 4 5 6 
#
# 1 130.3061 5.4505 112.5278 -0.0101 1.3796 0.0034
# 2 5.4505 34.6840 2.3837 0.0108 -2.4888 -0.0090
# 3 112.5278 2.3837 197.1798 0.0061 0.3619 -0.0379
# 4 -0.0101 0.0108 0.0061 20.7477 0.0047 4.0187
# 5 1.3796 -2.4888 0.3619 0.0047 22.5784 0.0366
# 6 0.0034 -0.0090 -0.0379 4.0187 0.0366 12.3377
#
#
#
# Elastic Compliance Matrix: (Units=1/GPa)
#
#
# Indices 1 2 3 4 5 6 
#
# 1 0.015265 -0.001874 -0.008687 0.000018 -0.001000 -0.000035
# 2 -0.001874 0.029317 0.000709 -0.000021 0.003335 0.000021
# 3 -0.008687 0.000709 0.010020 -0.000015 0.000448 0.000037
# 4 0.000018 -0.000021 -0.000015 0.051444 0.000013 -0.016756
# 5 -0.001000 0.003335 0.000448 0.000013 0.044712 -0.000133
# 6 -0.000035 0.000021 0.000037 -0.016756 -0.000133 0.086511
#
#
# Mechanical properties :
#
#
# Convention : Reuss Voigt Hill
#
# Bulk Modulus (GPa) = 28.65526 66.98821 47.82173
# Shear Modulus (GPa) = 18.61474 27.25330 22.93402
#
# Velocity S-wave (km/s) = 3.17657 3.84362 3.52591
# Velocity P-wave (km/s) = 5.38401 7.48402 6.51913
#
# Compressibility (1/GPa) = 0.03489761
#
# Stress axis : x y z
#
# Youngs Moduli (GPa) = 65.50903 34.11019 99.80304
#
# Poissons Ratio (x) = 0.06391 0.86700
# Poissons Ratio (y) = 0.12274 -0.07073
# Poissons Ratio (z) = 0.56908 -0.02417
#
# Static dielectric constant tensor:
#      x y z
#    x 1.626090 -0.000010 -0.005180 
#    y -0.000010 1.691850 0.000010 
#    z -0.005180 0.000010 1.640070 
# 
# From -- ./inp_files/181536.got.cif
#   From: 2010.05.17/outbox.cif.g08.bks.cpg/sg12_91_cif.got.tgz:181536.got - 2010.06.03 13:09:07.
