data_PCOD9177180
_publ_section_title
;
Structure prediction by ZEFSAII (Michael W. Deem and Ramdas Pophale) SiO2 
 PCOD9177180
Probable space group: C 2/M
;
_chemical_formula_sum "Si O2"
_cell_formula_units_Z 64
_cell_length_a 15.098274
_cell_length_b 21.568838
_cell_length_c 29.516232
_cell_angle_alpha 90.000000
_cell_angle_beta 160.318341
_cell_angle_gamma 90.000000
_cell_volume 3237.271619
_symmetry_space_group_name_H-M "C 2/M"
_symmetry_group_IT_number 12
_symmetry_cell_setting 'monoclinic'
loop_
_space_group_symop_operation_xyz
x,y,z
-x,y,-z
-x,-y,-z
x,-y,z
1/2+x,1/2+y,z
1/2-x,1/2+y,-z
1/2-x,1/2-y,-z
1/2+x,1/2-y,z
loop_
_atom_site_type_symbol
_atom_site_label
_atom_site_fract_x
_atom_site_fract_y
_atom_site_fract_z
Si Si1 0.359329 0.928223 0.287993
Si Si2 0.069587 0.068381 0.480583
Si Si3 0.974319 0.817746 0.900558
Si Si4 0.526704 0.292351 0.586490
Si Si5 0.987306 0.772046 0.312079
Si Si6 0.791381 0.864378 0.144971
Si Si7 0.674758 0.074349 0.626117
Si Si8 0.425145 0.746085 0.148440
O O1 0.622964 0.924850 0.385057
O O2 0.131126 0.886254 0.157542
O O3 0.411527 0.904677 0.364918
O O4 0.281637 0.000000 0.253522
O O5 0.953118 0.133738 0.408982
O O6 0.000000 0.065714 0.500000
O O7 0.989305 0.000000 0.422751
O O8 0.737331 0.778151 0.807841
O O9 0.026393 0.786238 0.876718
O O10 0.245135 0.806540 0.056909
O O11 0.271570 0.259826 0.441718
O O12 0.519240 0.281872 0.636984
O O13 0.790639 0.261061 0.695140
O O14 0.901729 0.835087 0.245190
O O15 0.775077 0.804158 0.105327
O O16 0.024633 0.906696 0.237811
O O17 0.500000 0.893214 0.000000
O O18 0.500000 0.098877 0.500000
O O19 0.649499 0.000000 0.613675
#
# Coordination Sequence:
#
# PCOD9177180 Si02
#       8
#     8   8   8   8   8   8   8   8
#     4  10  20  38  66  88 115 164 212 254 306 369
#     4  10  22  39  60  87 118 154 201 257 312 365
#     4  10  18  39  56  81 120 157 198 245 301 362
#     4  10  22  37  57  88 120 155 197 253 312 367
#     4  10  22  35  58  89 124 152 198 249 308 367
#     4  12  24  38  59  92 126 165 208 248 304 369
#     4  10  24  41  61  90 125 166 212 255 299 362
#     4  10  22  34  56  84 122 159 192 251 304 353
#
# _framework density 19.769734
#
# number of rings (size 3 to 8) (size 9 to 14) (size 15 to 20)
#    0.000    1.750    3.750    0.000    5.250    0.250 
#    0.000    0.625    0.000    0.000    0.000    3.500 
#    0.000    0.000    0.000    0.000    0.000    0.000 
#
# Total GULP energy -178393.064543 kJ/mol
# GULP energy per Si atom -5574.783267 kJ/mol
# Density = 1.972474 g / cm^3
# Si number density = 19.769734 Si / 1000 Ang^3
#
#
#
# Elastic Constant Matrix: (Units=GPa)
#
#
# Indices 1 2 3 4 5 6 
#
# 1 64.6848 -7.8539 39.3947 0.4489 9.6820 0.2699
# 2 -7.8539 27.4449 -1.0272 -2.0017 4.7087 -1.1728
# 3 39.3947 -1.0272 94.2177 -3.7829 16.6881 -2.2518
# 4 0.4489 -2.0017 -3.7829 2398.7387 -0.0321 1419.1757
# 5 9.6820 4.7087 16.6881 -0.0321 20.8482 -0.0174
# 6 0.2699 -1.1728 -2.2518 1419.1757 -0.0174 863.0771
#
#
#
# Elastic Compliance Matrix: (Units=1/GPa)
#
#
# Indices 1 2 3 4 5 6 
#
# 1 0.022100 0.006912 -0.008239 -0.000004 -0.005229 -0.000012
# 2 0.006912 0.040484 -0.000302 0.000044 -0.012111 -0.000021
# 3 -0.008239 -0.000302 0.015575 0.000019 -0.008572 0.000011
# 4 -0.000004 0.000044 0.000019 0.015347 -0.000021 -0.025236
# 5 -0.005229 -0.012111 -0.008572 -0.000021 0.059991 -0.000002
# 6 -0.000012 -0.000021 0.000011 -0.025236 -0.000002 0.042654
#
#
# Mechanical properties :
#
#
# Convention : Reuss Voigt Hill
#
# Bulk Modulus (GPa) = 13.35129 27.48607 20.41868
# Shear Modulus (GPa) = 22.28399 666.92170 344.60285
#
# Velocity S-wave (km/s) = 3.36099 18.38687 13.21691
# Velocity P-wave (km/s) = 4.67223 21.55697 15.59700
#
# Compressibility (1/GPa) = 0.07489912
#
# Stress axis : x y z
#
# Youngs Moduli (GPa) = 45.24989 24.70136 64.20608
#
# Poissons Ratio (x) = -0.17074 0.52901
# Poissons Ratio (y) = -0.31277 0.01941
# Poissons Ratio (z) = 0.37283 0.00747
#
# Static dielectric constant tensor:
#      x y z
#    x 1.752420 -0.000010 0.006830 
#    y -0.000010 1.696490 -0.000020 
#    z 0.006830 -0.000020 1.711200 
# 
# From -- ./inp_files/377095.got.cif
#   From: 2010.05.17/outbox.cif.g08.bks.cpg/sg12_189_cif.got.tgz:377095.got - 2010.06.03 13:09:07.
