data_PCOD9177471
_publ_section_title
;
Structure prediction by ZEFSAII (Michael W. Deem and Ramdas Pophale) SiO2 
 PCOD9177471
Probable space group: C 2/M
;
_chemical_formula_sum "Si O2"
_cell_formula_units_Z 64
_cell_length_a 29.295676
_cell_length_b 7.612177
_cell_length_c 15.082024
_cell_angle_alpha 90.000000
_cell_angle_beta 71.392846
_cell_angle_gamma 90.000000
_cell_volume 3187.542659
_symmetry_space_group_name_H-M "C 2/M"
_symmetry_group_IT_number 12
_symmetry_cell_setting 'monoclinic'
loop_
_space_group_symop_operation_xyz
x,y,z
-x,y,-z
-x,-y,-z
x,-y,z
1/2+x,1/2+y,z
1/2-x,1/2+y,-z
1/2-x,1/2-y,-z
1/2+x,1/2-y,z
loop_
_atom_site_type_symbol
_atom_site_label
_atom_site_fract_x
_atom_site_fract_y
_atom_site_fract_z
Si Si1 0.803729 0.710032 0.998829
Si Si2 0.331330 0.203815 0.678561
Si Si3 0.042210 0.788453 0.092272
Si Si4 0.934385 0.789237 0.114226
Si Si5 0.846799 0.709984 0.298857
Si Si6 0.727423 0.213589 0.796559
Si Si7 0.882424 0.709681 0.813291
Si Si8 0.803990 0.711545 0.501749
O O1 0.810095 0.500000 0.997057
O O2 0.804036 0.772183 0.099925
O O3 0.750000 0.750000 0.000000
O O4 0.843085 0.783463 0.907336
O O5 0.281234 0.214557 0.764011
O O6 0.371234 0.279366 0.721490
O O7 0.318264 0.282091 0.590274
O O8 0.343804 0.000000 0.655009
O O9 0.067309 0.735863 0.168019
O O10 0.987016 0.729081 0.115181
O O11 0.042109 0.000000 0.090540
O O12 0.070345 0.726402 0.985365
O O13 0.893134 0.745027 0.209818
O O14 0.935959 0.000000 0.108628
O O15 0.842758 0.500000 0.305581
O O16 0.800175 0.774001 0.273695
O O17 0.841301 0.774082 0.402718
O O18 0.730490 0.000000 0.795684
O O19 0.874882 0.500000 0.811533
O O20 0.806073 0.500000 0.506310
O O21 0.750000 0.750000 0.500000
#
# Coordination Sequence:
#
# PCOD9177471 Si02
#       8
#     8   8   8   8   8   8   8   8
#     4  10  19  29  42  64  96 131 166 202 239 288
#     4  10  20  33  49  70  99 135 173 209 245 292
#     4   9  19  36  56  78 104 132 166 208 255 308
#     4   9  19  36  56  79 104 130 165 210 257 308
#     4  10  20  33  51  76 104 132 167 213 260 304
#     4  10  19  30  45  68  99 132 167 207 247 292
#     4  10  20  33  49  72 102 136 173 209 249 301
#     4  10  20  34  52  74 102 136 174 216 257 297
#
# _framework density 20.078164000000001
#
# number of rings (size 3 to 8) (size 9 to 14) (size 15 to 20)
#    0.000    2.250    2.500    1.500    0.000    4.000 
#    0.000    1.250    0.000    0.750    0.000    5.250 
#    0.000    0.000    0.000    0.000    0.000    0.000 
#
# Total GULP energy -178452.801696 kJ/mol
# GULP energy per Si atom -5576.650053 kJ/mol
# Density = 2.003247 g / cm^3
# Si number density = 20.078164 Si / 1000 Ang^3
#
#
#
# Elastic Constant Matrix: (Units=GPa)
#
#
# Indices 1 2 3 4 5 6 
#
# 1 96.0958 -3.4959 52.8936 0.0000 28.4323 0.0000
# 2 -3.4959 41.6790 7.0528 0.0000 7.3228 0.0000
# 3 52.8936 7.0528 122.7222 0.0000 31.5872 0.0000
# 4 0.0000 0.0000 0.0000 11.8371 0.0000 -0.1738
# 5 28.4323 7.3228 31.5872 0.0000 39.4997 0.0000
# 6 0.0000 0.0000 0.0000 -0.1738 0.0000 22.2221
#
#
#
# Elastic Compliance Matrix: (Units=1/GPa)
#
#
# Indices 1 2 3 4 5 6 
#
# 1 0.015570 0.003530 -0.004861 0.000000 -0.007974 0.000000
# 2 0.003530 0.025610 -0.001407 0.000000 -0.006164 0.000000
# 3 -0.004861 -0.001407 0.011782 0.000000 -0.005662 0.000000
# 4 0.000000 0.000000 0.000000 0.084490 0.000000 0.000661
# 5 -0.007974 -0.006164 -0.005662 0.000000 0.036727 0.000000
# 6 0.000000 0.000000 0.000000 0.000661 0.000000 0.045005
#
#
# Mechanical properties :
#
#
# Convention : Reuss Voigt Hill
#
# Bulk Modulus (GPa) = 21.05916 41.48867 31.27391
# Shear Modulus (GPa) = 20.79107 28.31488 24.55297
#
# Velocity S-wave (km/s) = 3.22142 3.75938 3.50075
# Velocity P-wave (km/s) = 4.93438 6.28907 5.65245
#
# Compressibility (1/GPa) = 0.04748528
#
# Stress axis : x y z
#
# Youngs Moduli (GPa) = 64.22746 39.04745 84.87742
#
# Poissons Ratio (x) = -0.13782 0.41258
# Poissons Ratio (y) = -0.22669 0.11939
# Poissons Ratio (z) = 0.31220 0.05492
#
# Static dielectric constant tensor:
#      x y z
#    x 1.711360 0.000000 0.042030 
#    y 0.000000 1.648550 0.000000 
#    z 0.042030 0.000000 1.765390 
# 
# From -- ./inp_files/243900.got.cif
#   From: 2010.05.17/outbox.cif.g08.bks.cpg/sg12_122_cif.got.tgz:243900.got - 2010.06.03 13:09:07.
