data_PCOD9177474
_publ_section_title
;
Structure prediction by ZEFSAII (Michael W. Deem and Ramdas Pophale) SiO2 
 PCOD9177474
Probable space group: C 2/M
;
_chemical_formula_sum "Si O2"
_cell_formula_units_Z 64
_cell_length_a 9.382764
_cell_length_b 21.595594
_cell_length_c 17.863239
_cell_angle_alpha 90.000000
_cell_angle_beta 91.423684
_cell_angle_gamma 90.000000
_cell_volume 3618.445790
_symmetry_space_group_name_H-M "C 2/M"
_symmetry_group_IT_number 12
_symmetry_cell_setting 'monoclinic'
loop_
_space_group_symop_operation_xyz
x,y,z
-x,y,-z
-x,-y,-z
x,-y,z
1/2+x,1/2+y,z
1/2-x,1/2+y,-z
1/2-x,1/2-y,-z
1/2+x,1/2-y,z
loop_
_atom_site_type_symbol
_atom_site_label
_atom_site_fract_x
_atom_site_fract_y
_atom_site_fract_z
Si Si1 0.332053 0.424757 0.740659
Si Si2 0.150501 0.575012 0.592768
Si Si3 0.363497 0.929281 0.852264
Si Si4 0.322988 0.924659 0.575202
Si Si5 0.835843 0.363642 0.124911
Si Si6 0.117596 0.755962 0.944610
Si Si7 0.159154 0.075447 0.717580
Si Si8 0.148428 0.106169 0.975157
O O1 0.323237 0.500000 0.750063
O O2 0.250883 0.407598 0.662731
O O3 0.251904 0.391087 0.807227
O O4 0.498501 0.407081 0.737064
O O5 0.150454 0.500000 0.591323
O O6 0.200964 0.595511 0.510823
O O7 0.984708 0.593441 0.599782
O O8 0.506229 0.892598 0.873829
O O9 0.277937 0.904335 0.779127
O O10 0.248952 0.927879 0.917785
O O11 0.406578 0.000000 0.837145
O O12 0.209665 0.904464 0.635792
O O13 0.320372 0.000000 0.574841
O O14 0.858458 0.289278 0.124159
O O15 0.745941 0.380164 0.049034
O O16 0.098659 0.829236 0.934055
O O17 0.250000 0.750000 0.000000
O O18 0.000000 0.730316 0.000000
O O19 0.160541 0.000000 0.719001
O O20 0.000000 0.076109 0.000000
#
# Coordination Sequence:
#
# PCOD9177474 Si02
#       8
#     8   8   8   8   8   8   8   8
#     4  10  19  29  42  65  97 129 162 201 248 297
#     4   8  14  24  40  62  87 120 162 203 241 288
#     4  11  22  34  49  72 102 133 165 199 242 301
#     4   8  13  24  41  59  84 122 165 202 238 283
#     4  11  20  32  50  69  92 126 163 199 242 291
#     4   9  18  34  53  71  89 114 156 204 246 282
#     4   9  18  30  42  60  91 129 164 200 241 286
#     4  10  21  36  53  71  93 122 157 202 249 291
#
# _framework density 17.687151
#
# number of rings (size 3 to 8) (size 9 to 14) (size 15 to 20)
#    0.000    2.500    0.000    4.500    0.000    4.250 
#    0.000    2.500    0.000    0.000    0.000    0.000 
#    0.000    1.000    0.000    7.750    0.000   15.000 
#
# Total GULP energy -178216.894232 kJ/mol
# GULP energy per Si atom -5569.277945 kJ/mol
# Density = 1.764689 g / cm^3
# Si number density = 17.687151 Si / 1000 Ang^3
#
#
#
# Elastic Constant Matrix: (Units=GPa)
#
#
# Indices 1 2 3 4 5 6 
#
# 1 115.8977 27.6270 52.6526 0.0000 -14.2619 0.0000
# 2 27.6270 39.3899 25.0778 0.0000 0.4526 0.0000
# 3 52.6526 25.0778 102.1012 0.0000 -6.2506 0.0000
# 4 0.0000 0.0000 0.0000 -13.7181 0.0000 10.4564
# 5 -14.2619 0.4526 -6.2506 0.0000 30.8019 0.0000
# 6 0.0000 0.0000 0.0000 10.4564 0.0000 9.5080
#
#
#
# Elastic Compliance Matrix: (Units=1/GPa)
#
#
# Indices 1 2 3 4 5 6 
#
# 1 0.012893 -0.006005 -0.004864 0.000000 0.005071 0.000000
# 2 -0.006005 0.033008 -0.005276 0.000000 -0.004336 0.000000
# 3 -0.004864 -0.005276 0.013634 0.000000 0.000592 0.000000
# 4 0.000000 0.000000 0.000000 -0.039655 0.000000 0.043611
# 5 0.005071 -0.004336 0.000592 0.000000 0.034998 0.000000
# 6 0.000000 0.000000 0.000000 0.043611 0.000000 0.057214
#
#
# Mechanical properties :
#
#
# Convention : Reuss Voigt Hill
#
# Bulk Modulus (GPa) = 36.70205 52.01152 44.35678
# Shear Modulus (GPa) = 32.58107 15.45376 24.01742
#
# Velocity S-wave (km/s) = 4.29660 2.95910 3.68897
# Velocity P-wave (km/s) = 6.73870 6.41445 6.57857
#
# Compressibility (1/GPa) = 0.02724644
#
# Stress axis : x y z
#
# Youngs Moduli (GPa) = 77.55990 30.29599 73.34342
#
# Poissons Ratio (x) = 0.18192 0.35671
# Poissons Ratio (y) = 0.46573 0.38697
# Poissons Ratio (z) = 0.37722 0.15984
#
# Static dielectric constant tensor:
#      x y z
#    x 1.609840 0.000000 -0.006720 
#    y 0.000000 1.637070 0.000000 
#    z -0.006720 0.000000 1.611740 
# 
# From -- ./inp_files/259442.got.cif
#   From: 2010.05.17/outbox.cif.g08.bks.cpg/sg12_130_cif.got.tgz:259442.got - 2010.06.03 13:09:07.
