data_PCOD9177628
_publ_section_title
;
Structure prediction by ZEFSAII (Michael W. Deem and Ramdas Pophale) SiO2 
 PCOD9177628
Probable space group: C 2/M
;
_chemical_formula_sum "Si O2"
_cell_formula_units_Z 48
_cell_length_a 28.790502
_cell_length_b 7.296911
_cell_length_c 11.495389
_cell_angle_alpha 90.000000
_cell_angle_beta 122.619863
_cell_angle_gamma 90.000000
_cell_volume 2034.047104
_symmetry_space_group_name_H-M "C 2/M"
_symmetry_group_IT_number 12
_symmetry_cell_setting 'monoclinic'
loop_
_space_group_symop_operation_xyz
x,y,z
-x,y,-z
-x,-y,-z
x,-y,z
1/2+x,1/2+y,z
1/2-x,1/2+y,-z
1/2-x,1/2-y,-z
1/2+x,1/2-y,z
loop_
_atom_site_type_symbol
_atom_site_label
_atom_site_fract_x
_atom_site_fract_y
_atom_site_fract_z
Si Si1 0.160259 0.285426 0.070084
Si Si2 0.063339 0.724324 0.090203
Si Si3 0.729742 0.220045 0.676965
Si Si4 0.169444 0.721911 0.829422
Si Si5 0.124203 0.723051 0.406634
Si Si6 0.561172 0.777727 0.555733
O O1 0.151800 0.500000 0.037528
O O2 0.101924 0.213745 0.036023
O O3 0.206349 0.270328 0.232552
O O4 0.181742 0.210158 0.975711
O O5 0.062894 0.500000 0.089067
O O6 0.094985 0.782675 0.249685
O O7 0.000000 0.782825 0.000000
O O8 0.705234 0.286886 0.768210
O O9 0.686948 0.282653 0.520238
O O10 0.727713 0.000000 0.673452
O O11 0.174698 0.500000 0.833385
O O12 0.106305 0.769480 0.713730
O O13 0.125057 0.500000 0.405461
O O14 0.086845 0.777857 0.466776
O O15 0.500000 0.711921 0.500000
O O16 0.559146 0.000000 0.549977
#
# Coordination Sequence:
#
# PCOD9177628 Si02
#       6
#     8   8   8   8   8   8
#     4  10  19  29  45  69  94 118 148 184 222 266
#     4   9  18  29  42  63  93 122 144 179 231 272
#     4   9  17  31  48  65  90 121 151 183 221 262
#     4   8  15  26  40  64  93 116 143 183 224 262
#     4   8  15  27  41  60  87 118 150 182 217 263
#     4   8  13  20  36  59  85 117 147 177 217 263
#
# _framework density 23.598272999999999
#
# number of rings (size 3 to 8) (size 9 to 14) (size 15 to 20)
#    0.000    3.333    0.000    2.500    2.333    0.667 
#    0.000    0.000    0.000    0.500    0.000    0.000 
#    0.000    4.000    0.000    0.000    0.000    0.000 
#
# Total GULP energy -133983.041717 kJ/mol
# GULP energy per Si atom -5582.626738 kJ/mol
# Density = 2.354456 g / cm^3
# Si number density = 23.598273 Si / 1000 Ang^3
#
#
#
# Elastic Constant Matrix: (Units=GPa)
#
#
# Indices 1 2 3 4 5 6 
#
# 1 58.5418 -2.0857 33.9922 0.0000 27.9971 0.0000
# 2 -2.0857 98.0067 -4.3119 0.0000 -3.6419 0.0000
# 3 33.9922 -4.3119 120.5615 0.0000 6.2546 0.0000
# 4 0.0000 0.0000 0.0000 3.2276 0.0000 7.6116
# 5 27.9971 -3.6419 6.2546 0.0000 39.6511 0.0000
# 6 0.0000 0.0000 0.0000 7.6116 0.0000 -22.9995
#
#
#
# Elastic Compliance Matrix: (Units=1/GPa)
#
#
# Indices 1 2 3 4 5 6 
#
# 1 0.031809 -0.000460 -0.007882 0.000000 -0.021259 0.000000
# 2 -0.000460 0.010257 0.000434 0.000000 0.001198 0.000000
# 3 -0.007882 0.000434 0.010326 0.000000 0.003976 0.000000
# 4 0.000000 0.000000 0.000000 0.174016 0.000000 0.057590
# 5 -0.021259 0.001198 0.003976 0.000000 0.039713 0.000000
# 6 0.000000 0.000000 0.000000 0.057590 0.000000 -0.024420
#
#
# Mechanical properties :
#
#
# Convention : Reuss Voigt Hill
#
# Bulk Modulus (GPa) = 27.33945 36.92213 32.13079
# Shear Modulus (GPa) = 18.53854 20.61021 19.57437
#
# Velocity S-wave (km/s) = 2.80588 2.95850 2.88320
# Velocity P-wave (km/s) = 4.70189 5.22976 4.97283
#
# Compressibility (1/GPa) = 0.03657718
#
# Stress axis : x y z
#
# Youngs Moduli (GPa) = 31.43769 97.49219 96.84195
#
# Poissons Ratio (x) = 0.04483 0.76332
# Poissons Ratio (y) = 0.01446 -0.04206
# Poissons Ratio (z) = 0.24779 -0.04234
#
# Static dielectric constant tensor:
#      x y z
#    x 1.878000 0.000000 -0.013470 
#    y 0.000000 1.947490 0.000000 
#    z -0.013470 0.000000 1.873010 
# 
# From -- ./inp_files/164088.got.cif
#   From: 2010.05.17/outbox.cif.g08.bks.cpg/sg12_83_cif.got.tgz:164088.got - 2010.06.03 13:09:07.
