data_PCOD9177532
_publ_section_title
;
Structure prediction by ZEFSAII (Michael W. Deem and Ramdas Pophale) SiO2 
 PCOD9177532
Probable space group: C 2/M
;
_chemical_formula_sum "Si O2"
_cell_formula_units_Z 56
_cell_length_a 22.631102
_cell_length_b 9.411613
_cell_length_c 25.907879
_cell_angle_alpha 90.000000
_cell_angle_beta 140.438260
_cell_angle_gamma 90.000000
_cell_volume 3514.626928
_symmetry_space_group_name_H-M "C 2/M"
_symmetry_group_IT_number 12
_symmetry_cell_setting 'monoclinic'
loop_
_space_group_symop_operation_xyz
x,y,z
-x,y,-z
-x,-y,-z
x,-y,z
1/2+x,1/2+y,z
1/2-x,1/2+y,-z
1/2-x,1/2-y,-z
1/2+x,1/2-y,z
loop_
_atom_site_type_symbol
_atom_site_label
_atom_site_fract_x
_atom_site_fract_y
_atom_site_fract_z
Si Si1 0.623958 0.667020 0.448070
Si Si2 0.168488 0.668544 0.375668
Si Si3 0.152937 0.664508 0.104299
Si Si4 0.226758 0.333350 0.738748
Si Si5 0.458229 0.330947 0.416177
Si Si6 0.014799 0.335186 0.924972
Si Si7 0.893101 0.167086 0.767531
O O1 0.623453 0.500000 0.432623
O O2 0.720329 0.690942 0.543722
O O3 0.625805 0.764643 0.398877
O O4 0.536950 0.694088 0.426257
O O5 0.151862 0.500000 0.361208
O O6 0.129942 0.748618 0.299900
O O7 0.183237 0.500000 0.121145
O O8 0.231686 0.762424 0.181538
O O9 0.068459 0.667868 0.088853
O O10 0.106733 0.707245 0.018747
O O11 0.210432 0.500000 0.735273
O O12 0.134243 0.254206 0.658905
O O13 0.305314 0.317304 0.747258
O O14 0.500000 0.291961 0.500000
O O15 0.437650 0.500000 0.403443
O O16 0.024133 0.500000 0.914943
O O17 0.980847 0.235540 0.856149
O O18 0.906552 0.000000 0.766948
#
# Coordination Sequence:
#
# PCOD9177532 Si02
#       7
#     8   8   8   8   8   8   8
#     4   9  19  34  50  69  92 119 153 192 233 273
#     4  10  19  32  51  70  90 119 154 193 233 275
#     4   8  14  26  43  62  88 122 156 189 226 272
#     4  10  20  30  43  67  97 127 157 191 231 273
#     4  10  20  34  51  69  92 124 158 190 226 272
#     4   8  14  25  42  64  89 119 155 191 227 270
#     4  10  19  29  43  67  98 127 154 189 233 275
#
# _framework density 15.933411
#
# number of rings (size 3 to 8) (size 9 to 14) (size 15 to 20)
#    0.000    2.714    0.000    3.000    0.000    4.857 
#    0.000    2.857    0.000    0.000    0.000    1.000 
#    0.000    0.000    0.000    0.000    0.000    0.000 
#
# Total GULP energy -156059.189198 kJ/mol
# GULP energy per Si atom -5573.542471 kJ/mol
# Density = 1.589715 g / cm^3
# Si number density = 15.933411 Si / 1000 Ang^3
#
#
#
# Elastic Constant Matrix: (Units=GPa)
#
#
# Indices 1 2 3 4 5 6 
#
# 1 31.5424 45.4223 47.1466 0.0000 -2.2502 0.0000
# 2 45.4223 108.1800 110.9309 0.0000 -10.8949 0.0000
# 3 47.1466 110.9309 172.5535 0.0000 -11.4748 0.0000
# 4 0.0000 0.0000 0.0000 24.5687 0.0000 -0.8272
# 5 -2.2502 -10.8949 -11.4748 0.0000 20.9290 0.0000
# 6 0.0000 0.0000 0.0000 -0.8272 0.0000 17.6962
#
#
#
# Elastic Compliance Matrix: (Units=1/GPa)
#
#
# Indices 1 2 3 4 5 6 
#
# 1 0.082021 -0.034543 -0.000844 0.000000 -0.009626 0.000000
# 2 -0.034543 0.042133 -0.017059 0.000000 0.008866 0.000000
# 3 -0.000844 -0.017059 0.017016 0.000000 0.000359 0.000000
# 4 0.000000 0.000000 0.000000 0.040766 0.000000 0.001906
# 5 -0.009626 0.008866 0.000359 0.000000 0.051558 0.000000
# 6 0.000000 0.000000 0.000000 0.001906 0.000000 0.056598
#
#
# Mechanical properties :
#
#
# Convention : Reuss Voigt Hill
#
# Bulk Modulus (GPa) = 27.56371 79.91949 53.74160
# Shear Modulus (GPa) = 12.28270 19.89051 16.08661
#
# Velocity S-wave (km/s) = 2.77948 3.53704 3.18089
# Velocity P-wave (km/s) = 5.25714 8.18219 6.87698
#
# Compressibility (1/GPa) = 0.03627959
#
# Stress axis : x y z
#
# Youngs Moduli (GPa) = 12.19204 23.73435 58.76709
#
# Poissons Ratio (x) = 0.81985 0.04958
# Poissons Ratio (y) = 0.42115 1.00249
# Poissons Ratio (z) = 0.01029 0.40488
#
# Static dielectric constant tensor:
#      x y z
#    x 1.509320 0.000000 -0.001390 
#    y 0.000000 1.527940 0.000000 
#    z -0.001390 0.000000 1.528590 
# 
# From -- ./inp_files/348636.got.cif
#   From: 2010.05.17/outbox.cif.g08.bks.cpg/sg12_175_cif.got.tgz:348636.got - 2010.06.03 13:09:07.
