data_PCOD9177420
_publ_section_title
;
Structure prediction by ZEFSAII (Michael W. Deem and Ramdas Pophale) SiO2 
 PCOD9177420
Probable space group: C 2/M
;
_chemical_formula_sum "Si O2"
_cell_formula_units_Z 60
_cell_length_a 17.485945
_cell_length_b 26.405795
_cell_length_c 8.088960
_cell_angle_alpha 90.000000
_cell_angle_beta 92.727180
_cell_angle_gamma 90.000000
_cell_volume 3730.687651
_symmetry_space_group_name_H-M "C 2/M"
_symmetry_group_IT_number 12
_symmetry_cell_setting 'monoclinic'
loop_
_space_group_symop_operation_xyz
x,y,z
-x,y,-z
-x,-y,-z
x,-y,z
1/2+x,1/2+y,z
1/2-x,1/2+y,-z
1/2-x,1/2-y,-z
1/2+x,1/2-y,z
loop_
_atom_site_type_symbol
_atom_site_label
_atom_site_fract_x
_atom_site_fract_y
_atom_site_fract_z
Si Si1 0.406624 0.766095 0.841507
Si Si2 0.853967 0.844200 0.931798
Si Si3 0.690480 0.800122 0.856873
Si Si4 0.618426 0.665260 0.676209
Si Si5 0.500000 0.409885 0.500000
Si Si6 0.939019 0.943703 0.842347
Si Si7 0.947106 0.721002 0.341457
Si Si8 0.263478 0.785543 0.655378
O O1 0.393426 0.705311 0.852354
O O2 0.493664 0.776986 0.806522
O O3 0.352982 0.789267 0.692095
O O4 0.365577 0.790015 0.996197
O O5 0.762302 0.836086 0.901053
O O6 0.882448 0.896206 0.855477
O O7 0.880345 0.844146 0.126461
O O8 0.628796 0.811578 0.706146
O O9 0.729864 0.746825 0.807426
O O10 0.569513 0.625667 0.568628
O O11 0.582899 0.721090 0.639621
O O12 0.707715 0.667131 0.633492
O O13 0.476516 0.439483 0.663913
O O14 0.904448 0.000000 0.855450
O O15 0.000000 0.938739 0.000000
O O16 0.000000 0.706198 0.500000
O O17 0.250000 0.750000 0.500000
#
# Coordination Sequence:
#
# PCOD9177420 Si02
#       8
#     8   8   8   8   4   8   8   8
#     4  11  18  30  48  68 101 140 168 210 242 291
#     4  11  20  36  52  72  98 137 184 211 259 321
#     4  10  20  32  46  68 100 138 173 207 248 296
#     4  11  20  32  47  75  99 140 182 212 253 306
#     4  12  23  36  56  80 104 132 178 224 263 314
#     4  11  25  41  58  77 101 134 174 227 278 315
#     4  11  21  29  42  71 108 139 177 206 242 294
#     4  10  19  29  41  65 105 134 175 207 240 291
#
# _framework density 16.082826000000001
#
# number of rings (size 3 to 8) (size 9 to 14) (size 15 to 20)
#    0.000    1.200    6.000    3.800    3.733    0.000 
#    0.000    0.000    0.000    0.000    0.000    0.000 
#    0.000    2.667    0.000    0.000    0.000    0.133 
#
# Total GULP energy -167213.720132 kJ/mol
# GULP energy per Si atom -5573.790671 kJ/mol
# Density = 1.604622 g / cm^3
# Si number density = 16.082826 Si / 1000 Ang^3
#
#
#
# Elastic Constant Matrix: (Units=GPa)
#
#
# Indices 1 2 3 4 5 6 
#
# 1 96.9620 31.3625 30.1299 0.0000 15.8622 0.0000
# 2 31.3625 67.0204 18.5245 0.0000 3.2168 0.0000
# 3 30.1299 18.5245 88.2997 0.0000 12.0558 0.0000
# 4 0.0000 0.0000 0.0000 7.0236 0.0000 -0.3811
# 5 15.8622 3.2168 12.0558 0.0000 34.1225 0.0000
# 6 0.0000 0.0000 0.0000 -0.3811 0.0000 15.7106
#
#
#
# Elastic Compliance Matrix: (Units=1/GPa)
#
#
# Indices 1 2 3 4 5 6 
#
# 1 0.013757 -0.005403 -0.002897 0.000000 -0.004862 0.000000
# 2 -0.005403 0.017965 -0.002140 0.000000 0.001574 0.000000
# 3 -0.002897 -0.002140 0.013187 0.000000 -0.003111 0.000000
# 4 0.000000 0.000000 0.000000 0.142566 0.000000 0.003458
# 5 -0.004862 0.001574 -0.003111 0.000000 0.032517 0.000000
# 6 0.000000 0.000000 0.000000 0.003458 0.000000 0.063735
#
#
# Mechanical properties :
#
#
# Convention : Reuss Voigt Hill
#
# Bulk Modulus (GPa) = 41.61695 45.81287 43.71491
# Shear Modulus (GPa) = 15.99403 22.85569 19.42486
#
# Velocity S-wave (km/s) = 3.15696 3.77387 3.47911
# Velocity P-wave (km/s) = 6.26269 6.89470 6.58628
#
# Compressibility (1/GPa) = 0.02402867
#
# Stress axis : x y z
#
# Youngs Moduli (GPa) = 72.69255 55.66265 75.83122
#
# Poissons Ratio (x) = 0.30077 0.21965
# Poissons Ratio (y) = 0.39279 0.16229
# Poissons Ratio (z) = 0.21056 0.11913
#
# Static dielectric constant tensor:
#      x y z
#    x 1.581080 0.000000 -0.002510 
#    y 0.000000 1.496810 0.000000 
#    z -0.002510 0.000000 1.743650 
# 
# From -- ./inp_files/79560.got.cif
#   From: 2010.05.17/outbox.cif.g08.bks.cpg/sg12_40_cif.got.tgz:79560.got - 2010.06.03 13:09:07.
