data_PCOD9177562
_publ_section_title
;
Structure prediction by ZEFSAII (Michael W. Deem and Ramdas Pophale) SiO2 
 PCOD9177562
Probable space group: C 2/M
;
_chemical_formula_sum "Si O2"
_cell_formula_units_Z 64
_cell_length_a 20.974148
_cell_length_b 26.201942
_cell_length_c 5.071330
_cell_angle_alpha 90.000000
_cell_angle_beta 87.691849
_cell_angle_gamma 90.000000
_cell_volume 2784.756230
_symmetry_space_group_name_H-M "C 2/M"
_symmetry_group_IT_number 12
_symmetry_cell_setting 'monoclinic'
loop_
_space_group_symop_operation_xyz
x,y,z
-x,y,-z
-x,-y,-z
x,-y,z
1/2+x,1/2+y,z
1/2-x,1/2+y,-z
1/2-x,1/2-y,-z
1/2+x,1/2-y,z
loop_
_atom_site_type_symbol
_atom_site_label
_atom_site_fract_x
_atom_site_fract_y
_atom_site_fract_z
Si Si1 0.851777 0.080831 0.115699
Si Si2 0.569043 0.425883 0.392709
Si Si3 0.073821 0.337576 0.531626
Si Si4 0.135334 0.442934 0.462253
Si Si5 0.063825 0.196524 0.355631
Si Si6 0.786695 0.584992 0.053197
Si Si7 0.844644 0.692522 0.987202
Si Si8 0.637286 0.703382 0.846962
O O1 0.904146 0.061015 0.898256
O O2 0.782107 0.065877 0.027701
O O3 0.876811 0.064350 0.397221
O O4 0.847868 0.143388 0.119691
O O5 0.500000 0.444837 0.500000
O O6 0.561332 0.364670 0.372394
O O7 0.084751 0.398524 0.520120
O O8 0.100726 0.318683 0.804857
O O9 0.000000 0.326495 0.500000
O O10 0.120563 0.314779 0.298729
O O11 0.111938 0.500000 0.509689
O O12 0.193088 0.431417 0.657712
O O13 0.162134 0.436531 0.163069
O O14 0.121010 0.210573 0.543985
O O15 0.000000 0.216404 0.500000
O O16 0.076419 0.210296 0.052863
O O17 0.793808 0.646762 0.031243
O O18 0.820639 0.749526 0.057402
#
# Coordination Sequence:
#
# PCOD9177562 Si02
#       8
#     8   8   8   8   8   8   8   8
#     4  10  19  32  51  74 105 142 178 218 259 305
#     4   9  17  30  47  71 103 134 169 212 253 292
#     4  10  21  36  54  78 107 140 179 223 274 323
#     4  10  21  39  61  82 106 134 169 222 280 332
#     4   9  17  27  40  61  90 126 173 221 252 284
#     4  10  21  37  55  78 107 135 169 216 266 317
#     4  10  21  34  48  71 105 142 180 220 257 303
#     4  10  19  29  44  67  95 139 184 212 253 299
#
# _framework density 22.982263
#
# number of rings (size 3 to 8) (size 9 to 14) (size 15 to 20)
#    0.000    2.250    0.000    3.000    0.000    6.750 
#    0.000    0.000    0.000   13.500    0.000    0.000 
#    0.000   35.000    0.000    0.000    0.000    0.000 
#
# Total GULP energy -178708.969825 kJ/mol
# GULP energy per Si atom -5584.655307 kJ/mol
# Density = 2.292995 g / cm^3
# Si number density = 22.982263 Si / 1000 Ang^3
#
#
#
# Elastic Constant Matrix: (Units=GPa)
#
#
# Indices 1 2 3 4 5 6 
#
# 1 57.2902 -8.2560 -13.4911 0.0000 17.4226 0.0000
# 2 -8.2560 140.1062 1.5264 0.0000 -1.4786 0.0000
# 3 -13.4911 1.5264 85.7994 0.0000 7.0863 0.0000
# 4 0.0000 0.0000 0.0000 -103.0805 0.0000 14.1191
# 5 17.4226 -1.4786 7.0863 0.0000 15.5593 0.0000
# 6 0.0000 0.0000 0.0000 14.1191 0.0000 -15.7057
#
#
#
# Elastic Compliance Matrix: (Units=1/GPa)
#
#
# Indices 1 2 3 4 5 6 
#
# 1 0.031288 0.001348 0.008083 0.000000 -0.038588 0.000000
# 2 0.001348 0.007206 0.000158 0.000000 -0.000897 0.000000
# 3 0.008083 0.000158 0.014204 0.000000 -0.015505 0.000000
# 4 0.000000 0.000000 0.000000 -0.011063 0.000000 -0.009946
# 5 -0.038588 -0.000897 -0.015505 0.000000 0.114455 0.000000
# 6 0.000000 0.000000 0.000000 -0.009946 0.000000 -0.072612
#
#
# Mechanical properties :
#
#
# Convention : Reuss Voigt Hill
#
# Bulk Modulus (GPa) = 13.91302 26.97270 20.44286
# Shear Modulus (GPa) = 56.65265 -0.41763 28.11751
#
# Velocity S-wave (km/s) = 4.97032 -0.42675 3.50157
# Velocity P-wave (km/s) = 6.24546 3.39396 5.02617
#
# Compressibility (1/GPa) = 0.07187511
#
# Stress axis : x y z
#
# Youngs Moduli (GPa) = 31.96152 138.77875 70.40391
#
# Poissons Ratio (x) = -0.18713 -0.56905
# Poissons Ratio (y) = -0.04310 -0.01112
# Poissons Ratio (z) = -0.25834 -0.02192
#
# Static dielectric constant tensor:
#      x y z
#    x 1.832120 0.000000 -0.004730 
#    y 0.000000 1.947070 0.000000 
#    z -0.004730 0.000000 1.782410 
# 
# From -- ./inp_files/18322.got.cif
#   From: 2010.05.17/outbox.cif.g08.bks.cpg/sg12_10_cif.got.tgz:18322.got - 2010.06.03 13:09:07.
