data_PCOD9177321
_publ_section_title
;
Structure prediction by ZEFSAII (Michael W. Deem and Ramdas Pophale) SiO2 
 PCOD9177321
Probable space group: C 2/M
;
_chemical_formula_sum "Si O2"
_cell_formula_units_Z 40
_cell_length_a 18.686717
_cell_length_b 22.166332
_cell_length_c 7.420975
_cell_angle_alpha 90.000000
_cell_angle_beta 135.830356
_cell_angle_gamma 90.000000
_cell_volume 2141.838466
_symmetry_space_group_name_H-M "C 2/M"
_symmetry_group_IT_number 12
_symmetry_cell_setting 'monoclinic'
loop_
_space_group_symop_operation_xyz
x,y,z
-x,y,-z
-x,-y,-z
x,-y,z
1/2+x,1/2+y,z
1/2-x,1/2+y,-z
1/2-x,1/2-y,-z
1/2+x,1/2-y,z
loop_
_atom_site_type_symbol
_atom_site_label
_atom_site_fract_x
_atom_site_fract_y
_atom_site_fract_z
Si Si1 0.115407 0.569323 0.284185
Si Si2 0.973933 0.795500 0.742835
Si Si3 0.696671 0.285734 0.126287
Si Si4 0.595251 0.170549 0.538733
Si Si5 0.236141 0.838668 0.598720
O O1 0.855489 0.500000 0.632107
O O2 0.111514 0.609596 0.457135
O O3 0.194310 0.602287 0.290152
O O4 0.000000 0.571235 0.000000
O O5 0.934474 0.727269 0.642504
O O6 0.878473 0.838807 0.524801
O O7 0.000000 0.803180 0.000000
O O8 0.084436 0.800931 0.846871
O O9 0.794047 0.307582 0.185948
O O10 0.703204 0.215946 0.197167
O O11 0.715422 0.319196 0.352740
O O12 0.500000 0.163949 0.500000
#
# Coordination Sequence:
#
# PCOD9177321 Si02
#       5
#     8   8   8   8   8
#     4  10  19  31  47  63  81 112 150 180 207 245
#     4   9  15  27  47  64  85 115 141 170 214 257
#     4   8  14  25  43  64  88 113 136 168 213 257
#     4  10  19  28  41  66  95 116 137 171 212 253
#     4   8  14  25  43  65  84 106 138 181 216 242
#
# _framework density 18.675545
#
# number of rings (size 3 to 8) (size 9 to 14) (size 15 to 20)
#    0.000    3.000    0.000    5.400    0.000    1.200 
#    0.000    0.000    0.000   15.000    0.000    0.000 
#    0.000   16.000    0.000    0.000    0.000    1.600 
#
# Total GULP energy -111442.135399 kJ/mol
# GULP energy per Si atom -5572.106770 kJ/mol
# Density = 1.863304 g / cm^3
# Si number density = 18.675545 Si / 1000 Ang^3
#
#
#
# Elastic Constant Matrix: (Units=GPa)
#
#
# Indices 1 2 3 4 5 6 
#
# 1 114.5916 49.0222 42.5543 0.0000 45.5357 0.0000
# 2 49.0222 120.6703 29.9439 0.0000 24.3881 0.0000
# 3 42.5543 29.9439 61.0683 0.0000 37.5616 0.0000
# 4 0.0000 0.0000 0.0000 13.9888 0.0000 9.1866
# 5 45.5357 24.3881 37.5616 0.0000 47.3604 0.0000
# 6 0.0000 0.0000 0.0000 9.1866 0.0000 14.3382
#
#
#
# Elastic Compliance Matrix: (Units=1/GPa)
#
#
# Indices 1 2 3 4 5 6 
#
# 1 0.015564 -0.003483 -0.002024 0.000000 -0.011566 0.000000
# 2 -0.003483 0.010347 -0.002790 0.000000 0.000234 0.000000
# 3 -0.002024 -0.002790 0.033334 0.000000 -0.023054 0.000000
# 4 0.000000 0.000000 0.000000 0.123413 0.000000 -0.079071
# 5 -0.011566 0.000234 -0.023054 0.000000 0.050399 0.000000
# 6 0.000000 0.000000 0.000000 -0.079071 0.000000 0.120405
#
#
# Mechanical properties :
#
#
# Convention : Reuss Voigt Hill
#
# Bulk Modulus (GPa) = 23.44625 59.93011 41.68818
# Shear Modulus (GPa) = 13.01158 26.79149 19.90153
#
# Velocity S-wave (km/s) = 2.64240 3.79169 3.26797
# Velocity P-wave (km/s) = 4.67884 7.16443 6.05064
#
# Compressibility (1/GPa) = 0.04265074
#
# Stress axis : x y z
#
# Youngs Moduli (GPa) = 64.24954 96.64415 29.99982
#
# Poissons Ratio (x) = 0.33664 0.06072
# Poissons Ratio (y) = 0.22380 0.08370
# Poissons Ratio (z) = 0.13004 0.26964
#
# Static dielectric constant tensor:
#      x y z
#    x 1.803130 0.000000 0.026310 
#    y 0.000000 1.594180 0.000000 
#    z 0.026310 0.000000 1.710450 
# 
# From -- ./inp_files/62110.got.cif
#   From: 2010.05.17/outbox.cif.g08.bks.cpg/sg12_32_cif.got.tgz:62110.got - 2010.06.03 13:09:07.
