data_PCOD9177735
_publ_section_title
;
Structure prediction by ZEFSAII (Michael W. Deem and Ramdas Pophale) SiO2 
 PCOD9177735
Probable space group: C 2/M
;
_chemical_formula_sum "Si O2"
_cell_formula_units_Z 52
_cell_length_a 21.946313
_cell_length_b 23.145432
_cell_length_c 9.943862
_cell_angle_alpha 90.000000
_cell_angle_beta 144.178893
_cell_angle_gamma 90.000000
_cell_volume 2956.161355
_symmetry_space_group_name_H-M "C 2/M"
_symmetry_group_IT_number 12
_symmetry_cell_setting 'monoclinic'
loop_
_space_group_symop_operation_xyz
x,y,z
-x,y,-z
-x,-y,-z
x,-y,z
1/2+x,1/2+y,z
1/2-x,1/2+y,-z
1/2-x,1/2-y,-z
1/2+x,1/2-y,z
loop_
_atom_site_type_symbol
_atom_site_label
_atom_site_fract_x
_atom_site_fract_y
_atom_site_fract_z
Si Si1 0.274248 0.817743 0.060924
Si Si2 0.462151 0.742174 0.710445
Si Si3 0.370871 0.348114 0.953491
Si Si4 0.298281 0.186177 0.560453
Si Si5 0.980147 0.068532 0.623144
Si Si6 0.000000 0.702038 0.500000
Si Si7 0.709842 0.643566 0.659441
O O1 0.390703 0.829505 0.319727
O O2 0.250000 0.750000 0.000000
O O3 0.192583 0.837425 0.024309
O O4 0.260742 0.846973 0.893906
O O5 0.552567 0.705722 0.944531
O O6 0.408344 0.796049 0.690003
O O7 0.509658 0.761188 0.653081
O O8 0.371642 0.696315 0.511793
O O9 0.444365 0.400995 0.131514
O O10 0.282754 0.347944 0.681117
O O11 0.250000 0.250000 0.500000
O O12 0.293945 0.151060 0.691820
O O13 0.864522 0.088136 0.461070
O O14 0.000000 0.087341 0.500000
O O15 0.993409 0.000000 0.649909
#
# Coordination Sequence:
#
# PCOD9177735 Si02
#       7
#     8   8   8   8   8   4   8
#     4  12  19  31  50  76 106 150 186 222 269 335
#     4  10  19  29  48  73 106 149 184 211 261 334
#     4  11  20  35  54  74 115 152 181 232 280 320
#     4  10  21  35  45  76 113 155 182 212 271 340
#     4  10  21  37  61  88 107 139 195 245 289 328
#     4  12  20  28  48  76 104 142 194 214 244 340
#     4  10  20  35  51  75 110 144 180 226 281 323
#
# _framework density 17.59038
#
# number of rings (size 3 to 8) (size 9 to 14) (size 15 to 20)
#    0.000    1.385    6.154    0.923    2.154    5.538 
#    0.000    1.538    0.000    0.000    0.000    2.154 
#    0.000    1.231    0.000    0.000    0.000    0.000 
#
# Total GULP energy -144852.239269 kJ/mol
# GULP energy per Si atom -5571.239972 kJ/mol
# Density = 1.755034 g / cm^3
# Si number density = 17.590380 Si / 1000 Ang^3
#
#
#
# Elastic Constant Matrix: (Units=GPa)
#
#
# Indices 1 2 3 4 5 6 
#
# 1 99.0931 20.4766 19.4488 0.0000 -2.9730 0.0000
# 2 20.4766 45.1988 20.8486 0.0000 2.8758 0.0000
# 3 19.4488 20.8486 75.0717 0.0000 5.3610 0.0000
# 4 0.0000 0.0000 0.0000 9.7581 0.0000 -0.7124
# 5 -2.9730 2.8758 5.3610 0.0000 30.4166 0.0000
# 6 0.0000 0.0000 0.0000 -0.7124 0.0000 18.4644
#
#
#
# Elastic Compliance Matrix: (Units=1/GPa)
#
#
# Indices 1 2 3 4 5 6 
#
# 1 0.011430 -0.004438 -0.001862 0.000000 0.001865 0.000000
# 2 -0.004438 0.027140 -0.006252 0.000000 -0.001898 0.000000
# 3 -0.001862 -0.006252 0.015708 0.000000 -0.002359 0.000000
# 4 0.000000 0.000000 0.000000 0.102768 0.000000 0.003965
# 5 0.001865 -0.001898 -0.002359 0.000000 0.033654 0.000000
# 6 0.000000 0.000000 0.000000 0.003965 0.000000 0.054311
#
#
# Mechanical properties :
#
#
# Convention : Reuss Voigt Hill
#
# Bulk Modulus (GPa) = 34.27725 37.87906 36.07815
# Shear Modulus (GPa) = 17.86743 22.30045 20.08394
#
# Velocity S-wave (km/s) = 3.19054 3.56443 3.38266
# Velocity P-wave (km/s) = 5.75338 6.20652 5.98424
#
# Compressibility (1/GPa) = 0.02917387
#
# Stress axis : x y z
#
# Youngs Moduli (GPa) = 87.48927 36.84656 63.66317
#
# Poissons Ratio (x) = 0.16353 0.11853
# Poissons Ratio (y) = 0.38828 0.39801
# Poissons Ratio (z) = 0.16289 0.23036
#
# Static dielectric constant tensor:
#      x y z
#    x 1.601220 0.000000 -0.016200 
#    y 0.000000 1.586020 0.000000 
#    z -0.016200 0.000000 1.640880 
# 
# From -- ./inp_files/64828.got.cif
#   From: 2010.05.17/outbox.cif.g08.bks.cpg/sg12_33_cif.got.tgz:64828.got - 2010.06.03 13:09:07.
