data_PCOD9177702
_publ_section_title
;
Structure prediction by ZEFSAII (Michael W. Deem and Ramdas Pophale) SiO2 
 PCOD9177702
Probable space group: C 2/M
;
_chemical_formula_sum "Si O2"
_cell_formula_units_Z 56
_cell_length_a 27.797364
_cell_length_b 8.357455
_cell_length_c 13.718697
_cell_angle_alpha 90.000000
_cell_angle_beta 59.487061
_cell_angle_gamma 90.000000
_cell_volume 2745.700277
_symmetry_space_group_name_H-M "C 2/M"
_symmetry_group_IT_number 12
_symmetry_cell_setting 'monoclinic'
loop_
_space_group_symop_operation_xyz
x,y,z
-x,y,-z
-x,-y,-z
x,-y,z
1/2+x,1/2+y,z
1/2-x,1/2+y,-z
1/2-x,1/2-y,-z
1/2+x,1/2-y,z
loop_
_atom_site_type_symbol
_atom_site_label
_atom_site_fract_x
_atom_site_fract_y
_atom_site_fract_z
Si Si1 0.779544 0.690153 0.761326
Si Si2 0.316869 0.814767 0.009447
Si Si3 0.218260 0.806401 0.628208
Si Si4 0.910412 0.194019 0.238682
Si Si5 0.118469 0.188017 0.241739
Si Si6 0.927268 0.314242 0.009413
Si Si7 0.986843 0.810938 0.758234
O O1 0.774963 0.500000 0.767850
O O2 0.741497 0.756255 0.888575
O O3 0.751765 0.749958 0.689663
O O4 0.843790 0.736767 0.712670
O O5 0.361507 0.803926 0.051487
O O6 0.313443 0.000000 0.981591
O O7 0.344844 0.715891 0.893799
O O8 0.250000 0.750000 0.500000
O O9 0.153745 0.752238 0.690608
O O10 0.217401 0.000000 0.632126
O O11 0.935015 0.253031 0.110329
O O12 0.950593 0.250243 0.285569
O O13 0.911220 0.000000 0.237116
O O14 0.056996 0.255379 0.276550
O O15 0.113506 0.000000 0.265663
O O16 0.943895 0.500000 0.983106
O O17 0.957139 0.215586 0.893523
O O18 0.990790 0.000000 0.734714
#
# Coordination Sequence:
#
# PCOD9177702 Si02
#       7
#     8   8   8   8   8   8   8
#     4  11  21  35  54  76 103 138 175 218 267 316
#     4  10  19  31  48  74 108 146 180 215 256 309
#     4  10  23  40  60  82 104 131 173 226 277 322
#     4  10  19  35  55  75 102 139 177 217 265 315
#     4  10  20  33  50  76 108 144 179 214 253 306
#     4  10  19  29  46  76 111 143 177 215 258 309
#     4   9  19  33  51  74 106 145 181 211 250 310
#
# _framework density 20.395526
#
# number of rings (size 3 to 8) (size 9 to 14) (size 15 to 20)
#    0.000    2.000    1.429    2.571    0.000    5.714 
#    0.000    0.000    0.000    0.857    0.000    6.000 
#    0.000    0.000    0.000    0.000    0.000    0.000 
#
# Total GULP energy -156218.591186 kJ/mol
# GULP energy per Si atom -5579.235399 kJ/mol
# Density = 2.034911 g / cm^3
# Si number density = 20.395526 Si / 1000 Ang^3
#
#
#
# Elastic Constant Matrix: (Units=GPa)
#
#
# Indices 1 2 3 4 5 6 
#
# 1 193.9639 6.6472 22.2250 0.0000 -3.3490 0.0000
# 2 6.6472 13.7292 -9.2679 0.0000 -1.2838 0.0000
# 3 22.2250 -9.2679 30.2402 0.0000 1.5560 0.0000
# 4 0.0000 0.0000 0.0000 17.5623 0.0000 2.9183
# 5 -3.3490 -1.2838 1.5560 0.0000 9.0064 0.0000
# 6 0.0000 0.0000 0.0000 2.9183 0.0000 25.8717
#
#
#
# Elastic Compliance Matrix: (Units=1/GPa)
#
#
# Indices 1 2 3 4 5 6 
#
# 1 0.006265 -0.007561 -0.007049 0.000000 0.002470 0.000000
# 2 -0.007561 0.101581 0.036412 0.000000 0.005378 0.000000
# 3 -0.007049 0.036412 0.049718 0.000000 -0.006020 0.000000
# 4 0.000000 0.000000 0.000000 0.058028 0.000000 -0.006545
# 5 0.002470 0.005378 -0.006020 0.000000 0.113757 0.000000
# 6 0.000000 0.000000 0.000000 -0.006545 0.000000 0.039391
#
#
# Mechanical properties :
#
#
# Convention : Reuss Voigt Hill
#
# Bulk Modulus (GPa) = 4.97092 30.79356 17.88224
# Shear Modulus (GPa) = 12.74892 25.04336 18.89614
#
# Velocity S-wave (km/s) = 2.50288 3.50792 3.04712
# Velocity P-wave (km/s) = 3.28559 5.61590 4.60073
#
# Compressibility (1/GPa) = 0.20116987
#
# Stress axis : x y z
#
# Youngs Moduli (GPa) = 159.61678 9.84436 20.11336
#
# Poissons Ratio (x) = 0.07443 0.14177
# Poissons Ratio (y) = 1.20680 -0.73237
# Poissons Ratio (z) = 1.12509 -0.35845
#
# Static dielectric constant tensor:
#      x y z
#    x 1.851160 0.000000 -0.005090 
#    y 0.000000 1.707480 0.000000 
#    z -0.005090 0.000000 1.666220 
# 
# From -- ./inp_files/243628.got.cif
#   From: 2010.05.17/outbox.cif.g08.bks.cpg/sg12_122_cif.got.tgz:243628.got - 2010.06.03 13:09:07.
