data_PCOD9177372
_publ_section_title
;
Structure prediction by ZEFSAII (Michael W. Deem and Ramdas Pophale) SiO2 
 PCOD9177372
Probable space group: C 2/M
;
_chemical_formula_sum "Si O2"
_cell_formula_units_Z 52
_cell_length_a 24.841113
_cell_length_b 23.800747
_cell_length_c 10.123323
_cell_angle_alpha 90.000000
_cell_angle_beta 149.441821
_cell_angle_gamma 90.000000
_cell_volume 3042.996057
_symmetry_space_group_name_H-M "C 2/M"
_symmetry_group_IT_number 12
_symmetry_cell_setting 'monoclinic'
loop_
_space_group_symop_operation_xyz
x,y,z
-x,y,-z
-x,-y,-z
x,-y,z
1/2+x,1/2+y,z
1/2-x,1/2+y,-z
1/2-x,1/2-y,-z
1/2+x,1/2-y,z
loop_
_atom_site_type_symbol
_atom_site_label
_atom_site_fract_x
_atom_site_fract_y
_atom_site_fract_z
Si Si1 0.471579 0.244562 0.653281
Si Si2 0.852640 0.657270 0.987044
Si Si3 0.187991 0.808849 0.848776
Si Si4 0.000000 0.201233 0.000000
Si Si5 0.798085 0.646612 0.314989
Si Si6 0.265574 0.318040 0.530991
Si Si7 0.476516 0.935621 0.607249
O O1 0.421914 0.292969 0.455927
O O2 0.381616 0.196975 0.467322
O O3 0.576552 0.212431 0.827505
O O4 0.492647 0.263823 0.847932
O O5 0.760786 0.655190 0.901768
O O6 0.800607 0.663998 0.735066
O O7 0.931680 0.605050 0.145873
O O8 0.250000 0.750000 0.000000
O O9 0.196972 0.840339 0.008153
O O10 0.889302 0.169293 0.772813
O O11 0.770436 0.652890 0.409959
O O12 0.863880 0.591891 0.409059
O O13 0.250000 0.250000 0.500000
O O14 0.500000 0.934272 0.500000
O O15 0.482846 0.000000 0.665169
#
# Coordination Sequence:
#
# PCOD9177372 Si02
#       7
#     8   8   8   4   8   8   8
#     4  10  19  28  48  72 107 147 183 211 256 340
#     4  11  20  35  53  76 115 152 183 228 282 327
#     4  10  19  31  45  75 107 149 185 216 267 333
#     4  12  20  32  48  74 108 154 190 206 262 336
#     4  10  20  35  51  77 110 146 183 227 280 325
#     4  12  21  35  51  77 114 157 186 219 276 345
#     4  10  21  38  61  86 111 145 191 240 296 336
#
# _framework density 17.088421
#
# number of rings (size 3 to 8) (size 9 to 14) (size 15 to 20)
#    0.000    1.385    6.154    0.923    0.000    1.846 
#    0.000    1.538    0.000    0.000    0.000    2.154 
#    0.000    3.692    0.000    0.000    0.000    0.000 
#
# Total GULP energy -144980.984786 kJ/mol
# GULP energy per Si atom -5576.191723 kJ/mol
# Density = 1.704953 g / cm^3
# Si number density = 17.088421 Si / 1000 Ang^3
#
#
#
# Elastic Constant Matrix: (Units=GPa)
#
#
# Indices 1 2 3 4 5 6 
#
# 1 62.8675 16.6854 27.5101 0.0000 2.3279 0.0000
# 2 16.6854 74.9275 41.2889 0.0000 -1.5249 0.0000
# 3 27.5101 41.2889 130.8403 0.0000 -9.2922 0.0000
# 4 0.0000 0.0000 0.0000 7.7222 0.0000 0.2027
# 5 2.3279 -1.5249 -9.2922 0.0000 32.2088 0.0000
# 6 0.0000 0.0000 0.0000 0.2027 0.0000 16.8011
#
#
#
# Elastic Compliance Matrix: (Units=1/GPa)
#
#
# Indices 1 2 3 4 5 6 
#
# 1 0.018013 -0.002276 -0.003236 0.000000 -0.002343 0.000000
# 2 -0.002276 0.016460 -0.004746 0.000000 -0.000425 0.000000
# 3 -0.003236 -0.004746 0.010027 0.000000 0.002902 0.000000
# 4 0.000000 0.000000 0.000000 0.129537 0.000000 -0.001563
# 5 -0.002343 -0.000425 0.002902 0.000000 0.032034 0.000000
# 6 0.000000 0.000000 0.000000 -0.001563 0.000000 0.059539
#
#
# Mechanical properties :
#
#
# Convention : Reuss Voigt Hill
#
# Bulk Modulus (GPa) = 41.69285 48.84491 45.26888
# Shear Modulus (GPa) = 16.99994 23.55651 20.27822
#
# Velocity S-wave (km/s) = 3.15750 3.71685 3.44854
# Velocity P-wave (km/s) = 6.14364 6.86044 6.51191
#
# Compressibility (1/GPa) = 0.02398493
#
# Stress axis : x y z
#
# Youngs Moduli (GPa) = 55.51505 60.75497 99.73172
#
# Poissons Ratio (x) = 0.13828 0.32269
# Poissons Ratio (y) = 0.12635 0.47330
# Poissons Ratio (z) = 0.17962 0.28833
#
# Static dielectric constant tensor:
#      x y z
#    x 1.632000 0.000000 -0.006930 
#    y 0.000000 1.565660 0.000000 
#    z -0.006930 0.000000 1.630900 
# 
# From -- ./inp_files/64829.got.cif
#   From: 2010.05.17/outbox.cif.g08.bks.cpg/sg12_33_cif.got.tgz:64829.got - 2010.06.03 13:09:07.
