data_PCOD9177147
_publ_section_title
;
Structure prediction by ZEFSAII (Michael W. Deem and Ramdas Pophale) SiO2 
 PCOD9177147
Probable space group: C 2/M
;
_chemical_formula_sum "Si O2"
_cell_formula_units_Z 64
_cell_length_a 11.364224
_cell_length_b 33.944168
_cell_length_c 17.553409
_cell_angle_alpha 90.000000
_cell_angle_beta 30.215857
_cell_angle_gamma 90.000000
_cell_volume 3407.674316
_symmetry_space_group_name_H-M "C 2/M"
_symmetry_group_IT_number 12
_symmetry_cell_setting 'monoclinic'
loop_
_space_group_symop_operation_xyz
x,y,z
-x,y,-z
-x,-y,-z
x,-y,z
1/2+x,1/2+y,z
1/2-x,1/2+y,-z
1/2-x,1/2-y,-z
1/2+x,1/2-y,z
loop_
_atom_site_type_symbol
_atom_site_label
_atom_site_fract_x
_atom_site_fract_y
_atom_site_fract_z
Si Si1 0.278702 0.953480 0.348205
Si Si2 0.537457 0.351236 0.648778
Si Si3 0.180386 0.787638 0.333997
Si Si4 0.031552 0.784322 0.893408
Si Si5 0.510869 0.111601 0.318751
Si Si6 0.103546 0.660028 0.122865
Si Si7 0.729550 0.148647 0.324300
Si Si8 0.091265 0.404956 0.868484
O O1 0.407921 0.928577 0.341735
O O2 0.384100 0.937667 0.209958
O O3 0.000000 0.944800 0.500000
O O4 0.307951 0.000000 0.341652
O O5 0.452429 0.309275 0.661912
O O6 0.780936 0.363759 0.473139
O O7 0.578845 0.352220 0.716460
O O8 0.340142 0.383192 0.739103
O O9 0.356159 0.753708 0.208464
O O10 0.347538 0.821033 0.275782
O O11 0.000000 0.774234 0.500000
O O12 0.213382 0.818340 0.769471
O O13 0.000000 0.776305 0.000000
O O14 0.787320 0.805002 0.006368
O O15 0.644926 0.134109 0.175255
O O16 0.670799 0.110616 0.305255
O O17 0.079586 0.629527 0.067003
O O18 0.500000 0.159444 0.500000
O O19 0.000000 0.419894 0.000000
#
# Coordination Sequence:
#
# PCOD9177147 Si02
#       8
#     8   8   8   8   8   8   8   8
#     4  10  20  35  63  97 127 157 192 240 298 356
#     4  10  20  37  62  85 111 153 211 248 290 357
#     4  11  23  38  60  82 116 156 199 261 313 359
#     4  12  24  39  53  83 118 154 199 254 320 356
#     4  10  18  38  63  86 112 157 202 243 284 357
#     4  10  21  37  60  81 114 156 205 251 299 363
#     4  10  22  39  59  82 113 155 212 248 288 360
#     4  10  20  34  60  92 121 155 195 245 297 350
#
# _framework density 18.781137999999999
#
# number of rings (size 3 to 8) (size 9 to 14) (size 15 to 20)
#    0.000    1.625    3.750    1.500    0.000    4.250 
#    0.000    2.500    0.000    4.125    0.000   11.375 
#    0.000    0.000    0.000    0.000    0.000    0.000 
#
# Total GULP energy -178367.024669 kJ/mol
# GULP energy per Si atom -5573.969521 kJ/mol
# Density = 1.873839 g / cm^3
# Si number density = 18.781138 Si / 1000 Ang^3
#
#
#
# Elastic Constant Matrix: (Units=GPa)
#
#
# Indices 1 2 3 4 5 6 
#
# 1 110.2107 50.2977 33.6298 0.0000 7.6209 0.0000
# 2 50.2977 88.8937 29.4179 0.0000 6.1097 0.0000
# 3 33.6298 29.4179 90.8519 0.0000 18.2242 0.0000
# 4 0.0000 0.0000 0.0000 36.5194 0.0000 -8.0298
# 5 7.6209 6.1097 18.2242 0.0000 23.0322 0.0000
# 6 0.0000 0.0000 0.0000 -8.0298 0.0000 15.7651
#
#
#
# Elastic Compliance Matrix: (Units=1/GPa)
#
#
# Indices 1 2 3 4 5 6 
#
# 1 0.012794 -0.006351 -0.002577 0.000000 -0.000509 0.000000
# 2 -0.006351 0.015753 -0.002773 0.000000 0.000117 0.000000
# 3 -0.002577 -0.002773 0.014906 0.000000 -0.010206 0.000000
# 4 0.000000 0.000000 0.000000 0.030836 0.000000 0.015706
# 5 -0.000509 0.000117 -0.010206 0.000000 0.051631 0.000000
# 6 0.000000 0.000000 0.000000 0.015706 0.000000 0.071431
#
#
# Mechanical properties :
#
#
# Convention : Reuss Voigt Hill
#
# Bulk Modulus (GPa) = 49.87635 57.40523 53.64079
# Shear Modulus (GPa) = 21.98423 26.83741 24.41082
#
# Velocity S-wave (km/s) = 3.42504 3.78425 3.60912
# Velocity P-wave (km/s) = 6.50042 7.05165 6.78164
#
# Compressibility (1/GPa) = 0.02004958
#
# Stress axis : x y z
#
# Youngs Moduli (GPa) = 78.16434 63.48151 67.08660
#
# Poissons Ratio (x) = 0.40317 0.17289
# Poissons Ratio (y) = 0.49642 0.18605
# Poissons Ratio (z) = 0.20143 0.17605
#
# Static dielectric constant tensor:
#      x y z
#    x 1.715410 0.000000 -0.024110 
#    y 0.000000 1.627750 0.000000 
#    z -0.024110 0.000000 1.664590 
# 
# From -- ./inp_files/266269.got.cif
#   From: 2010.05.17/outbox.cif.g08.bks.cpg/sg12_134_cif.got.tgz:266269.got - 2010.06.03 13:09:07.
