data_PCOD9177105
_publ_section_title
;
Structure prediction by ZEFSAII (Michael W. Deem and Ramdas Pophale) SiO2 
 PCOD9177105
Probable space group: C 2/M
;
_chemical_formula_sum "Si O2"
_cell_formula_units_Z 60
_cell_length_a 10.505321
_cell_length_b 22.754736
_cell_length_c 16.459042
_cell_angle_alpha 90.000000
_cell_angle_beta 37.110842
_cell_angle_gamma 90.000000
_cell_volume 2373.894461
_symmetry_space_group_name_H-M "C 2/M"
_symmetry_group_IT_number 12
_symmetry_cell_setting 'monoclinic'
loop_
_space_group_symop_operation_xyz
x,y,z
-x,y,-z
-x,-y,-z
x,-y,z
1/2+x,1/2+y,z
1/2-x,1/2+y,-z
1/2-x,1/2-y,-z
1/2+x,1/2-y,z
loop_
_atom_site_type_symbol
_atom_site_label
_atom_site_fract_x
_atom_site_fract_y
_atom_site_fract_z
Si Si1 0.997027 0.431933 0.913864
Si Si2 0.542773 0.431347 0.189533
Si Si3 0.500000 0.820318 0.500000
Si Si4 0.617214 0.237080 0.746239
Si Si5 0.685832 0.570822 0.847352
Si Si6 0.646904 0.311377 0.227995
Si Si7 0.840912 0.569172 0.332035
Si Si8 0.758870 0.161085 0.521013
O O1 0.062971 0.500000 0.891024
O O2 0.140388 0.409323 0.769711
O O3 0.747617 0.433393 0.024776
O O4 0.000000 0.402165 0.000000
O O5 0.517205 0.500000 0.231234
O O6 0.354511 0.413046 0.226006
O O7 0.593579 0.378928 0.226375
O O8 0.308974 0.782550 0.635352
O O9 0.390432 0.850932 0.479332
O O10 0.404457 0.271566 0.825759
O O11 0.654996 0.191198 0.652881
O O12 0.652736 0.209769 0.818924
O O13 0.664791 0.500000 0.859426
O O14 0.922542 0.582464 0.755116
O O15 0.500000 0.595626 0.000000
O O16 0.453001 0.301338 0.390081
O O17 0.813137 0.500000 0.345557
O O18 0.674705 0.599128 0.475013
#
# Coordination Sequence:
#
# PCOD9177105 Si02
#       8
#     8   8   4   8   8   8   8   8
#     4   9  18  35  56  81 117 161 206 240 284 363
#     4  10  21  36  59  94 125 155 197 247 309 370
#     4  10  18  38  57  80 105 148 204 252 282 338
#     4  11  20  41  60  86 112 153 216 251 288 347
#     4   9  16  32  54  79 112 151 202 244 280 345
#     4  11  23  38  65  92 119 162 203 256 305 356
#     4  10  21  35  56  89 123 160 196 242 305 363
#     4  11  22  35  59  86 121 149 200 251 300 357
#
# _framework density 25.274925
#
# number of rings (size 3 to 8) (size 9 to 14) (size 15 to 20)
#    0.000    1.867    4.000    0.800    5.600    0.533 
#    0.000    0.333    0.000    2.400    3.467    0.000 
#    0.000    0.000    0.000    0.000    0.000    0.000 
#
# Total GULP energy -167273.131363 kJ/mol
# GULP energy per Si atom -5575.771045 kJ/mol
# Density = 2.521740 g / cm^3
# Si number density = 25.274925 Si / 1000 Ang^3
#
#
#
# Elastic Constant Matrix: (Units=GPa)
#
#
# Indices 1 2 3 4 5 6 
#
# 1 193.6486 54.5882 22.3218 -0.0001 30.7341 -0.0008
# 2 54.5882 101.9476 21.3559 -0.0023 27.4274 -0.0002
# 3 22.3218 21.3559 35.8380 -0.0074 17.6251 -0.0047
# 4 -0.0001 -0.0023 -0.0074 3.6851 0.0043 4.9247
# 5 30.7341 27.4274 17.6251 0.0043 33.3050 0.0021
# 6 -0.0008 -0.0002 -0.0047 4.9247 0.0021 30.5987
#
#
#
# Elastic Compliance Matrix: (Units=1/GPa)
#
#
# Indices 1 2 3 4 5 6 
#
# 1 0.006493 -0.002319 -0.000885 0.000001 -0.003614 0.000000
# 2 -0.002319 0.013716 -0.003009 0.000014 -0.007562 -0.000002
# 3 -0.000885 -0.003009 0.038699 0.000111 -0.017185 -0.000011
# 4 0.000001 0.000014 0.000111 0.345719 -0.000112 -0.055642
# 5 -0.003614 -0.007562 -0.017185 -0.000112 0.048682 0.000012
# 6 0.000000 -0.000002 -0.000011 -0.055642 0.000012 0.041636
#
#
# Mechanical properties :
#
#
# Convention : Reuss Voigt Hill
#
# Bulk Modulus (GPa) = 21.51423 58.66287 40.08855
# Shear Modulus (GPa) = 9.56264 29.06233 19.31248
#
# Velocity S-wave (km/s) = 1.94722 3.39462 2.76723
# Velocity P-wave (km/s) = 3.68593 6.21489 5.10935
#
# Compressibility (1/GPa) = 0.04648087
#
# Stress axis : x y z
#
# Youngs Moduli (GPa) = 154.00393 72.90874 25.84017
#
# Poissons Ratio (x) = 0.16909 0.02287
# Poissons Ratio (y) = 0.35717 0.07777
# Poissons Ratio (z) = 0.13631 0.21942
#
# Static dielectric constant tensor:
#      x y z
#    x 2.114390 0.000000 -0.022210 
#    y 0.000000 2.042190 0.000000 
#    z -0.022210 0.000000 2.065190 
# 
# From -- ./inp_files/265689.got.cif
#   From: 2010.05.17/outbox.cif.g08.bks.cpg/sg12_133_cif.got.tgz:265689.got - 2010.06.03 13:09:07.
