data_PCOD9177284
_publ_section_title
;
Structure prediction by ZEFSAII (Michael W. Deem and Ramdas Pophale) SiO2 
 PCOD9177284
Probable space group: C 2/M
;
_chemical_formula_sum "Si O2"
_cell_formula_units_Z 64
_cell_length_a 28.283203
_cell_length_b 8.725653
_cell_length_c 19.268943
_cell_angle_alpha 90.000000
_cell_angle_beta 68.272402
_cell_angle_gamma 90.000000
_cell_volume 4417.522811
_symmetry_space_group_name_H-M "C 2/M"
_symmetry_group_IT_number 12
_symmetry_cell_setting 'monoclinic'
loop_
_space_group_symop_operation_xyz
x,y,z
-x,y,-z
-x,-y,-z
x,-y,z
1/2+x,1/2+y,z
1/2-x,1/2+y,-z
1/2-x,1/2-y,-z
1/2+x,1/2-y,z
loop_
_atom_site_type_symbol
_atom_site_label
_atom_site_fract_x
_atom_site_fract_y
_atom_site_fract_z
Si Si1 0.199241 0.816519 0.614468
Si Si2 0.992211 0.314625 0.617735
Si Si3 0.990681 0.183613 0.240670
Si Si4 0.185394 0.685286 0.470497
Si Si5 0.070956 0.317126 0.924901
Si Si6 0.464830 0.317297 0.924765
Si Si7 0.581114 0.813984 0.462905
Si Si8 0.384412 0.183121 0.240886
O O1 0.180689 0.751549 0.550495
O O2 0.258776 0.771591 0.587936
O O3 0.163800 0.752668 0.694166
O O4 0.196213 0.000000 0.614815
O O5 0.991732 0.500000 0.623765
O O6 0.944697 0.265624 0.595282
O O7 0.993819 0.243150 0.692554
O O8 0.042608 0.271835 0.546147
O O9 0.936169 0.253828 0.248094
O O10 0.031775 0.224560 0.158249
O O11 0.985606 0.000000 0.243566
O O12 0.183826 0.500000 0.476118
O O13 0.137956 0.737350 0.449652
O O14 0.063775 0.500000 0.930079
O O15 0.112399 0.280988 0.843272
O O16 0.019701 0.239041 0.923173
O O17 0.075779 0.257784 0.000912
O O18 0.461397 0.500000 0.932945
O O19 0.581373 0.000000 0.461116
O O20 0.384273 0.000000 0.248663
#
# Coordination Sequence:
#
# PCOD9177284 Si02
#       8
#     8   8   8   8   8   8   8   8
#     4  10  19  28  41  62  83 106 138 171 202 238
#     4   9  16  27  44  62  79 104 137 168 199 236
#     4  10  19  28  39  59  85 109 135 166 199 238
#     4   9  17  30  45  59  81 111 138 167 202 239
#     4   9  16  25  38  55  74 100 135 167 193 229
#     4   9  16  25  37  53  77 107 131 156 194 236
#     4   8  15  28  44  60  78 104 138 169 198 236
#     4  10  19  29  41  57  80 110 139 169 203 236
#
# _framework density 14.487755999999999
#
# number of rings (size 3 to 8) (size 9 to 14) (size 15 to 20)
#    0.000    2.750    0.000    4.125    0.000    4.500 
#    0.000    1.875    0.000    0.000    0.000    0.000 
#    0.000    1.000    0.000    2.250    0.000    4.000 
#
# Total GULP energy -178168.207232 kJ/mol
# GULP energy per Si atom -5567.756476 kJ/mol
# Density = 1.445478 g / cm^3
# Si number density = 14.487756 Si / 1000 Ang^3
#
#
#
# Elastic Constant Matrix: (Units=GPa)
#
#
# Indices 1 2 3 4 5 6 
#
# 1 72.6434 14.0954 47.1759 0.0000 0.6410 0.0000
# 2 14.0954 18.7190 25.5294 0.0000 -3.3962 0.0000
# 3 47.1759 25.5294 136.2953 0.0000 -3.9610 0.0000
# 4 0.0000 0.0000 0.0000 40.0183 0.0000 -1.8975
# 5 0.6410 -3.3962 -3.9610 0.0000 18.7326 0.0000
# 6 0.0000 0.0000 0.0000 -1.8975 0.0000 13.3071
#
#
#
# Elastic Compliance Matrix: (Units=1/GPa)
#
#
# Indices 1 2 3 4 5 6 
#
# 1 0.018577 -0.007599 -0.005097 0.000000 -0.003091 0.000000
# 2 -0.007599 0.076862 -0.011424 0.000000 0.011779 0.000000
# 3 -0.005097 -0.011424 0.011255 0.000000 0.000483 0.000000
# 4 0.000000 0.000000 0.000000 0.025159 0.000000 0.003587
# 5 -0.003091 0.011779 0.000483 0.000000 0.055727 0.000000
# 6 0.000000 0.000000 0.000000 0.003587 0.000000 0.075659
#
#
# Mechanical properties :
#
#
# Convention : Reuss Voigt Hill
#
# Bulk Modulus (GPa) = 17.10731 44.58433 30.84582
# Shear Modulus (GPa) = 15.10744 23.80207 19.45475
#
# Velocity S-wave (km/s) = 3.23270 4.05768 3.66846
# Velocity P-wave (km/s) = 5.07618 7.26592 6.26742
#
# Compressibility (1/GPa) = 0.05845454
#
# Stress axis : x y z
#
# Youngs Moduli (GPa) = 53.82860 13.01041 88.84862
#
# Poissons Ratio (x) = 0.09886 0.45284
# Poissons Ratio (y) = 0.40902 1.01505
# Poissons Ratio (z) = 0.27435 0.14864
#
# Static dielectric constant tensor:
#      x y z
#    x 1.462220 0.000000 -0.004710 
#    y 0.000000 1.486960 0.000000 
#    z -0.004710 0.000000 1.508700 
# 
# From -- ./inp_files/294572.got.cif
#   From: 2010.05.17/outbox.cif.g08.bks.cpg/sg12_148_cif.got.tgz:294572.got - 2010.06.03 13:09:07.
