data_PCOD9177270
_publ_section_title
;
Structure prediction by ZEFSAII (Michael W. Deem and Ramdas Pophale) SiO2 
 PCOD9177270
Probable space group: C 2/M
;
_chemical_formula_sum "Si O2"
_cell_formula_units_Z 64
_cell_length_a 12.283976
_cell_length_b 21.158141
_cell_length_c 14.370005
_cell_angle_alpha 90.000000
_cell_angle_beta 101.840743
_cell_angle_gamma 90.000000
_cell_volume 3655.380694
_symmetry_space_group_name_H-M "C 2/M"
_symmetry_group_IT_number 12
_symmetry_cell_setting 'monoclinic'
loop_
_space_group_symop_operation_xyz
x,y,z
-x,y,-z
-x,-y,-z
x,-y,z
1/2+x,1/2+y,z
1/2-x,1/2+y,-z
1/2-x,1/2-y,-z
1/2+x,1/2-y,z
loop_
_atom_site_type_symbol
_atom_site_label
_atom_site_fract_x
_atom_site_fract_y
_atom_site_fract_z
Si Si1 0.969741 0.339295 0.602716
Si Si2 0.849761 0.372120 0.066623
Si Si3 0.115057 0.191540 0.071176
Si Si4 0.831092 0.832985 0.711882
Si Si5 0.769676 0.687119 0.678795
Si Si6 0.361402 0.072879 0.266866
Si Si7 0.401726 0.164819 0.886820
Si Si8 0.519470 0.305371 0.613079
O O1 0.838350 0.336119 0.601063
O O2 0.000000 0.348133 0.500000
O O3 0.029124 0.392072 0.675301
O O4 0.011033 0.269014 0.639878
O O5 0.730430 0.337671 0.053966
O O6 0.850568 0.421108 0.152571
O O7 0.965753 0.334868 0.108192
O O8 0.868803 0.386242 0.960229
O O9 0.108326 0.172130 0.177956
O O10 0.126806 0.267280 0.073461
O O11 0.000000 0.174279 0.000000
O O12 0.777153 0.763785 0.684402
O O13 0.738514 0.886395 0.705757
O O14 0.922585 0.841852 0.649141
O O15 0.834033 0.660796 0.780053
O O16 0.641474 0.669889 0.656646
O O17 0.359064 0.000000 0.293176
O O18 0.500000 0.306723 0.500000
#
# Coordination Sequence:
#
# PCOD9177270 Si02
#       8
#     8   8   8   8   8   8   8   8
#     4  10  21  34  57  84 117 144 185 232 284 330
#     4  10  20  34  48  79 111 139 187 219 278 327
#     4  10  19  27  48  79 111 144 170 222 276 335
#     4   9  21  33  52  82 113 145 188 218 282 334
#     4  10  19  33  56  86 119 142 172 234 291 340
#     4  11  22  40  58  75 109 152 198 232 261 327
#     4  10  19  29  52  77 116 142 170 227 279 337
#     4  10  21  33  56  88 119 146 172 226 296 349
#
# _framework density 17.508437000000001
#
# number of rings (size 3 to 8) (size 9 to 14) (size 15 to 20)
#    0.000    2.000    3.750    0.375    3.500    1.750 
#    0.000    1.250    0.000    7.125    0.000    0.000 
#    0.000    0.000    0.000    0.000    0.000    0.000 
#
# Total GULP energy -178249.632877 kJ/mol
# GULP energy per Si atom -5570.301027 kJ/mol
# Density = 1.746859 g / cm^3
# Si number density = 17.508437 Si / 1000 Ang^3
#
#
#
# Elastic Constant Matrix: (Units=GPa)
#
#
# Indices 1 2 3 4 5 6 
#
# 1 104.3248 23.2487 23.5894 0.0000 -5.0357 0.0000
# 2 23.2487 58.6631 18.6648 0.0000 -5.9346 0.0000
# 3 23.5894 18.6648 31.5382 0.0000 -6.2196 0.0000
# 4 0.0000 0.0000 0.0000 8.8997 0.0000 2.2790
# 5 -5.0357 -5.9346 -6.2196 0.0000 30.9329 0.0000
# 6 0.0000 0.0000 0.0000 2.2790 0.0000 8.2678
#
#
#
# Elastic Compliance Matrix: (Units=1/GPa)
#
#
# Indices 1 2 3 4 5 6 
#
# 1 0.011783 -0.002299 -0.007457 0.000000 -0.000022 0.000000
# 2 -0.002299 0.021525 -0.010703 0.000000 0.001603 0.000000
# 3 -0.007457 -0.010703 0.044749 0.000000 0.005730 0.000000
# 4 0.000000 0.000000 0.000000 0.120897 0.000000 -0.033326
# 5 -0.000022 0.001603 0.005730 0.000000 0.033784 0.000000
# 6 0.000000 0.000000 0.000000 -0.033326 0.000000 0.130137
#
#
# Mechanical properties :
#
#
# Convention : Reuss Voigt Hill
#
# Bulk Modulus (GPa) = 26.92573 36.17021 31.54797
# Shear Modulus (GPa) = 12.01421 18.22163 15.11792
#
# Velocity S-wave (km/s) = 2.62238 3.22954 2.94166
# Velocity P-wave (km/s) = 4.95795 5.88304 5.44019
#
# Compressibility (1/GPa) = 0.03713920
#
# Stress axis : x y z
#
# Youngs Moduli (GPa) = 84.86894 46.45694 22.34684
#
# Poissons Ratio (x) = 0.10682 0.16663
# Poissons Ratio (y) = 0.19515 0.23918
# Poissons Ratio (z) = 0.63284 0.49722
#
# Static dielectric constant tensor:
#      x y z
#    x 1.617040 0.000000 -0.022170 
#    y 0.000000 1.569550 0.000000 
#    z -0.022170 0.000000 1.639210 
# 
# From -- ./inp_files/207716.got.cif
#   From: 2010.05.17/outbox.cif.g08.bks.cpg/sg12_104_cif.got.tgz:207716.got - 2010.06.03 13:09:07.
