data_PCOD9177769
_publ_section_title
;
Structure prediction by ZEFSAII (Michael W. Deem and Ramdas Pophale) SiO2 
 PCOD9177769
Probable space group: C 2/M
;
_chemical_formula_sum "Si O2"
_cell_formula_units_Z 64
_cell_length_a 10.801007
_cell_length_b 17.951855
_cell_length_c 19.827581
_cell_angle_alpha 90.000000
_cell_angle_beta 87.148800
_cell_angle_gamma 90.000000
_cell_volume 3839.771314
_symmetry_space_group_name_H-M "C 2/M"
_symmetry_group_IT_number 12
_symmetry_cell_setting 'monoclinic'
loop_
_space_group_symop_operation_xyz
x,y,z
-x,y,-z
-x,-y,-z
x,-y,z
1/2+x,1/2+y,z
1/2-x,1/2+y,-z
1/2-x,1/2-y,-z
1/2+x,1/2-y,z
loop_
_atom_site_type_symbol
_atom_site_label
_atom_site_fract_x
_atom_site_fract_y
_atom_site_fract_z
Si Si1 0.006143 0.812120 0.079650
Si Si2 0.182337 0.590068 0.625685
Si Si3 0.660010 0.308999 0.278513
Si Si4 0.238474 0.732607 0.141625
Si Si5 0.796551 0.581873 0.790132
Si Si6 0.646846 0.085323 0.477272
Si Si7 0.504452 0.417969 0.802179
Si Si8 0.907728 0.346046 0.655331
O O1 0.877669 0.772479 0.108141
O O2 0.008867 0.889516 0.120877
O O3 0.133181 0.771001 0.098679
O O4 0.000000 0.820570 0.000000
O O5 0.179080 0.500000 0.635901
O O6 0.269707 0.634097 0.674514
O O7 0.214821 0.602727 0.545698
O O8 0.047290 0.626072 0.640328
O O9 0.741024 0.274132 0.214588
O O10 0.555438 0.356020 0.243310
O O11 0.606269 0.239206 0.321408
O O12 0.188044 0.649275 0.158043
O O13 0.839304 0.500000 0.811300
O O14 0.649416 0.578959 0.783095
O O15 0.857034 0.604707 0.718158
O O16 0.500000 0.086965 0.500000
O O17 0.664352 0.137594 0.412470
O O18 0.675073 0.000000 0.456781
O O19 0.449355 0.500000 0.793881
#
# Coordination Sequence:
#
# PCOD9177769 Si02
#       8
#     8   8   8   8   8   8   8   8
#     4  10  19  34  54  76 101 134 167 203 252 306
#     4  10  20  33  52  74 100 136 173 214 262 308
#     4  10  21  31  52  73 106 130 167 210 260 306
#     4   9  20  32  51  76 104 132 165 212 254 301
#     4   9  17  30  51  73  96 129 166 207 250 301
#     4   8  15  30  47  69 100 131 169 213 256 304
#     4   9  19  35  51  73 102 130 163 205 250 298
#     4  10  19  29  51  75  98 129 172 214 255 302
#
# _framework density 16.667659
#
# number of rings (size 3 to 8) (size 9 to 14) (size 15 to 20)
#    0.000    2.625    0.000    2.625    8.750    0.750 
#    0.000    0.000    0.000    0.375    0.000    3.500 
#    0.000    0.000    0.000    0.000    0.000    0.000 
#
# Total GULP energy -178153.750861 kJ/mol
# GULP energy per Si atom -5567.304714 kJ/mol
# Density = 1.662972 g / cm^3
# Si number density = 16.667659 Si / 1000 Ang^3
#
#
#
# Elastic Constant Matrix: (Units=GPa)
#
#
# Indices 1 2 3 4 5 6 
#
# 1 26.8475 16.7290 12.8809 0.0000 1.6204 0.0000
# 2 16.7290 98.9342 41.5819 0.0000 5.2166 0.0000
# 3 12.8809 41.5819 75.5889 0.0000 14.2839 0.0000
# 4 0.0000 0.0000 0.0000 14.4632 0.0000 5.9507
# 5 1.6204 5.2166 14.2839 0.0000 21.1555 0.0000
# 6 0.0000 0.0000 0.0000 5.9507 0.0000 13.7264
#
#
#
# Elastic Compliance Matrix: (Units=1/GPa)
#
#
# Indices 1 2 3 4 5 6 
#
# 1 0.042703 -0.005375 -0.004530 0.000000 0.001113 0.000000
# 2 -0.005375 0.013890 -0.007056 0.000000 0.001751 0.000000
# 3 -0.004530 -0.007056 0.020046 0.000000 -0.011448 0.000000
# 4 0.000000 0.000000 0.000000 0.084151 0.000000 -0.036481
# 5 0.001113 0.001751 -0.011448 0.000000 0.054482 0.000000
# 6 0.000000 0.000000 0.000000 -0.036481 0.000000 0.088667
#
#
# Mechanical properties :
#
#
# Convention : Reuss Voigt Hill
#
# Bulk Modulus (GPa) = 23.41019 38.19493 30.80256
# Shear Modulus (GPa) = 14.20048 18.54760 16.37404
#
# Velocity S-wave (km/s) = 2.92203 3.33947 3.13770
# Velocity P-wave (km/s) = 5.04580 6.15100 5.62561
#
# Compressibility (1/GPa) = 0.04271644
#
# Stress axis : x y z
#
# Youngs Moduli (GPa) = 23.41743 71.99491 49.88480
#
# Poissons Ratio (x) = 0.38700 0.22599
# Poissons Ratio (y) = 0.12588 0.35197
# Poissons Ratio (z) = 0.10609 0.50798
#
# Static dielectric constant tensor:
#      x y z
#    x 1.552580 0.000000 0.003160 
#    y 0.000000 1.583600 0.000000 
#    z 0.003160 0.000000 1.568350 
# 
# From -- ./inp_files/263908.got.cif
#   From: 2010.05.17/outbox.cif.g08.bks.cpg/sg12_132_cif.got.tgz:263908.got - 2010.06.03 13:09:07.
