data_PCOD9177830
_publ_section_title
;
Structure prediction by ZEFSAII (Michael W. Deem and Ramdas Pophale) SiO2 
 PCOD9177830
Probable space group: C 2/M
;
_chemical_formula_sum "Si O2"
_cell_formula_units_Z 64
_cell_length_a 24.642601
_cell_length_b 10.574591
_cell_length_c 17.301280
_cell_angle_alpha 90.000000
_cell_angle_beta 137.719036
_cell_angle_gamma 90.000000
_cell_volume 3033.142903
_symmetry_space_group_name_H-M "C 2/M"
_symmetry_group_IT_number 12
_symmetry_cell_setting 'monoclinic'
loop_
_space_group_symop_operation_xyz
x,y,z
-x,y,-z
-x,-y,-z
x,-y,z
1/2+x,1/2+y,z
1/2-x,1/2+y,-z
1/2-x,1/2-y,-z
1/2+x,1/2-y,z
loop_
_atom_site_type_symbol
_atom_site_label
_atom_site_fract_x
_atom_site_fract_y
_atom_site_fract_z
Si Si1 0.959493 0.732124 0.534485
Si Si2 0.432913 0.279289 0.761389
Si Si3 0.949983 0.639698 0.025866
Si Si4 0.883968 0.848672 0.220599
Si Si5 0.695549 0.647778 0.705174
Si Si6 0.893830 0.858431 0.061018
Si Si7 0.205778 0.143523 0.279944
Si Si8 0.849263 0.363651 0.546168
O O1 0.890740 0.828166 0.429418
O O2 0.911305 0.640315 0.539904
O O3 0.000000 0.675639 0.500000
O O4 0.031156 0.793102 0.660138
O O5 0.479905 0.151551 0.835618
O O6 0.509088 0.365950 0.822306
O O7 0.383134 0.330995 0.781408
O O8 0.375545 0.247571 0.630254
O O9 0.913225 0.500000 0.985836
O O10 0.891488 0.754075 0.990484
O O11 0.000000 0.660109 0.000000
O O12 0.820505 0.820589 0.221749
O O13 0.861401 0.809646 0.109514
O O14 0.891927 0.000000 0.226116
O O15 0.717025 0.500000 0.719486
O O16 0.758607 0.745200 0.735004
O O17 0.864008 0.000000 0.011347
O O18 0.262868 0.149816 0.415871
O O19 0.212620 0.000000 0.255784
O O20 0.851918 0.500000 0.588598
#
# Coordination Sequence:
#
# PCOD9177830 Si02
#       8
#     8   8   8   8   8   8   8   8
#     4   9  15  26  41  61  89 124 164 205 244 281
#     4  10  19  32  51  68  96 132 162 197 239 292
#     4   9  19  34  52  76 104 127 152 193 245 299
#     4   9  15  27  44  66  94 122 160 203 242 284
#     4   9  18  29  45  66  90 125 167 204 240 281
#     4   9  18  30  50  74  97 125 157 194 241 289
#     4  10  21  35  47  66  99 133 172 207 236 276
#     4  10  19  30  43  66  97 133 170 205 238 281
#
# _framework density 21.100224999999998
#
# number of rings (size 3 to 8) (size 9 to 14) (size 15 to 20)
#    0.750    1.875    1.250    1.500    0.000    3.000 
#    0.000    4.375    0.000    0.000    0.000    0.875 
#    0.000    0.000    0.000    0.000    0.000    0.000 
#
# Total GULP energy -178168.731787 kJ/mol
# GULP energy per Si atom -5567.772868 kJ/mol
# Density = 2.105220 g / cm^3
# Si number density = 21.100225 Si / 1000 Ang^3
#
#
#
# Elastic Constant Matrix: (Units=GPa)
#
#
# Indices 1 2 3 4 5 6 
#
# 1 83.2717 34.8447 1.6324 0.0000 -11.4042 0.0000
# 2 34.8447 98.4264 14.8685 0.0000 -16.5734 0.0000
# 3 1.6324 14.8685 48.0072 0.0000 -7.9117 0.0000
# 4 0.0000 0.0000 0.0000 -2.3532 0.0000 -15.0019
# 5 -11.4042 -16.5734 -7.9117 0.0000 25.4648 0.0000
# 6 0.0000 0.0000 0.0000 -15.0019 0.0000 6.5768
#
#
#
# Elastic Compliance Matrix: (Units=1/GPa)
#
#
# Indices 1 2 3 4 5 6 
#
# 1 0.014486 -0.004712 0.001613 0.000000 0.003922 0.000000
# 2 -0.004712 0.013219 -0.003018 0.000000 0.005556 0.000000
# 3 0.001613 -0.003018 0.022666 0.000000 0.005800 0.000000
# 4 0.000000 0.000000 0.000000 -0.027343 0.000000 -0.062369
# 5 0.003922 0.005556 0.005800 0.000000 0.046444 0.000000
# 6 0.000000 0.000000 0.000000 -0.062369 0.000000 0.009783
#
#
# Mechanical properties :
#
#
# Convention : Reuss Voigt Hill
#
# Bulk Modulus (GPa) = 26.22086 36.93292 31.57689
# Shear Modulus (GPa) = 47.98351 17.82834 32.90593
#
# Velocity S-wave (km/s) = 4.77390 2.90993 3.95334
# Velocity P-wave (km/s) = 6.54528 5.36953 5.98634
#
# Compressibility (1/GPa) = 0.03813757
#
# Stress axis : x y z
#
# Youngs Moduli (GPa) = 69.03253 75.64700 44.11882
#
# Poissons Ratio (x) = 0.35641 -0.07117
# Poissons Ratio (y) = 0.32525 0.13317
# Poissons Ratio (z) = -0.11135 0.22833
#
# Static dielectric constant tensor:
#      x y z
#    x 1.771510 0.000000 -0.029200 
#    y 0.000000 1.742340 0.000000 
#    z -0.029200 0.000000 1.791150 
# 
# From -- ./inp_files/289144.got.cif
#   From: 2010.05.17/outbox.cif.g08.bks.cpg/sg12_145_cif.got.tgz:289144.got - 2010.06.03 13:09:07.
