data_PCOD9177154
_publ_section_title
;
Structure prediction by ZEFSAII (Michael W. Deem and Ramdas Pophale) SiO2 
 PCOD9177154
Probable space group: C 2/M
;
_chemical_formula_sum "Si O2"
_cell_formula_units_Z 36
_cell_length_a 23.588807
_cell_length_b 8.401768
_cell_length_c 10.508292
_cell_angle_alpha 90.000000
_cell_angle_beta 115.755018
_cell_angle_gamma 90.000000
_cell_volume 1875.727562
_symmetry_space_group_name_H-M "C 2/M"
_symmetry_group_IT_number 12
_symmetry_cell_setting 'monoclinic'
loop_
_space_group_symop_operation_xyz
x,y,z
-x,y,-z
-x,-y,-z
x,-y,z
1/2+x,1/2+y,z
1/2-x,1/2+y,-z
1/2-x,1/2-y,-z
1/2+x,1/2-y,z
loop_
_atom_site_type_symbol
_atom_site_label
_atom_site_fract_x
_atom_site_fract_y
_atom_site_fract_z
Si Si1 0.078347 0.000000 0.353671
Si Si2 0.349523 0.753799 0.185751
Si Si3 0.431476 0.827102 0.498204
Si Si4 0.787147 0.668656 0.861230
Si Si5 0.564286 0.500000 0.860464
Si Si6 0.657248 0.500000 0.183279
O O1 0.080707 0.164191 0.436487
O O2 0.133226 0.000000 0.303202
O O3 0.010292 0.000000 0.217986
O O4 0.380432 0.836822 0.336073
O O5 0.286734 0.671750 0.178730
O O6 0.405853 0.646021 0.187347
O O7 0.323222 0.834044 0.032049
O O8 0.500000 0.812967 0.500000
O O9 0.430414 0.000000 0.567059
O O10 0.802096 0.500000 0.808426
O O11 0.805642 0.836399 0.813884
O O12 0.596588 0.500000 0.030069
#
# Coordination Sequence:
#
# PCOD9177154 Si02
#       6
#     4   8   8   8   4   4
#     4  12  23  42  59  84 126 164 194 237 287 369
#     4  10  19  35  63  95 114 146 194 256 312 329
#     4  11  23  37  61  91 118 151 197 250 301 350
#     4  10  21  37  62  90 120 149 195 252 293 353
#     4  10  18  38  64  89 118 151 197 253 298 338
#     4  10  25  39  58  88 120 167 198 225 300 358
#
# _framework density 19.192554000000001
#
# number of rings (size 3 to 8) (size 9 to 14) (size 15 to 20)
#    0.000    1.556    3.333    2.000    6.222    0.889 
#    0.000    1.111    0.000    4.000    0.000    0.000 
#    0.000    0.000    0.000    0.000    0.000    0.000 
#
# Total GULP energy -100203.248906 kJ/mol
# GULP energy per Si atom -5566.847161 kJ/mol
# Density = 1.914887 g / cm^3
# Si number density = 19.192554 Si / 1000 Ang^3
#
#
#
# Elastic Constant Matrix: (Units=GPa)
#
#
# Indices 1 2 3 4 5 6 
#
# 1 79.0037 51.7246 23.3888 0.0000 -4.0419 0.0000
# 2 51.7246 196.4523 37.0810 0.0000 -27.1045 0.0000
# 3 23.3888 37.0810 35.3427 0.0000 -5.9843 0.0000
# 4 0.0000 0.0000 0.0000 23.3954 0.0000 -25.6291
# 5 -4.0419 -27.1045 -5.9843 0.0000 33.4525 0.0000
# 6 0.0000 0.0000 0.0000 -25.6291 0.0000 57.1572
#
#
#
# Elastic Compliance Matrix: (Units=1/GPa)
#
#
# Indices 1 2 3 4 5 6 
#
# 1 0.017118 -0.003221 -0.008291 0.000000 -0.002025 0.000000
# 2 -0.003221 0.007542 -0.004963 0.000000 0.004834 0.000000
# 3 -0.008291 -0.004963 0.039329 0.000000 0.002013 0.000000
# 4 0.000000 0.000000 0.000000 0.084010 0.000000 0.037670
# 5 -0.002025 0.004834 0.002013 0.000000 0.033925 0.000000
# 6 0.000000 0.000000 0.000000 0.037670 0.000000 0.034387
#
#
# Mechanical properties :
#
#
# Convention : Reuss Voigt Hill
#
# Bulk Modulus (GPa) = 32.21836 59.46529 45.84183
# Shear Modulus (GPa) = 19.25991 36.04131 27.65061
#
# Velocity S-wave (km/s) = 3.17126 4.33815 3.79977
# Velocity P-wave (km/s) = 5.49841 7.49290 6.57176
#
# Compressibility (1/GPa) = 0.03103820
#
# Stress axis : x y z
#
# Youngs Moduli (GPa) = 58.41919 132.58831 25.42664
#
# Poissons Ratio (x) = 0.42712 0.21081
# Poissons Ratio (y) = 0.18819 0.12619
# Poissons Ratio (z) = 0.48436 0.65801
#
# Static dielectric constant tensor:
#      x y z
#    x 1.616800 0.000000 0.011110 
#    y 0.000000 1.758570 0.000000 
#    z 0.011110 0.000000 1.658970 
# 
# From -- ./inp_files/93137.got.cif
#   From: 2010.05.17/outbox.cif.g08.bks.cpg/sg12_47_cif.got.tgz:93137.got - 2010.06.03 13:09:07.
