data_PCOD9177370
_publ_section_title
;
Structure prediction by ZEFSAII (Michael W. Deem and Ramdas Pophale) SiO2 
 PCOD9177370
Probable space group: C 2/M
;
_chemical_formula_sum "Si O2"
_cell_formula_units_Z 64
_cell_length_a 19.925931
_cell_length_b 23.280776
_cell_length_c 11.737837
_cell_angle_alpha 90.000000
_cell_angle_beta 145.935500
_cell_angle_gamma 90.000000
_cell_volume 3049.929125
_symmetry_space_group_name_H-M "C 2/M"
_symmetry_group_IT_number 12
_symmetry_cell_setting 'monoclinic'
loop_
_space_group_symop_operation_xyz
x,y,z
-x,y,-z
-x,-y,-z
x,-y,z
1/2+x,1/2+y,z
1/2-x,1/2+y,-z
1/2-x,1/2-y,-z
1/2+x,1/2-y,z
loop_
_atom_site_type_symbol
_atom_site_label
_atom_site_fract_x
_atom_site_fract_y
_atom_site_fract_z
Si Si1 0.778346 0.684723 0.862405
Si Si2 0.331887 0.564962 0.043945
Si Si3 0.386501 0.896988 0.419998
Si Si4 0.130408 0.732591 0.515352
Si Si5 0.274419 0.939368 0.848902
Si Si6 0.043802 0.314848 0.181880
Si Si7 0.437920 0.061469 0.744204
Si Si8 0.059738 0.831498 0.701189
O O1 0.743067 0.735576 0.728877
O O2 0.743364 0.623123 0.757186
O O3 0.919982 0.682284 0.081893
O O4 0.693543 0.689277 0.853783
O O5 0.376254 0.500000 0.084558
O O6 0.232388 0.582843 0.812210
O O7 0.268223 0.563448 0.079247
O O8 0.427071 0.616641 0.191585
O O9 0.500000 0.910374 0.500000
O O10 0.385454 0.828702 0.444971
O O11 0.400209 0.928389 0.560594
O O12 0.021308 0.777310 0.380758
O O13 0.134125 0.719596 0.386803
O O14 0.226934 0.000000 0.734668
O O15 0.418088 0.941741 0.048993
O O16 0.092240 0.379664 0.233654
O O17 0.000000 0.291747 0.000000
O O18 0.391472 0.000000 0.722244
O O19 0.000000 0.854228 0.500000
#
# Coordination Sequence:
#
# PCOD9177370 Si02
#       8
#     8   8   8   8   8   8   8   8
#     4   9  18  34  52  75 102 136 164 213 257 307
#     4  10  19  28  47  74 106 144 170 203 254 307
#     4  11  19  28  45  78 110 140 165 201 255 321
#     4  10  22  35  51  75 104 138 178 210 261 307
#     4   8  14  27  45  70  99 133 168 198 245 299
#     4  10  22  36  52  75  99 133 177 217 259 306
#     4   9  17  30  47  69 102 132 163 208 250 304
#     4   9  19  36  51  77 105 136 177 212 254 309
#
# _framework density 20.984093999999999
#
# number of rings (size 3 to 8) (size 9 to 14) (size 15 to 20)
#    0.000    2.500    1.250    1.500    3.500    2.000 
#    0.000    1.875    0.000    0.000    0.000    0.000 
#    0.000    1.000    0.000    0.000    0.000    0.000 
#
# Total GULP energy -178403.541650 kJ/mol
# GULP energy per Si atom -5575.110677 kJ/mol
# Density = 2.093633 g / cm^3
# Si number density = 20.984094 Si / 1000 Ang^3
#
#
#
# Elastic Constant Matrix: (Units=GPa)
#
#
# Indices 1 2 3 4 5 6 
#
# 1 34.0215 6.2882 0.4945 0.0000 3.6663 0.0000
# 2 6.2882 121.3942 33.7608 0.0000 7.0429 0.0000
# 3 0.4945 33.7608 49.7495 0.0000 -9.1992 0.0000
# 4 0.0000 0.0000 0.0000 13.1052 0.0000 13.2894
# 5 3.6663 7.0429 -9.1992 0.0000 23.6960 0.0000
# 6 0.0000 0.0000 0.0000 13.2894 0.0000 -3.5334
#
#
#
# Elastic Compliance Matrix: (Units=1/GPa)
#
#
# Indices 1 2 3 4 5 6 
#
# 1 0.030098 -0.001225 -0.000282 0.000000 -0.004402 0.000000
# 2 -0.001225 0.011105 -0.008725 0.000000 -0.006498 0.000000
# 3 -0.000282 -0.008725 0.028563 0.000000 0.013725 0.000000
# 4 0.000000 0.000000 0.000000 0.015851 0.000000 0.059617
# 5 -0.004402 -0.006498 0.013725 0.000000 0.050142 0.000000
# 6 0.000000 0.000000 0.000000 0.059617 0.000000 -0.058790
#
#
# Mechanical properties :
#
#
# Convention : Reuss Voigt Hill
#
# Bulk Modulus (GPa) = 20.28357 31.80578 26.04467
# Shear Modulus (GPa) = 43.91124 17.62834 30.76979
#
# Velocity S-wave (km/s) = 4.57945 2.90156 3.83343
# Velocity P-wave (km/s) = 6.13588 5.13959 5.65970
#
# Compressibility (1/GPa) = 0.04930100
#
# Stress axis : x y z
#
# Youngs Moduli (GPa) = 33.22468 90.05231 35.01089
#
# Poissons Ratio (x) = 0.11035 0.00986
# Poissons Ratio (y) = 0.04071 0.30548
# Poissons Ratio (z) = 0.00936 0.78572
#
# Static dielectric constant tensor:
#      x y z
#    x 1.786280 0.000000 -0.007100 
#    y 0.000000 1.833580 0.000000 
#    z -0.007100 0.000000 1.743560 
# 
# From -- ./inp_files/184995.got.cif
#   From: 2010.05.17/outbox.cif.g08.bks.cpg/sg12_93_cif.got.tgz:184995.got - 2010.06.03 13:09:07.
