data_PCOD9177538
_publ_section_title
;
Structure prediction by ZEFSAII (Michael W. Deem and Ramdas Pophale) SiO2 
 PCOD9177538
Probable space group: C 2/M
;
_chemical_formula_sum "Si O2"
_cell_formula_units_Z 44
_cell_length_a 11.739782
_cell_length_b 24.235729
_cell_length_c 11.079304
_cell_angle_alpha 90.000000
_cell_angle_beta 35.995118
_cell_angle_gamma 90.000000
_cell_volume 1852.662653
_symmetry_space_group_name_H-M "C 2/M"
_symmetry_group_IT_number 12
_symmetry_cell_setting 'monoclinic'
loop_
_space_group_symop_operation_xyz
x,y,z
-x,y,-z
-x,-y,-z
x,-y,z
1/2+x,1/2+y,z
1/2-x,1/2+y,-z
1/2-x,1/2-y,-z
1/2+x,1/2-y,z
loop_
_atom_site_type_symbol
_atom_site_label
_atom_site_fract_x
_atom_site_fract_y
_atom_site_fract_z
Si Si1 0.237719 0.881034 0.308481
Si Si2 0.220147 0.125609 0.791746
Si Si3 0.262043 0.500000 0.694020
Si Si4 0.720231 0.685945 0.551146
Si Si5 0.793003 0.500000 0.731855
Si Si6 0.683657 0.375436 0.089730
Si Si7 0.190219 0.000000 0.085836
O O1 0.298037 0.840682 0.361355
O O2 0.299196 0.871439 0.116814
O O3 0.000000 0.879315 0.500000
O O4 0.292518 0.941612 0.310500
O O5 0.299967 0.159987 0.609199
O O6 0.208151 0.059966 0.770831
O O7 0.294949 0.130271 0.866317
O O8 0.000000 0.144855 0.000000
O O9 0.500000 0.500000 0.500000
O O10 0.192922 0.500000 0.891467
O O11 0.750000 0.750000 0.500000
O O12 0.492898 0.667746 0.751979
O O13 0.000000 0.500000 0.500000
O O14 0.806025 0.500000 0.864165
O O15 0.595490 0.438748 0.167439
#
# Coordination Sequence:
#
# PCOD9177538 Si02
#       7
#     8   8   4   8   4   8   4
#     4   8  14  25  44  70  97 123 157 208 262 310
#     4   9  18  33  55  79 104 133 171 220 266 308
#     4   8  12  21  43  74  98 117 152 207 264 308
#     4  10  19  29  43  69 103 133 170 218 256 291
#     4  10  19  32  52  82 115 142 165 204 268 336
#     4   8  15  30  52  76  98 125 163 213 264 312
#     4   8  14  27  51  80 102 121 158 215 264 312
#
# _framework density 23.749600000000001
#
# number of rings (size 3 to 8) (size 9 to 14) (size 15 to 20)
#    0.000    3.273    0.000    1.364    0.000    2.909 
#    0.000    3.636    0.000   17.455    0.000   11.455 
#    0.000    0.000    0.000    0.000    0.000    0.000 
#
# Total GULP energy -122510.452416 kJ/mol
# GULP energy per Si atom -5568.656928 kJ/mol
# Density = 2.369554 g / cm^3
# Si number density = 23.749600 Si / 1000 Ang^3
#
#
#
# Elastic Constant Matrix: (Units=GPa)
#
#
# Indices 1 2 3 4 5 6 
#
# 1 118.2383 63.2092 59.0483 0.0000 41.3839 0.0000
# 2 63.2092 219.3678 70.8604 0.0000 46.0674 0.0000
# 3 59.0483 70.8604 116.5796 0.0000 45.2835 0.0000
# 4 0.0000 0.0000 0.0000 28.7602 0.0000 10.4868
# 5 41.3839 46.0674 45.2835 0.0000 54.9520 0.0000
# 6 0.0000 0.0000 0.0000 10.4868 0.0000 58.3898
#
#
#
# Elastic Compliance Matrix: (Units=1/GPa)
#
#
# Indices 1 2 3 4 5 6 
#
# 1 0.012945 -0.001407 -0.003490 0.000000 -0.005693 0.000000
# 2 -0.001407 0.006138 -0.002105 0.000000 -0.002351 0.000000
# 3 -0.003490 -0.002105 0.014588 0.000000 -0.007629 0.000000
# 4 0.000000 0.000000 0.000000 0.037207 0.000000 -0.006682
# 5 -0.005693 -0.002351 -0.007629 0.000000 0.030743 0.000000
# 6 0.000000 0.000000 0.000000 -0.006682 0.000000 0.018326
#
#
# Mechanical properties :
#
#
# Convention : Reuss Voigt Hill
#
# Bulk Modulus (GPa) = 50.84545 93.38018 72.11281
# Shear Modulus (GPa) = 35.58547 45.82493 40.70520
#
# Velocity S-wave (km/s) = 3.87507 4.39738 4.14446
# Velocity P-wave (km/s) = 6.44026 8.07382 7.30286
#
# Compressibility (1/GPa) = 0.01966744
#
# Stress axis : x y z
#
# Youngs Moduli (GPa) = 77.24728 162.93009 68.54923
#
# Poissons Ratio (x) = 0.22926 0.23925
# Poissons Ratio (y) = 0.10870 0.14427
# Poissons Ratio (z) = 0.26960 0.34290
#
# Static dielectric constant tensor:
#      x y z
#    x 2.007090 0.000000 -0.034220 
#    y 0.000000 1.890670 0.000000 
#    z -0.034220 0.000000 1.982460 
# 
# From -- ./inp_files/65207.got.cif
#   From: 2010.05.17/outbox.cif.g08.bks.cpg/sg12_33_cif.got.tgz:65207.got - 2010.06.03 13:09:07.
