data_PCOD9177231
_publ_section_title
;
Structure prediction by ZEFSAII (Michael W. Deem and Ramdas Pophale) SiO2 
 PCOD9177231
Probable space group: C 2/M
;
_chemical_formula_sum "Si O2"
_cell_formula_units_Z 36
_cell_length_a 13.093209
_cell_length_b 11.330470
_cell_length_c 12.670418
_cell_angle_alpha 90.000000
_cell_angle_beta 126.153701
_cell_angle_gamma 90.000000
_cell_volume 1517.727404
_symmetry_space_group_name_H-M "C 2/M"
_symmetry_group_IT_number 12
_symmetry_cell_setting 'monoclinic'
loop_
_space_group_symop_operation_xyz
x,y,z
-x,y,-z
-x,-y,-z
x,-y,z
1/2+x,1/2+y,z
1/2-x,1/2+y,-z
1/2-x,1/2-y,-z
1/2+x,1/2-y,z
loop_
_atom_site_type_symbol
_atom_site_label
_atom_site_fract_x
_atom_site_fract_y
_atom_site_fract_z
Si Si1 0.613134 0.000000 0.726969
Si Si2 0.184100 0.636648 0.155009
Si Si3 0.573538 0.362724 0.353348
Si Si4 0.925609 0.300073 0.120101
Si Si5 0.162911 0.710410 0.597503
O O1 0.613623 0.897069 0.819425
O O2 0.613832 0.897354 0.635919
O O3 0.201505 0.500000 0.139828
O O4 0.291273 0.687132 0.295500
O O5 0.055338 0.651955 0.144073
O O6 0.167232 0.709150 0.036505
O O7 0.558858 0.500000 0.372277
O O8 0.468426 0.318738 0.205895
O O9 0.710322 0.342270 0.381521
O O10 0.581327 0.273956 0.457088
#
# Coordination Sequence:
#
# PCOD9177231 Si02
#       5
#     4   8   8   8   8
#     4  12  22  42  56 101 120 155 196 267 296 360
#     4  10  18  41  62  92 117 172 198 241 288 390
#     4  10  21  43  60  90 115 170 202 247 287 386
#     4  10  21  36  65  87 128 154 207 239 308 348
#     4  10  23  36  65  89 127 151 206 248 314 338
#
# _framework density 23.719674000000001
#
# number of rings (size 3 to 8) (size 9 to 14) (size 15 to 20)
#    0.000    1.778    3.333    1.333    0.000    3.556 
#    2.000    5.556    0.000    0.000    0.000    0.000 
#    0.000    0.000    0.000    0.000    0.000    0.000 
#
# Total GULP energy -100266.729152 kJ/mol
# GULP energy per Si atom -5570.373842 kJ/mol
# Density = 2.366569 g / cm^3
# Si number density = 23.719674 Si / 1000 Ang^3
#
#
#
# Elastic Constant Matrix: (Units=GPa)
#
#
# Indices 1 2 3 4 5 6 
#
# 1 60.2410 22.5460 42.0522 0.0000 -19.5497 0.0000
# 2 22.5460 159.9643 60.7614 0.0000 -12.3463 0.0000
# 3 42.0522 60.7614 173.8664 0.0000 -15.6716 0.0000
# 4 0.0000 0.0000 0.0000 41.9637 0.0000 -25.3571
# 5 -19.5497 -12.3463 -15.6716 0.0000 45.8363 0.0000
# 6 0.0000 0.0000 0.0000 -25.3571 0.0000 24.4808
#
#
#
# Elastic Compliance Matrix: (Units=1/GPa)
#
#
# Indices 1 2 3 4 5 6 
#
# 1 0.022590 -0.000888 -0.004443 0.000000 0.007877 0.000000
# 2 -0.000888 0.007299 -0.002263 0.000000 0.000814 0.000000
# 3 -0.004443 -0.002263 0.007626 0.000000 0.000103 0.000000
# 4 0.000000 0.000000 0.000000 0.063699 0.000000 0.065979
# 5 0.007877 0.000814 0.000103 0.000000 0.025430 0.000000
# 6 0.000000 0.000000 0.000000 0.065979 0.000000 0.109189
#
#
# Mechanical properties :
#
#
# Convention : Reuss Voigt Hill
#
# Bulk Modulus (GPa) = 44.78900 71.64343 58.21622
# Shear Modulus (GPa) = 19.34503 40.37030 29.85767
#
# Velocity S-wave (km/s) = 2.85892 4.12998 3.55177
# Velocity P-wave (km/s) = 5.46091 7.28094 6.43559
#
# Compressibility (1/GPa) = 0.02232691
#
# Stress axis : x y z
#
# Youngs Moduli (GPa) = 44.26663 137.00887 131.12647
#
# Poissons Ratio (x) = 0.12170 0.58265
# Poissons Ratio (y) = 0.03932 0.29668
# Poissons Ratio (z) = 0.19670 0.30999
#
# Static dielectric constant tensor:
#      x y z
#    x 2.041950 0.000000 0.062800 
#    y 0.000000 1.771460 0.000000 
#    z 0.062800 0.000000 1.867690 
# 
# From -- ./inp_files/140645.got.cif
#   From: 2010.05.17/outbox.cif.g08.bks.cpg/sg12_71_cif.got.tgz:140645.got - 2010.06.03 13:09:07.
