data_PCOD9177228
_publ_section_title
;
Structure prediction by ZEFSAII (Michael W. Deem and Ramdas Pophale) SiO2 
 PCOD9177228
Probable space group: C 2/M
;
_chemical_formula_sum "Si O2"
_cell_formula_units_Z 50
_cell_length_a 12.391352
_cell_length_b 26.102527
_cell_length_c 10.304241
_cell_angle_alpha 90.000000
_cell_angle_beta 126.781860
_cell_angle_gamma 90.000000
_cell_volume 2669.358641
_symmetry_space_group_name_H-M "C 2/M"
_symmetry_group_IT_number 12
_symmetry_cell_setting 'monoclinic'
loop_
_space_group_symop_operation_xyz
x,y,z
-x,y,-z
-x,-y,-z
x,-y,z
1/2+x,1/2+y,z
1/2-x,1/2+y,-z
1/2-x,1/2-y,-z
1/2+x,1/2-y,z
loop_
_atom_site_type_symbol
_atom_site_label
_atom_site_fract_x
_atom_site_fract_y
_atom_site_fract_z
Si Si1 0.356316 0.257537 0.906851
Si Si2 0.712361 0.918260 0.034252
Si Si3 0.160858 0.107197 0.599050
Si Si4 0.682553 0.799041 0.385868
Si Si5 0.925296 0.000000 0.085242
Si Si6 0.885496 0.000000 0.529407
Si Si7 0.382447 0.816953 0.174319
Si Si8 0.500000 0.000000 0.000000
O O1 0.341989 0.217999 0.779913
O O2 0.232698 0.296485 0.813191
O O3 0.500000 0.285573 0.000000
O O4 0.366147 0.223200 0.043136
O O5 0.777473 0.894585 0.212269
O O6 0.827986 0.951141 0.043559
O O7 0.652687 0.872971 0.903691
O O8 0.594903 0.955644 0.998770
O O9 0.220959 0.152140 0.554766
O O10 0.192899 0.052275 0.555652
O O11 0.000000 0.112782 0.500000
O O12 0.750000 0.750000 0.500000
O O13 0.534910 0.812556 0.334216
O O14 0.039167 0.000000 0.279749
O O15 0.000000 0.000000 0.000000
O O16 0.000000 0.000000 0.500000
#
# Coordination Sequence:
#
# PCOD9177228 Si02
#       8
#     8   8   8   8   4   4   8   2
#     4   9  20  38  58  83 119 162 201 252 310 377
#     4  11  20  39  64  93 120 163 212 275 331 379
#     4  11  21  35  65  90 124 162 214 273 322 388
#     4  11  24  37  58  91 127 168 215 267 327 375
#     4  11  23  40  61  97 135 162 208 273 334 412
#     4  10  18  41  61  94 128 158 218 265 328 394
#     4  10  21  38  60  84 122 159 211 257 309 381
#     4  10  22  32  64  92 114 144 216 266 320 380
#
# _framework density 18.731090999999999
#
# number of rings (size 3 to 8) (size 9 to 14) (size 15 to 20)
#    0.000    1.600    4.800    1.440    3.360    1.920 
#    2.880    0.000    0.000    0.000    0.000    3.360 
#    0.000    0.000    0.000    0.000    0.000    0.000 
#
# Total GULP energy -139172.602447 kJ/mol
# GULP energy per Si atom -5566.904098 kJ/mol
# Density = 1.868846 g / cm^3
# Si number density = 18.731091 Si / 1000 Ang^3
#
#
#
# Elastic Constant Matrix: (Units=GPa)
#
#
# Indices 1 2 3 4 5 6 
#
# 1 110.2824 59.1213 12.0348 0.0000 10.1103 0.0000
# 2 59.1213 134.3583 15.2622 0.0000 21.6732 0.0000
# 3 12.0348 15.2622 37.7181 0.0000 5.1391 0.0000
# 4 0.0000 0.0000 0.0000 21.4554 0.0000 2.7999
# 5 10.1103 21.6732 5.1391 0.0000 26.2754 0.0000
# 6 0.0000 0.0000 0.0000 2.7999 0.0000 24.7642
#
#
#
# Elastic Compliance Matrix: (Units=1/GPa)
#
#
# Indices 1 2 3 4 5 6 
#
# 1 0.011979 -0.005056 -0.001764 0.000000 -0.000094 0.000000
# 2 -0.005056 0.010970 -0.001909 0.000000 -0.006730 0.000000
# 3 -0.001764 -0.001909 0.028295 0.000000 -0.003281 0.000000
# 4 0.000000 0.000000 0.000000 0.047306 0.000000 -0.005349
# 5 -0.000094 -0.006730 -0.003281 0.000000 0.044287 0.000000
# 6 0.000000 0.000000 0.000000 -0.005349 0.000000 0.040986
#
#
# Mechanical properties :
#
#
# Convention : Reuss Voigt Hill
#
# Bulk Modulus (GPa) = 29.59682 50.57726 40.08704
# Shear Modulus (GPa) = 23.52488 27.56169 25.54329
#
# Velocity S-wave (km/s) = 3.54775 3.84010 3.69682
# Velocity P-wave (km/s) = 5.71115 6.83536 6.29839
#
# Compressibility (1/GPa) = 0.03378741
#
# Stress axis : x y z
#
# Youngs Moduli (GPa) = 83.47973 91.15974 35.34245
#
# Poissons Ratio (x) = 0.46086 0.06233
# Poissons Ratio (y) = 0.42203 0.06746
# Poissons Ratio (z) = 0.14723 0.17400
#
# Static dielectric constant tensor:
#      x y z
#    x 1.687510 0.000000 0.012240 
#    y 0.000000 1.643910 0.000000 
#    z 0.012240 0.000000 1.648860 
# 
# From -- ./inp_files/53388.got.cif
#   From: 2010.05.17/outbox.cif.g08.bks.cpg/sg12_27_cif.got.tgz:53388.got - 2010.06.03 13:09:07.
