data_PCOD9177666
_publ_section_title
;
Structure prediction by ZEFSAII (Michael W. Deem and Ramdas Pophale) SiO2 
 PCOD9177666
Probable space group: C 2/M
;
_chemical_formula_sum "Si O2"
_cell_formula_units_Z 48
_cell_length_a 5.589821
_cell_length_b 19.071129
_cell_length_c 20.672899
_cell_angle_alpha 90.000000
_cell_angle_beta 82.230144
_cell_angle_gamma 90.000000
_cell_volume 2183.584785
_symmetry_space_group_name_H-M "C 2/M"
_symmetry_group_IT_number 12
_symmetry_cell_setting 'monoclinic'
loop_
_space_group_symop_operation_xyz
x,y,z
-x,y,-z
-x,-y,-z
x,-y,z
1/2+x,1/2+y,z
1/2-x,1/2+y,-z
1/2-x,1/2-y,-z
1/2+x,1/2-y,z
loop_
_atom_site_type_symbol
_atom_site_label
_atom_site_fract_x
_atom_site_fract_y
_atom_site_fract_z
Si Si1 0.355899 0.393903 0.788198
Si Si2 0.113917 0.255596 0.272174
Si Si3 0.932694 0.081131 0.634617
Si Si4 0.835133 0.378481 0.829730
Si Si5 0.961502 0.415105 0.576999
Si Si6 0.737208 0.830221 0.025584
O O1 0.359334 0.308081 0.781324
O O2 0.393540 0.416812 0.712919
O O3 0.583184 0.416310 0.823100
O O4 0.093712 0.416310 0.823099
O O5 0.345608 0.250000 0.308792
O O6 0.133390 0.327824 0.233228
O O7 0.694186 0.111063 0.608561
O O8 0.197259 0.111063 0.608562
O O9 0.943635 0.000000 0.612735
O O10 0.801749 0.335034 0.896500
O O11 0.956623 0.500000 0.586759
O O12 0.000000 0.401528 0.500000
O O13 0.500000 0.862079 0.000000
O O14 0.750000 0.750000 0.000000
O O15 0.000000 0.862079 0.000000
#
# Coordination Sequence:
#
# PCOD9177666 Si02
#       6
#     8   8   8   8   8   8
#     4  10  19  29  46  63  93 129 155 185 230 273
#     4   8  16  25  42  56  84 116 148 175 226 259
#     4  10  19  31  47  72 101 124 157 193 222 273
#     4  10  19  31  44  64  95 124 152 190 234 279
#     4   9  17  30  49  70  97 128 151 183 237 285
#     4  10  21  27  43  64  92 125 150 179 230 295
#
# _framework density 21.982199000000001
#
# number of rings (size 3 to 8) (size 9 to 14) (size 15 to 20)
#    0.000    2.500    0.000    2.500   14.000    2.000 
#    0.000    0.000    0.000    0.000    0.000    0.000 
#    0.000  133.333    0.000    0.000    0.000    0.000 
#
# Total GULP energy -133759.090416 kJ/mol
# GULP energy per Si atom -5573.295434 kJ/mol
# Density = 2.193217 g / cm^3
# Si number density = 21.982199 Si / 1000 Ang^3
#
#
#
# Elastic Constant Matrix: (Units=GPa)
#
#
# Indices 1 2 3 4 5 6 
#
# 1 305.5591 6.7755 80.2080 0.0000 -11.4357 0.0000
# 2 6.7755 45.3734 1.9225 0.0000 -0.3960 0.0000
# 3 80.2080 1.9225 90.6035 0.0000 -6.1178 0.0000
# 4 0.0000 0.0000 0.0000 32.3471 0.0000 3.4783
# 5 -11.4357 -0.3960 -6.1178 0.0000 43.0930 0.0000
# 6 0.0000 0.0000 0.0000 3.4783 0.0000 -10.2472
#
#
#
# Elastic Compliance Matrix: (Units=1/GPa)
#
#
# Indices 1 2 3 4 5 6 
#
# 1 0.004289 -0.000477 -0.003746 0.000000 0.000602 0.000000
# 2 -0.000477 0.022113 -0.000043 0.000000 0.000071 0.000000
# 3 -0.003746 -0.000043 0.014426 0.000000 0.001053 0.000000
# 4 0.000000 0.000000 0.000000 0.029826 0.000000 0.010124
# 5 0.000602 0.000071 0.001053 0.000000 0.023516 0.000000
# 6 0.000000 0.000000 0.000000 0.010124 0.000000 -0.094151
#
#
# Mechanical properties :
#
#
# Convention : Reuss Voigt Hill
#
# Bulk Modulus (GPa) = 30.96273 68.81644 49.88958
# Shear Modulus (GPa) = 258.86695 36.54724 147.70709
#
# Velocity S-wave (km/s) = 10.86360 4.08190 8.20608
# Velocity P-wave (km/s) = 13.09477 7.32048 10.60807
#
# Compressibility (1/GPa) = 0.03229689
#
# Stress axis : x y z
#
# Youngs Moduli (GPa) = 233.14523 45.22247 69.32125
#
# Poissons Ratio (x) = 0.02155 0.25970
# Poissons Ratio (y) = 0.11110 0.00295
# Poissons Ratio (z) = 0.87343 0.00193
#
# Static dielectric constant tensor:
#      x y z
#    x 1.934200 0.000000 -0.017110 
#    y 0.000000 1.822300 0.000000 
#    z -0.017110 0.000000 1.724750 
# 
# From -- ./inp_files/192060.got.cif
#   From: 2010.05.17/outbox.cif.g08.bks.cpg/sg12_97_cif.got.tgz:192060.got - 2010.06.03 13:09:07.
