data_PCOD9177220
_publ_section_title
;
Structure prediction by ZEFSAII (Michael W. Deem and Ramdas Pophale) SiO2 
 PCOD9177220
Probable space group: C 2/M
;
_chemical_formula_sum "Si O2"
_cell_formula_units_Z 48
_cell_length_a 14.845682
_cell_length_b 11.040169
_cell_length_c 19.015509
_cell_angle_alpha 90.000000
_cell_angle_beta 142.438720
_cell_angle_gamma 90.000000
_cell_volume 1899.921376
_symmetry_space_group_name_H-M "C 2/M"
_symmetry_group_IT_number 12
_symmetry_cell_setting 'monoclinic'
loop_
_space_group_symop_operation_xyz
x,y,z
-x,y,-z
-x,-y,-z
x,-y,z
1/2+x,1/2+y,z
1/2-x,1/2+y,-z
1/2-x,1/2-y,-z
1/2+x,1/2-y,z
loop_
_atom_site_type_symbol
_atom_site_label
_atom_site_fract_x
_atom_site_fract_y
_atom_site_fract_z
Si Si1 0.908766 0.500000 0.757555
Si Si2 0.670782 0.728685 0.129360
Si Si3 0.146691 0.856307 0.275668
Si Si4 0.668045 0.000000 0.133052
Si Si5 0.460084 0.000000 0.558700
Si Si6 0.185560 0.000000 0.488071
Si Si7 0.370870 0.783020 0.132933
Si Si8 0.077205 0.761235 0.476100
O O1 0.016089 0.385903 0.822031
O O2 0.824677 0.500000 0.778526
O O3 0.793726 0.500000 0.622891
O O4 0.668779 0.694344 0.209907
O O5 0.781351 0.664151 0.144089
O O6 0.722955 0.867584 0.147042
O O7 0.500000 0.715575 0.000000
O O8 0.264716 0.787240 0.397954
O O9 0.984663 0.829428 0.206006
O O10 0.171212 0.000000 0.285060
O O11 0.500000 0.000000 0.000000
O O12 0.500000 0.000000 0.500000
O O13 0.298125 0.000000 0.493642
O O14 0.503085 0.140074 0.603546
O O15 0.094758 0.124379 0.436786
O O16 0.250000 0.750000 0.000000
O O17 0.000000 0.802955 0.500000
#
# Coordination Sequence:
#
# PCOD9177220 Si02
#       8
#     4   8   8   4   4   4   8   8
#     4  12  24  43  68 101 139 181 241 280 347 412
#     4  11  23  41  65  98 134 185 232 281 347 413
#     4  12  26  46  68 100 143 179 231 293 347 423
#     4  10  18  40  64  90 138 180 224 284 338 406
#     4  10  24  45  73 101 145 188 224 285 371 427
#     4  12  23  46  76 106 143 177 239 303 345 429
#     4  12  25  42  66  99 139 185 230 285 342 410
#     4  11  24  48  74 105 138 181 232 295 364 422
#
# _framework density 25.264203999999999
#
# number of rings (size 3 to 8) (size 9 to 14) (size 15 to 20)
#    0.000    0.667    5.833    1.750    3.500    3.000 
#    3.000    0.000    0.000    0.000    0.000    0.000 
#    0.000    0.000    0.000    0.000    0.000    0.000 
#
# Total GULP energy -134194.917955 kJ/mol
# GULP energy per Si atom -5591.454915 kJ/mol
# Density = 2.520670 g / cm^3
# Si number density = 25.264204 Si / 1000 Ang^3
#
#
#
# Elastic Constant Matrix: (Units=GPa)
#
#
# Indices 1 2 3 4 5 6 
#
# 1 143.7645 12.4827 23.0245 0.0000 14.1182 0.0000
# 2 12.4827 145.9363 2.2371 0.0000 0.0921 0.0000
# 3 23.0245 2.2371 132.6092 0.0000 -4.5965 0.0000
# 4 0.0000 0.0000 0.0000 -8.9808 0.0000 6.5216
# 5 14.1182 0.0921 -4.5965 0.0000 39.6111 0.0000
# 6 0.0000 0.0000 0.0000 6.5216 0.0000 34.6743
#
#
#
# Elastic Compliance Matrix: (Units=1/GPa)
#
#
# Indices 1 2 3 4 5 6 
#
# 1 0.007511 -0.000619 -0.001392 0.000000 -0.002837 0.000000
# 2 -0.000619 0.006905 -0.000002 0.000000 0.000204 0.000000
# 3 -0.001392 -0.000002 0.007831 0.000000 0.001405 0.000000
# 4 0.000000 0.000000 0.000000 -0.097968 0.000000 0.018426
# 5 -0.002837 0.000204 0.001405 0.000000 0.026419 0.000000
# 6 0.000000 0.000000 0.000000 0.018426 0.000000 0.025374
#
#
# Mechanical properties :
#
#
# Convention : Reuss Voigt Hill
#
# Bulk Modulus (GPa) = 54.88102 55.31095 55.09599
# Shear Modulus (GPa) = -361.61167 38.69865 -161.45651
#
# Velocity S-wave (km/s) = -11.97676 3.91801 -8.00287
# Velocity P-wave (km/s) = 13.01872 6.51217 7.97116
#
# Compressibility (1/GPa) = 0.01822124
#
# Stress axis : x y z
#
# Youngs Moduli (GPa) = 133.13517 144.81887 127.69147
#
# Poissons Ratio (x) = 0.08969 0.17775
# Poissons Ratio (y) = 0.08246 0.00024
# Poissons Ratio (z) = 0.18533 0.00027
#
# Static dielectric constant tensor:
#      x y z
#    x 2.136550 0.000000 -0.105430 
#    y 0.000000 2.088000 0.000000 
#    z -0.105430 0.000000 2.070440 
# 
# From -- ./inp_files/310326.got.cif
#   From: 2010.05.17/outbox.cif.g08.bks.cpg/sg12_156_cif.got.tgz:310326.got - 2010.06.03 13:09:07.
