data_PCOD9177103
_publ_section_title
;
Structure prediction by ZEFSAII (Michael W. Deem and Ramdas Pophale) SiO2 
 PCOD9177103
Probable space group: C 2/M
;
_chemical_formula_sum "Si O2"
_cell_formula_units_Z 56
_cell_length_a 12.428547
_cell_length_b 29.175853
_cell_length_c 9.419257
_cell_angle_alpha 90.000000
_cell_angle_beta 126.769206
_cell_angle_gamma 90.000000
_cell_volume 2736.036771
_symmetry_space_group_name_H-M "C 2/M"
_symmetry_group_IT_number 12
_symmetry_cell_setting 'monoclinic'
loop_
_space_group_symop_operation_xyz
x,y,z
-x,y,-z
-x,-y,-z
x,-y,z
1/2+x,1/2+y,z
1/2-x,1/2+y,-z
1/2-x,1/2-y,-z
1/2+x,1/2-y,z
loop_
_atom_site_type_symbol
_atom_site_label
_atom_site_fract_x
_atom_site_fract_y
_atom_site_fract_z
Si Si1 0.358512 0.000000 0.974631
Si Si2 0.034833 0.500000 0.364968
Si Si3 0.622780 0.364805 0.191040
Si Si4 0.252493 0.177797 0.019158
Si Si5 0.991330 0.795890 0.662951
Si Si6 0.833331 0.598262 0.876235
Si Si7 0.031742 0.697038 0.359576
Si Si8 0.821244 0.598729 0.553098
O O1 0.398712 0.000000 0.168782
O O2 0.500000 0.000000 0.000000
O O3 0.292189 0.047035 0.882823
O O4 0.105958 0.548931 0.385380
O O5 0.000000 0.500000 0.500000
O O6 0.699246 0.333439 0.135445
O O7 0.572788 0.334393 0.285319
O O8 0.719549 0.401346 0.341173
O O9 0.500000 0.383690 0.000000
O O10 0.401377 0.196176 0.157155
O O11 0.144164 0.206495 0.844611
O O12 0.275348 0.131652 0.947658
O O13 0.000000 0.805465 0.500000
O O14 0.911684 0.748043 0.626221
O O15 0.770686 0.606691 0.672792
O O16 0.000000 0.601878 0.000000
O O17 0.096473 0.646515 0.400232
O O18 0.000000 0.700950 0.500000
#
# Coordination Sequence:
#
# PCOD9177103 Si02
#       8
#     4   4   8   8   8   8   8   8
#     4  10  18  38  54  89 138 149 200 247 310 377
#     4  12  24  34  63  99 130 164 197 257 323 371
#     4  10  24  43  62  86 126 169 209 262 304 362
#     4  11  21  40  60  90 125 162 204 259 315 363
#     4  10  23  43  60  85 120 171 215 248 303 370
#     4  11  20  35  61  93 128 162 196 254 311 381
#     4  11  21  37  61  92 123 156 204 260 313 367
#     4  12  22  40  62  92 128 161 207 252 314 373
#
# _framework density 20.467561
#
# number of rings (size 3 to 8) (size 9 to 14) (size 15 to 20)
#    0.000    1.143    5.714    1.714    2.000    0.571 
#   10.286    0.357    0.000    2.571    0.000    9.000 
#    0.000    0.000    0.000    0.000    0.000    0.000 
#
# Total GULP energy -155925.110784 kJ/mol
# GULP energy per Si atom -5568.753957 kJ/mol
# Density = 2.042098 g / cm^3
# Si number density = 20.467561 Si / 1000 Ang^3
#
#
#
# Elastic Constant Matrix: (Units=GPa)
#
#
# Indices 1 2 3 4 5 6 
#
# 1 37.4501 18.6150 25.6184 0.0000 -12.2054 0.0000
# 2 18.6150 116.1742 29.2515 0.0000 -0.5619 0.0000
# 3 25.6184 29.2515 139.9611 0.0000 -14.2439 0.0000
# 4 0.0000 0.0000 0.0000 36.9033 0.0000 -3.0970
# 5 -12.2054 -0.5619 -14.2439 0.0000 39.8803 0.0000
# 6 0.0000 0.0000 0.0000 -3.0970 0.0000 -1.7394
#
#
#
# Elastic Compliance Matrix: (Units=1/GPa)
#
#
# Indices 1 2 3 4 5 6 
#
# 1 0.034947 -0.004408 -0.004559 0.000000 0.009005 0.000000
# 2 -0.004408 0.009654 -0.001385 0.000000 -0.001708 0.000000
# 3 -0.004559 -0.001385 0.008431 0.000000 0.001597 0.000000
# 4 0.000000 0.000000 0.000000 0.023575 0.000000 -0.041975
# 5 0.009005 -0.001708 0.001597 0.000000 0.028377 0.000000
# 6 0.000000 0.000000 0.000000 -0.041975 0.000000 -0.500173
#
#
# Mechanical properties :
#
#
# Convention : Reuss Voigt Hill
#
# Bulk Modulus (GPa) = 30.93207 48.95058 39.94132
# Shear Modulus (GPa) = -13.74727 29.68220 7.96746
#
# Velocity S-wave (km/s) = -2.59446 3.81229 1.97514
# Velocity P-wave (km/s) = 2.48407 6.58378 4.97578
#
# Compressibility (1/GPa) = 0.03232891
#
# Stress axis : x y z
#
# Youngs Moduli (GPa) = 28.61495 103.57873 118.60735
#
# Poissons Ratio (x) = 0.45659 0.54072
# Poissons Ratio (y) = 0.12614 0.16423
# Poissons Ratio (z) = 0.13045 0.14342
#
# Static dielectric constant tensor:
#      x y z
#    x 1.768410 0.000000 0.064800 
#    y 0.000000 1.765250 0.000000 
#    z 0.064800 0.000000 1.732000 
# 
# From -- ./inp_files/54848.got.cif
#   From: 2010.05.17/outbox.cif.g08.bks.cpg/sg12_28_cif.got.tgz:54848.got - 2010.06.03 13:09:07.
