data_PCOD9177363
_publ_section_title
;
Structure prediction by ZEFSAII (Michael W. Deem and Ramdas Pophale) SiO2 
 PCOD9177363
Probable space group: C 2/M
;
_chemical_formula_sum "Si O2"
_cell_formula_units_Z 64
_cell_length_a 11.242203
_cell_length_b 23.280284
_cell_length_c 14.452601
_cell_angle_alpha 90.000000
_cell_angle_beta 108.575011
_cell_angle_gamma 90.000000
_cell_volume 3585.515778
_symmetry_space_group_name_H-M "C 2/M"
_symmetry_group_IT_number 12
_symmetry_cell_setting 'monoclinic'
loop_
_space_group_symop_operation_xyz
x,y,z
-x,y,-z
-x,-y,-z
x,-y,z
1/2+x,1/2+y,z
1/2-x,1/2+y,-z
1/2-x,1/2-y,-z
1/2+x,1/2-y,z
loop_
_atom_site_type_symbol
_atom_site_label
_atom_site_fract_x
_atom_site_fract_y
_atom_site_fract_z
Si Si1 0.569680 0.291176 0.610250
Si Si2 0.458607 0.842367 0.387282
Si Si3 0.090831 0.877141 0.105134
Si Si4 0.692447 0.793122 0.913918
Si Si5 0.985401 0.781831 0.780063
Si Si6 0.159733 0.671975 0.271625
Si Si7 0.487406 0.894788 0.099697
Si Si8 0.677332 0.936061 0.769138
O O1 0.500000 0.308333 0.500000
O O2 0.595165 0.222152 0.611636
O O3 0.474956 0.299449 0.671720
O O4 0.696247 0.325271 0.664244
O O5 0.500000 0.862118 0.500000
O O6 0.574174 0.836853 0.342657
O O7 0.365877 0.886423 0.312666
O O8 0.197319 0.832641 0.096460
O O9 0.013385 0.837669 0.156677
O O10 0.176392 0.926243 0.170857
O O11 0.000000 0.895746 0.000000
O O12 0.613338 0.754932 0.822591
O O13 0.591765 0.836091 0.934041
O O14 0.750000 0.750000 0.000000
O O15 0.879165 0.735008 0.776653
O O16 0.114356 0.625449 0.184190
O O17 0.404963 0.928173 0.156633
O O18 0.500000 0.920923 0.000000
O O19 0.654963 0.000000 0.727564
#
# Coordination Sequence:
#
# PCOD9177363 Si02
#       8
#     8   8   8   8   8   8   8   8
#     4  10  20  31  48  75 108 141 163 189 242 306
#     4   9  19  35  53  74  98 129 167 210 253 298
#     4  11  21  32  48  75 103 138 170 196 248 297
#     4  10  19  28  45  74 106 132 162 198 231 293
#     4  10  19  29  47  70 104 139 167 199 234 290
#     4   9  18  31  46  73 109 135 163 195 235 296
#     4   9  20  32  51  74  98 134 167 205 248 294
#     4  10  22  39  52  71  97 123 173 227 256 288
#
# _framework density 17.849592999999999
#
# number of rings (size 3 to 8) (size 9 to 14) (size 15 to 20)
#    0.000    2.250    1.250    3.750    5.250    6.250 
#    0.000    0.000    0.000    0.000    0.000    0.875 
#    0.000    9.500    0.000    0.000    0.000    0.000 
#
# Total GULP energy -178313.806594 kJ/mol
# GULP energy per Si atom -5572.306456 kJ/mol
# Density = 1.780897 g / cm^3
# Si number density = 17.849593 Si / 1000 Ang^3
#
#
#
# Elastic Constant Matrix: (Units=GPa)
#
#
# Indices 1 2 3 4 5 6 
#
# 1 42.8922 5.4286 13.5454 0.0000 17.1889 0.0000
# 2 5.4286 38.0608 5.3474 0.0000 8.4284 0.0000
# 3 13.5454 5.3474 95.9795 0.0000 10.8633 0.0000
# 4 0.0000 0.0000 0.0000 9.7596 0.0000 1.4246
# 5 17.1889 8.4284 10.8633 0.0000 26.9517 0.0000
# 6 0.0000 0.0000 0.0000 1.4246 0.0000 7.0583
#
#
#
# Elastic Compliance Matrix: (Units=1/GPa)
#
#
# Indices 1 2 3 4 5 6 
#
# 1 0.031795 0.000079 -0.002299 0.000000 -0.019376 0.000000
# 2 0.000079 0.028262 -0.000607 0.000000 -0.008644 0.000000
# 3 -0.002299 -0.000607 0.011096 0.000000 -0.002816 0.000000
# 4 0.000000 0.000000 0.000000 0.105574 0.000000 -0.021308
# 5 -0.019376 -0.008644 -0.002816 0.000000 0.053299 0.000000
# 6 0.000000 0.000000 0.000000 -0.021308 0.000000 0.145977
#
#
# Mechanical properties :
#
#
# Convention : Reuss Voigt Hill
#
# Bulk Modulus (GPa) = 15.26750 25.06391 20.16571
# Shear Modulus (GPa) = 12.39188 18.92801 15.65995
#
# Velocity S-wave (km/s) = 2.63770 3.25994 2.96519
# Velocity P-wave (km/s) = 4.22476 5.31430 4.80054
#
# Compressibility (1/GPa) = 0.06549862
#
# Stress axis : x y z
#
# Youngs Moduli (GPa) = 31.45144 35.38330 90.12343
#
# Poissons Ratio (x) = -0.00279 0.20715
# Poissons Ratio (y) = -0.00248 0.05474
# Poissons Ratio (z) = 0.07229 0.02149
#
# Static dielectric constant tensor:
#      x y z
#    x 1.657330 0.000000 -0.010450 
#    y 0.000000 1.605710 0.000000 
#    z -0.010450 0.000000 1.658950 
# 
# From -- ./inp_files/207708.got.cif
#   From: 2010.05.17/outbox.cif.g08.bks.cpg/sg12_104_cif.got.tgz:207708.got - 2010.06.03 13:09:07.
