data_PCOD9177195
_publ_section_title
;
Structure prediction by ZEFSAII (Michael W. Deem and Ramdas Pophale) SiO2 
 PCOD9177195
Probable space group: C 2/M
;
_chemical_formula_sum "Si O2"
_cell_formula_units_Z 40
_cell_length_a 7.558786
_cell_length_b 14.887730
_cell_length_c 19.250980
_cell_angle_alpha 90.000000
_cell_angle_beta 127.124104
_cell_angle_gamma 90.000000
_cell_volume 1727.314950
_symmetry_space_group_name_H-M "C 2/M"
_symmetry_group_IT_number 12
_symmetry_cell_setting 'monoclinic'
loop_
_space_group_symop_operation_xyz
x,y,z
-x,y,-z
-x,-y,-z
x,-y,z
1/2+x,1/2+y,z
1/2-x,1/2+y,-z
1/2-x,1/2-y,-z
1/2+x,1/2-y,z
loop_
_atom_site_type_symbol
_atom_site_label
_atom_site_fract_x
_atom_site_fract_y
_atom_site_fract_z
Si Si1 0.194072 0.275167 0.758705
Si Si2 0.040098 0.312106 0.935023
Si Si3 0.724460 0.901787 0.645390
Si Si4 0.215188 0.857349 0.499942
Si Si5 0.625959 0.102853 0.235305
O O1 0.354186 0.258512 0.862714
O O2 0.298791 0.325461 0.717321
O O3 0.171629 0.171745 0.728976
O O4 0.009016 0.344600 0.738166
O O5 0.023930 0.385036 0.869932
O O6 0.250000 0.250000 0.000000
O O7 0.000000 0.356057 0.000000
O O8 0.453218 0.894442 0.581855
O O9 0.793278 0.893170 0.580988
O O10 0.793621 0.000000 0.687554
O O11 0.250000 0.750000 0.500000
O O12 0.000000 0.873717 0.500000
O O13 0.676308 0.000000 0.261360
#
# Coordination Sequence:
#
# PCOD9177195 Si02
#       5
#     8   8   8   8   8
#     4  10  23  41  70  95 144 175 230 295 343 409
#     4  10  18  39  65  94 135 178 224 293 345 408
#     4  11  25  45  70 104 143 188 240 293 357 438
#     4  11  23  42  73 102 140 186 232 291 361 422
#     4  10  22  41  68  97 132 183 233 284 354 416
#
# _framework density 23.157329000000001
#
# number of rings (size 3 to 8) (size 9 to 14) (size 15 to 20)
#    1.200    0.400    4.000    1.800    2.800    2.000 
#    0.000    5.000    0.000    0.000    0.000    0.000 
#    0.000    0.000    0.000    0.000    0.000    0.000 
#
# Total GULP energy -111351.849709 kJ/mol
# GULP energy per Si atom -5567.592485 kJ/mol
# Density = 2.310462 g / cm^3
# Si number density = 23.157329 Si / 1000 Ang^3
#
#
#
# Elastic Constant Matrix: (Units=GPa)
#
#
# Indices 1 2 3 4 5 6 
#
# 1 173.5465 40.4658 33.4131 0.0000 -29.8983 0.0000
# 2 40.4658 206.2377 24.0743 0.0000 -20.2692 0.0000
# 3 33.4131 24.0743 102.9800 0.0000 -22.9290 0.0000
# 4 0.0000 0.0000 0.0000 29.5169 0.0000 -2.4535
# 5 -29.8983 -20.2692 -22.9290 0.0000 36.8472 0.0000
# 6 0.0000 0.0000 0.0000 -2.4535 0.0000 25.1444
#
#
#
# Elastic Compliance Matrix: (Units=1/GPa)
#
#
# Indices 1 2 3 4 5 6 
#
# 1 0.006930 -0.000791 -0.001055 0.000000 0.004532 0.000000
# 2 -0.000791 0.005255 -0.000547 0.000000 0.001909 0.000000
# 3 -0.001055 -0.000547 0.011519 0.000000 0.006011 0.000000
# 4 0.000000 0.000000 0.000000 0.034156 0.000000 0.003333
# 5 0.004532 0.001909 0.006011 0.000000 0.035607 0.000000
# 6 0.000000 0.000000 0.000000 0.003333 0.000000 0.040095
#
#
# Mechanical properties :
#
#
# Convention : Reuss Voigt Hill
#
# Bulk Modulus (GPa) = 52.85591 75.40785 64.13188
# Shear Modulus (GPa) = 34.56487 43.95578 39.26033
#
# Velocity S-wave (km/s) = 3.86762 4.36149 4.12196
# Velocity P-wave (km/s) = 6.54362 7.61560 7.09987
#
# Compressibility (1/GPa) = 0.01891936
#
# Stress axis : x y z
#
# Youngs Moduli (GPa) = 144.29073 190.27862 86.81204
#
# Poissons Ratio (x) = 0.15057 0.09155
# Poissons Ratio (y) = 0.11418 0.04748
# Poissons Ratio (z) = 0.15217 0.10406
#
# Static dielectric constant tensor:
#      x y z
#    x 2.061980 0.000000 -0.005320 
#    y 0.000000 1.864910 0.000000 
#    z -0.005320 0.000000 1.872940 
# 
# From -- ./inp_files/299612.got.cif
#   From: 2010.05.17/outbox.cif.g08.bks.cpg/sg12_150_cif.got.tgz:299612.got - 2010.06.03 13:09:07.
