data_PCOD9177141
_publ_section_title
;
Structure prediction by ZEFSAII (Michael W. Deem and Ramdas Pophale) SiO2 
 PCOD9177141
Probable space group: C 2/M
;
_chemical_formula_sum "Si O2"
_cell_formula_units_Z 26
_cell_length_a 8.723953
_cell_length_b 14.485712
_cell_length_c 11.973000
_cell_angle_alpha 90.000000
_cell_angle_beta 136.948758
_cell_angle_gamma 90.000000
_cell_volume 1032.893679
_symmetry_space_group_name_H-M "C 2/M"
_symmetry_group_IT_number 12
_symmetry_cell_setting 'monoclinic'
loop_
_space_group_symop_operation_xyz
x,y,z
-x,y,-z
-x,-y,-z
x,-y,z
1/2+x,1/2+y,z
1/2-x,1/2+y,-z
1/2-x,1/2-y,-z
1/2+x,1/2-y,z
loop_
_atom_site_type_symbol
_atom_site_label
_atom_site_fract_x
_atom_site_fract_y
_atom_site_fract_z
Si Si1 0.627222 0.184184 0.343208
Si Si2 0.791266 0.500000 0.727883
Si Si3 0.177819 0.855382 0.231101
Si Si4 0.683274 0.500000 0.928669
Si Si5 0.500000 0.000000 0.500000
O O1 0.750000 0.250000 0.500000
O O2 0.748755 0.091164 0.367436
O O3 0.380704 0.154784 0.252013
O O4 0.614539 0.252863 0.232161
O O5 0.681305 0.500000 0.791929
O O6 0.059479 0.500000 0.896594
O O7 0.305725 0.919227 0.390760
O O8 0.951417 0.912616 0.094612
#
# Coordination Sequence:
#
# PCOD9177141 Si02
#       5
#     8   4   8   4   2
#     4  12  24  42  70 106 145 192 238 308 367 435
#     4  11  26  48  72 104 149 190 253 299 369 436
#     4  11  23  41  69 103 144 188 242 300 366 433
#     4  10  25  48  74 103 140 202 242 307 358 441
#     4  10  18  38  62  94 140 180 232 300 340 436
#
# _framework density 25.172000000000001
#
# number of rings (size 3 to 8) (size 9 to 14) (size 15 to 20)
#    0.000    0.923    3.077    3.692    0.000    3.692 
#    0.000    4.615    0.000    0.000    0.000    0.000 
#    0.000    0.000    0.000    0.000    0.000    0.000 
#
# Total GULP energy -72450.384031 kJ/mol
# GULP energy per Si atom -5573.106464 kJ/mol
# Density = 2.511471 g / cm^3
# Si number density = 25.172000 Si / 1000 Ang^3
#
#
#
# Elastic Constant Matrix: (Units=GPa)
#
#
# Indices 1 2 3 4 5 6 
#
# 1 201.7803 79.5852 51.2315 0.0008 22.8881 0.0004
# 2 79.5852 234.2684 26.4092 0.0012 -1.1066 0.0006
# 3 51.2315 26.4092 123.2868 0.0058 27.1273 0.0031
# 4 0.0008 0.0012 0.0058 -521.0532 0.0022 -245.1664
# 5 22.8881 -1.1066 27.1273 0.0022 46.0774 0.0011
# 6 0.0004 0.0006 0.0031 -245.1664 0.0011 -75.9915
#
#
#
# Elastic Compliance Matrix: (Units=1/GPa)
#
#
# Indices 1 2 3 4 5 6 
#
# 1 0.006443 -0.002001 -0.001762 0.000000 -0.002211 0.000000
# 2 -0.002001 0.005018 -0.000562 0.000000 0.001445 0.000000
# 3 -0.001762 -0.000562 0.010080 0.000000 -0.005072 0.000000
# 4 0.000000 0.000000 0.000000 0.003705 0.000000 -0.011953
# 5 -0.002211 0.001445 -0.005072 0.000000 0.025822 0.000000
# 6 0.000000 0.000000 0.000000 -0.011953 0.000000 0.025404
#
#
# Mechanical properties :
#
#
# Convention : Reuss Voigt Hill
#
# Bulk Modulus (GPa) = 77.56544 97.08747 87.32646
# Shear Modulus (GPa) = 55.91667 -83.38617 -13.73475
#
# Velocity S-wave (km/s) = 4.71827 -5.76181 -2.33842
# Velocity P-wave (km/s) = 7.78228 2.36881 5.24178
#
# Compressibility (1/GPa) = 0.01289234
#
# Stress axis : x y z
#
# Youngs Moduli (GPa) = 155.20142 199.26684 99.20693
#
# Poissons Ratio (x) = 0.39866 0.17484
# Poissons Ratio (y) = 0.31050 0.05571
# Poissons Ratio (z) = 0.27353 0.11190
#
# Static dielectric constant tensor:
#      x y z
#    x 1.987310 0.000000 -0.117950 
#    y 0.000000 1.913100 0.000000 
#    z -0.117950 0.000000 2.096870 
# 
# From -- ./inp_files/194344.got.cif
#   From: 2010.05.17/outbox.cif.g08.bks.cpg/sg12_98_cif.got.tgz:194344.got - 2010.06.03 13:09:07.
