data_PCOD9177891
_publ_section_title
;
Structure prediction by ZEFSAII (Michael W. Deem and Ramdas Pophale) SiO2 
 PCOD9177891
Probable space group: C 2/M
;
_chemical_formula_sum "Si O2"
_cell_formula_units_Z 56
_cell_length_a 23.289341
_cell_length_b 8.971439
_cell_length_c 22.069454
_cell_angle_alpha 90.000000
_cell_angle_beta 130.422517
_cell_angle_gamma 90.000000
_cell_volume 3510.405911
_symmetry_space_group_name_H-M "C 2/M"
_symmetry_group_IT_number 12
_symmetry_cell_setting 'monoclinic'
loop_
_space_group_symop_operation_xyz
x,y,z
-x,y,-z
-x,-y,-z
x,-y,z
1/2+x,1/2+y,z
1/2-x,1/2+y,-z
1/2-x,1/2-y,-z
1/2+x,1/2-y,z
loop_
_atom_site_type_symbol
_atom_site_label
_atom_site_fract_x
_atom_site_fract_y
_atom_site_fract_z
Si Si1 0.259211 0.821590 0.094152
Si Si2 0.628228 0.323733 0.925166
Si Si3 0.416383 0.679766 0.423272
Si Si4 0.621784 0.822768 0.730455
Si Si5 0.509267 0.822108 0.764950
Si Si6 0.696258 0.679175 0.546943
Si Si7 0.352637 0.677924 0.622469
O O1 0.310374 0.726940 0.083062
O O2 0.295415 0.791806 0.184360
O O3 0.271543 0.000000 0.090675
O O4 0.172166 0.790930 0.018212
O O5 0.614901 0.500000 0.912352
O O6 0.553295 0.237966 0.854131
O O7 0.500000 0.729858 0.500000
O O8 0.417034 0.500000 0.422021
O O9 0.395027 0.739587 0.342861
O O10 0.356160 0.725439 0.433125
O O11 0.561318 0.783495 0.741827
O O12 0.615997 0.000000 0.716538
O O13 0.427940 0.750242 0.700216
O O14 0.504148 0.000000 0.764094
O O15 0.706743 0.500000 0.556177
O O16 0.655883 0.713581 0.455146
O O17 0.777174 0.757785 0.601366
O O18 0.355442 0.500000 0.630646
#
# Coordination Sequence:
#
# PCOD9177891 Si02
#       7
#     8   8   8   8   8   8   8
#     4   8  15  27  40  59  90 122 150 185 228 269
#     4   9  15  24  41  63  88 119 153 186 222 270
#     4  10  20  33  48  67  93 123 153 186 223 264
#     4   9  18  30  44  65  93 124 155 186 223 267
#     4  10  19  30  44  66  97 125 150 187 233 272
#     4   9  19  34  49  67  93 121 149 187 232 269
#     4  10  19  32  51  70  88 116 155 192 226 271
#
# _framework density 15.952572
#
# number of rings (size 3 to 8) (size 9 to 14) (size 15 to 20)
#    0.000    2.714    0.000    3.000    0.000    6.000 
#    0.000    0.000    0.000    0.000    0.000    1.000 
#    0.000    8.000    0.000    0.000    0.000    0.000 
#
# Total GULP energy -155955.568247 kJ/mol
# GULP energy per Si atom -5569.841723 kJ/mol
# Density = 1.591626 g / cm^3
# Si number density = 15.952572 Si / 1000 Ang^3
#
#
#
# Elastic Constant Matrix: (Units=GPa)
#
#
# Indices 1 2 3 4 5 6 
#
# 1 70.0267 32.0859 66.2839 0.0000 12.6875 0.0000
# 2 32.0859 32.9211 49.2571 0.0000 12.0558 0.0000
# 3 66.2839 49.2571 156.5500 0.0000 26.4360 0.0000
# 4 0.0000 0.0000 0.0000 27.5243 0.0000 0.4799
# 5 12.6875 12.0558 26.4360 0.0000 25.8339 0.0000
# 6 0.0000 0.0000 0.0000 0.4799 0.0000 17.1770
#
#
#
# Elastic Compliance Matrix: (Units=1/GPa)
#
#
# Indices 1 2 3 4 5 6 
#
# 1 0.028833 -0.018860 -0.006490 0.000000 0.001283 0.000000
# 2 -0.018860 0.071971 -0.012756 0.000000 -0.011270 0.000000
# 3 -0.006490 -0.012756 0.014030 0.000000 -0.005217 0.000000
# 4 0.000000 0.000000 0.000000 0.036349 0.000000 -0.001016
# 5 0.001283 -0.011270 -0.005217 0.000000 0.048677 0.000000
# 6 0.000000 0.000000 0.000000 -0.001016 0.000000 0.058246
#
#
# Mechanical properties :
#
#
# Convention : Reuss Voigt Hill
#
# Bulk Modulus (GPa) = 25.89306 61.63906 43.76606
# Shear Modulus (GPa) = 14.40119 21.56509 17.98314
#
# Velocity S-wave (km/s) = 3.00784 3.68071 3.36115
# Velocity P-wave (km/s) = 5.32253 7.53567 6.52363
#
# Compressibility (1/GPa) = 0.03862039
#
# Stress axis : x y z
#
# Youngs Moduli (GPa) = 34.68246 13.89454 71.27353
#
# Poissons Ratio (x) = 0.26205 0.46260
# Poissons Ratio (y) = 0.65411 0.90919
# Poissons Ratio (z) = 0.22511 0.17724
#
# Static dielectric constant tensor:
#      x y z
#    x 1.509500 0.000000 0.011440 
#    y 0.000000 1.534000 0.000000 
#    z 0.011440 0.000000 1.560340 
# 
# From -- ./inp_files/287869.got.cif
#   From: 2010.05.17/outbox.cif.g08.bks.cpg/sg12_144_cif.got.tgz:287869.got - 2010.06.03 13:09:07.
