data_PCOD9177296
_publ_section_title
;
Structure prediction by ZEFSAII (Michael W. Deem and Ramdas Pophale) SiO2 
 PCOD9177296
Probable space group: C 2/M
;
_chemical_formula_sum "Si O2"
_cell_formula_units_Z 64
_cell_length_a 28.711160
_cell_length_b 9.047608
_cell_length_c 16.556768
_cell_angle_alpha 90.000000
_cell_angle_beta 87.506522
_cell_angle_gamma 90.000000
_cell_volume 4296.835083
_symmetry_space_group_name_H-M "C 2/M"
_symmetry_group_IT_number 12
_symmetry_cell_setting 'monoclinic'
loop_
_space_group_symop_operation_xyz
x,y,z
-x,y,-z
-x,-y,-z
x,-y,z
1/2+x,1/2+y,z
1/2-x,1/2+y,-z
1/2-x,1/2-y,-z
1/2+x,1/2-y,z
loop_
_atom_site_type_symbol
_atom_site_label
_atom_site_fract_x
_atom_site_fract_y
_atom_site_fract_z
Si Si1 0.920241 0.321216 0.153578
Si Si2 0.818987 0.830332 0.453171
Si Si3 0.982237 0.672401 0.908391
Si Si4 0.614491 0.178771 0.026082
Si Si5 0.249588 0.824809 0.238847
Si Si6 0.212397 0.176104 0.061718
Si Si7 0.712577 0.168818 0.393042
Si Si8 0.152760 0.178092 0.722452
O O1 0.919880 0.500000 0.163376
O O2 0.889718 0.244188 0.223995
O O3 0.974143 0.267689 0.145601
O O4 0.897509 0.291336 0.067149
O O5 0.765430 0.829739 0.424859
O O6 0.819463 0.733287 0.533500
O O7 0.848003 0.780494 0.372683
O O8 0.830710 0.000000 0.471706
O O9 0.977868 0.500000 0.886122
O O10 0.929861 0.732810 0.917315
O O11 0.000000 0.674914 0.000000
O O12 0.662156 0.254264 0.047827
O O13 0.617843 0.000000 0.033303
O O14 0.228165 0.797088 0.152664
O O15 0.216068 0.765918 0.312355
O O16 0.299073 0.742647 0.245151
O O17 0.257215 0.000000 0.248088
O O18 0.211387 0.000000 0.048474
O O19 0.250000 0.250000 0.000000
O O20 0.700798 0.000000 0.374762
O O21 0.154124 0.000000 0.726699
#
# Coordination Sequence:
#
# PCOD9177296 Si02
#       8
#     8   8   8   8   8   8   8   8
#     4   9  16  27  44  64  85 110 139 170 208 253
#     4   8  15  26  38  55  81 110 135 162 201 247
#     4   7  12  25  44  63  81 104 136 170 206 252
#     4   9  17  30  47  63  81 109 143 178 213 246
#     4  10  20  32  43  56  79 113 147 175 208 248
#     4  11  23  34  44  60  83 113 147 180 212 245
#     4   9  16  26  42  61  78 101 136 174 207 240
#     4  10  19  28  40  61  87 113 141 172 206 244
#
# _framework density 14.894683000000001
#
# number of rings (size 3 to 8) (size 9 to 14) (size 15 to 20)
#    0.000    2.875    0.000    4.500    0.000    9.000 
#    0.000    0.625    0.000    2.250    0.000    0.000 
#    0.000    1.000    0.000   11.250    0.000    5.250 
#
# Total GULP energy -178160.214525 kJ/mol
# GULP energy per Si atom -5567.506704 kJ/mol
# Density = 1.486078 g / cm^3
# Si number density = 14.894683 Si / 1000 Ang^3
#
#
#
# Elastic Constant Matrix: (Units=GPa)
#
#
# Indices 1 2 3 4 5 6 
#
# 1 106.6647 35.7228 57.7517 0.0000 -25.9374 0.0000
# 2 35.7228 46.4830 51.5137 0.0000 -11.7769 0.0000
# 3 57.7517 51.5137 97.9823 0.0000 -29.8252 0.0000
# 4 0.0000 0.0000 0.0000 24.9577 0.0000 -3.6957
# 5 -25.9374 -11.7769 -29.8252 0.0000 24.3639 0.0000
# 6 0.0000 0.0000 0.0000 -3.6957 0.0000 19.2015
#
#
#
# Elastic Compliance Matrix: (Units=1/GPa)
#
#
# Indices 1 2 3 4 5 6 
#
# 1 0.015384 -0.006265 -0.002726 0.000000 0.010012 0.000000
# 2 -0.006265 0.056890 -0.031682 0.000000 -0.017954 0.000000
# 3 -0.002726 -0.031682 0.036540 0.000000 0.026515 0.000000
# 4 0.000000 0.000000 0.000000 0.041243 0.000000 0.007938
# 5 0.010012 -0.017954 0.026515 0.000000 0.075482 0.000000
# 6 0.000000 0.000000 0.000000 0.007938 0.000000 0.053607
#
#
# Mechanical properties :
#
#
# Convention : Reuss Voigt Hill
#
# Bulk Modulus (GPa) = 36.40627 60.12294 48.26460
# Shear Modulus (GPa) = 13.52632 20.78073 17.15353
#
# Velocity S-wave (km/s) = 3.01679 3.73926 3.39728
# Velocity P-wave (km/s) = 6.05229 7.68738 6.91831
#
# Compressibility (1/GPa) = 0.02746780
#
# Stress axis : x y z
#
# Youngs Moduli (GPa) = 65.00284 17.57773 27.36706
#
# Poissons Ratio (x) = 0.11013 0.07460
# Poissons Ratio (y) = 0.40725 0.86705
# Poissons Ratio (z) = 0.17720 0.55690
#
# Static dielectric constant tensor:
#      x y z
#    x 1.492860 0.000000 -0.024460 
#    y 0.000000 1.500100 0.000000 
#    z -0.024460 0.000000 1.492270 
# 
# From -- ./inp_files/248348.got.cif
#   From: 2010.05.17/outbox.cif.g08.bks.cpg/sg12_125_cif.got.tgz:248348.got - 2010.06.03 13:09:07.
