data_PCOD9177792
_publ_section_title
;
Structure prediction by ZEFSAII (Michael W. Deem and Ramdas Pophale) SiO2 
 PCOD9177792
Probable space group: C 2/M
;
_chemical_formula_sum "Si O2"
_cell_formula_units_Z 42
_cell_length_a 10.316144
_cell_length_b 18.079896
_cell_length_c 13.178943
_cell_angle_alpha 90.000000
_cell_angle_beta 137.502501
_cell_angle_gamma 90.000000
_cell_volume 1660.567601
_symmetry_space_group_name_H-M "C 2/M"
_symmetry_group_IT_number 12
_symmetry_cell_setting 'monoclinic'
loop_
_space_group_symop_operation_xyz
x,y,z
-x,y,-z
-x,-y,-z
x,-y,z
1/2+x,1/2+y,z
1/2-x,1/2+y,-z
1/2-x,1/2-y,-z
1/2+x,1/2-y,z
loop_
_atom_site_type_symbol
_atom_site_label
_atom_site_fract_x
_atom_site_fract_y
_atom_site_fract_z
Si Si1 0.500000 0.500000 0.500000
Si Si2 0.769755 0.201221 0.246956
Si Si3 0.278515 0.362488 0.866923
Si Si4 0.267224 0.415003 0.078961
Si Si5 0.763608 0.082591 0.645571
Si Si6 0.301789 0.650044 0.472440
O O1 0.362808 0.567334 0.468922
O O2 0.722227 0.276431 0.162778
O O3 0.707408 0.133298 0.140400
O O4 0.695597 0.191304 0.319224
O O5 0.999102 0.192651 0.391545
O O6 0.196257 0.402218 0.720480
O O7 0.500000 0.387591 0.000000
O O8 0.201295 0.382319 0.933162
O O9 0.209635 0.500000 0.055508
O O10 0.501856 0.413307 0.217522
O O11 0.703677 0.140005 0.524387
O O12 0.710717 0.000000 0.586356
#
# Coordination Sequence:
#
# PCOD9177792 Si02
#       6
#     2   8   8   8   8   8
#     4   8  12  24  44  68  88  92 138 190 224 242
#     4   9  18  28  45  68  92 113 146 184 222 262
#     4  10  19  30  42  65  97 124 141 169 225 277
#     4   9  17  28  47  67  84 114 154 191 219 248
#     4   9  16  27  45  68  94 111 139 189 231 266
#     4   9  17  27  48  72  85 109 148 188 226 252
#
# _framework density 25.292556000000001
#
# number of rings (size 3 to 8) (size 9 to 14) (size 15 to 20)
#    0.000    3.048    0.952    1.143    8.000    3.048 
#    0.000    0.000    0.000    0.571    0.000   16.000 
#    0.000    0.000    0.000    0.000    0.000    0.000 
#
# Total GULP energy -117178.126389 kJ/mol
# GULP energy per Si atom -5579.910780 kJ/mol
# Density = 2.523499 g / cm^3
# Si number density = 25.292556 Si / 1000 Ang^3
#
#
#
# Elastic Constant Matrix: (Units=GPa)
#
#
# Indices 1 2 3 4 5 6 
#
# 1 29.4831 4.4158 102.5209 0.0000 1.1579 0.0000
# 2 4.4158 111.5315 44.0090 0.0000 -42.1160 0.0000
# 3 102.5209 44.0090 73.5735 0.0000 -74.8815 0.0000
# 4 0.0000 0.0000 0.0000 40.8594 0.0000 -16.8717
# 5 1.1579 -42.1160 -74.8815 0.0000 73.4018 0.0000
# 6 0.0000 0.0000 0.0000 -16.8717 0.0000 21.8348
#
#
#
# Elastic Compliance Matrix: (Units=1/GPa)
#
#
# Indices 1 2 3 4 5 6 
#
# 1 0.000261 -0.000130 0.009575 0.000000 0.009690 0.000000
# 2 -0.000130 0.011460 -0.000525 0.000000 0.006042 0.000000
# 3 0.009575 -0.000525 -0.002695 0.000000 -0.003201 0.000000
# 4 0.000000 0.000000 0.000000 0.035942 0.000000 0.027772
# 5 0.009690 0.006042 -0.003201 0.000000 0.013672 0.000000
# 6 0.000000 0.000000 0.000000 0.027772 0.000000 0.067258
#
#
# Mechanical properties :
#
#
# Convention : Reuss Voigt Hill
#
# Bulk Modulus (GPa) = 37.21869 57.38659 47.30264
# Shear Modulus (GPa) = 42.73048 31.46203 37.09625
#
# Velocity S-wave (km/s) = 4.11475 3.53076 3.83389
# Velocity P-wave (km/s) = 6.10918 6.27376 6.19202
#
# Compressibility (1/GPa) = 0.02686822
#
# Stress axis : x y z
#
# Youngs Moduli (GPa) = 3824.75450 87.26122 -371.07710
#
# Poissons Ratio (x) = 0.01131 3.55309
# Poissons Ratio (y) = 0.49572 -0.19465
# Poissons Ratio (z) = -36.62228 0.04577
#
# Static dielectric constant tensor:
#      x y z
#    x 2.062570 0.000000 0.004430 
#    y 0.000000 1.933420 0.000000 
#    z 0.004430 0.000000 2.018230 
# 
# From -- ./inp_files/177020.got.cif
#   From: 2010.05.17/outbox.cif.g08.bks.cpg/sg12_89_cif.got.tgz:177020.got - 2010.06.03 13:09:07.
