data_PCOD9177531
_publ_section_title
;
Structure prediction by ZEFSAII (Michael W. Deem and Ramdas Pophale) SiO2 
 PCOD9177531
Probable space group: C 2/M
;
_chemical_formula_sum "Si O2"
_cell_formula_units_Z 56
_cell_length_a 15.277828
_cell_length_b 9.314285
_cell_length_c 20.932668
_cell_angle_alpha 90.000000
_cell_angle_beta 59.960471
_cell_angle_gamma 90.000000
_cell_volume 2578.654930
_symmetry_space_group_name_H-M "C 2/M"
_symmetry_group_IT_number 12
_symmetry_cell_setting 'monoclinic'
loop_
_space_group_symop_operation_xyz
x,y,z
-x,y,-z
-x,-y,-z
x,-y,z
1/2+x,1/2+y,z
1/2-x,1/2+y,-z
1/2-x,1/2-y,-z
1/2+x,1/2-y,z
loop_
_atom_site_type_symbol
_atom_site_label
_atom_site_fract_x
_atom_site_fract_y
_atom_site_fract_z
Si Si1 0.539711 0.335786 0.746055
Si Si2 0.198386 0.162488 0.196038
Si Si3 0.081079 0.334925 0.609858
Si Si4 0.120747 0.834725 0.471234
Si Si5 0.667034 0.331380 0.944913
Si Si6 0.006656 0.169358 0.099652
Si Si7 0.839234 0.334508 0.667816
O O1 0.578586 0.500000 0.732807
O O2 0.422191 0.344314 0.768312
O O3 0.594096 0.241284 0.673081
O O4 0.533562 0.270138 0.819216
O O5 0.244231 0.237539 0.116838
O O6 0.215853 0.256803 0.253092
O O7 0.236917 0.000000 0.188854
O O8 0.112910 0.500000 0.598485
O O9 0.131437 0.246425 0.534277
O O10 0.959877 0.333861 0.639486
O O11 0.171249 0.750602 0.394319
O O12 0.000000 0.834919 0.500000
O O13 0.152494 0.000000 0.462931
O O14 0.694222 0.500000 0.942465
O O15 0.580467 0.324307 0.921601
O O16 0.610178 0.276120 0.029349
O O17 0.025922 0.000000 0.105451
O O18 0.808900 0.500000 0.673787
#
# Coordination Sequence:
#
# PCOD9177531 Si02
#       7
#     8   8   8   8   8   8   8
#     4   9  17  30  46  65  92 123 153 187 229 274
#     4  10  19  29  43  67  97 123 148 185 233 278
#     4   9  16  25  38  60  89 119 152 188 225 266
#     4   9  15  23  37  58  86 120 153 185 225 269
#     4   9  17  32  52  69  87 116 155 193 227 270
#     4   8  16  32  52  69  86 116 157 193 225 269
#     4   9  16  26  40  59  86 120 155 189 223 263
#
# _framework density 21.716747000000002
#
# number of rings (size 3 to 8) (size 9 to 14) (size 15 to 20)
#    0.000    3.000    0.000    2.571    0.000    6.286 
#    0.000    2.857    0.000    0.000    0.000    1.000 
#    0.000    0.000    0.000    0.000    0.000    0.000 
#
# Total GULP energy -156348.141321 kJ/mol
# GULP energy per Si atom -5583.862190 kJ/mol
# Density = 2.166732 g / cm^3
# Si number density = 21.716747 Si / 1000 Ang^3
#
#
#
# Elastic Constant Matrix: (Units=GPa)
#
#
# Indices 1 2 3 4 5 6 
#
# 1 28.1900 35.1629 75.3558 0.0000 -18.8736 0.0000
# 2 35.1629 130.8106 56.2668 0.0000 17.5608 0.0000
# 3 75.3558 56.2668 103.4663 0.0000 48.8774 0.0000
# 4 0.0000 0.0000 0.0000 24.2761 0.0000 9.5129
# 5 -18.8736 17.5608 48.8774 0.0000 32.2460 0.0000
# 6 0.0000 0.0000 0.0000 9.5129 0.0000 -9.6764
#
#
#
# Elastic Compliance Matrix: (Units=1/GPa)
#
#
# Indices 1 2 3 4 5 6 
#
# 1 -0.002568 -0.001672 0.010773 0.000000 -0.016921 0.000000
# 2 -0.001672 0.009861 -0.004034 0.000000 -0.000234 0.000000
# 3 0.010773 -0.004034 -0.000013 0.000000 0.008522 0.000000
# 4 0.000000 0.000000 0.000000 0.029737 0.000000 0.029234
# 5 -0.016921 -0.000234 0.008522 0.000000 0.008317 0.000000
# 6 0.000000 0.000000 0.000000 0.029234 0.000000 -0.074604
#
#
# Mechanical properties :
#
#
# Convention : Reuss Voigt Hill
#
# Bulk Modulus (GPa) = 57.42727 66.22643 61.82685
# Shear Modulus (GPa) = -148.81608 15.74789 -66.53409
#
# Velocity S-wave (km/s) = -8.28702 2.69578 -5.54110
# Velocity P-wave (km/s) = 8.06629 6.34440 3.52234
#
# Compressibility (1/GPa) = 0.01741333
#
# Stress axis : x y z
#
# Youngs Moduli (GPa) = -389.47993 101.41180 -76533.61091
#
# Poissons Ratio (x) = 0.16957 824.49203
# Poissons Ratio (y) = -0.65123 -308.76030
# Poissons Ratio (z) = 4.19584 0.40913
#
# Static dielectric constant tensor:
#      x y z
#    x 1.844990 0.000000 -0.008430 
#    y 0.000000 1.736030 0.000000 
#    z -0.008430 0.000000 1.780710 
# 
# From -- ./inp_files/275509.got.cif
#   From: 2010.05.17/outbox.cif.g08.bks.cpg/sg12_138_cif.got.tgz:275509.got - 2010.06.03 13:09:07.
