data_PCOD9177523
_publ_section_title
;
Structure prediction by ZEFSAII (Michael W. Deem and Ramdas Pophale) SiO2 
 PCOD9177523
Probable space group: C 2/M
;
_chemical_formula_sum "Si O2"
_cell_formula_units_Z 48
_cell_length_a 23.668109
_cell_length_b 8.363612
_cell_length_c 27.499706
_cell_angle_alpha 90.000000
_cell_angle_beta 30.081118
_cell_angle_gamma 90.000000
_cell_volume 2728.467154
_symmetry_space_group_name_H-M "C 2/M"
_symmetry_group_IT_number 12
_symmetry_cell_setting 'monoclinic'
loop_
_space_group_symop_operation_xyz
x,y,z
-x,y,-z
-x,-y,-z
x,-y,z
1/2+x,1/2+y,z
1/2-x,1/2+y,-z
1/2-x,1/2-y,-z
1/2+x,1/2-y,z
loop_
_atom_site_type_symbol
_atom_site_label
_atom_site_fract_x
_atom_site_fract_y
_atom_site_fract_z
Si Si1 0.179245 0.812685 0.233169
Si Si2 0.395056 0.190719 0.611486
Si Si3 0.921454 0.306536 0.894776
Si Si4 0.898992 0.178736 0.111575
Si Si5 0.292395 0.808804 0.891675
Si Si6 0.342092 0.818313 0.249154
O O1 0.101346 0.772342 0.337843
O O2 0.286387 0.702508 0.165011
O O3 0.153593 0.769938 0.196530
O O4 0.206823 0.000000 0.215328
O O5 0.500000 0.239793 0.500000
O O6 0.277522 0.232732 0.671298
O O7 0.398699 0.000000 0.615829
O O8 0.923195 0.500000 0.897515
O O9 0.863640 0.263198 0.886622
O O10 0.052165 0.251387 0.798928
O O11 0.836894 0.242526 0.999719
O O12 0.897041 0.309764 0.154619
O O13 0.901224 0.000000 0.131849
O O14 0.000000 0.195764 0.000000
O O15 0.294831 0.000000 0.884649
O O16 0.318815 0.000000 0.281525
#
# Coordination Sequence:
#
# PCOD9177523 Si02
#       6
#     8   8   8   8   8   8
#     4  11  21  32  49  72  98 128 163 203 245 292
#     4  10  21  37  56  76  97 123 158 203 255 306
#     4   9  19  33  49  73 104 138 172 203 239 283
#     4  10  19  29  43  66  96 129 162 196 238 288
#     4  10  19  32  50  72 103 140 173 204 237 281
#     4  10  19  31  49  72  98 127 160 200 244 292
#
# _framework density 17.592295
#
# number of rings (size 3 to 8) (size 9 to 14) (size 15 to 20)
#    0.000    2.000    0.000    6.500    0.000    7.333 
#    0.000    0.000    0.000    1.000    0.000    0.000 
#    0.000    0.000    0.000    0.000    0.000    0.000 
#
# Total GULP energy -133664.171971 kJ/mol
# GULP energy per Si atom -5569.340499 kJ/mol
# Density = 1.755225 g / cm^3
# Si number density = 17.592295 Si / 1000 Ang^3
#
#
#
# Elastic Constant Matrix: (Units=GPa)
#
#
# Indices 1 2 3 4 5 6 
#
# 1 66.9795 -0.8953 38.9767 -0.0001 2.8419 0.0019
# 2 -0.8953 28.1027 22.4485 -0.0005 3.4718 0.0035
# 3 38.9767 22.4485 117.1194 -0.0002 6.7048 0.0005
# 4 -0.0001 -0.0005 -0.0002 21.1634 0.0001 3.5164
# 5 2.8419 3.4718 6.7048 0.0001 22.1545 -0.0014
# 6 0.0019 0.0035 0.0005 3.5164 -0.0014 22.1791
#
#
#
# Elastic Compliance Matrix: (Units=1/GPa)
#
#
# Indices 1 2 3 4 5 6 
#
# 1 0.019616 0.007010 -0.007800 0.000001 -0.001254 -0.000003
# 2 0.007010 0.044914 -0.010672 0.000002 -0.004708 -0.000008
# 3 -0.007800 -0.010672 0.013256 -0.000001 -0.001339 0.000002
# 4 0.000001 0.000002 -0.000001 0.048530 -0.000001 -0.007694
# 5 -0.001254 -0.004708 -0.001339 -0.000001 0.046441 0.000004
# 6 -0.000003 -0.000008 0.000002 -0.007694 0.000004 0.046307
#
#
# Mechanical properties :
#
#
# Convention : Reuss Voigt Hill
#
# Bulk Modulus (GPa) = 18.22745 37.02903 27.62824
# Shear Modulus (GPa) = 19.21045 23.21085 21.21065
#
# Velocity S-wave (km/s) = 3.30810 3.63626 3.47605
# Velocity P-wave (km/s) = 4.99749 6.22286 5.64353
#
# Compressibility (1/GPa) = 0.05486230
#
# Stress axis : x y z
#
# Youngs Moduli (GPa) = 50.97933 22.26498 75.43603
#
# Poissons Ratio (x) = -0.15609 0.58839
# Poissons Ratio (y) = -0.35739 0.80507
# Poissons Ratio (z) = 0.39763 0.23762
#
# Static dielectric constant tensor:
#      x y z
#    x 1.870090 0.000000 0.189920 
#    y 0.000000 1.613960 0.000000 
#    z 0.189920 0.000000 1.787670 
# 
# From -- ./inp_files/348755.got.cif
#   From: 2010.05.17/outbox.cif.g08.bks.cpg/sg12_175_cif.got.tgz:348755.got - 2010.06.03 13:09:07.
