data_PCOD9177095
_publ_section_title
;
Structure prediction by ZEFSAII (Michael W. Deem and Ramdas Pophale) SiO2 
 PCOD9177095
Probable space group: C 2/M
;
_chemical_formula_sum "Si O2"
_cell_formula_units_Z 56
_cell_length_a 9.514462
_cell_length_b 26.804384
_cell_length_c 19.367684
_cell_angle_alpha 90.000000
_cell_angle_beta 31.704096
_cell_angle_gamma 90.000000
_cell_volume 2595.776606
_symmetry_space_group_name_H-M "C 2/M"
_symmetry_group_IT_number 12
_symmetry_cell_setting 'monoclinic'
loop_
_space_group_symop_operation_xyz
x,y,z
-x,y,-z
-x,-y,-z
x,-y,z
1/2+x,1/2+y,z
1/2-x,1/2+y,-z
1/2-x,1/2-y,-z
1/2+x,1/2-y,z
loop_
_atom_site_type_symbol
_atom_site_label
_atom_site_fract_x
_atom_site_fract_y
_atom_site_fract_z
Si Si1 0.380153 0.372412 0.480294
Si Si2 0.489017 0.943595 0.923965
Si Si3 0.504896 0.214479 0.623710
Si Si4 0.165863 0.145571 0.000625
Si Si5 0.383034 0.442853 0.357788
Si Si6 0.410456 0.649813 0.254628
Si Si7 0.724997 0.808576 0.783629
O O1 0.500000 0.393731 0.500000
O O2 0.145614 0.333695 0.597809
O O3 0.285544 0.414973 0.467360
O O4 0.602770 0.339252 0.346054
O O5 0.794004 0.944142 0.771408
O O6 0.381988 0.000000 0.968669
O O7 0.500000 0.927486 0.000000
O O8 0.315249 0.907310 0.950074
O O9 0.750000 0.250000 0.500000
O O10 0.323455 0.190692 0.638977
O O11 0.313649 0.251201 0.745694
O O12 0.979111 0.149795 0.145691
O O13 0.412608 0.184221 0.901515
O O14 0.000000 0.148908 0.000000
O O15 0.296642 0.500000 0.384504
O O16 0.328032 0.404133 0.318632
O O17 0.668173 0.667419 0.190169
#
# Coordination Sequence:
#
# PCOD9177095 Si02
#       7
#     8   8   8   8   8   8   8
#     4  10  22  39  66  94 135 169 224 282 337 392
#     4  10  18  37  68  96 129 179 227 270 329 411
#     4  10  25  41  67  95 127 175 234 281 333 390
#     4  12  24  39  64 100 145 175 216 289 341 398
#     4  10  21  40  70  99 130 177 227 269 331 405
#     4  11  23  42  70  99 134 178 228 276 332 409
#     4  10  23  43  65  92 133 182 227 272 337 406
#
# _framework density 21.573505999999998
#
# number of rings (size 3 to 8) (size 9 to 14) (size 15 to 20)
#    0.000    1.571    4.286    0.429    6.000    5.714 
#    0.000    1.429    0.000    0.000    0.000    0.000 
#    0.000    0.000    0.000    0.000    0.000    0.000 
#
# Total GULP energy -156420.625545 kJ/mol
# GULP energy per Si atom -5586.450912 kJ/mol
# Density = 2.152440 g / cm^3
# Si number density = 21.573506 Si / 1000 Ang^3
#
#
#
# Elastic Constant Matrix: (Units=GPa)
#
#
# Indices 1 2 3 4 5 6 
#
# 1 155.7401 53.4812 68.7143 -0.0044 -0.3584 0.0002
# 2 53.4812 162.7898 51.2300 -0.0015 -1.4203 -0.0002
# 3 68.7143 51.2300 76.2387 -0.0485 0.2474 0.0002
# 4 -0.0044 -0.0015 -0.0485 208.9966 0.0057 -5.3695
# 5 -0.3584 -1.4203 0.2474 0.0057 38.6756 -0.0001
# 6 0.0002 -0.0002 0.0002 -5.3695 -0.0001 27.4056
#
#
#
# Elastic Compliance Matrix: (Units=1/GPa)
#
#
# Indices 1 2 3 4 5 6 
#
# 1 0.010708 -0.000608 -0.009243 -0.000002 0.000136 0.000000
# 2 -0.000608 0.007829 -0.004714 -0.000001 0.000312 0.000000
# 3 -0.009243 -0.004714 0.024617 0.000006 -0.000416 0.000001
# 4 -0.000002 -0.000001 0.000006 0.004809 -0.000001 0.000942
# 5 0.000136 0.000312 -0.000416 -0.000001 0.025871 0.000000
# 6 0.000000 0.000000 0.000001 0.000942 0.000000 0.036673
#
#
# Mechanical properties :
#
#
# Convention : Reuss Voigt Hill
#
# Bulk Modulus (GPa) = 71.30848 82.40218 76.85533
# Shear Modulus (GPa) = 34.64705 69.77177 52.20941
#
# Velocity S-wave (km/s) = 4.01184 5.69312 4.92476
# Velocity P-wave (km/s) = 7.38819 9.02743 8.24863
#
# Compressibility (1/GPa) = 0.01402358
#
# Stress axis : x y z
#
# Youngs Moduli (GPa) = 93.38533 127.73415 40.62280
#
# Poissons Ratio (x) = 0.07765 0.37549
# Poissons Ratio (y) = 0.05677 0.19149
# Poissons Ratio (z) = 0.86320 0.60211
#
# Static dielectric constant tensor:
#      x y z
#    x 1.772480 0.000000 -0.033860 
#    y 0.000000 1.814590 0.000000 
#    z -0.033860 0.000000 1.849210 
# 
# From -- ./inp_files/259808.got.cif
#   From: 2010.05.17/outbox.cif.g08.bks.cpg/sg12_130_cif.got.tgz:259808.got - 2010.06.03 13:09:07.
