data_PCOD9177754
_publ_section_title
;
Structure prediction by ZEFSAII (Michael W. Deem and Ramdas Pophale) SiO2 
 PCOD9177754
Probable space group: C 2/M
;
_chemical_formula_sum "Si O2"
_cell_formula_units_Z 56
_cell_length_a 29.234327
_cell_length_b 8.468243
_cell_length_c 16.845723
_cell_angle_alpha 90.000000
_cell_angle_beta 138.954177
_cell_angle_gamma 90.000000
_cell_volume 2738.534534
_symmetry_space_group_name_H-M "C 2/M"
_symmetry_group_IT_number 12
_symmetry_cell_setting 'monoclinic'
loop_
_space_group_symop_operation_xyz
x,y,z
-x,y,-z
-x,-y,-z
x,-y,z
1/2+x,1/2+y,z
1/2-x,1/2+y,-z
1/2-x,1/2-y,-z
1/2+x,1/2-y,z
loop_
_atom_site_type_symbol
_atom_site_label
_atom_site_fract_x
_atom_site_fract_y
_atom_site_fract_z
Si Si1 0.152389 0.311456 0.537483
Si Si2 0.044214 0.190204 0.982014
Si Si3 0.786677 0.809468 0.628398
Si Si4 0.920318 0.190669 0.715907
Si Si5 0.827408 0.687800 0.930353
Si Si6 0.329652 0.310434 0.100812
Si Si7 0.666587 0.690151 0.721240
O O1 0.153042 0.500000 0.539144
O O2 0.232164 0.252940 0.623634
O O3 0.105881 0.256229 0.402266
O O4 0.129967 0.250512 0.594121
O O5 0.121980 0.251028 0.071907
O O6 0.996830 0.236577 0.844459
O O7 0.047993 0.000000 0.990985
O O8 0.000000 0.244106 0.000000
O O9 0.750000 0.750000 0.500000
O O10 0.866144 0.761065 0.715520
O O11 0.787024 0.000000 0.633111
O O12 0.917708 0.000000 0.707699
O O13 0.825303 0.500000 0.925770
O O14 0.857648 0.742756 0.055195
O O15 0.747523 0.746308 0.822106
O O16 0.330396 0.500000 0.097273
O O17 0.361008 0.262652 0.227511
O O18 0.250000 0.250000 0.000000
O O19 0.666881 0.500000 0.719823
#
# Coordination Sequence:
#
# PCOD9177754 Si02
#       7
#     8   8   8   8   8   8   8
#     4  10  19  29  49  78 103 133 172 216 264 310
#     4  10  22  37  56  78 103 142 186 222 259 310
#     4   8  15  27  43  65  92 125 165 205 249 296
#     4   9  18  34  51  68 100 140 176 215 260 312
#     4  10  21  36  54  78 109 143 178 218 268 316
#     4   9  17  32  54  79 108 139 174 215 265 320
#     4   9  19  33  51  79 110 138 168 209 265 321
#
# _framework density 20.448893000000002
#
# number of rings (size 3 to 8) (size 9 to 14) (size 15 to 20)
#    0.000    2.714    0.000    2.143    2.000    4.857 
#    0.000    0.000    0.000    0.857    0.000    6.000 
#    0.000    0.000    0.000    0.000    0.000    0.000 
#
# Total GULP energy -156015.556679 kJ/mol
# GULP energy per Si atom -5571.984167 kJ/mol
# Density = 2.040235 g / cm^3
# Si number density = 20.448893 Si / 1000 Ang^3
#
#
#
# Elastic Constant Matrix: (Units=GPa)
#
#
# Indices 1 2 3 4 5 6 
#
# 1 70.5459 6.8012 14.2334 0.0000 -24.0849 0.0000
# 2 6.8012 9.1943 5.3921 0.0000 -2.5009 0.0000
# 3 14.2334 5.3921 56.7820 0.0000 -17.9513 0.0000
# 4 0.0000 0.0000 0.0000 10.1916 0.0000 0.3472
# 5 -24.0849 -2.5009 -17.9513 0.0000 38.6751 0.0000
# 6 0.0000 0.0000 0.0000 0.3472 0.0000 23.5647
#
#
#
# Elastic Compliance Matrix: (Units=1/GPa)
#
#
# Indices 1 2 3 4 5 6 
#
# 1 0.019049 -0.010944 -0.000245 0.000000 0.011042 0.000000
# 2 -0.010944 0.121720 -0.009940 0.000000 -0.003558 0.000000
# 3 -0.000245 -0.009940 0.021523 0.000000 0.009195 0.000000
# 4 0.000000 0.000000 0.000000 0.098169 0.000000 -0.001446
# 5 0.011042 -0.003558 0.009195 0.000000 0.036770 0.000000
# 6 0.000000 0.000000 0.000000 -0.001446 0.000000 0.042458
#
#
# Mechanical properties :
#
#
# Convention : Reuss Voigt Hill
#
# Bulk Modulus (GPa) = 8.33097 21.04174 14.68635
# Shear Modulus (GPa) = 11.84944 21.82597 16.83771
#
# Velocity S-wave (km/s) = 2.40982 3.27057 2.87262
# Velocity P-wave (km/s) = 3.43888 4.95726 4.26616
#
# Compressibility (1/GPa) = 0.12003403
#
# Stress axis : x y z
#
# Youngs Moduli (GPa) = 52.49512 8.21556 46.46086
#
# Poissons Ratio (x) = 0.08991 0.01139
# Poissons Ratio (y) = 0.57451 0.46184
# Poissons Ratio (z) = 0.01286 0.08167
#
# Static dielectric constant tensor:
#      x y z
#    x 1.760490 0.000000 -0.012440 
#    y 0.000000 1.701060 0.000000 
#    z -0.012440 0.000000 1.751390 
# 
# From -- ./inp_files/295188.got.cif
#   From: 2010.05.17/outbox.cif.g08.bks.cpg/sg12_148_cif.got.tgz:295188.got - 2010.06.03 13:09:07.
