data_PCOD9177445
_publ_section_title
;
Structure prediction by ZEFSAII (Michael W. Deem and Ramdas Pophale) SiO2 
 PCOD9177445
Probable space group: C 2/M
;
_chemical_formula_sum "Si O2"
_cell_formula_units_Z 56
_cell_length_a 19.973788
_cell_length_b 7.488925
_cell_length_c 18.010474
_cell_angle_alpha 90.000000
_cell_angle_beta 127.683605
_cell_angle_gamma 90.000000
_cell_volume 2132.064189
_symmetry_space_group_name_H-M "C 2/M"
_symmetry_group_IT_number 12
_symmetry_cell_setting 'monoclinic'
loop_
_space_group_symop_operation_xyz
x,y,z
-x,y,-z
-x,-y,-z
x,-y,z
1/2+x,1/2+y,z
1/2-x,1/2+y,-z
1/2-x,1/2-y,-z
1/2+x,1/2-y,z
loop_
_atom_site_type_symbol
_atom_site_label
_atom_site_fract_x
_atom_site_fract_y
_atom_site_fract_z
Si Si1 0.236214 0.707900 0.403083
Si Si2 0.543543 0.788858 0.111471
Si Si3 0.943517 0.793643 0.672974
Si Si4 0.708335 0.219324 0.157564
Si Si5 0.372857 0.783546 0.054843
Si Si6 0.874251 0.205049 0.214297
Si Si7 0.589198 0.708355 0.525861
O O1 0.249003 0.500000 0.401377
O O2 0.250000 0.750000 0.500000
O O3 0.134860 0.733529 0.329595
O O4 0.313537 0.785911 0.405308
O O5 0.638196 0.716558 0.167871
O O6 0.470587 0.718330 0.114982
O O7 0.550777 0.000000 0.131712
O O8 0.500000 0.775635 0.000000
O O9 0.922074 0.786402 0.570838
O O10 0.035601 0.703913 0.735088
O O11 0.952780 0.000000 0.698774
O O12 0.804793 0.281349 0.222704
O O13 0.709551 0.000000 0.161914
O O14 0.670980 0.268669 0.051539
O O15 0.336062 0.706682 0.105408
O O16 0.371221 0.000000 0.056976
O O17 0.888218 0.000000 0.247281
O O18 0.500000 0.781079 0.500000
O O19 0.591497 0.500000 0.553196
#
# Coordination Sequence:
#
# PCOD9177445 Si02
#       7
#     8   8   8   8   8   8   8
#     4   9  16  28  49  72  92 115 141 171 210 258
#     4   7  11  22  41  62  81 103 138 186 230 264
#     4   9  18  31  45  63  90 123 152 178 215 261
#     4   8  14  26  44  64  85 113 151 190 226 265
#     4   9  16  27  45  66  85 110 149 192 229 266
#     4  10  19  29  42  62  90 121 149 181 223 267
#     4   8  14  27  48  71  90 108 138 180 216 248
#
# _framework density 26.265626000000001
#
# number of rings (size 3 to 8) (size 9 to 14) (size 15 to 20)
#    0.000    3.429    0.000    3.429    0.000    0.571 
#    0.000    1.429    0.000   20.571    0.000    0.000 
#    0.000    0.000    0.000    0.000    0.000    0.000 
#
# Total GULP energy -156066.644280 kJ/mol
# GULP energy per Si atom -5573.808724 kJ/mol
# Density = 2.620584 g / cm^3
# Si number density = 26.265626 Si / 1000 Ang^3
#
#
#
# Elastic Constant Matrix: (Units=GPa)
#
#
# Indices 1 2 3 4 5 6 
#
# 1 277.9646 15.3763 62.9232 0.0000 62.6754 0.0000
# 2 15.3763 76.0985 5.9266 0.0000 9.0247 0.0000
# 3 62.9232 5.9266 52.9731 0.0000 13.7324 0.0000
# 4 0.0000 0.0000 0.0000 -4.1693 0.0000 -18.3675
# 5 62.6754 9.0247 13.7324 0.0000 71.2432 0.0000
# 6 0.0000 0.0000 0.0000 -18.3675 0.0000 -34.5581
#
#
#
# Elastic Compliance Matrix: (Units=1/GPa)
#
#
# Indices 1 2 3 4 5 6 
#
# 1 0.005837 -0.000251 -0.005876 0.000000 -0.003971 0.000000
# 2 -0.000251 0.013414 -0.000863 0.000000 -0.001312 0.000000
# 3 -0.005876 -0.000863 0.025878 0.000000 0.000290 0.000000
# 4 0.000000 0.000000 0.000000 0.178796 0.000000 -0.095029
# 5 -0.003971 -0.001312 0.000290 0.000000 0.017640 0.000000
# 6 0.000000 0.000000 0.000000 -0.095029 0.000000 0.021571
#
#
# Mechanical properties :
#
#
# Convention : Reuss Voigt Hill
#
# Bulk Modulus (GPa) = 32.10182 63.94315 48.02248
# Shear Modulus (GPa) = 17.39140 28.02382 22.70761
#
# Velocity S-wave (km/s) = 2.57599 3.26995 2.94349
# Velocity P-wave (km/s) = 4.59306 6.21727 5.46583
#
# Compressibility (1/GPa) = 0.03115088
#
# Stress axis : x y z
#
# Youngs Moduli (GPa) = 171.32491 74.54692 38.64241
#
# Poissons Ratio (x) = 0.01870 0.22706
# Poissons Ratio (y) = 0.04298 0.03333
# Poissons Ratio (z) = 1.00668 0.06430
#
# Static dielectric constant tensor:
#      x y z
#    x 2.097750 0.000000 0.100700 
#    y 0.000000 2.073540 0.000000 
#    z 0.100700 0.000000 2.219020 
# 
# From -- ./inp_files/345665.got.cif
#   From: 2010.05.17/outbox.cif.g08.bks.cpg/sg12_173_cif.got.tgz:345665.got - 2010.06.03 13:09:07.
