data_PCOD9177709
_publ_section_title
;
Structure prediction by ZEFSAII (Michael W. Deem and Ramdas Pophale) SiO2 
 PCOD9177709
Probable space group: C 2/M
;
_chemical_formula_sum "Si O2"
_cell_formula_units_Z 48
_cell_length_a 24.843316
_cell_length_b 8.954848
_cell_length_c 21.974586
_cell_angle_alpha 90.000000
_cell_angle_beta 38.232888
_cell_angle_gamma 90.000000
_cell_volume 3025.383685
_symmetry_space_group_name_H-M "C 2/M"
_symmetry_group_IT_number 12
_symmetry_cell_setting 'monoclinic'
loop_
_space_group_symop_operation_xyz
x,y,z
-x,y,-z
-x,-y,-z
x,-y,z
1/2+x,1/2+y,z
1/2-x,1/2+y,-z
1/2-x,1/2-y,-z
1/2+x,1/2-y,z
loop_
_atom_site_type_symbol
_atom_site_label
_atom_site_fract_x
_atom_site_fract_y
_atom_site_fract_z
Si Si1 0.720115 0.179217 0.962494
Si Si2 0.616956 0.178270 0.231551
Si Si3 0.462794 0.177465 0.832214
Si Si4 0.668431 0.177553 0.492873
Si Si5 0.863373 0.823044 0.347722
Si Si6 0.016760 0.821949 0.555795
O O1 0.787288 0.248540 0.855063
O O2 0.729441 0.000000 0.956512
O O3 0.750000 0.250000 0.000000
O O4 0.617213 0.213159 0.051514
O O5 0.571838 0.209442 0.205818
O O6 0.556351 0.246213 0.337203
O O7 0.623644 0.000000 0.231233
O O8 0.551469 0.266273 0.762425
O O9 0.479258 0.000000 0.820669
O O10 0.771622 0.206384 0.395985
O O11 0.641226 0.238204 0.583560
O O12 0.608938 0.258213 0.496452
O O13 0.653367 0.000000 0.504285
O O14 0.868862 0.000000 0.354332
O O15 0.000000 0.789634 0.500000
O O16 0.014549 0.000000 0.566872
#
# Coordination Sequence:
#
# PCOD9177709 Si02
#       6
#     8   8   8   8   8   8
#     4   9  17  28  43  65  95 128 160 195 236 285
#     4  10  19  31  47  68  95 127 161 198 241 287
#     4   9  17  28  44  69  98 128 159 191 235 289
#     4  10  20  33  47  68  96 127 163 198 239 288
#     4  10  19  29  47  71  97 129 160 195 238 285
#     4  11  23  36  51  71  94 126 167 205 242 286
#
# _framework density 15.865755999999999
#
# number of rings (size 3 to 8) (size 9 to 14) (size 15 to 20)
#    0.000    2.167    1.667    3.500    0.000    6.667 
#    0.000    0.000    0.000    0.000    0.000    1.167 
#    0.000    9.333    0.000    0.000    0.000    0.000 
#
# Total GULP energy -133808.910443 kJ/mol
# GULP energy per Si atom -5575.371268 kJ/mol
# Density = 1.582965 g / cm^3
# Si number density = 15.865756 Si / 1000 Ang^3
#
#
#
# Elastic Constant Matrix: (Units=GPa)
#
#
# Indices 1 2 3 4 5 6 
#
# 1 75.5568 47.0771 50.6509 -0.0005 -14.6845 0.0002
# 2 47.0771 66.3463 58.9308 -0.0036 -13.4896 0.0017
# 3 50.6509 58.9308 109.6149 -0.0012 -31.3092 0.0009
# 4 -0.0005 -0.0036 -0.0012 30.1209 0.0012 -6.5324
# 5 -14.6845 -13.4896 -31.3092 0.0012 24.4089 -0.0003
# 6 0.0002 0.0017 0.0009 -6.5324 -0.0003 21.3093
#
#
#
# Elastic Compliance Matrix: (Units=1/GPa)
#
#
# Indices 1 2 3 4 5 6 
#
# 1 0.024698 -0.014475 -0.002637 -0.000001 0.003475 0.000001
# 2 -0.014475 0.037946 -0.016112 0.000004 -0.008405 -0.000001
# 3 -0.002637 -0.016112 0.025263 -0.000002 0.021914 0.000000
# 4 -0.000001 0.000004 -0.000002 0.035564 -0.000003 0.010902
# 5 0.003475 -0.008405 0.021914 -0.000003 0.066523 0.000000
# 6 0.000001 -0.000001 0.000000 0.010902 0.000000 0.050270
#
#
# Mechanical properties :
#
#
# Convention : Reuss Voigt Hill
#
# Bulk Modulus (GPa) = 46.60581 62.75951 54.68266
# Shear Modulus (GPa) = 15.93030 21.49176 18.71103
#
# Velocity S-wave (km/s) = 3.17214 3.68448 3.43787
# Velocity P-wave (km/s) = 6.54641 7.59888 7.09220
#
# Compressibility (1/GPa) = 0.02145655
#
# Stress axis : x y z
#
# Youngs Moduli (GPa) = 40.48947 26.35293 39.58344
#
# Poissons Ratio (x) = 0.38147 0.10440
# Poissons Ratio (y) = 0.58610 0.63779
# Poissons Ratio (z) = 0.10679 0.42461
#
# Static dielectric constant tensor:
#      x y z
#    x 1.511070 0.000000 -0.033590 
#    y 0.000000 1.526060 0.000000 
#    z -0.033590 0.000000 1.555360 
# 
# From -- ./inp_files/230392.got.cif
#   From: 2010.05.17/outbox.cif.g08.bks.cpg/sg12_116_cif.got.tgz:230392.got - 2010.06.03 13:09:07.
