data_PCOD9177187
_publ_section_title
;
Structure prediction by ZEFSAII (Michael W. Deem and Ramdas Pophale) SiO2 
 PCOD9177187
Probable space group: C 2/M
;
_chemical_formula_sum "Si O2"
_cell_formula_units_Z 36
_cell_length_a 11.209836
_cell_length_b 26.521774
_cell_length_c 15.339911
_cell_angle_alpha 90.000000
_cell_angle_beta 24.862783
_cell_angle_gamma 90.000000
_cell_volume 1917.500376
_symmetry_space_group_name_H-M "C 2/M"
_symmetry_group_IT_number 12
_symmetry_cell_setting 'monoclinic'
loop_
_space_group_symop_operation_xyz
x,y,z
-x,y,-z
-x,-y,-z
x,-y,z
1/2+x,1/2+y,z
1/2-x,1/2+y,-z
1/2-x,1/2-y,-z
1/2+x,1/2-y,z
loop_
_atom_site_type_symbol
_atom_site_label
_atom_site_fract_x
_atom_site_fract_y
_atom_site_fract_z
Si Si1 0.983546 0.231439 0.776412
Si Si2 0.814823 0.000000 0.338113
Si Si3 0.882695 0.411290 0.420709
Si Si4 0.901010 0.181943 0.467238
Si Si5 0.744555 0.000000 0.102083
Si Si6 0.500000 0.839212 0.500000
O O1 0.897780 0.200731 0.745470
O O2 0.126289 0.282146 0.644818
O O3 0.226948 0.196294 0.660742
O O4 0.750000 0.250000 0.000000
O O5 0.500000 0.000000 0.500000
O O6 0.810536 0.949428 0.396577
O O7 0.092297 0.000000 0.096129
O O8 0.697037 0.374312 0.486028
O O9 0.038110 0.375721 0.390200
O O10 0.072953 0.449041 0.237288
O O11 0.000000 0.188145 0.500000
O O12 0.000000 0.000000 0.000000
#
# Coordination Sequence:
#
# PCOD9177187 Si02
#       6
#     8   4   8   8   4   4
#     4  10  22  39  61  86 119 165 207 252 301 356
#     4  11  19  38  55  84 121 143 191 259 301 357
#     4  10  21  35  60  88 113 157 193 248 313 361
#     4  10  22  42  57  85 125 159 206 252 299 368
#     4  11  19  34  59  88 119 145 191 250 317 358
#     4  10  18  39  60  88 126 149 204 254 294 364
#
# _framework density 18.774442000000001
#
# number of rings (size 3 to 8) (size 9 to 14) (size 15 to 20)
#    0.000    1.778    4.444    0.000    0.000    6.222 
#    0.000    2.222    0.000    1.333    0.000    0.000 
#    0.000    0.000    0.000    0.000    0.000    0.000 
#
# Total GULP energy -100270.564937 kJ/mol
# GULP energy per Si atom -5570.586941 kJ/mol
# Density = 1.873171 g / cm^3
# Si number density = 18.774442 Si / 1000 Ang^3
#
#
#
# Elastic Constant Matrix: (Units=GPa)
#
#
# Indices 1 2 3 4 5 6 
#
# 1 105.6266 45.1246 46.9285 -0.0001 20.0578 -0.0008
# 2 45.1246 146.0488 58.2874 0.0005 18.6387 -0.0002
# 3 46.9285 58.2874 110.0616 0.0077 45.3199 0.0098
# 4 -0.0001 0.0005 0.0077 -0.6811 -0.0042 -5.2434
# 5 20.0578 18.6387 45.3199 -0.0042 31.8697 -0.0051
# 6 -0.0008 -0.0002 0.0098 -5.2434 -0.0051 39.2529
#
#
#
# Elastic Compliance Matrix: (Units=1/GPa)
#
#
# Indices 1 2 3 4 5 6 
#
# 1 0.012220 -0.002224 -0.003381 -0.000019 -0.001582 -0.000002
# 2 -0.002224 0.009254 -0.005550 -0.000047 0.003880 -0.000004
# 3 -0.003381 -0.005550 0.027154 0.000295 -0.033240 0.000028
# 4 -0.000019 -0.000047 0.000295 -0.723841 -0.000492 -0.096691
# 5 -0.001582 0.003880 -0.033240 -0.000492 0.077373 -0.000047
# 6 -0.000002 -0.000004 0.000028 -0.096691 -0.000047 0.012560
#
#
# Mechanical properties :
#
#
# Convention : Reuss Voigt Hill
#
# Bulk Modulus (GPa) = 37.99836 73.60200 55.80018
# Shear Modulus (GPa) = -9.02207 28.18138 9.57966
#
# Velocity S-wave (km/s) = -2.19453 3.87854 2.26132
# Velocity P-wave (km/s) = 3.72318 7.70363 6.05012
#
# Compressibility (1/GPa) = 0.02631693
#
# Stress axis : x y z
#
# Youngs Moduli (GPa) = 81.83191 108.05929 36.82705
#
# Poissons Ratio (x) = 0.24037 0.12451
# Poissons Ratio (y) = 0.18203 0.20440
# Poissons Ratio (z) = 0.27667 0.59976
#
# Static dielectric constant tensor:
#      x y z
#    x 1.709730 0.000000 -0.003440 
#    y 0.000000 1.649820 0.000000 
#    z -0.003440 0.000000 1.638880 
# 
# From -- ./inp_files/265928.got.cif
#   From: 2010.05.17/outbox.cif.g08.bks.cpg/sg12_133_cif.got.tgz:265928.got - 2010.06.03 13:09:07.
