data_PCOD9177682
_publ_section_title
;
Structure prediction by ZEFSAII (Michael W. Deem and Ramdas Pophale) SiO2 
 PCOD9177682
Probable space group: C 2/M
;
_chemical_formula_sum "Si O2"
_cell_formula_units_Z 56
_cell_length_a 20.270994
_cell_length_b 9.223492
_cell_length_c 24.385396
_cell_angle_alpha 90.000000
_cell_angle_beta 133.151415
_cell_angle_gamma 90.000000
_cell_volume 3326.247829
_symmetry_space_group_name_H-M "C 2/M"
_symmetry_group_IT_number 12
_symmetry_cell_setting 'monoclinic'
loop_
_space_group_symop_operation_xyz
x,y,z
-x,y,-z
-x,-y,-z
x,-y,z
1/2+x,1/2+y,z
1/2-x,1/2+y,-z
1/2-x,1/2-y,-z
1/2+x,1/2-y,z
loop_
_atom_site_type_symbol
_atom_site_label
_atom_site_fract_x
_atom_site_fract_y
_atom_site_fract_z
Si Si1 0.720087 0.828828 0.038148
Si Si2 0.845018 0.170071 0.793957
Si Si3 0.937563 0.832585 0.341607
Si Si4 0.700136 0.829085 0.810648
Si Si5 0.573484 0.832419 0.491868
Si Si6 0.290929 0.667096 0.357907
Si Si7 0.508192 0.829345 0.941122
O O1 0.767485 0.753459 0.116939
O O2 0.741338 0.000000 0.049062
O O3 0.750000 0.750000 0.000000
O O4 0.612030 0.814030 0.983229
O O5 0.778559 0.185419 0.808987
O O6 0.795976 0.253123 0.716470
O O7 0.939809 0.239618 0.864920
O O8 0.853038 0.000000 0.786434
O O9 0.888908 0.744101 0.265763
O O10 0.865050 0.832698 0.350639
O O11 0.025877 0.753689 0.415542
O O12 0.954305 0.000000 0.336529
O O13 0.686680 0.000000 0.813069
O O14 0.500000 0.831686 0.500000
O O15 0.661494 0.752802 0.565672
O O16 0.590672 0.000000 0.487953
O O17 0.272717 0.500000 0.361491
O O18 0.482917 0.000000 0.924209
O O19 0.500000 0.783049 0.000000
#
# Coordination Sequence:
#
# PCOD9177682 Si02
#       7
#     8   8   8   8   8   8   8
#     4  11  23  38  55  74 100 132 166 208 255 303
#     4  10  19  29  46  71  97 125 162 207 249 292
#     4   9  16  25  39  59  85 121 162 199 240 292
#     4  10  19  31  47  69  96 126 163 205 250 296
#     4   9  15  23  35  54  84 120 158 198 242 290
#     4   9  16  25  38  57  87 124 160 197 241 294
#     4  10  20  35  54  74  98 129 167 207 250 301
#
# _framework density 16.835787
#
# number of rings (size 3 to 8) (size 9 to 14) (size 15 to 20)
#    0.000    2.286    1.429    2.571    0.000    7.714 
#    0.000    0.000    0.000    0.000    0.000    0.000 
#    0.000    1.143    0.000    4.286    0.000    7.000 
#
# Total GULP energy -156185.981484 kJ/mol
# GULP energy per Si atom -5578.070767 kJ/mol
# Density = 1.679747 g / cm^3
# Si number density = 16.835787 Si / 1000 Ang^3
#
#
#
# Elastic Constant Matrix: (Units=GPa)
#
#
# Indices 1 2 3 4 5 6 
#
# 1 22.0284 30.3782 19.1336 0.0000 -0.3811 0.0000
# 2 30.3782 171.4352 117.3736 0.0000 1.8619 0.0000
# 3 19.1336 117.3736 179.2466 0.0000 8.9153 0.0000
# 4 0.0000 0.0000 0.0000 38.5452 0.0000 0.2007
# 5 -0.3811 1.8619 8.9153 0.0000 6.1313 0.0000
# 6 0.0000 0.0000 0.0000 0.2007 0.0000 13.5131
#
#
#
# Elastic Compliance Matrix: (Units=1/GPa)
#
#
# Indices 1 2 3 4 5 6 
#
# 1 0.060401 -0.011131 0.000525 0.000000 0.006372 0.000000
# 2 -0.011131 0.012945 -0.007609 0.000000 0.006440 0.000000
# 3 0.000525 -0.007609 0.011199 0.000000 -0.013940 0.000000
# 4 0.000000 0.000000 0.000000 0.025946 0.000000 -0.000385
# 5 0.006372 0.006440 -0.013940 0.000000 0.181808 0.000000
# 6 0.000000 0.000000 0.000000 -0.000385 0.000000 0.074008
#
#
# Mechanical properties :
#
#
# Convention : Reuss Voigt Hill
#
# Bulk Modulus (GPa) = 20.78404 78.49787 49.64095
# Shear Modulus (GPa) = 11.93958 25.35958 18.64958
#
# Velocity S-wave (km/s) = 2.66593 3.88531 3.33188
# Velocity P-wave (km/s) = 4.67421 8.17645 6.65967
#
# Compressibility (1/GPa) = 0.04811385
#
# Stress axis : x y z
#
# Youngs Moduli (GPa) = 16.55589 77.25033 89.29741
#
# Poissons Ratio (x) = 0.85991 -0.04684
# Poissons Ratio (y) = 0.18429 0.67943
# Poissons Ratio (z) = -0.00868 0.58777
#
# Static dielectric constant tensor:
#      x y z
#    x 1.541910 0.000000 0.000920 
#    y 0.000000 1.563510 0.000000 
#    z 0.000920 0.000000 1.551870 
# 
# From -- ./inp_files/280223.got.cif
#   From: 2010.05.17/outbox.cif.g08.bks.cpg/sg12_141_cif.got.tgz:280223.got - 2010.06.03 13:09:07.
