data_PCOD9177639
_publ_section_title
;
Structure prediction by ZEFSAII (Michael W. Deem and Ramdas Pophale) SiO2 
 PCOD9177639
Probable space group: C 2/M
;
_chemical_formula_sum "Si O2"
_cell_formula_units_Z 48
_cell_length_a 28.329680
_cell_length_b 8.689368
_cell_length_c 24.658654
_cell_angle_alpha 90.000000
_cell_angle_beta 150.054668
_cell_angle_gamma 90.000000
_cell_volume 3030.056440
_symmetry_space_group_name_H-M "C 2/M"
_symmetry_group_IT_number 12
_symmetry_cell_setting 'monoclinic'
loop_
_space_group_symop_operation_xyz
x,y,z
-x,y,-z
-x,-y,-z
x,-y,z
1/2+x,1/2+y,z
1/2-x,1/2+y,-z
1/2-x,1/2-y,-z
1/2+x,1/2-y,z
loop_
_atom_site_type_symbol
_atom_site_label
_atom_site_fract_x
_atom_site_fract_y
_atom_site_fract_z
Si Si1 0.360857 0.816125 0.051830
Si Si2 0.957538 0.814255 0.042527
Si Si3 0.859331 0.814144 0.166964
Si Si4 0.540103 0.687353 0.623999
Si Si5 0.353394 0.314649 0.829082
Si Si6 0.352601 0.314338 0.378126
O O1 0.422865 0.753503 0.064357
O O2 0.389749 0.751784 0.139294
O O3 0.364677 0.000000 0.056455
O O4 0.250653 0.769867 0.933646
O O5 0.063058 0.767911 0.128962
O O6 0.955557 0.000000 0.043401
O O7 0.888236 0.767339 0.924019
O O8 0.921552 0.760623 0.279845
O O9 0.863101 0.000000 0.168326
O O10 0.540520 0.500000 0.624928
O O11 0.609592 0.733112 0.643922
O O12 0.434366 0.734750 0.501688
O O13 0.349871 0.500000 0.825208
O O14 0.250864 0.249637 0.714247
O O15 0.349072 0.500000 0.375175
#
# Coordination Sequence:
#
# PCOD9177639 Si02
#       6
#     8   8   8   8   8   8
#     4  10  19  29  45  70  92 112 147 190 222 253
#     4   9  18  32  47  63  89 123 149 174 217 271
#     4   9  17  30  46  64  91 124 149 173 216 269
#     4   8  15  28  46  67  91 121 151 175 211 267
#     4   9  18  31  46  66  91 118 148 179 217 266
#     4   9  16  28  47  69  92 117 147 183 218 255
#
# _framework density 15.841288
#
# number of rings (size 3 to 8) (size 9 to 14) (size 15 to 20)
#    0.000    3.000    0.000    3.500    0.000    3.333 
#    0.000    5.000    0.000    1.000    0.000    0.000 
#    0.000    0.000    0.000    0.000    0.000    0.000 
#
# Total GULP energy -133731.563935 kJ/mol
# GULP energy per Si atom -5572.148497 kJ/mol
# Density = 1.580523 g / cm^3
# Si number density = 15.841288 Si / 1000 Ang^3
#
#
#
# Elastic Constant Matrix: (Units=GPa)
#
#
# Indices 1 2 3 4 5 6 
#
# 1 142.2628 26.9739 90.0830 0.0000 -12.1895 0.0000
# 2 26.9739 9.3274 25.1072 0.0000 -2.3685 0.0000
# 3 90.0830 25.1072 133.6986 0.0000 -8.5786 0.0000
# 4 0.0000 0.0000 0.0000 22.1455 0.0000 2.0217
# 5 -12.1895 -2.3685 -8.5786 0.0000 25.6283 0.0000
# 6 0.0000 0.0000 0.0000 2.0217 0.0000 15.0416
#
#
#
# Elastic Compliance Matrix: (Units=1/GPa)
#
#
# Indices 1 2 3 4 5 6 
#
# 1 0.017027 -0.036592 -0.004392 0.000000 0.003246 0.000000
# 2 -0.036592 0.296520 -0.031054 0.000000 -0.000396 0.000000
# 3 -0.004392 -0.031054 0.016303 0.000000 0.000498 0.000000
# 4 0.000000 0.000000 0.000000 0.045717 0.000000 -0.006145
# 5 0.003246 -0.000396 0.000498 0.000000 0.040694 0.000000
# 6 0.000000 0.000000 0.000000 -0.006145 0.000000 0.067308
#
#
# Mechanical properties :
#
#
# Convention : Reuss Voigt Hill
#
# Bulk Modulus (GPa) = 5.38293 63.29077 34.33685
# Shear Modulus (GPa) = 7.25091 22.10472 14.67782
#
# Velocity S-wave (km/s) = 2.14177 3.73954 3.04724
# Velocity P-wave (km/s) = 3.08571 7.66063 5.83982
#
# Compressibility (1/GPa) = 0.18577247
#
# Stress axis : x y z
#
# Youngs Moduli (GPa) = 58.73113 3.37246 61.34014
#
# Poissons Ratio (x) = 0.12340 0.26943
# Poissons Ratio (y) = 2.14909 1.90486
# Poissons Ratio (z) = 0.25797 0.10473
#
# Static dielectric constant tensor:
#      x y z
#    x 1.508400 0.000000 -0.003910 
#    y 0.000000 1.535370 0.000000 
#    z -0.003910 0.000000 1.527900 
# 
# From -- ./inp_files/323501.got.cif
#   From: 2010.05.17/outbox.cif.g08.bks.cpg/sg12_162_cif.got.tgz:323501.got - 2010.06.03 13:09:07.
