data_PCOD9177462
_publ_section_title
;
Structure prediction by ZEFSAII (Michael W. Deem and Ramdas Pophale) SiO2 
 PCOD9177462
Probable space group: C 2/M
;
_chemical_formula_sum "Si O2"
_cell_formula_units_Z 56
_cell_length_a 13.624092
_cell_length_b 7.613859
_cell_length_c 19.709314
_cell_angle_alpha 90.000000
_cell_angle_beta 92.188662
_cell_angle_gamma 90.000000
_cell_volume 2042.993429
_symmetry_space_group_name_H-M "C 2/M"
_symmetry_group_IT_number 12
_symmetry_cell_setting 'monoclinic'
loop_
_space_group_symop_operation_xyz
x,y,z
-x,y,-z
-x,-y,-z
x,-y,z
1/2+x,1/2+y,z
1/2-x,1/2+y,-z
1/2-x,1/2-y,-z
1/2+x,1/2-y,z
loop_
_atom_site_type_symbol
_atom_site_label
_atom_site_fract_x
_atom_site_fract_y
_atom_site_fract_z
Si Si1 0.366985 0.784785 0.053848
Si Si2 0.404877 0.210076 0.910156
Si Si3 0.471981 0.711079 0.773952
Si Si4 0.187620 0.299921 0.808979
Si Si5 0.693622 0.205042 0.661618
Si Si6 0.419843 0.701025 0.624603
Si Si7 0.861309 0.294628 0.479071
O O1 0.481204 0.736356 0.071684
O O2 0.301892 0.717599 0.115793
O O3 0.361600 0.000000 0.055494
O O4 0.349402 0.721456 0.976331
O O5 0.389464 0.258744 0.830142
O O6 0.401279 0.000000 0.913041
O O7 0.484981 0.500000 0.771439
O O8 0.568669 0.806633 0.801912
O O9 0.458932 0.778080 0.696423
O O10 0.226014 0.500000 0.809694
O O11 0.204225 0.211378 0.736246
O O12 0.803234 0.206183 0.635995
O O13 0.628973 0.281729 0.597665
O O14 0.665691 0.000000 0.672330
O O15 0.449336 0.500000 0.624345
O O16 0.427746 0.764186 0.547367
O O17 0.864670 0.500000 0.467184
O O18 0.750000 0.250000 0.500000
#
# Coordination Sequence:
#
# PCOD9177462 Si02
#       7
#     8   8   8   8   8   8   8
#     4   7  11  21  40  63  82 105 141 181 212 243
#     4   8  13  24  41  60  83 111 146 180 208 248
#     4  10  19  29  42  64  93 118 141 176 221 262
#     4   9  16  29  48  66  86 112 144 181 217 254
#     4   8  15  29  49  68  83 107 146 184 212 247
#     4   9  18  32  47  64  88 117 149 180 211 255
#     4   9  16  28  47  69  89 111 145 183 216 253
#
# _framework density 27.410758999999999
#
# number of rings (size 3 to 8) (size 9 to 14) (size 15 to 20)
#    0.000    3.429    0.000    3.429    0.000    1.143 
#    0.000   10.000    0.000    5.143    0.000    0.000 
#    0.000    0.000    0.000    0.000    0.000    0.857 
#
# Total GULP energy -156162.752420 kJ/mol
# GULP energy per Si atom -5577.241158 kJ/mol
# Density = 2.734837 g / cm^3
# Si number density = 27.410759 Si / 1000 Ang^3
#
#
#
# Elastic Constant Matrix: (Units=GPa)
#
#
# Indices 1 2 3 4 5 6 
#
# 1 45.7638 8.5965 46.2083 0.0000 -2.3691 0.0000
# 2 8.5965 72.6060 20.5313 0.0000 -6.2285 0.0000
# 3 46.2083 20.5313 350.4219 0.0000 -9.8438 0.0000
# 4 0.0000 0.0000 0.0000 21.5762 0.0000 -2.0381
# 5 -2.3691 -6.2285 -9.8438 0.0000 72.9991 0.0000
# 6 0.0000 0.0000 0.0000 -2.0381 0.0000 17.7731
#
#
#
# Elastic Compliance Matrix: (Units=1/GPa)
#
#
# Indices 1 2 3 4 5 6 
#
# 1 0.025523 -0.002088 -0.003237 0.000000 0.000214 0.000000
# 2 -0.002088 0.014263 -0.000530 0.000000 0.001078 0.000000
# 3 -0.003237 -0.000530 0.003320 0.000000 0.000297 0.000000
# 4 0.000000 0.000000 0.000000 0.046855 0.000000 0.005373
# 5 0.000214 0.001078 0.000297 0.000000 0.013838 0.000000
# 6 0.000000 0.000000 0.000000 0.005373 0.000000 0.056881
#
#
# Mechanical properties :
#
#
# Convention : Reuss Voigt Hill
#
# Bulk Modulus (GPa) = 31.85231 68.82933 50.34082
# Shear Modulus (GPa) = 27.34400 48.70005 38.02203
#
# Velocity S-wave (km/s) = 3.16185 4.21964 3.72845
# Velocity P-wave (km/s) = 4.99753 6.99323 6.07785
#
# Compressibility (1/GPa) = 0.03139489
#
# Stress axis : x y z
#
# Youngs Moduli (GPa) = 39.17980 70.11382 301.20525
#
# Poissons Ratio (x) = 0.14641 0.97509
# Poissons Ratio (y) = 0.08182 0.15964
# Poissons Ratio (z) = 0.12684 0.03716
#
# Static dielectric constant tensor:
#      x y z
#    x 2.250360 0.000000 0.009060 
#    y 0.000000 2.071090 0.000000 
#    z 0.009060 0.000000 2.353600 
# 
# From -- ./inp_files/280324.got.cif
#   From: 2010.05.17/outbox.cif.g08.bks.cpg/sg12_141_cif.got.tgz:280324.got - 2010.06.03 13:09:07.
