data_PCOD9177690
_publ_section_title
;
Structure prediction by ZEFSAII (Michael W. Deem and Ramdas Pophale) SiO2 
 PCOD9177690
Probable space group: C 2/M
;
_chemical_formula_sum "Si O2"
_cell_formula_units_Z 52
_cell_length_a 5.339964
_cell_length_b 26.704051
_cell_length_c 24.084925
_cell_angle_alpha 90.000000
_cell_angle_beta 52.842516
_cell_angle_gamma 90.000000
_cell_volume 2737.204804
_symmetry_space_group_name_H-M "C 2/M"
_symmetry_group_IT_number 12
_symmetry_cell_setting 'monoclinic'
loop_
_space_group_symop_operation_xyz
x,y,z
-x,y,-z
-x,-y,-z
x,-y,z
1/2+x,1/2+y,z
1/2-x,1/2+y,-z
1/2-x,1/2-y,-z
1/2+x,1/2-y,z
loop_
_atom_site_type_symbol
_atom_site_label
_atom_site_fract_x
_atom_site_fract_y
_atom_site_fract_z
Si Si1 0.850723 0.115922 0.238398
Si Si2 0.649176 0.057669 0.761817
Si Si3 0.112497 0.942286 0.592023
Si Si4 0.391258 0.884089 0.406557
Si Si5 0.419546 0.283927 0.845869
Si Si6 0.268032 0.231311 0.421830
Si Si7 0.000000 0.283590 0.000000
O O1 0.660850 0.086610 0.216242
O O2 0.623013 0.116717 0.322337
O O3 0.161996 0.086606 0.215813
O O4 0.928880 0.171879 0.209638
O O5 0.881463 0.057022 0.676937
O O6 0.586650 0.000000 0.784641
O O7 0.425124 0.914772 0.571104
O O8 0.923732 0.911309 0.571408
O O9 0.161775 0.000000 0.569354
O O10 0.329220 0.826244 0.427907
O O11 0.687071 0.249917 0.839331
O O12 0.207370 0.308454 0.923857
O O13 0.590678 0.261408 0.387106
O O14 0.000000 0.251668 0.500000
O O15 0.750000 0.250000 0.000000
#
# Coordination Sequence:
#
# PCOD9177690 Si02
#       7
#     8   8   8   8   8   8   4
#     4  10  19  29  46  73  95 119 152 186 234 273
#     4   9  17  30  46  67  95 123 154 189 222 268
#     4   9  17  30  49  71  95 122 149 183 230 278
#     4  10  19  31  49  71  95 120 151 191 229 269
#     4  10  19  31  46  67  96 124 151 186 225 273
#     4  10  21  36  52  68  89 123 162 191 220 266
#     4   8  16  30  46  62  85 122 159 184 216 266
#
# _framework density 18.997482000000002
#
# number of rings (size 3 to 8) (size 9 to 14) (size 15 to 20)
#    0.000    2.462    0.000    2.769    0.000    4.923 
#    0.000    0.000    0.000    2.769    0.000    3.231 
#    0.000    0.000    0.000    0.000    0.000    0.000 
#
# Total GULP energy -145108.901179 kJ/mol
# GULP energy per Si atom -5581.111584 kJ/mol
# Density = 1.895424 g / cm^3
# Si number density = 18.997482 Si / 1000 Ang^3
#
#
#
# Elastic Constant Matrix: (Units=GPa)
#
#
# Indices 1 2 3 4 5 6 
#
# 1 184.7374 76.5341 26.6793 0.0000 -5.8731 0.0000
# 2 76.5341 131.3347 21.2700 0.0000 -2.6673 0.0000
# 3 26.6793 21.2700 43.7955 0.0000 -0.2699 0.0000
# 4 0.0000 0.0000 0.0000 -58.9584 0.0000 9.0165
# 5 -5.8731 -2.6673 -0.2699 0.0000 10.7234 0.0000
# 6 0.0000 0.0000 0.0000 9.0165 0.0000 34.9211
#
#
#
# Elastic Compliance Matrix: (Units=1/GPa)
#
#
# Indices 1 2 3 4 5 6 
#
# 1 0.007503 -0.003877 -0.002668 0.000000 0.003077 0.000000
# 2 -0.003877 0.010309 -0.002642 0.000000 0.000374 0.000000
# 3 -0.002668 -0.002642 0.025733 0.000000 -0.001471 0.000000
# 4 0.000000 0.000000 0.000000 -0.016317 0.000000 0.004213
# 5 0.003077 0.000374 -0.001471 0.000000 0.094995 0.000000
# 6 0.000000 0.000000 0.000000 0.004213 0.000000 0.027548
#
#
# Mechanical properties :
#
#
# Convention : Reuss Voigt Hill
#
# Bulk Modulus (GPa) = 39.73213 67.64827 53.69020
# Shear Modulus (GPa) = 28.32253 13.02950 20.67601
#
# Velocity S-wave (km/s) = 3.86535 2.62172 3.30260
# Velocity P-wave (km/s) = 6.39383 6.69708 6.54721
#
# Compressibility (1/GPa) = 0.02516855
#
# Stress axis : x y z
#
# Youngs Moduli (GPa) = 133.28597 97.00034 38.86029
#
# Poissons Ratio (x) = 0.37612 0.10369
# Poissons Ratio (y) = 0.51681 0.10269
# Poissons Ratio (z) = 0.35565 0.25632
#
# Static dielectric constant tensor:
#      x y z
#    x 1.697910 0.000000 0.008710 
#    y 0.000000 1.616350 0.000000 
#    z 0.008710 0.000000 1.686830 
# 
# From -- ./inp_files/297823.got.cif
#   From: 2010.05.17/outbox.cif.g08.bks.cpg/sg12_149_cif.got.tgz:297823.got - 2010.06.03 13:09:07.
