data_PCOD9177488
_publ_section_title
;
Structure prediction by ZEFSAII (Michael W. Deem and Ramdas Pophale) SiO2 
 PCOD9177488
Probable space group: C 2/M
;
_chemical_formula_sum "Si O2"
_cell_formula_units_Z 64
_cell_length_a 28.346243
_cell_length_b 9.362268
_cell_length_c 20.367591
_cell_angle_alpha 90.000000
_cell_angle_beta 47.869564
_cell_angle_gamma 90.000000
_cell_volume 4008.643539
_symmetry_space_group_name_H-M "C 2/M"
_symmetry_group_IT_number 12
_symmetry_cell_setting 'monoclinic'
loop_
_space_group_symop_operation_xyz
x,y,z
-x,y,-z
-x,-y,-z
x,-y,z
1/2+x,1/2+y,z
1/2-x,1/2+y,-z
1/2-x,1/2-y,-z
1/2+x,1/2-y,z
loop_
_atom_site_type_symbol
_atom_site_label
_atom_site_fract_x
_atom_site_fract_y
_atom_site_fract_z
Si Si1 0.560005 0.325868 0.901179
Si Si2 0.961149 0.669757 0.355086
Si Si3 0.215919 0.837156 0.615578
Si Si4 0.049500 0.329653 0.395880
Si Si5 0.337428 0.336562 0.516784
Si Si6 0.569637 0.671063 0.740727
Si Si7 0.823771 0.163750 0.687764
Si Si8 0.799487 0.164315 0.211010
O O1 0.561743 0.500000 0.899727
O O2 0.555352 0.284510 0.828957
O O3 0.628550 0.280973 0.865866
O O4 0.500000 0.279249 0.000000
O O5 0.954400 0.500000 0.353783
O O6 0.896548 0.737055 0.444341
O O7 0.969891 0.745983 0.277033
O O8 0.015788 0.697170 0.357694
O O9 0.272192 0.727218 0.548685
O O10 0.145001 0.800867 0.657808
O O11 0.208946 0.838650 0.701784
O O12 0.232291 0.000000 0.580905
O O13 0.060256 0.500000 0.392994
O O14 0.115433 0.247537 0.341898
O O15 0.000000 0.287491 0.500000
O O16 0.348378 0.500000 0.485390
O O17 0.330391 0.336154 0.602244
O O18 0.560791 0.500000 0.744137
O O19 0.757207 0.241645 0.764693
O O20 0.823494 0.000000 0.710112
O O21 0.794409 0.000000 0.193129
#
# Coordination Sequence:
#
# PCOD9177488 Si02
#       8
#     8   8   8   8   8   8   8   8
#     4   8  14  28  53  81 102 123 154 187 223 276
#     4  11  22  33  46  63  87 122 160 197 236 279
#     4   8  15  28  44  61  86 122 158 186 221 268
#     4  10  20  34  49  64  85 120 166 207 241 279
#     4  10  19  29  43  64  88 118 157 198 235 269
#     4   9  18  32  48  68  95 123 151 190 231 272
#     4  10  19  29  45  68  94 122 155 200 244 278
#     4   8  14  26  46  70  96 124 153 187 225 272
#
# _framework density 15.9655
#
# number of rings (size 3 to 8) (size 9 to 14) (size 15 to 20)
#    0.000    2.750    1.250    2.625    0.000    3.250 
#    0.000    1.875    0.000    1.500    0.000    0.875 
#    0.000    0.000    0.000    0.000    0.000    0.000 
#
# Total GULP energy -178418.752647 kJ/mol
# GULP energy per Si atom -5575.586020 kJ/mol
# Density = 1.592916 g / cm^3
# Si number density = 15.965500 Si / 1000 Ang^3
#
#
#
# Elastic Constant Matrix: (Units=GPa)
#
#
# Indices 1 2 3 4 5 6 
#
# 1 123.7377 70.3309 48.6278 -0.0014 -16.3502 0.0004
# 2 70.3309 65.4159 36.1257 -0.0017 -11.1294 0.0013
# 3 48.6278 36.1257 79.3073 -0.0031 -16.6589 0.0014
# 4 -0.0014 -0.0017 -0.0031 10.2684 0.0016 1.5847
# 5 -16.3502 -11.1294 -16.6589 0.0016 20.6354 -0.0004
# 6 0.0004 0.0013 0.0014 1.5847 -0.0004 24.3502
#
#
#
# Elastic Compliance Matrix: (Units=1/GPa)
#
#
# Indices 1 2 3 4 5 6 
#
# 1 0.021696 -0.021104 -0.002974 -0.000002 0.003407 0.000001
# 2 -0.021104 0.041262 -0.005652 0.000002 0.000970 -0.000002
# 3 -0.002974 -0.005652 0.019113 0.000003 0.010025 -0.000001
# 4 -0.000002 0.000002 0.000003 0.098374 -0.000006 -0.006402
# 5 0.003407 0.000970 0.010025 -0.000006 0.059777 0.000001
# 6 0.000001 -0.000002 -0.000001 -0.006402 0.000001 0.041484
#
#
# Mechanical properties :
#
#
# Convention : Reuss Voigt Hill
#
# Bulk Modulus (GPa) = 44.22471 64.29218 54.25845
# Shear Modulus (GPa) = 14.33886 18.60923 16.47404
#
# Velocity S-wave (km/s) = 3.00011 3.41778 3.21573
# Velocity P-wave (km/s) = 6.30565 7.47876 6.91712
#
# Compressibility (1/GPa) = 0.02261179
#
# Stress axis : x y z
#
# Youngs Moduli (GPa) = 46.09223 24.23517 52.31989
#
# Poissons Ratio (x) = 0.51145 0.15560
# Poissons Ratio (y) = 0.97271 0.29572
# Poissons Ratio (z) = 0.13708 0.13698
#
# Static dielectric constant tensor:
#      x y z
#    x 1.539510 0.000000 0.014490 
#    y 0.000000 1.532410 0.000000 
#    z 0.014490 0.000000 1.536110 
# 
# From -- ./inp_files/326879.got.cif
#   From: 2010.05.17/outbox.cif.g08.bks.cpg/sg12_164_cif.got.tgz:326879.got - 2010.06.03 13:09:07.
