data_PCOD9177268
_publ_section_title
;
Structure prediction by ZEFSAII (Michael W. Deem and Ramdas Pophale) SiO2 
 PCOD9177268
Probable space group: C 2/M
;
_chemical_formula_sum "Si O2"
_cell_formula_units_Z 48
_cell_length_a 30.720602
_cell_length_b 7.971401
_cell_length_c 23.034512
_cell_angle_alpha 90.000000
_cell_angle_beta 31.319322
_cell_angle_gamma 90.000000
_cell_volume 2932.146824
_symmetry_space_group_name_H-M "C 2/M"
_symmetry_group_IT_number 12
_symmetry_cell_setting 'monoclinic'
loop_
_space_group_symop_operation_xyz
x,y,z
-x,y,-z
-x,-y,-z
x,-y,z
1/2+x,1/2+y,z
1/2-x,1/2+y,-z
1/2-x,1/2-y,-z
1/2+x,1/2-y,z
loop_
_atom_site_type_symbol
_atom_site_label
_atom_site_fract_x
_atom_site_fract_y
_atom_site_fract_z
Si Si1 0.149935 0.201183 0.485994
Si Si2 0.194787 0.300765 0.618631
Si Si3 0.864524 0.308089 0.898582
Si Si4 0.041409 0.194321 0.726821
Si Si5 0.806892 0.808276 0.844483
Si Si6 0.916148 0.500000 0.517298
Si Si7 0.887730 0.500000 0.686570
O O1 0.246043 0.243157 0.394532
O O2 0.093586 0.229537 0.608211
O O3 0.118054 0.331991 0.474867
O O4 0.144538 0.000000 0.478628
O O5 0.186255 0.500000 0.628367
O O6 0.250000 0.250000 0.500000
O O7 0.103774 0.226435 0.709538
O O8 0.849292 0.500000 0.897466
O O9 0.857454 0.201654 0.847872
O O10 0.955103 0.293532 0.823882
O O11 0.788538 0.265336 0.028229
O O12 0.018963 0.000000 0.751472
O O13 0.842994 0.667326 0.761250
O O14 0.810618 0.000000 0.818298
O O15 0.891376 0.500000 0.612927
O O16 0.016894 0.500000 0.398966
#
# Coordination Sequence:
#
# PCOD9177268 Si02
#       7
#     8   8   8   8   8   4   4
#     4   9  20  34  49  75 105 139 176 211 254 307
#     4   9  17  28  44  69 104 138 168 208 256 305
#     4  10  19  31  51  79 106 139 170 200 259 317
#     4  10  19  27  46  79 110 140 168 204 255 314
#     4  10  21  36  54  74 106 138 168 216 260 307
#     4  11  24  36  58  73  97 143 181 217 257 298
#     4  11  24  40  52  79 101 133 183 220 257 299
#
# _framework density 16.370258
#
# number of rings (size 3 to 8) (size 9 to 14) (size 15 to 20)
#    0.000    2.167    0.833    3.500    9.333    2.667 
#    0.000    1.667    0.000    0.000    0.000    2.333 
#    0.000    5.333    0.000    0.000    0.000    0.000 
#
# Total GULP energy -133769.090971 kJ/mol
# GULP energy per Si atom -5573.712124 kJ/mol
# Density = 1.633300 g / cm^3
# Si number density = 16.370258 Si / 1000 Ang^3
#
#
#
# Elastic Constant Matrix: (Units=GPa)
#
#
# Indices 1 2 3 4 5 6 
#
# 1 81.2182 47.0153 35.4206 -0.0010 -17.4239 -0.0009
# 2 47.0153 81.8850 41.4543 -0.0079 3.4852 0.0014
# 3 35.4206 41.4543 64.0567 -0.0045 -13.1066 -0.0001
# 4 -0.0010 -0.0079 -0.0045 21.6412 -0.0008 -5.5863
# 5 -17.4239 3.4852 -13.1066 -0.0008 24.0487 0.0012
# 6 -0.0009 0.0014 -0.0001 -5.5863 0.0012 21.6525
#
#
#
# Elastic Compliance Matrix: (Units=1/GPa)
#
#
# Indices 1 2 3 4 5 6 
#
# 1 0.026021 -0.016032 0.000360 -0.000004 0.021373 0.000000
# 2 -0.016032 0.030558 -0.015975 0.000006 -0.024751 0.000000
# 3 0.000360 -0.015975 0.029575 0.000001 0.018694 0.000000
# 4 -0.000004 0.000006 0.000001 0.049505 -0.000002 0.012772
# 5 0.021373 -0.024751 0.018694 -0.000002 0.070842 -0.000002
# 6 0.000000 0.000000 0.000000 0.012772 -0.000002 0.049479
#
#
# Mechanical properties :
#
#
# Convention : Reuss Voigt Hill
#
# Bulk Modulus (GPa) = 43.74430 52.77113 48.25772
# Shear Modulus (GPa) = 15.29537 20.35314 17.82425
#
# Velocity S-wave (km/s) = 3.06001 3.52987 3.30331
# Velocity P-wave (km/s) = 6.26616 6.99423 6.64018
#
# Compressibility (1/GPa) = 0.02286012
#
# Stress axis : x y z
#
# Youngs Moduli (GPa) = 38.42978 32.72468 33.81196
#
# Poissons Ratio (x) = 0.52465 -0.01216
# Poissons Ratio (y) = 0.61612 0.54013
# Poissons Ratio (z) = -0.01382 0.52276
#
# Static dielectric constant tensor:
#      x y z
#    x 1.551050 0.000000 -0.032520 
#    y 0.000000 1.626420 0.000000 
#    z -0.032520 0.000000 1.548440 
# 
# From -- ./inp_files/352689.got.cif
#   From: 2010.05.17/outbox.cif.g08.bks.cpg/sg12_177_cif.got.tgz:352689.got - 2010.06.03 13:09:07.
