data_PCOD9177254
_publ_section_title
;
Structure prediction by ZEFSAII (Michael W. Deem and Ramdas Pophale) SiO2 
 PCOD9177254
Probable space group: C 2/M
;
_chemical_formula_sum "Si O2"
_cell_formula_units_Z 56
_cell_length_a 23.981706
_cell_length_b 13.798237
_cell_length_c 10.189059
_cell_angle_alpha 90.000000
_cell_angle_beta 133.331473
_cell_angle_gamma 90.000000
_cell_volume 2452.497730
_symmetry_space_group_name_H-M "C 2/M"
_symmetry_group_IT_number 12
_symmetry_cell_setting 'monoclinic'
loop_
_space_group_symop_operation_xyz
x,y,z
-x,y,-z
-x,-y,-z
x,-y,z
1/2+x,1/2+y,z
1/2-x,1/2+y,-z
1/2-x,1/2-y,-z
1/2+x,1/2-y,z
loop_
_atom_site_type_symbol
_atom_site_label
_atom_site_fract_x
_atom_site_fract_y
_atom_site_fract_z
Si Si1 0.330362 0.885547 0.772756
Si Si2 0.055620 0.388143 0.718607
Si Si3 0.653268 0.702406 0.059390
Si Si4 0.167509 0.883425 0.375912
Si Si5 0.914162 0.382391 0.647385
Si Si6 0.192376 0.382162 0.767510
Si Si7 0.995534 0.885543 0.833976
O O1 0.344790 0.817614 0.918679
O O2 0.245981 0.865004 0.578529
O O3 0.390608 0.857909 0.756432
O O4 0.335774 0.000000 0.806443
O O5 0.072702 0.500000 0.782022
O O6 0.133051 0.345743 0.781603
O O7 0.000000 0.391911 0.500000
O O8 0.997301 0.348657 0.734267
O O9 0.668257 0.661896 0.232435
O O10 0.723371 0.661739 0.088976
O O11 0.569491 0.662844 0.888845
O O12 0.091619 0.852412 0.334164
O O13 0.161767 0.000000 0.347704
O O14 0.916560 0.500000 0.646809
O O15 0.847570 0.356240 0.436498
O O16 0.196730 0.500000 0.779686
O O17 0.000804 0.000000 0.814984
O O18 0.000000 0.873535 0.000000
#
# Coordination Sequence:
#
# PCOD9177254 Si02
#       7
#     8   8   8   8   8   8   8
#     4  10  19  27  37  57  86 117 142 163 191 237
#     4   7  11  19  31  48  73 105 130 153 197 250
#     4  11  17  23  38  60  84 107 133 164 205 247
#     4   9  16  27  40  56  80 109 137 166 202 247
#     4   8  13  22  33  48  77 110 133 156 194 245
#     4   9  14  20  34  56  81 104 127 161 206 252
#     4   8  15  26  40  56  78 108 137 165 203 248
#
# _framework density 22.833863999999998
#
# number of rings (size 3 to 8) (size 9 to 14) (size 15 to 20)
#    0.000    3.143    1.429    4.286    0.000    0.000 
#    0.000    0.000    0.000    3.857    0.000    0.000 
#    0.000   21.143    0.000    2.143    0.000    0.571 
#
# Total GULP energy -156470.975933 kJ/mol
# GULP energy per Si atom -5588.249140 kJ/mol
# Density = 2.278189 g / cm^3
# Si number density = 22.833864 Si / 1000 Ang^3
#
#
#
# Elastic Constant Matrix: (Units=GPa)
#
#
# Indices 1 2 3 4 5 6 
#
# 1 169.9348 36.5682 53.9489 0.0000 49.5175 0.0000
# 2 36.5682 74.5524 24.9091 0.0000 20.6106 0.0000
# 3 53.9489 24.9091 59.7548 0.0000 16.5366 0.0000
# 4 0.0000 0.0000 0.0000 21.1794 0.0000 13.5551
# 5 49.5175 20.6106 16.5366 0.0000 45.1195 0.0000
# 6 0.0000 0.0000 0.0000 13.5551 0.0000 11.1949
#
#
#
# Elastic Compliance Matrix: (Units=1/GPa)
#
#
# Indices 1 2 3 4 5 6 
#
# 1 0.010914 -0.000436 -0.007136 0.000000 -0.009163 0.000000
# 2 -0.000436 0.016816 -0.005145 0.000000 -0.005318 0.000000
# 3 -0.007136 -0.005145 0.025045 0.000000 0.001003 0.000000
# 4 0.000000 0.000000 0.000000 0.209798 0.000000 -0.254029
# 5 -0.009163 -0.005318 0.001003 0.000000 0.034282 0.000000
# 6 0.000000 0.000000 0.000000 -0.254029 0.000000 0.396913
#
#
# Mechanical properties :
#
#
# Convention : Reuss Voigt Hill
#
# Bulk Modulus (GPa) = 36.57402 59.45494 48.01448
# Shear Modulus (GPa) = 6.86517 28.08648 17.47583
#
# Velocity S-wave (km/s) = 1.73583 3.51099 2.76949
# Velocity P-wave (km/s) = 4.47992 6.52155 5.59466
#
# Compressibility (1/GPa) = 0.02734181
#
# Stress axis : x y z
#
# Youngs Moduli (GPa) = 91.62590 59.46634 39.92835
#
# Poissons Ratio (x) = 0.02592 0.28493
# Poissons Ratio (y) = 0.03993 0.20542
# Poissons Ratio (z) = 0.65384 0.30594
#
# Static dielectric constant tensor:
#      x y z
#    x 1.839060 0.000000 0.036450 
#    y 0.000000 1.885390 0.000000 
#    z 0.036450 0.000000 1.874320 
# 
# From -- ./inp_files/246113.got.cif
#   From: 2010.05.17/outbox.cif.g08.bks.cpg/sg12_124_cif.got.tgz:246113.got - 2010.06.03 13:09:07.
