data_PCOD9177513
_publ_section_title
;
Structure prediction by ZEFSAII (Michael W. Deem and Ramdas Pophale) SiO2 
 PCOD9177513
Probable space group: C 2/M
;
_chemical_formula_sum "Si O2"
_cell_formula_units_Z 56
_cell_length_a 29.775629
_cell_length_b 8.963106
_cell_length_c 17.704898
_cell_angle_alpha 90.000000
_cell_angle_beta 130.416289
_cell_angle_gamma 90.000000
_cell_volume 3597.489628
_symmetry_space_group_name_H-M "C 2/M"
_symmetry_group_IT_number 12
_symmetry_cell_setting 'monoclinic'
loop_
_space_group_symop_operation_xyz
x,y,z
-x,y,-z
-x,-y,-z
x,-y,z
1/2+x,1/2+y,z
1/2-x,1/2+y,-z
1/2-x,1/2-y,-z
1/2+x,1/2-y,z
loop_
_atom_site_type_symbol
_atom_site_label
_atom_site_fract_x
_atom_site_fract_y
_atom_site_fract_z
Si Si1 0.960821 0.178363 0.130158
Si Si2 0.207859 0.822325 0.392228
Si Si3 0.272031 0.178179 0.137077
Si Si4 0.407819 0.175150 0.926755
Si Si5 0.342967 0.679145 0.086385
Si Si6 0.717938 0.678075 0.230205
Si Si7 0.419640 0.176310 0.762860
O O1 0.906627 0.227136 0.124918
O O2 0.023555 0.253257 0.215040
O O3 0.965976 0.000000 0.139119
O O4 0.941401 0.228286 0.025164
O O5 0.250000 0.750000 0.500000
O O6 0.231555 0.793436 0.332714
O O7 0.142082 0.754425 0.324379
O O8 0.204959 0.000000 0.399195
O O9 0.322986 0.255927 0.144748
O O10 0.266497 0.212993 0.219729
O O11 0.278085 0.000000 0.135366
O O12 0.209405 0.221335 0.029484
O O13 0.340101 0.228023 0.852706
O O14 0.428342 0.196775 0.862872
O O15 0.413695 0.000000 0.951610
O O16 0.343324 0.500000 0.090201
O O17 0.704218 0.500000 0.207847
O O18 0.415446 0.000000 0.744081
#
# Coordination Sequence:
#
# PCOD9177513 Si02
#       7
#     8   8   8   8   8   8   8
#     4  11  20  31  45  64  94 131 165 194 231 280
#     4  10  20  35  55  75  97 123 153 193 241 286
#     4   9  16  29  45  64  91 124 163 199 231 271
#     4  10  19  29  43  65  94 126 160 198 232 270
#     4   9  18  29  42  63  93 127 163 199 230 269
#     4   9  17  31  49  69  94 126 160 194 234 282
#     4  10  21  34  47  68  95 122 159 199 235 281
#
# _framework density 15.566409999999999
#
# number of rings (size 3 to 8) (size 9 to 14) (size 15 to 20)
#    0.000    2.286    1.429    2.143    0.000    5.714 
#    0.000    0.000    0.000    0.000    0.000    1.000 
#    0.000    8.000    0.000    0.000    0.000    0.000 
#
# Total GULP energy -156115.608815 kJ/mol
# GULP energy per Si atom -5575.557458 kJ/mol
# Density = 1.553098 g / cm^3
# Si number density = 15.566410 Si / 1000 Ang^3
#
#
#
# Elastic Constant Matrix: (Units=GPa)
#
#
# Indices 1 2 3 4 5 6 
#
# 1 128.4916 55.9652 58.8449 0.0000 11.0806 0.0000
# 2 55.9652 45.7962 36.7410 0.0000 2.2859 0.0000
# 3 58.8449 36.7410 73.8452 0.0000 0.6870 0.0000
# 4 0.0000 0.0000 0.0000 24.2009 0.0000 1.3200
# 5 11.0806 2.2859 0.6870 0.0000 11.5514 0.0000
# 6 0.0000 0.0000 0.0000 1.3200 0.0000 24.8844
#
#
#
# Elastic Compliance Matrix: (Units=1/GPa)
#
#
# Indices 1 2 3 4 5 6 
#
# 1 0.020341 -0.018639 -0.006792 0.000000 -0.015420 0.000000
# 2 -0.018639 0.053860 -0.012018 0.000000 0.007936 0.000000
# 3 -0.006792 -0.012018 0.024865 0.000000 0.007415 0.000000
# 4 0.000000 0.000000 0.000000 0.041441 0.000000 -0.002198
# 5 -0.015420 0.007936 0.007415 0.000000 0.099350 0.000000
# 6 0.000000 0.000000 0.000000 -0.002198 0.000000 0.040302
#
#
# Mechanical properties :
#
#
# Convention : Reuss Voigt Hill
#
# Bulk Modulus (GPa) = 41.37924 61.24836 51.31380
# Shear Modulus (GPa) = 13.76980 18.56614 16.16797
#
# Velocity S-wave (km/s) = 2.97742 3.45730 3.22630
# Velocity P-wave (km/s) = 6.20163 7.44105 6.84943
#
# Compressibility (1/GPa) = 0.02416671
#
# Stress axis : x y z
#
# Youngs Moduli (GPa) = 49.16083 18.56674 40.21755
#
# Poissons Ratio (x) = 0.34607 0.27316
# Poissons Ratio (y) = 0.91633 0.48334
# Poissons Ratio (z) = 0.33391 0.22314
#
# Static dielectric constant tensor:
#      x y z
#    x 1.540600 0.000000 -0.004920 
#    y 0.000000 1.517570 0.000000 
#    z -0.004920 0.000000 1.492930 
# 
# From -- ./inp_files/291812.got.cif
#   From: 2010.05.17/outbox.cif.g08.bks.cpg/sg12_146_cif.got.tgz:291812.got - 2010.06.03 13:09:07.
