data_PCOD9177912
_publ_section_title
;
Structure prediction by ZEFSAII (Michael W. Deem and Ramdas Pophale) SiO2 
 PCOD9177912
Probable space group: C 2/M
;
_chemical_formula_sum "Si O2"
_cell_formula_units_Z 48
_cell_length_a 5.392925
_cell_length_b 26.922128
_cell_length_c 20.434801
_cell_angle_alpha 90.000000
_cell_angle_beta 67.158874
_cell_angle_gamma 90.000000
_cell_volume 2734.257822
_symmetry_space_group_name_H-M "C 2/M"
_symmetry_group_IT_number 12
_symmetry_cell_setting 'monoclinic'
loop_
_space_group_symop_operation_xyz
x,y,z
-x,y,-z
-x,-y,-z
x,-y,z
1/2+x,1/2+y,z
1/2-x,1/2+y,-z
1/2-x,1/2-y,-z
1/2+x,1/2-y,z
loop_
_atom_site_type_symbol
_atom_site_label
_atom_site_fract_x
_atom_site_fract_y
_atom_site_fract_z
Si Si1 0.063339 0.439849 0.796186
Si Si2 0.170879 0.804802 0.424951
Si Si3 0.231112 0.645704 0.382465
Si Si4 0.809753 0.439356 0.959295
Si Si5 0.126056 0.765500 0.715989
Si Si6 0.310332 0.440362 0.287514
O O1 0.051789 0.500000 0.798340
O O2 0.931693 0.422604 0.877515
O O3 0.887050 0.424570 0.751476
O O4 0.377934 0.427179 0.758691
O O5 0.432288 0.833211 0.425188
O O6 0.271698 0.767155 0.358207
O O7 0.000000 0.779187 0.500000
O O8 0.955156 0.841679 0.413419
O O9 0.329620 0.678035 0.309343
O O10 0.225982 0.589041 0.361055
O O11 0.810515 0.500000 0.958616
O O12 0.500000 0.424038 0.000000
O O13 0.000000 0.424154 0.000000
O O14 0.317969 0.748664 0.754015
O O15 0.293543 0.500000 0.296070
#
# Coordination Sequence:
#
# PCOD9177912 Si02
#       6
#     8   8   8   8   8   8
#     4   9  17  28  42  60  81 111 150 184 209 236
#     4  10  19  31  48  68  86 103 129 167 218 279
#     4  10  19  30  45  64  84 109 140 172 212 249
#     4   9  15  23  37  58  83 107 135 175 217 250
#     4   8  16  27  42  64  86 103 125 156 206 262
#     4  10  19  31  45  59  81 115 155 186 200 230
#
# _framework density 17.555036999999999
#
# number of rings (size 3 to 8) (size 9 to 14) (size 15 to 20)
#    0.000    2.667    0.000    2.500    0.000   10.000 
#    0.000    0.000    0.000    3.000    0.000    0.000 
#    0.000    0.000    0.000    0.000    0.000  525.000 
#
# Total GULP energy -133718.182100 kJ/mol
# GULP energy per Si atom -5571.590921 kJ/mol
# Density = 1.751508 g / cm^3
# Si number density = 17.555037 Si / 1000 Ang^3
#
#
#
# Elastic Constant Matrix: (Units=GPa)
#
#
# Indices 1 2 3 4 5 6 
#
# 1 144.1887 13.7149 8.1011 0.0000 -1.8980 0.0000
# 2 13.7149 33.6648 11.8778 0.0000 0.3145 0.0000
# 3 8.1011 11.8778 29.2200 0.0000 -1.3261 0.0000
# 4 0.0000 0.0000 0.0000 -0.8187 0.0000 -0.4667
# 5 -1.8980 0.3145 -1.3261 0.0000 20.2715 0.0000
# 6 0.0000 0.0000 0.0000 -0.4667 0.0000 12.4722
#
#
#
# Elastic Compliance Matrix: (Units=1/GPa)
#
#
# Indices 1 2 3 4 5 6 
#
# 1 0.007246 -0.002638 -0.000906 0.000000 0.000660 0.000000
# 2 -0.002638 0.035682 -0.013851 0.000000 -0.001707 0.000000
# 3 -0.000906 -0.013851 0.040230 0.000000 0.002762 0.000000
# 4 0.000000 0.000000 0.000000 -1.195893 0.000000 -0.044751
# 5 0.000660 -0.001707 0.002762 0.000000 0.049599 0.000000
# 6 0.000000 0.000000 0.000000 -0.044751 0.000000 0.078504
#
#
# Mechanical properties :
#
#
# Convention : Reuss Voigt Hill
#
# Bulk Modulus (GPa) = 20.67513 30.49567 25.58540
# Shear Modulus (GPa) = -5.35493 17.94364 6.29436
#
# Velocity S-wave (km/s) = -1.74842 3.20056 1.89560
# Velocity P-wave (km/s) = 2.77973 5.57380 4.40421
#
# Compressibility (1/GPa) = 0.04836729
#
# Stress axis : x y z
#
# Youngs Moduli (GPa) = 138.00866 28.02514 24.85707
#
# Poissons Ratio (x) = 0.07394 0.02253
# Poissons Ratio (y) = 0.36411 0.34429
# Poissons Ratio (z) = 0.12510 0.38817
#
# Static dielectric constant tensor:
#      x y z
#    x 1.668860 0.000000 0.001310 
#    y 0.000000 1.607850 0.000000 
#    z 0.001310 0.000000 1.601480 
# 
# From -- ./inp_files/192326.got.cif
#   From: 2010.05.17/outbox.cif.g08.bks.cpg/sg12_97_cif.got.tgz:192326.got - 2010.06.03 13:09:07.
