data_PCOD9177497
_publ_section_title
;
Structure prediction by ZEFSAII (Michael W. Deem and Ramdas Pophale) SiO2 
 PCOD9177497
Probable space group: C 2/M
;
_chemical_formula_sum "Si O2"
_cell_formula_units_Z 48
_cell_length_a 24.749030
_cell_length_b 7.460571
_cell_length_c 14.349519
_cell_angle_alpha 90.000000
_cell_angle_beta 110.320529
_cell_angle_gamma 90.000000
_cell_volume 2484.628217
_symmetry_space_group_name_H-M "C 2/M"
_symmetry_group_IT_number 12
_symmetry_cell_setting 'monoclinic'
loop_
_space_group_symop_operation_xyz
x,y,z
-x,y,-z
-x,-y,-z
x,-y,z
1/2+x,1/2+y,z
1/2-x,1/2+y,-z
1/2-x,1/2-y,-z
1/2+x,1/2-y,z
loop_
_atom_site_type_symbol
_atom_site_label
_atom_site_fract_x
_atom_site_fract_y
_atom_site_fract_z
Si Si1 0.562198 0.216943 0.923078
Si Si2 0.863464 0.718842 0.859150
Si Si3 0.753485 0.784457 0.113260
Si Si4 0.554776 0.219024 0.244129
Si Si5 0.503302 0.207057 0.604756
Si Si6 0.622245 0.293219 0.768995
O O1 0.498348 0.271710 0.854992
O O2 0.603719 0.281815 0.865882
O O3 0.562730 0.000000 0.922289
O O4 0.588157 0.272980 0.036565
O O5 0.861807 0.500000 0.857783
O O6 0.802437 0.780096 0.863695
O O7 0.886401 0.774785 0.771327
O O8 0.813381 0.716180 0.193151
O O9 0.754831 0.000000 0.122315
O O10 0.750000 0.750000 0.000000
O O11 0.536613 0.283466 0.336097
O O12 0.554560 0.000000 0.247277
O O13 0.500000 0.288994 0.500000
O O14 0.569094 0.209283 0.681121
O O15 0.484942 0.000000 0.584451
O O16 0.624136 0.500000 0.740672
#
# Coordination Sequence:
#
# PCOD9177497 Si02
#       6
#     8   8   8   8   8   8
#     4   9  15  25  43  64  88 119 152 185 216 255
#     4   9  15  24  41  64  90 120 151 184 217 251
#     4  10  19  29  43  64  92 126 159 182 208 254
#     4   8  14  24  42  68  89 107 143 192 230 260
#     4   9  18  33  53  72  86 107 146 194 237 272
#     4  10  19  29  43  67  95 121 150 182 220 268
#
# _framework density 19.318784999999998
#
# number of rings (size 3 to 8) (size 9 to 14) (size 15 to 20)
#    0.000    2.833    1.667    2.000    0.000    3.000 
#    0.000    0.000    0.000   13.000    0.000    0.000 
#    0.000    0.000    0.000    0.000    0.000    0.167 
#
# Total GULP energy -133735.740410 kJ/mol
# GULP energy per Si atom -5572.322517 kJ/mol
# Density = 1.927481 g / cm^3
# Si number density = 19.318785 Si / 1000 Ang^3
#
#
#
# Elastic Constant Matrix: (Units=GPa)
#
#
# Indices 1 2 3 4 5 6 
#
# 1 168.4869 0.5794 69.8429 0.0000 -33.8155 0.0000
# 2 0.5794 53.5307 -1.4859 0.0000 -2.9380 0.0000
# 3 69.8429 -1.4859 105.9880 0.0000 -25.5059 0.0000
# 4 0.0000 0.0000 0.0000 0.0927 0.0000 1.6914
# 5 -33.8155 -2.9380 -25.5059 0.0000 16.0856 0.0000
# 6 0.0000 0.0000 0.0000 1.6914 0.0000 9.7460
#
#
#
# Elastic Compliance Matrix: (Units=1/GPa)
#
#
# Indices 1 2 3 4 5 6 
#
# 1 0.010745 0.000836 -0.002581 0.000000 0.018648 0.000000
# 2 0.000836 0.019142 0.001588 0.000000 0.007770 0.000000
# 3 -0.002581 0.001588 0.016044 0.000000 0.020304 0.000000
# 4 0.000000 0.000000 0.000000 -4.979316 0.000000 0.864155
# 5 0.018648 0.007770 0.020304 0.000000 0.134984 0.000000
# 6 0.000000 0.000000 0.000000 0.864155 0.000000 -0.047367
#
#
# Mechanical properties :
#
#
# Convention : Reuss Voigt Hill
#
# Bulk Modulus (GPa) = 21.92225 51.76426 36.84325
# Shear Modulus (GPa) = -1.03514 22.45613 10.71049
#
# Velocity S-wave (km/s) = -0.73279 3.41310 2.35714
# Velocity P-wave (km/s) = 3.26440 6.51040 5.14983
#
# Compressibility (1/GPa) = 0.04561577
#
# Stress axis : x y z
#
# Youngs Moduli (GPa) = 93.06643 52.24010 62.32667
#
# Poissons Ratio (x) = -0.04365 0.16088
# Poissons Ratio (y) = -0.07776 -0.09896
# Poissons Ratio (z) = 0.24023 -0.08294
#
# Static dielectric constant tensor:
#      x y z
#    x 1.712540 0.000000 -0.013200 
#    y 0.000000 1.727930 0.000000 
#    z -0.013200 0.000000 1.652980 
# 
# From -- ./inp_files/236612.got.cif
#   From: 2010.05.17/outbox.cif.g08.bks.cpg/sg12_119_cif.got.tgz:236612.got - 2010.06.03 13:09:07.
