data_PCOD9177625
_publ_section_title
;
Structure prediction by ZEFSAII (Michael W. Deem and Ramdas Pophale) SiO2 
 PCOD9177625
Probable space group: C 2/M
;
_chemical_formula_sum "Si O2"
_cell_formula_units_Z 56
_cell_length_a 19.853808
_cell_length_b 7.634838
_cell_length_c 25.951739
_cell_angle_alpha 90.000000
_cell_angle_beta 46.934099
_cell_angle_gamma 90.000000
_cell_volume 2873.897168
_symmetry_space_group_name_H-M "C 2/M"
_symmetry_group_IT_number 12
_symmetry_cell_setting 'monoclinic'
loop_
_space_group_symop_operation_xyz
x,y,z
-x,y,-z
-x,-y,-z
x,-y,z
1/2+x,1/2+y,z
1/2-x,1/2+y,-z
1/2-x,1/2-y,-z
1/2+x,1/2-y,z
loop_
_atom_site_type_symbol
_atom_site_label
_atom_site_fract_x
_atom_site_fract_y
_atom_site_fract_z
Si Si1 0.855308 0.792590 0.429090
Si Si2 0.709072 0.788360 0.947118
Si Si3 0.912941 0.713831 0.079678
Si Si4 0.400256 0.202164 0.201440
Si Si5 0.897340 0.204883 0.895443
Si Si6 0.416316 0.285270 0.506054
Si Si7 0.210864 0.291620 0.644835
O O1 0.750000 0.750000 0.500000
O O2 0.917750 0.728695 0.444701
O O3 0.856528 0.732096 0.369271
O O4 0.866994 0.000000 0.421559
O O5 0.675520 0.741609 0.908222
O O6 0.810302 0.724732 0.909028
O O7 0.709217 0.000000 0.951281
O O8 0.636211 0.725478 0.027942
O O9 0.921413 0.500000 0.078080
O O10 0.904458 0.781624 0.142003
O O11 0.000000 0.772970 0.000000
O O12 0.505943 0.205357 0.164615
O O13 0.335082 0.281143 0.279275
O O14 0.371176 0.000000 0.210072
O O15 0.909128 0.000000 0.878127
O O16 0.500000 0.230128 0.500000
O O17 0.417161 0.500000 0.505505
O O18 0.314951 0.227172 0.579205
O O19 0.220408 0.500000 0.645829
#
# Coordination Sequence:
#
# PCOD9177625 Si02
#       7
#     8   8   8   8   8   8   8
#     4   9  16  28  49  73  97 125 155 188 226 272
#     4   9  17  31  48  66  89 117 154 198 239 283
#     4   9  15  27  49  69  85 116 163 204 235 276
#     4  10  19  32  49  67  91 125 162 199 239 284
#     4  10  19  29  45  69  93 117 149 193 243 289
#     4   8  14  27  48  74  98 119 150 191 230 270
#     4   9  18  31  48  70  95 126 161 194 234 284
#
# _framework density 19.485734000000001
#
# number of rings (size 3 to 8) (size 9 to 14) (size 15 to 20)
#    0.000    2.857    1.429    1.714    0.000    1.143 
#    0.000    2.857    0.000   15.857    0.000    0.000 
#    0.000    0.000    0.000    0.000    0.000    0.000 
#
# Total GULP energy -155926.927002 kJ/mol
# GULP energy per Si atom -5568.818822 kJ/mol
# Density = 1.944138 g / cm^3
# Si number density = 19.485734 Si / 1000 Ang^3
#
#
#
# Elastic Constant Matrix: (Units=GPa)
#
#
# Indices 1 2 3 4 5 6 
#
# 1 137.4244 0.3185 70.3123 -0.0002 19.9083 0.0009
# 2 0.3185 37.6205 4.3830 -0.0015 1.2504 -0.0054
# 3 70.3123 4.3830 124.4701 0.0000 23.6955 -0.0001
# 4 -0.0002 -0.0015 0.0000 10.0569 0.0001 1.3452
# 5 19.9083 1.2504 23.6955 0.0001 22.9421 0.0000
# 6 0.0009 -0.0054 -0.0001 1.3452 0.0000 16.5419
#
#
#
# Elastic Compliance Matrix: (Units=1/GPa)
#
#
# Indices 1 2 3 4 5 6 
#
# 1 0.010498 0.000646 -0.005243 0.000000 -0.003730 0.000000
# 2 0.000646 0.026737 -0.001148 0.000003 -0.000832 0.000008
# 3 -0.005243 -0.001148 0.012644 0.000000 -0.008447 0.000000
# 4 0.000000 0.000003 0.000000 0.100528 -0.000001 -0.008175
# 5 -0.003730 -0.000832 -0.008447 -0.000001 0.055595 0.000000
# 6 0.000000 0.000008 0.000000 -0.008175 0.000000 0.061117
#
#
# Mechanical properties :
#
#
# Convention : Reuss Voigt Hill
#
# Bulk Modulus (GPa) = 26.04870 49.94915 37.99893
# Shear Modulus (GPa) = 17.15817 24.87492 21.01654
#
# Velocity S-wave (km/s) = 2.97063 3.57679 3.28771
# Velocity P-wave (km/s) = 5.01630 6.53814 5.82711
#
# Compressibility (1/GPa) = 0.03838963
#
# Stress axis : x y z
#
# Youngs Moduli (GPa) = 95.25521 37.40104 79.08670
#
# Poissons Ratio (x) = -0.02416 0.41465
# Poissons Ratio (y) = -0.06153 0.09079
# Poissons Ratio (z) = 0.49942 0.04294
#
# Static dielectric constant tensor:
#      x y z
#    x 1.711360 0.000000 0.030480 
#    y 0.000000 1.741950 0.000000 
#    z 0.030480 0.000000 1.684540 
# 
# From -- ./inp_files/345497.got.cif
#   From: 2010.05.17/outbox.cif.g08.bks.cpg/sg12_173_cif.got.tgz:345497.got - 2010.06.03 13:09:07.
