data_PCOD9177057
_publ_section_title
;
Structure prediction by ZEFSAII (Michael W. Deem and Ramdas Pophale) SiO2 
 PCOD9177057
Probable space group: C 2/M
;
_chemical_formula_sum "Si O2"
_cell_formula_units_Z 48
_cell_length_a 18.508866
_cell_length_b 22.885924
_cell_length_c 5.147496
_cell_angle_alpha 90.000000
_cell_angle_beta 73.310712
_cell_angle_gamma 90.000000
_cell_volume 2088.592261
_symmetry_space_group_name_H-M "C 2/M"
_symmetry_group_IT_number 12
_symmetry_cell_setting 'monoclinic'
loop_
_space_group_symop_operation_xyz
x,y,z
-x,y,-z
-x,-y,-z
x,-y,z
1/2+x,1/2+y,z
1/2-x,1/2+y,-z
1/2-x,1/2-y,-z
1/2+x,1/2-y,z
loop_
_atom_site_type_symbol
_atom_site_label
_atom_site_fract_x
_atom_site_fract_y
_atom_site_fract_z
Si Si1 0.261100 0.935440 0.592717
Si Si2 0.769641 0.861490 0.872873
Si Si3 0.080508 0.393552 0.493556
Si Si4 0.500000 0.282130 0.000000
Si Si5 0.054063 0.000000 0.695858
Si Si6 0.079684 0.127966 0.557024
Si Si7 0.386142 0.815907 0.036165
O O1 0.250028 0.913668 0.309573
O O2 0.351422 0.936769 0.528665
O O3 0.231430 0.000000 0.680340
O O4 0.233517 0.886811 0.831226
O O5 0.854803 0.848437 0.697238
O O6 0.705915 0.812413 0.871932
O O7 0.084526 0.347494 0.730225
O O8 0.000000 0.419520 0.500000
O O9 0.101299 0.358650 0.214479
O O10 0.557291 0.324046 0.788958
O O11 0.560207 0.239062 0.074451
O O12 0.097149 0.937544 0.644657
O O13 0.000000 0.000000 0.500000
O O14 0.000000 0.000000 0.000000
O O15 0.000000 0.120526 0.500000
#
# Coordination Sequence:
#
# PCOD9177057 Si02
#       7
#     8   8   8   4   4   8   8
#     4  10  22  38  64  96 127 172 219 263 319 387
#     4  10  24  44  63  93 134 169 214 262 328 383
#     4  10  18  37  61  93 130 170 213 258 326 379
#     4  12  24  41  70  96 129 166 226 262 316 388
#     4  10  22  44  62  90 128 159 200 267 324 368
#     4  11  27  44  67  97 126 169 218 268 323 387
#     4  10  22  39  65  92 128 174 206 265 320 377
#
# _framework density 22.981987
#
# number of rings (size 3 to 8) (size 9 to 14) (size 15 to 20)
#    0.000    1.667    2.500    0.500    7.000    1.000 
#    0.000    0.833    0.000    6.000    0.000    0.000 
#    0.000    0.000    0.000    0.000    0.000    0.000 
#
# Total GULP energy -133859.543618 kJ/mol
# GULP energy per Si atom -5577.480984 kJ/mol
# Density = 2.292968 g / cm^3
# Si number density = 22.981987 Si / 1000 Ang^3
#
#
#
# Elastic Constant Matrix: (Units=GPa)
#
#
# Indices 1 2 3 4 5 6 
#
# 1 111.3565 17.2556 8.4862 0.0000 -26.6857 0.0000
# 2 17.2556 106.2769 8.0275 0.0000 18.8548 0.0000
# 3 8.4862 8.0275 90.6664 0.0000 9.8581 0.0000
# 4 0.0000 0.0000 0.0000 1.4981 0.0000 34.4616
# 5 -26.6857 18.8548 9.8581 0.0000 72.1634 0.0000
# 6 0.0000 0.0000 0.0000 34.4616 0.0000 -54.1073
#
#
#
# Elastic Compliance Matrix: (Units=1/GPa)
#
#
# Indices 1 2 3 4 5 6 
#
# 1 0.010596 -0.002464 -0.001289 0.000000 0.004738 0.000000
# 2 -0.002464 0.010472 -0.000305 0.000000 -0.003606 0.000000
# 3 -0.001289 -0.000305 0.011389 0.000000 -0.001953 0.000000
# 4 0.000000 0.000000 0.000000 0.042649 0.000000 0.027164
# 5 0.004738 -0.003606 -0.001953 0.000000 0.016818 0.000000
# 6 0.000000 0.000000 0.000000 0.027164 0.000000 -0.001181
#
#
# Mechanical properties :
#
#
# Convention : Reuss Voigt Hill
#
# Bulk Modulus (GPa) = 41.07924 41.75981 41.41952
# Shear Modulus (GPa) = 46.74132 22.21288 34.47710
#
# Velocity S-wave (km/s) = 4.51469 3.11229 3.87742
# Velocity P-wave (km/s) = 6.71490 5.57900 6.17313
#
# Compressibility (1/GPa) = 0.02434320
#
# Stress axis : x y z
#
# Youngs Moduli (GPa) = 94.37950 95.49237 87.80118
#
# Poissons Ratio (x) = 0.23525 0.11315
# Poissons Ratio (y) = 0.23251 0.02674
# Poissons Ratio (z) = 0.12163 0.02908
#
# Static dielectric constant tensor:
#      x y z
#    x 2.041450 0.000000 -0.034350 
#    y 0.000000 1.858610 0.000000 
#    z -0.034350 0.000000 1.829290 
# 
# From -- ./inp_files/21572.got.cif
#   From: 2010.05.17/outbox.cif.g08.bks.cpg/sg12_11_cif.got.tgz:21572.got - 2010.06.03 13:09:07.
