data_PCOD9177969
_publ_section_title
;
Structure prediction by ZEFSAII (Michael W. Deem and Ramdas Pophale) SiO2 
 PCOD9177969
Probable space group: C 2/M
;
_chemical_formula_sum "Si O2"
_cell_formula_units_Z 48
_cell_length_a 23.899571
_cell_length_b 7.674453
_cell_length_c 20.371321
_cell_angle_alpha 90.000000
_cell_angle_beta 136.699633
_cell_angle_gamma 90.000000
_cell_volume 2562.528966
_symmetry_space_group_name_H-M "C 2/M"
_symmetry_group_IT_number 12
_symmetry_cell_setting 'monoclinic'
loop_
_space_group_symop_operation_xyz
x,y,z
-x,y,-z
-x,-y,-z
x,-y,z
1/2+x,1/2+y,z
1/2-x,1/2+y,-z
1/2-x,1/2-y,-z
1/2+x,1/2-y,z
loop_
_atom_site_type_symbol
_atom_site_label
_atom_site_fract_x
_atom_site_fract_y
_atom_site_fract_z
Si Si1 0.552589 0.713465 0.818916
Si Si2 0.647619 0.297619 0.769146
Si Si3 0.130405 0.788968 0.357147
Si Si4 0.299159 0.292724 0.975267
Si Si5 0.702473 0.207592 0.559278
Si Si6 0.909155 0.297143 0.420837
O O1 0.554669 0.500000 0.820175
O O2 0.595371 0.770042 0.786980
O O3 0.459150 0.770493 0.740733
O O4 0.609761 0.768589 0.928707
O O5 0.626769 0.500000 0.744029
O O6 0.742829 0.282456 0.869954
O O7 0.625548 0.210311 0.682057
O O8 0.206727 0.723747 0.379016
O O9 0.149867 0.737500 0.448620
O O10 0.130169 0.000000 0.354833
O O11 0.300965 0.500000 0.967540
O O12 0.250000 0.250000 0.000000
O O13 0.653996 0.279895 0.580340
O O14 0.712477 0.000000 0.576928
O O15 0.918537 0.500000 0.448360
O O16 0.000000 0.218814 0.500000
#
# Coordination Sequence:
#
# PCOD9177969 Si02
#       6
#     8   8   8   8   8   8
#     4   8  15  27  45  68  89 111 143 182 219 258
#     4  10  19  30  45  67  92 118 149 182 221 265
#     4   9  16  29  48  66  87 114 145 182 219 257
#     4   9  16  28  45  66  92 118 146 181 223 265
#     4   9  18  30  44  65  90 116 147 180 217 260
#     4  10  20  32  45  64  92 122 149 179 218 264
#
# _framework density 18.731496
#
# number of rings (size 3 to 8) (size 9 to 14) (size 15 to 20)
#    0.000    2.833    0.000    3.000    0.000    1.000 
#    0.000    4.167    0.000    1.000    0.000    7.000 
#    0.000    0.000    0.000    0.000    0.000    0.000 
#
# Total GULP energy -133724.452444 kJ/mol
# GULP energy per Si atom -5571.852185 kJ/mol
# Density = 1.868886 g / cm^3
# Si number density = 18.731496 Si / 1000 Ang^3
#
#
#
# Elastic Constant Matrix: (Units=GPa)
#
#
# Indices 1 2 3 4 5 6 
#
# 1 108.2367 3.4787 75.9321 0.0000 12.2304 0.0000
# 2 3.4787 29.4970 -17.5269 0.0000 -1.3424 0.0000
# 3 75.9321 -17.5269 128.2503 0.0000 24.9302 0.0000
# 4 0.0000 0.0000 0.0000 21.0225 0.0000 -3.1963
# 5 12.2304 -1.3424 24.9302 0.0000 30.3743 0.0000
# 6 0.0000 0.0000 0.0000 -3.1963 0.0000 1.6695
#
#
#
# Elastic Compliance Matrix: (Units=1/GPa)
#
#
# Indices 1 2 3 4 5 6 
#
# 1 0.017957 -0.009374 -0.012406 0.000000 0.002538 0.000000
# 2 -0.009374 0.042020 0.012133 0.000000 -0.004327 -0.000001
# 3 -0.012406 0.012133 0.018710 0.000000 -0.009825 0.000000
# 4 0.000000 0.000000 0.000000 0.067101 0.000000 0.128471
# 5 0.002538 -0.004327 -0.009825 0.000000 0.039774 0.000000
# 6 0.000000 -0.000001 0.000000 0.128471 0.000000 0.844968
#
#
# Mechanical properties :
#
#
# Convention : Reuss Voigt Hill
#
# Bulk Modulus (GPa) = 16.83642 43.30576 30.07109
# Shear Modulus (GPa) = 4.67456 24.21993 14.44724
#
# Velocity S-wave (km/s) = 1.58145 3.59974 2.78021
# Velocity P-wave (km/s) = 3.51318 6.35979 5.13758
#
# Compressibility (1/GPa) = 0.05939504
#
# Stress axis : x y z
#
# Youngs Moduli (GPa) = 55.68978 23.79825 53.44657
#
# Poissons Ratio (x) = 0.22308 0.66304
# Poissons Ratio (y) = 0.52201 -0.64849
# Poissons Ratio (z) = 0.69087 -0.28875
#
# Static dielectric constant tensor:
#      x y z
#    x 1.662630 0.000000 0.038680 
#    y 0.000000 1.647460 0.000000 
#    z 0.038680 0.000000 1.644440 
# 
# From -- ./inp_files/280552.got.cif
#   From: 2010.05.17/outbox.cif.g08.bks.cpg/sg12_141_cif.got.tgz:280552.got - 2010.06.03 13:09:07.
