data_PCOD9177567
_publ_section_title
;
Structure prediction by ZEFSAII (Michael W. Deem and Ramdas Pophale) SiO2 
 PCOD9177567
Probable space group: C 2/M
;
_chemical_formula_sum "Si O2"
_cell_formula_units_Z 56
_cell_length_a 28.580595
_cell_length_b 8.936879
_cell_length_c 18.851230
_cell_angle_alpha 90.000000
_cell_angle_beta 131.132017
_cell_angle_gamma 90.000000
_cell_volume 3626.642959
_symmetry_space_group_name_H-M "C 2/M"
_symmetry_group_IT_number 12
_symmetry_cell_setting 'monoclinic'
loop_
_space_group_symop_operation_xyz
x,y,z
-x,y,-z
-x,-y,-z
x,-y,z
1/2+x,1/2+y,z
1/2-x,1/2+y,-z
1/2-x,1/2-y,-z
1/2+x,1/2-y,z
loop_
_atom_site_type_symbol
_atom_site_label
_atom_site_fract_x
_atom_site_fract_y
_atom_site_fract_z
Si Si1 0.253572 0.321122 0.673958
Si Si2 0.250444 0.820731 0.824204
Si Si3 0.001961 0.180544 0.419988
Si Si4 0.809070 0.679350 0.599117
Si Si5 0.377771 0.179150 0.531109
Si Si6 0.811599 0.678877 0.026851
Si Si7 0.124576 0.179964 0.784770
O O1 0.258495 0.500000 0.675015
O O2 0.258640 0.263139 0.758776
O O3 0.304586 0.247555 0.672831
O O4 0.185059 0.279305 0.574808
O O5 0.184122 0.781309 0.794723
O O6 0.249830 0.000000 0.811700
O O7 0.303773 0.786799 0.935704
O O8 0.062589 0.242762 0.441918
O O9 0.000000 0.229988 0.500000
O O10 0.938851 0.225260 0.316845
O O11 0.004481 0.000000 0.422146
O O12 0.802932 0.500000 0.595886
O O13 0.750000 0.750000 0.500000
O O14 0.865497 0.715029 0.601917
O O15 0.384317 0.000000 0.531822
O O16 0.809764 0.500000 0.032522
O O17 0.866260 0.745840 0.129130
O O18 0.750000 0.750000 0.000000
O O19 0.125653 0.000000 0.793912
#
# Coordination Sequence:
#
# PCOD9177567 Si02
#       7
#     8   8   8   8   8   8   8
#     4  10  19  29  44  68  93 117 148 184 225 269
#     4   9  17  29  45  65  90 118 147 182 224 267
#     4  10  20  32  46  65  90 122 156 185 215 255
#     4   9  17  30  46  64  88 116 148 185 224 267
#     4   9  19  32  44  63  90 119 151 184 217 258
#     4   9  17  29  45  64  87 117 150 184 225 269
#     4   9  18  31  45  64  90 120 155 188 219 261
#
# _framework density 15.441278000000001
#
# number of rings (size 3 to 8) (size 9 to 14) (size 15 to 20)
#    0.000    2.714    0.000    3.857    0.000    8.286 
#    0.000    0.000    0.000    0.000    0.000    1.000 
#    0.000    8.000    0.000    0.000    0.000    0.000 
#
# Total GULP energy -155944.472937 kJ/mol
# GULP energy per Si atom -5569.445462 kJ/mol
# Density = 1.540613 g / cm^3
# Si number density = 15.441278 Si / 1000 Ang^3
#
#
#
# Elastic Constant Matrix: (Units=GPa)
#
#
# Indices 1 2 3 4 5 6 
#
# 1 110.2581 40.3041 65.4323 0.0000 -19.4499 0.0000
# 2 40.3041 35.0736 43.3637 0.0000 -12.2343 0.0000
# 3 65.4323 43.3637 125.8430 0.0000 -18.3046 0.0000
# 4 0.0000 0.0000 0.0000 25.8932 0.0000 -3.8693
# 5 -19.4499 -12.2343 -18.3046 0.0000 24.0945 0.0000
# 6 0.0000 0.0000 0.0000 -3.8693 0.0000 26.4693
#
#
#
# Elastic Compliance Matrix: (Units=1/GPa)
#
#
# Indices 1 2 3 4 5 6 
#
# 1 0.016821 -0.013654 -0.003456 0.000000 0.004020 0.000000
# 2 -0.013654 0.065161 -0.013653 0.000000 0.011692 0.000000
# 3 -0.003456 -0.013653 0.014653 0.000000 0.001409 0.000000
# 4 0.000000 0.000000 0.000000 0.039483 0.000000 0.005772
# 5 0.004020 0.011692 0.001409 0.000000 0.051755 0.000000
# 6 0.000000 0.000000 0.000000 0.005772 0.000000 0.038623
#
#
# Mechanical properties :
#
#
# Convention : Reuss Voigt Hill
#
# Bulk Modulus (GPa) = 28.48409 63.26388 45.87398
# Shear Modulus (GPa) = 16.68186 23.42968 20.05577
#
# Velocity S-wave (km/s) = 3.29042 3.89953 3.60785
# Velocity P-wave (km/s) = 5.73782 7.83165 6.86503
#
# Compressibility (1/GPa) = 0.03510732
#
# Stress axis : x y z
#
# Youngs Moduli (GPa) = 59.44921 15.34670 68.24368
#
# Poissons Ratio (x) = 0.20954 0.23588
# Poissons Ratio (y) = 0.81172 0.93176
# Poissons Ratio (z) = 0.20549 0.20953
#
# Static dielectric constant tensor:
#      x y z
#    x 1.507380 0.000000 -0.015560 
#    y 0.000000 1.515740 0.000000 
#    z -0.015560 0.000000 1.542000 
# 
# From -- ./inp_files/291677.got.cif
#   From: 2010.05.17/outbox.cif.g08.bks.cpg/sg12_146_cif.got.tgz:291677.got - 2010.06.03 13:09:07.
