data_PCOD9177874
_publ_section_title
;
Structure prediction by ZEFSAII (Michael W. Deem and Ramdas Pophale) SiO2 
 PCOD9177874
Probable space group: C 2/M
;
_chemical_formula_sum "Si O2"
_cell_formula_units_Z 56
_cell_length_a 28.180422
_cell_length_b 8.423858
_cell_length_c 15.007132
_cell_angle_alpha 90.000000
_cell_angle_beta 103.498053
_cell_angle_gamma 90.000000
_cell_volume 3464.106942
_symmetry_space_group_name_H-M "C 2/M"
_symmetry_group_IT_number 12
_symmetry_cell_setting 'monoclinic'
loop_
_space_group_symop_operation_xyz
x,y,z
-x,y,-z
-x,-y,-z
x,-y,z
1/2+x,1/2+y,z
1/2-x,1/2+y,-z
1/2-x,1/2-y,-z
1/2+x,1/2-y,z
loop_
_atom_site_type_symbol
_atom_site_label
_atom_site_fract_x
_atom_site_fract_y
_atom_site_fract_z
Si Si1 0.315780 0.189217 0.597982
Si Si2 0.183333 0.310561 0.782437
Si Si3 0.211754 0.192431 0.107697
Si Si4 0.629054 0.690809 0.215573
Si Si5 0.637179 0.308508 0.929341
Si Si6 0.444537 0.306123 0.965533
Si Si7 0.706899 0.310883 0.601991
O O1 0.358743 0.237000 0.683682
O O2 0.319078 0.261348 0.501013
O O3 0.263429 0.245916 0.615848
O O4 0.313280 0.000000 0.589214
O O5 0.184291 0.500000 0.785408
O O6 0.234825 0.246865 0.845258
O O7 0.141676 0.250915 0.830929
O O8 0.182541 0.257617 0.679860
O O9 0.174681 0.231242 0.171332
O O10 0.214181 0.000000 0.103910
O O11 0.184880 0.248183 0.006245
O O12 0.627475 0.500000 0.223310
O O13 0.581702 0.742305 0.138327
O O14 0.637651 0.500000 0.929357
O O15 0.590422 0.258394 0.967465
O O16 0.444544 0.500000 0.965352
O O17 0.500000 0.251880 0.000000
O O18 0.707777 0.500000 0.609669
#
# Coordination Sequence:
#
# PCOD9177874 Si02
#       7
#     8   8   8   8   8   8   8
#     4  10  19  30  44  65  91 120 155 192 227 266
#     4  11  19  28  42  62  91 123 155 187 223 266
#     4   8  15  26  40  59  86 121 153 183 216 256
#     4   9  15  27  47  67  91 121 154 189 226 268
#     4   9  17  29  44  63  89 119 154 189 223 267
#     4   8  15  29  50  73  93 117 152 193 231 268
#     4  10  20  31  44  62  88 124 160 191 222 261
#
# _framework density 16.165783000000001
#
# number of rings (size 3 to 8) (size 9 to 14) (size 15 to 20)
#    0.000    2.714    1.429    3.429    0.000    1.143 
#    0.000    3.571    0.000    1.714    0.000    1.000 
#    0.000    8.000    0.000    0.000    0.000    0.000 
#
# Total GULP energy -156017.215870 kJ/mol
# GULP energy per Si atom -5572.043424 kJ/mol
# Density = 1.612899 g / cm^3
# Si number density = 16.165783 Si / 1000 Ang^3
#
#
#
# Elastic Constant Matrix: (Units=GPa)
#
#
# Indices 1 2 3 4 5 6 
#
# 1 65.1908 13.6052 58.7001 0.0000 2.9225 0.0000
# 2 13.6052 17.9767 18.1558 0.0000 -3.9823 0.0000
# 3 58.7001 18.1558 129.5307 0.0000 -13.7382 0.0000
# 4 0.0000 0.0000 0.0000 21.5881 0.0000 -2.8832
# 5 2.9225 -3.9823 -13.7382 0.0000 21.2818 0.0000
# 6 0.0000 0.0000 0.0000 -2.8832 0.0000 11.1249
#
#
#
# Elastic Compliance Matrix: (Units=1/GPa)
#
#
# Indices 1 2 3 4 5 6 
#
# 1 0.031508 -0.013098 -0.014129 0.000000 -0.015899 0.000000
# 2 -0.013098 0.071155 -0.002614 0.000000 0.013426 0.000000
# 3 -0.014129 -0.002614 0.015720 0.000000 0.011599 0.000000
# 4 0.000000 0.000000 0.000000 0.047983 0.000000 0.012435
# 5 -0.015899 0.013426 0.011599 0.000000 0.059172 0.000000
# 6 0.000000 0.000000 0.000000 0.012435 0.000000 0.093111
#
#
# Mechanical properties :
#
#
# Convention : Reuss Voigt Hill
#
# Bulk Modulus (GPa) = 17.03562 43.73560 30.38561
# Shear Modulus (GPa) = 12.56607 18.94808 15.75707
#
# Velocity S-wave (km/s) = 2.79108 3.42732 3.12543
# Velocity P-wave (km/s) = 4.57688 6.54028 5.64460
#
# Compressibility (1/GPa) = 0.05870055
#
# Stress axis : x y z
#
# Youngs Moduli (GPa) = 31.73788 14.05389 63.61474
#
# Poissons Ratio (x) = 0.18408 0.89881
# Poissons Ratio (y) = 0.41571 0.16627
# Poissons Ratio (z) = 0.44842 0.03673
#
# Static dielectric constant tensor:
#      x y z
#    x 1.534890 0.000000 0.002020 
#    y 0.000000 1.545880 0.000000 
#    z 0.002020 0.000000 1.554910 
# 
# From -- ./inp_files/247929.got.cif
#   From: 2010.05.17/outbox.cif.g08.bks.cpg/sg12_124_cif.got.tgz:247929.got - 2010.06.03 13:09:07.
