data_PCOD9177892
_publ_section_title
;
Structure prediction by ZEFSAII (Michael W. Deem and Ramdas Pophale) SiO2 
 PCOD9177892
Probable space group: C 2/M
;
_chemical_formula_sum "Si O2"
_cell_formula_units_Z 48
_cell_length_a 23.512392
_cell_length_b 8.932182
_cell_length_c 18.205666
_cell_angle_alpha 90.000000
_cell_angle_beta 49.037650
_cell_angle_gamma 90.000000
_cell_volume 2887.278822
_symmetry_space_group_name_H-M "C 2/M"
_symmetry_group_IT_number 12
_symmetry_cell_setting 'monoclinic'
loop_
_space_group_symop_operation_xyz
x,y,z
-x,y,-z
-x,-y,-z
x,-y,z
1/2+x,1/2+y,z
1/2-x,1/2+y,-z
1/2-x,1/2-y,-z
1/2+x,1/2-y,z
loop_
_atom_site_type_symbol
_atom_site_label
_atom_site_fract_x
_atom_site_fract_y
_atom_site_fract_z
Si Si1 0.977860 0.820784 0.900887
Si Si2 0.622474 0.319941 0.879064
Si Si3 0.218485 0.668850 0.096703
Si Si4 0.539236 0.168097 0.240433
Si Si5 0.060086 0.680582 0.385666
Si Si6 0.222617 0.177140 0.246882
O O1 0.981458 0.754808 0.816136
O O2 0.054066 0.786346 0.881340
O O3 0.971709 0.000000 0.900526
O O4 0.908721 0.771916 0.013305
O O5 0.631973 0.500000 0.873038
O O6 0.700132 0.245796 0.786757
O O7 0.248762 0.500000 0.082303
O O8 0.129435 0.656655 0.161765
O O9 0.231713 0.773691 0.154669
O O10 0.250000 0.750000 0.000000
O O11 0.528389 0.231834 0.332418
O O12 0.506545 0.000000 0.265393
O O13 0.070728 0.500000 0.370327
O O14 0.141483 0.751281 0.335388
O O15 0.000000 0.711027 0.500000
O O16 0.220049 0.000000 0.258893
#
# Coordination Sequence:
#
# PCOD9177892 Si02
#       6
#     8   8   8   8   8   8
#     4   9  18  31  49  71  97 133 170 201 234 277
#     4   9  18  33  49  68  98 136 173 200 229 280
#     4  10  19  30  44  66  97 131 163 196 238 289
#     4   9  18  30  46  70  96 121 154 197 243 292
#     4   9  19  37  57  73  93 126 163 201 252 306
#     4  11  21  31  47  73 100 127 160 201 248 292
#
# _framework density 16.624649999999999
#
# number of rings (size 3 to 8) (size 9 to 14) (size 15 to 20)
#    0.000    2.500    0.000    5.000    0.000    7.667 
#    0.000    1.667    0.000    1.000    0.000    0.000 
#    0.000    0.000    0.000    0.000    0.000    0.000 
#
# Total GULP energy -133627.182750 kJ/mol
# GULP energy per Si atom -5567.799281 kJ/mol
# Density = 1.658681 g / cm^3
# Si number density = 16.624650 Si / 1000 Ang^3
#
#
#
# Elastic Constant Matrix: (Units=GPa)
#
#
# Indices 1 2 3 4 5 6 
#
# 1 86.6222 34.8480 50.2301 0.0002 -2.1988 -0.0006
# 2 34.8480 46.5046 37.1711 0.0004 -3.5707 -0.0015
# 3 50.2301 37.1711 118.1619 0.0001 0.2681 -0.0005
# 4 0.0002 0.0004 0.0001 20.2054 0.0000 1.1145
# 5 -2.1988 -3.5707 0.2681 0.0000 25.0627 0.0003
# 6 -0.0006 -0.0015 -0.0005 1.1145 0.0003 24.0250
#
#
#
# Elastic Compliance Matrix: (Units=1/GPa)
#
#
# Indices 1 2 3 4 5 6 
#
# 1 0.018233 -0.009952 -0.004621 0.000000 0.000231 0.000000
# 2 -0.009952 0.034605 -0.006665 -0.000001 0.004128 0.000002
# 3 -0.004621 -0.006665 0.012527 0.000000 -0.001489 0.000000
# 4 0.000000 -0.000001 0.000000 0.049619 0.000000 -0.002302
# 5 0.000231 0.004128 -0.001489 0.000000 0.040524 0.000000
# 6 0.000000 0.000002 0.000000 -0.002302 0.000000 0.041730
#
#
# Mechanical properties :
#
#
# Convention : Reuss Voigt Hill
#
# Bulk Modulus (GPa) = 43.68640 55.08747 49.38693
# Shear Modulus (GPa) = 20.21479 22.46124 21.33802
#
# Velocity S-wave (km/s) = 3.49083 3.67969 3.58651
# Velocity P-wave (km/s) = 6.52557 7.15971 6.84998
#
# Compressibility (1/GPa) = 0.02289042
#
# Stress axis : x y z
#
# Youngs Moduli (GPa) = 54.84440 28.89775 79.82625
#
# Poissons Ratio (x) = 0.28759 0.36886
# Poissons Ratio (y) = 0.54581 0.53202
# Poissons Ratio (z) = 0.25343 0.19260
#
# Static dielectric constant tensor:
#      x y z
#    x 1.589870 0.000000 0.005680 
#    y 0.000000 1.578550 0.000000 
#    z 0.005680 0.000000 1.585270 
# 
# From -- ./inp_files/287268.got.cif
#   From: 2010.05.17/outbox.cif.g08.bks.cpg/sg12_144_cif.got.tgz:287268.got - 2010.06.03 13:09:07.
