data_PCOD9177698
_publ_section_title
;
Structure prediction by ZEFSAII (Michael W. Deem and Ramdas Pophale) SiO2 
 PCOD9177698
Probable space group: C 2/M
;
_chemical_formula_sum "Si O2"
_cell_formula_units_Z 64
_cell_length_a 12.709252
_cell_length_b 20.748496
_cell_length_c 21.087013
_cell_angle_alpha 90.000000
_cell_angle_beta 40.332040
_cell_angle_gamma 90.000000
_cell_volume 3598.910397
_symmetry_space_group_name_H-M "C 2/M"
_symmetry_group_IT_number 12
_symmetry_cell_setting 'monoclinic'
loop_
_space_group_symop_operation_xyz
x,y,z
-x,y,-z
-x,-y,-z
x,-y,z
1/2+x,1/2+y,z
1/2-x,1/2+y,-z
1/2-x,1/2-y,-z
1/2+x,1/2-y,z
loop_
_atom_site_type_symbol
_atom_site_label
_atom_site_fract_x
_atom_site_fract_y
_atom_site_fract_z
Si Si1 0.646673 0.653179 0.583001
Si Si2 0.705780 0.200492 0.216143
Si Si3 0.142670 0.577558 0.812617
Si Si4 0.943503 0.811146 0.904140
Si Si5 0.152185 0.842810 0.188985
Si Si6 0.112764 0.671640 0.124806
Si Si7 0.446050 0.575557 0.591165
Si Si8 0.471234 0.778722 0.439708
O O1 0.529380 0.654675 0.697722
O O2 0.592204 0.589364 0.571908
O O3 0.592811 0.713400 0.563770
O O4 0.835230 0.665385 0.504901
O O5 0.720709 0.273784 0.181929
O O6 0.604374 0.167823 0.205189
O O7 0.614746 0.201317 0.325741
O O8 0.882628 0.170783 0.147393
O O9 0.129407 0.500000 0.819292
O O10 0.225635 0.603994 0.838905
O O11 0.279078 0.600419 0.698214
O O12 0.977633 0.613074 0.868462
O O13 0.873938 0.846506 0.873819
O O14 0.962806 0.737539 0.869327
O O15 0.802565 0.819489 0.020515
O O16 0.500000 0.604433 0.500000
O O17 0.579947 0.500000 0.404760
O O18 0.500000 0.764361 0.500000
#
# Coordination Sequence:
#
# PCOD9177698 Si02
#       8
#     8   8   8   8   8   8   8   8
#     4   9  18  30  45  72 104 134 165 207 250 320
#     4  10  19  32  52  76 107 138 175 223 261 322
#     4  10  20  36  55  80 112 139 176 223 267 318
#     4  10  19  34  54  74 106 139 177 227 261 324
#     4   9  18  33  51  77 106 139 175 215 271 312
#     4  10  21  33  53  79 103 139 181 219 274 309
#     4   9  18  31  51  74  99 138 172 208 251 298
#     4  10  19  29  46  75 104 138 164 202 269 313
#
# _framework density 17.783159999999999
#
# number of rings (size 3 to 8) (size 9 to 14) (size 15 to 20)
#    0.000    2.375    1.250    1.500    1.750    1.500 
#    0.000    1.250    0.000    2.625    0.000    0.000 
#    0.000    0.000    0.000    0.000    0.000    0.000 
#
# Total GULP energy -178137.888494 kJ/mol
# GULP energy per Si atom -5566.809015 kJ/mol
# Density = 1.774268 g / cm^3
# Si number density = 17.783160 Si / 1000 Ang^3
#
#
#
# Elastic Constant Matrix: (Units=GPa)
#
#
# Indices 1 2 3 4 5 6 
#
# 1 50.6634 20.6004 17.5814 0.0015 0.0529 -0.0006
# 2 20.6004 37.8657 9.0955 0.0000 -5.2304 -0.0005
# 3 17.5814 9.0955 35.3735 0.0001 7.7594 -0.0005
# 4 0.0015 0.0000 0.0001 8.4206 0.0000 0.2847
# 5 0.0529 -5.2304 7.7594 0.0000 31.4789 0.0006
# 6 -0.0006 -0.0005 -0.0005 0.2847 0.0006 21.3221
#
#
#
# Elastic Compliance Matrix: (Units=1/GPa)
#
#
# Indices 1 2 3 4 5 6 
#
# 1 0.028871 -0.012956 -0.011137 -0.000005 0.000544 0.000000
# 2 -0.012956 0.035423 -0.004191 0.000002 0.006941 0.000000
# 3 -0.011137 -0.004191 0.037034 0.000001 -0.009806 0.000001
# 4 -0.000005 0.000002 0.000001 0.118810 0.000000 -0.001587
# 5 0.000544 0.006941 -0.009806 0.000000 0.035337 -0.000001
# 6 0.000000 0.000000 0.000001 -0.001587 -0.000001 0.046921
#
#
# Mechanical properties :
#
#
# Convention : Reuss Voigt Hill
#
# Bulk Modulus (GPa) = 22.34219 24.27302 23.30761
# Shear Modulus (GPa) = 13.37309 17.35267 15.36288
#
# Velocity S-wave (km/s) = 2.74525 3.12716 2.94241
# Velocity P-wave (km/s) = 4.75810 5.16893 4.96777
#
# Compressibility (1/GPa) = 0.04475836
#
# Stress axis : x y z
#
# Youngs Moduli (GPa) = 34.63722 28.22991 27.00226
#
# Poissons Ratio (x) = 0.36576 0.30073
# Poissons Ratio (y) = 0.44878 0.11317
# Poissons Ratio (z) = 0.38576 0.11832
#
# Static dielectric constant tensor:
#      x y z
#    x 1.457440 0.000000 -0.135350 
#    y 0.000000 1.606630 0.000000 
#    z -0.135350 0.000000 1.519300 
# 
# From -- ./inp_files/306765.got.cif
#   From: 2010.05.17/outbox.cif.g08.bks.cpg/sg12_154_cif.got.tgz:306765.got - 2010.06.03 13:09:07.
