data_PCOD9177694
_publ_section_title
;
Structure prediction by ZEFSAII (Michael W. Deem and Ramdas Pophale) SiO2 
 PCOD9177694
Probable space group: C 2/M
;
_chemical_formula_sum "Si O2"
_cell_formula_units_Z 64
_cell_length_a 19.341553
_cell_length_b 9.530481
_cell_length_c 21.632536
_cell_angle_alpha 90.000000
_cell_angle_beta 117.084078
_cell_angle_gamma 90.000000
_cell_volume 3550.333671
_symmetry_space_group_name_H-M "C 2/M"
_symmetry_group_IT_number 12
_symmetry_cell_setting 'monoclinic'
loop_
_space_group_symop_operation_xyz
x,y,z
-x,y,-z
-x,-y,-z
x,-y,z
1/2+x,1/2+y,z
1/2-x,1/2+y,-z
1/2-x,1/2-y,-z
1/2+x,1/2-y,z
loop_
_atom_site_type_symbol
_atom_site_label
_atom_site_fract_x
_atom_site_fract_y
_atom_site_fract_z
Si Si1 0.803975 0.165065 0.789416
Si Si2 0.251612 0.160480 0.562258
Si Si3 0.819360 0.834248 0.340008
Si Si4 0.068024 0.338372 0.348303
Si Si5 0.875391 0.338130 0.923823
Si Si6 0.500883 0.336559 0.573429
Si Si7 0.958578 0.337990 0.079960
Si Si8 0.469578 0.335028 0.785804
O O1 0.734591 0.244921 0.726822
O O2 0.821139 0.236356 0.862517
O O3 0.883462 0.180584 0.781421
O O4 0.788398 0.000000 0.788847
O O5 0.250000 0.250000 0.500000
O O6 0.197495 0.210290 0.596026
O O7 0.339324 0.162360 0.623454
O O8 0.230280 0.000000 0.538685
O O9 0.910858 0.821658 0.366642
O O10 0.798349 0.000000 0.327241
O O11 0.041839 0.500000 0.336900
O O12 0.030425 0.248119 0.278367
O O13 0.050961 0.265171 0.406676
O O14 0.848227 0.500000 0.910841
O O15 0.958826 0.335933 0.922724
O O16 0.894490 0.299247 0.002430
O O17 0.500000 0.306052 0.500000
O O18 0.477126 0.500000 0.571058
O O19 0.945977 0.500000 0.094110
O O20 0.970158 0.234916 0.141892
O O21 0.483856 0.500000 0.782988
#
# Coordination Sequence:
#
# PCOD9177694 Si02
#       8
#     8   8   8   8   8   8   8   8
#     4  10  19  29  46  74 105 137 173 219 262 300
#     4  10  21  35  54  78 101 131 169 210 259 312
#     4  10  20  36  55  75 102 138 174 210 259 318
#     4  11  22  36  55  78 105 137 173 217 263 312
#     4   8  14  25  42  65  98 139 175 209 254 309
#     4  10  22  40  60  78 102 136 173 217 266 318
#     4   8  14  25  42  66  98 137 176 212 254 303
#     4  10  19  30  47  73 105 140 175 215 262 307
#
# _framework density 18.026475000000001
#
# number of rings (size 3 to 8) (size 9 to 14) (size 15 to 20)
#    0.000    2.375    1.250    2.625    0.000    4.750 
#    0.000    2.500    0.000    0.000    0.000    0.875 
#    0.000    0.000    0.000    0.000    0.000    0.000 
#
# Total GULP energy -178498.331404 kJ/mol
# GULP energy per Si atom -5578.072856 kJ/mol
# Density = 1.798545 g / cm^3
# Si number density = 18.026475 Si / 1000 Ang^3
#
#
#
# Elastic Constant Matrix: (Units=GPa)
#
#
# Indices 1 2 3 4 5 6 
#
# 1 25.8797 10.7510 -5.6609 0.0000 0.1923 0.0000
# 2 10.7510 86.8675 59.6618 0.0000 -1.2664 0.0000
# 3 -5.6609 59.6618 98.9115 0.0000 2.8806 0.0000
# 4 0.0000 0.0000 0.0000 34.1269 0.0000 -1.1037
# 5 0.1923 -1.2664 2.8806 0.0000 17.1647 0.0000
# 6 0.0000 0.0000 0.0000 -1.1037 0.0000 17.0970
#
#
#
# Elastic Compliance Matrix: (Units=1/GPa)
#
#
# Indices 1 2 3 4 5 6 
#
# 1 0.046452 -0.013126 0.010672 0.000000 -0.003280 0.000000
# 2 -0.013126 0.023569 -0.015097 0.000000 0.004420 0.000000
# 3 0.010672 -0.015097 0.019960 0.000000 -0.004583 0.000000
# 4 0.000000 0.000000 0.000000 0.029364 0.000000 0.001896
# 5 -0.003280 0.004420 -0.004583 0.000000 0.059391 0.000000
# 6 0.000000 0.000000 0.000000 0.001896 0.000000 0.058612
#
#
# Mechanical properties :
#
#
# Convention : Reuss Voigt Hill
#
# Bulk Modulus (GPa) = 18.22188 37.90694 28.06441
# Shear Modulus (GPa) = 17.19727 23.47151 20.33439
#
# Velocity S-wave (km/s) = 3.09204 3.61232 3.36226
# Velocity P-wave (km/s) = 4.78309 6.20263 5.53853
#
# Compressibility (1/GPa) = 0.05487909
#
# Stress axis : x y z
#
# Youngs Moduli (GPa) = 21.52762 42.42811 50.09952
#
# Poissons Ratio (x) = 0.55692 -0.53464
# Poissons Ratio (y) = 0.28258 0.75633
# Poissons Ratio (z) = -0.22973 0.64052
#
# Static dielectric constant tensor:
#      x y z
#    x 1.612120 0.000000 0.004740 
#    y 0.000000 1.604350 0.000000 
#    z 0.004740 0.000000 1.617600 
# 
# From -- ./inp_files/319859.got.cif
#   From: 2010.05.17/outbox.cif.g08.bks.cpg/sg12_160_cif.got.tgz:319859.got - 2010.06.03 13:09:07.
