data_PCOD9177167
_publ_section_title
;
Structure prediction by ZEFSAII (Michael W. Deem and Ramdas Pophale) SiO2 
 PCOD9177167
Probable space group: C 2/M
;
_chemical_formula_sum "Si O2"
_cell_formula_units_Z 48
_cell_length_a 16.899344
_cell_length_b 32.018560
_cell_length_c 8.669244
_cell_angle_alpha 90.000000
_cell_angle_beta 33.612018
_cell_angle_gamma 90.000000
_cell_volume 2596.704135
_symmetry_space_group_name_H-M "C 2/M"
_symmetry_group_IT_number 12
_symmetry_cell_setting 'monoclinic'
loop_
_space_group_symop_operation_xyz
x,y,z
-x,y,-z
-x,-y,-z
x,-y,z
1/2+x,1/2+y,z
1/2-x,1/2+y,-z
1/2-x,1/2-y,-z
1/2+x,1/2-y,z
loop_
_atom_site_type_symbol
_atom_site_label
_atom_site_fract_x
_atom_site_fract_y
_atom_site_fract_z
Si Si1 0.915733 0.500000 0.799903
Si Si2 0.543338 0.083587 0.612145
Si Si3 0.910216 0.246841 0.796586
Si Si4 0.047473 0.326156 0.744352
Si Si5 0.881791 0.078875 0.054158
Si Si6 0.902506 0.000000 0.805446
Si Si7 0.370783 0.328373 0.092004
O O1 0.000000 0.500000 0.500000
O O2 0.957939 0.543237 0.811485
O O3 0.754998 0.500000 0.008044
O O4 0.500000 0.088173 0.500000
O O5 0.507527 0.127389 0.750825
O O6 0.711818 0.073269 0.366273
O O7 0.000000 0.236309 0.500000
O O8 0.969981 0.289545 0.774034
O O9 0.750000 0.250000 0.000000
O O10 0.905844 0.209892 0.925896
O O11 0.217862 0.323033 0.427390
O O12 0.000000 0.321692 0.000000
O O13 0.922010 0.041631 0.874777
O O14 0.876732 0.126448 0.998902
O O15 0.000000 0.077677 0.000000
O O16 0.000000 0.000000 0.500000
O O17 0.500000 0.329815 0.000000
#
# Coordination Sequence:
#
# PCOD9177167 Si02
#       7
#     4   8   8   8   8   4   8
#     4  10  18  38  66  90 117 167 214 250 309 364
#     4  10  19  40  71  88 120 169 219 256 305 378
#     4  12  25  41  65  94 121 163 214 258 312 376
#     4  11  25  42  64  94 129 166 206 264 322 372
#     4  10  21  41  64  91 125 169 206 252 319 380
#     4  12  23  38  62  98 129 164 207 268 314 371
#     4  10  24  44  64  90 128 167 207 259 318 377
#
# _framework density 18.484970000000001
#
# number of rings (size 3 to 8) (size 9 to 14) (size 15 to 20)
#    0.000    1.333    5.000    1.250    4.667    2.000 
#    9.000    0.417    0.000    0.000    0.000    0.000 
#    0.000    0.000    0.000    0.000    0.000    0.000 
#
# Total GULP energy -133766.501266 kJ/mol
# GULP energy per Si atom -5573.604219 kJ/mol
# Density = 1.844290 g / cm^3
# Si number density = 18.484970 Si / 1000 Ang^3
#
#
#
# Elastic Constant Matrix: (Units=GPa)
#
#
# Indices 1 2 3 4 5 6 
#
# 1 86.3694 62.5470 50.7730 0.0000 -21.1003 0.0000
# 2 62.5470 180.9822 66.7445 0.0000 3.0202 0.0000
# 3 50.7730 66.7445 120.9163 0.0000 -4.4498 0.0000
# 4 0.0000 0.0000 0.0000 27.7550 0.0000 -1.3977
# 5 -21.1003 3.0202 -4.4498 0.0000 35.3150 0.0000
# 6 0.0000 0.0000 0.0000 -1.3977 0.0000 47.1459
#
#
#
# Elastic Compliance Matrix: (Units=1/GPa)
#
#
# Indices 1 2 3 4 5 6 
#
# 1 0.022369 -0.005857 -0.005676 0.000000 0.013151 0.000000
# 2 -0.005857 0.008513 -0.002406 0.000000 -0.004531 0.000000
# 3 -0.005676 -0.002406 0.011920 0.000000 -0.001684 0.000000
# 4 0.000000 0.000000 0.000000 0.036083 0.000000 0.001070
# 5 0.013151 -0.004531 -0.001684 0.000000 0.036349 0.000000
# 6 0.000000 0.000000 0.000000 0.001070 0.000000 0.021242
#
#
# Mechanical properties :
#
#
# Convention : Reuss Voigt Hill
#
# Bulk Modulus (GPa) = 67.00938 83.15520 75.08229
# Shear Modulus (GPa) = 29.52824 35.92340 32.72582
#
# Velocity S-wave (km/s) = 4.00111 4.41317 4.21218
# Velocity P-wave (km/s) = 7.59438 8.42918 8.02264
#
# Compressibility (1/GPa) = 0.01492328
#
# Stress axis : x y z
#
# Youngs Moduli (GPa) = 44.70450 117.47363 83.89440
#
# Poissons Ratio (x) = 0.68804 0.47618
# Poissons Ratio (y) = 0.26183 0.20187
# Poissons Ratio (z) = 0.25374 0.28267
#
# Static dielectric constant tensor:
#      x y z
#    x 1.610400 0.000000 -0.013010 
#    y 0.000000 0.603130 0.000000 
#    z -0.013010 0.000000 1.610880 
# 
# From -- ./inp_files/80660.got.cif
#   From: 2010.05.17/outbox.cif.g08.bks.cpg/sg12_41_cif.got.tgz:80660.got - 2010.06.03 13:09:07.
