data_PCOD9177527
_publ_section_title
;
Structure prediction by ZEFSAII (Michael W. Deem and Ramdas Pophale) SiO2 
 PCOD9177527
Probable space group: C 2/M
;
_chemical_formula_sum "Si O2"
_cell_formula_units_Z 64
_cell_length_a 22.749946
_cell_length_b 7.368950
_cell_length_c 28.055707
_cell_angle_alpha 90.000000
_cell_angle_beta 141.319944
_cell_angle_gamma 90.000000
_cell_volume 2939.456481
_symmetry_space_group_name_H-M "C 2/M"
_symmetry_group_IT_number 12
_symmetry_cell_setting 'monoclinic'
loop_
_space_group_symop_operation_xyz
x,y,z
-x,y,-z
-x,-y,-z
x,-y,z
1/2+x,1/2+y,z
1/2-x,1/2+y,-z
1/2-x,1/2-y,-z
1/2+x,1/2-y,z
loop_
_atom_site_type_symbol
_atom_site_label
_atom_site_fract_x
_atom_site_fract_y
_atom_site_fract_z
Si Si1 0.365247 0.719154 0.022826
Si Si2 0.428274 0.720260 0.161373
Si Si3 0.303307 0.712537 0.886161
Si Si4 0.400341 0.283503 0.589056
Si Si5 0.076928 0.220767 0.123257
Si Si6 0.639961 0.279904 0.262555
Si Si7 0.400992 0.718865 0.251756
Si Si8 0.741265 0.716753 0.418136
O O1 0.357149 0.500000 0.021517
O O2 0.363412 0.785489 0.076315
O O3 0.469786 0.763805 0.068880
O O4 0.300185 0.786624 0.938378
O O5 0.423652 0.500000 0.159416
O O6 0.536062 0.765513 0.216562
O O7 0.408799 0.785207 0.202061
O O8 0.325087 0.500000 0.905763
O O9 0.382747 0.787581 0.901274
O O10 0.202557 0.728135 0.797382
O O11 0.404236 0.500000 0.597507
O O12 0.506931 0.217196 0.661654
O O13 0.334312 0.213476 0.590544
O O14 0.343875 0.250301 0.504743
O O15 0.140871 0.280938 0.208438
O O16 0.079442 0.000000 0.123201
O O17 0.644560 0.500000 0.263871
O O18 0.715227 0.215868 0.349073
O O19 0.402940 0.500000 0.252473
O O20 0.729437 0.500000 0.409364
#
# Coordination Sequence:
#
# PCOD9177527 Si02
#       8
#     8   8   8   8   8   8   8   8
#     4   8  14  25  44  67  88 110 142 187 227 254
#     4   8  13  24  42  63  86 115 148 176 208 255
#     4  10  19  29  43  67  92 114 145 184 221 252
#     4   9  17  28  42  63  90 116 141 171 210 261
#     4   8  14  25  44  67  89 112 142 183 224 256
#     4   8  12  22  43  68  88 108 140 181 218 255
#     4  10  19  31  45  60  87 125 154 171 200 262
#     4   9  15  25  45  70  89 105 136 180 221 255
#
# _framework density 21.772732999999999
#
# number of rings (size 3 to 8) (size 9 to 14) (size 15 to 20)
#    0.000    3.250    1.250    1.875    0.000    2.500 
#    0.000    0.000    0.000    3.000    0.000    8.750 
#    0.000    0.000    0.000    0.000    0.000    0.000 
#
# Total GULP energy -178446.817078 kJ/mol
# GULP energy per Si atom -5576.463034 kJ/mol
# Density = 2.172318 g / cm^3
# Si number density = 21.772733 Si / 1000 Ang^3
#
#
#
# Elastic Constant Matrix: (Units=GPa)
#
#
# Indices 1 2 3 4 5 6 
#
# 1 17.5768 -2.1488 5.9870 -0.0001 -5.9862 -0.0001
# 2 -2.1488 77.1384 -7.6524 0.0007 -3.7146 0.0017
# 3 5.9870 -7.6524 137.2034 -0.0001 -17.7566 -0.0006
# 4 -0.0001 0.0007 -0.0001 6.0183 0.0000 2.2201
# 5 -5.9862 -3.7146 -17.7566 0.0000 22.6298 0.0002
# 6 -0.0001 0.0017 -0.0006 2.2201 0.0002 -5.4651
#
#
#
# Elastic Compliance Matrix: (Units=1/GPa)
#
#
# Indices 1 2 3 4 5 6 
#
# 1 0.063055 0.002519 -0.000444 0.000001 0.016745 0.000001
# 2 0.002519 0.013324 0.001116 -0.000002 0.003729 0.000003
# 3 -0.000444 0.001116 0.008213 0.000000 0.006510 0.000000
# 4 0.000001 -0.000002 0.000000 0.144506 -0.000001 0.058702
# 5 0.016745 0.003729 0.006510 -0.000001 0.054339 0.000002
# 6 0.000001 0.000003 0.000000 0.058702 0.000002 -0.159132
#
#
# Mechanical properties :
#
#
# Convention : Reuss Voigt Hill
#
# Bulk Modulus (GPa) = 10.99223 24.92111 17.95667
# Shear Modulus (GPa) = 33.72747 20.35212 27.03979
#
# Velocity S-wave (km/s) = 3.94009 3.06069 3.52790
# Velocity P-wave (km/s) = 5.07530 4.89503 4.98598
#
# Compressibility (1/GPa) = 0.09097333
#
# Stress axis : x y z
#
# Youngs Moduli (GPa) = 15.85913 75.05180 121.76517
#
# Poissons Ratio (x) = -0.18904 0.05405
# Poissons Ratio (y) = -0.03995 -0.13587
# Poissons Ratio (z) = 0.00704 -0.08374
#
# Static dielectric constant tensor:
#      x y z
#    x 1.777610 0.000000 -0.028930 
#    y 0.000000 1.798540 0.000000 
#    z -0.028930 0.000000 1.830450 
# 
# From -- ./inp_files/366061.got.cif
#   From: 2010.05.17/outbox.cif.g08.bks.cpg/sg12_184_cif.got.tgz:366061.got - 2010.06.03 13:09:07.
