data_PCOD9177568
_publ_section_title
;
Structure prediction by ZEFSAII (Michael W. Deem and Ramdas Pophale) SiO2 
 PCOD9177568
Probable space group: C 2/M
;
_chemical_formula_sum "Si O2"
_cell_formula_units_Z 56
_cell_length_a 32.691450
_cell_length_b 14.109735
_cell_length_c 9.838578
_cell_angle_alpha 90.000000
_cell_angle_beta 134.522283
_cell_angle_gamma 90.000000
_cell_volume 3235.648850
_symmetry_space_group_name_H-M "C 2/M"
_symmetry_group_IT_number 12
_symmetry_cell_setting 'monoclinic'
loop_
_space_group_symop_operation_xyz
x,y,z
-x,y,-z
-x,-y,-z
x,-y,z
1/2+x,1/2+y,z
1/2-x,1/2+y,-z
1/2-x,1/2-y,-z
1/2+x,1/2-y,z
loop_
_atom_site_type_symbol
_atom_site_label
_atom_site_fract_x
_atom_site_fract_y
_atom_site_fract_z
Si Si1 0.630199 0.207948 0.154450
Si Si2 0.807084 0.387315 0.459733
Si Si3 0.683253 0.884424 0.827175
Si Si4 0.485191 0.890467 0.122929
Si Si5 0.054824 0.386928 0.543536
Si Si6 0.809590 0.110672 0.640127
Si Si7 0.268966 0.885580 0.784811
O O1 0.645400 0.162147 0.336492
O O2 0.641575 0.319014 0.196657
O O3 0.677307 0.163300 0.163608
O O4 0.567481 0.176966 0.964338
O O5 0.819340 0.500000 0.489107
O O6 0.804145 0.354261 0.297373
O O7 0.746122 0.374240 0.393353
O O8 0.619039 0.851165 0.718424
O O9 0.682163 0.000000 0.821284
O O10 0.727913 0.858968 0.049746
O O11 0.538407 0.874891 0.347204
O O12 0.466585 0.000000 0.101073
O O13 0.500000 0.878924 0.000000
O O14 0.057192 0.500000 0.577545
O O15 0.000000 0.349676 0.500000
O O16 0.786716 0.137047 0.435664
O O17 0.824526 0.000000 0.678224
O O18 0.276116 0.000000 0.789732
#
# Coordination Sequence:
#
# PCOD9177568 Si02
#       7
#     8   8   8   8   8   8   8
#     4  11  18  29  46  64  88 120 153 184 221 262
#     4   9  16  27  44  66  91 117 145 178 220 269
#     4   9  16  26  42  66  97 126 145 170 214 267
#     4  10  19  29  44  68  94 116 140 172 214 266
#     4   9  16  25  37  58  91 124 147 167 199 252
#     4   9  19  33  46  61  84 117 156 194 226 258
#     4   9  16  27  45  69  94 120 148 175 214 269
#
# _framework density 17.307193000000002
#
# number of rings (size 3 to 8) (size 9 to 14) (size 15 to 20)
#    0.000    2.571    0.000    5.571    0.000    4.571 
#    0.000    2.857    0.000    0.429    0.000    0.000 
#    0.000    5.143    0.000    0.000    0.000    0.000 
#
# Total GULP energy -156116.946945 kJ/mol
# GULP energy per Si atom -5575.605248 kJ/mol
# Density = 1.726780 g / cm^3
# Si number density = 17.307193 Si / 1000 Ang^3
#
#
#
# Elastic Constant Matrix: (Units=GPa)
#
#
# Indices 1 2 3 4 5 6 
#
# 1 22.9514 2.7443 10.3941 0.0000 -16.5262 0.0000
# 2 2.7443 35.6435 10.3402 0.0000 8.9464 0.0000
# 3 10.3941 10.3402 46.2882 0.0000 -13.2962 0.0000
# 4 0.0000 0.0000 0.0000 18.5158 0.0000 2.4964
# 5 -16.5262 8.9464 -13.2962 0.0000 33.5988 0.0000
# 6 0.0000 0.0000 0.0000 2.4964 0.0000 0.5097
#
#
#
# Elastic Compliance Matrix: (Units=1/GPa)
#
#
# Indices 1 2 3 4 5 6 
#
# 1 0.075379 -0.015413 -0.001866 0.000000 0.040442 0.000000
# 2 -0.015413 0.038159 -0.011463 0.000000 -0.022278 0.000000
# 3 -0.001866 -0.011463 0.028428 0.000000 0.013384 0.000000
# 4 0.000000 0.000000 0.000000 0.159001 0.000000 -0.778725
# 5 0.040442 -0.022278 0.013384 0.000000 0.060884 0.000000
# 6 0.000000 0.000000 0.000000 -0.778725 0.000000 5.775749
#
#
# Mechanical properties :
#
#
# Convention : Reuss Voigt Hill
#
# Bulk Modulus (GPa) = 11.83684 16.87115 14.35399
# Shear Modulus (GPa) = 0.80344 15.95182 8.37763
#
# Velocity S-wave (km/s) = 0.68208 3.03922 2.20251
# Velocity P-wave (km/s) = 2.73394 4.69947 3.84444
#
# Compressibility (1/GPa) = 0.08448203
#
# Stress axis : x y z
#
# Youngs Moduli (GPa) = 13.26634 26.20596 35.17655
#
# Poissons Ratio (x) = 0.40391 0.06566
# Poissons Ratio (y) = 0.20447 0.40322
# Poissons Ratio (z) = 0.02476 0.30039
#
# Static dielectric constant tensor:
#      x y z
#    x 1.608600 0.000000 -0.030210 
#    y 0.000000 1.583810 0.000000 
#    z -0.030210 0.000000 1.606600 
# 
# From -- ./inp_files/96245.got.cif
#   From: 2010.05.17/outbox.cif.g08.bks.cpg/sg12_49_cif.got.tgz:96245.got - 2010.06.03 13:09:07.
