data_PCOD9177693
_publ_section_title
;
Structure prediction by ZEFSAII (Michael W. Deem and Ramdas Pophale) SiO2 
 PCOD9177693
Probable space group: C 2/M
;
_chemical_formula_sum "Si O2"
_cell_formula_units_Z 44
_cell_length_a 15.051366
_cell_length_b 14.104297
_cell_length_c 10.430399
_cell_angle_alpha 90.000000
_cell_angle_beta 56.794535
_cell_angle_gamma 90.000000
_cell_volume 1852.696680
_symmetry_space_group_name_H-M "C 2/M"
_symmetry_group_IT_number 12
_symmetry_cell_setting 'monoclinic'
loop_
_space_group_symop_operation_xyz
x,y,z
-x,y,-z
-x,-y,-z
x,-y,z
1/2+x,1/2+y,z
1/2-x,1/2+y,-z
1/2-x,1/2-y,-z
1/2+x,1/2-y,z
loop_
_atom_site_type_symbol
_atom_site_label
_atom_site_fract_x
_atom_site_fract_y
_atom_site_fract_z
Si Si1 0.284957 0.249349 0.261995
Si Si2 0.382818 0.691049 0.431732
Si Si3 0.471200 0.103417 0.370731
Si Si4 0.081771 0.111261 0.170038
Si Si5 0.000000 0.758898 0.000000
Si Si6 0.796028 0.390322 0.890030
O O1 0.323572 0.323288 0.343343
O O2 0.199202 0.177839 0.388552
O O3 0.233757 0.314836 0.194468
O O4 0.395261 0.204164 0.127020
O O5 0.401978 0.804097 0.412016
O O6 0.498374 0.643924 0.344131
O O7 0.500000 0.101499 0.500000
O O8 0.577107 0.117736 0.200232
O O9 0.425091 0.000000 0.376775
O O10 0.042581 0.172811 0.079516
O O11 0.064651 0.000000 0.162996
O O12 0.209780 0.125863 0.071573
O O13 0.778886 0.500000 0.861650
#
# Coordination Sequence:
#
# PCOD9177693 Si02
#       6
#     8   8   8   8   4   8
#     4   9  17  29  44  71 101 128 159 196 244 296
#     4  10  19  29  46  74 104 130 159 201 251 294
#     4  10  19  32  50  74 100 128 163 208 253 290
#     4   9  17  29  46  73 102 128 159 197 244 295
#     4   8  15  28  48  68  97 128 159 206 248 286
#     4   9  17  31  53  76 100 128 162 206 251 290
#
# _framework density 23.749165999999999
#
# number of rings (size 3 to 8) (size 9 to 14) (size 15 to 20)
#    0.000    2.727    1.818    0.273    0.000    5.091 
#    0.000    4.545    0.000    0.545    0.000   35.000 
#    0.000    0.000    0.000    0.000    0.000    0.000 
#
# Total GULP energy -122714.390428 kJ/mol
# GULP energy per Si atom -5577.926838 kJ/mol
# Density = 2.369511 g / cm^3
# Si number density = 23.749166 Si / 1000 Ang^3
#
#
#
# Elastic Constant Matrix: (Units=GPa)
#
#
# Indices 1 2 3 4 5 6 
#
# 1 17.9661 8.5444 8.2290 0.0000 -9.0234 0.0000
# 2 8.5444 57.9720 7.9768 0.0000 -2.8014 0.0000
# 3 8.2290 7.9768 193.3580 0.0000 -43.7196 0.0000
# 4 0.0000 0.0000 0.0000 10.5796 0.0000 -5.4413
# 5 -9.0234 -2.8014 -43.7196 0.0000 43.4469 0.0000
# 6 0.0000 0.0000 0.0000 -5.4413 0.0000 9.6931
#
#
#
# Elastic Compliance Matrix: (Units=1/GPa)
#
#
# Indices 1 2 3 4 5 6 
#
# 1 0.066762 -0.009261 0.000700 0.000000 0.013973 0.000000
# 2 -0.009261 0.018642 -0.000696 0.000000 -0.001422 0.000000
# 3 0.000700 -0.000696 0.006723 0.000000 0.006866 0.000000
# 4 0.000000 0.000000 0.000000 0.132888 0.000000 0.074598
# 5 0.013973 -0.001422 0.006866 0.000000 0.032736 0.000000
# 6 0.000000 0.000000 0.000000 0.074598 0.000000 0.145042
#
#
# Mechanical properties :
#
#
# Convention : Reuss Voigt Hill
#
# Bulk Modulus (GPa) = 13.58468 35.42183 24.50325
# Shear Modulus (GPa) = 11.21465 29.04697 20.13081
#
# Velocity S-wave (km/s) = 2.17540 3.50104 2.91459
# Velocity P-wave (km/s) = 3.47020 5.59378 4.65471
#
# Compressibility (1/GPa) = 0.07361236
#
# Stress axis : x y z
#
# Youngs Moduli (GPa) = 14.97854 53.64294 148.74105
#
# Poissons Ratio (x) = 0.49679 -0.10415
# Poissons Ratio (y) = 0.13872 0.10360
# Poissons Ratio (z) = -0.01049 0.03736
#
# Static dielectric constant tensor:
#      x y z
#    x 1.959580 0.000000 0.009570 
#    y 0.000000 1.842530 0.000000 
#    z 0.009570 0.000000 2.060690 
# 
# From -- ./inp_files/233045.got.cif
#   From: 2010.05.17/outbox.cif.g08.bks.cpg/sg12_117_cif.got.tgz:233045.got - 2010.06.03 13:09:07.
