data_PCOD9177185
_publ_section_title
;
Structure prediction by ZEFSAII (Michael W. Deem and Ramdas Pophale) SiO2 
 PCOD9177185
Probable space group: C 2/M
;
_chemical_formula_sum "Si O2"
_cell_formula_units_Z 36
_cell_length_a 20.803122
_cell_length_b 13.517832
_cell_length_c 19.396970
_cell_angle_alpha 90.000000
_cell_angle_beta 19.541791
_cell_angle_gamma 90.000000
_cell_volume 1824.560244
_symmetry_space_group_name_H-M "C 2/M"
_symmetry_group_IT_number 12
_symmetry_cell_setting 'monoclinic'
loop_
_space_group_symop_operation_xyz
x,y,z
-x,y,-z
-x,-y,-z
x,-y,z
1/2+x,1/2+y,z
1/2-x,1/2+y,-z
1/2-x,1/2-y,-z
1/2+x,1/2-y,z
loop_
_atom_site_type_symbol
_atom_site_label
_atom_site_fract_x
_atom_site_fract_y
_atom_site_fract_z
Si Si1 0.596543 0.500000 0.999564
Si Si2 0.000000 0.832014 0.000000
Si Si3 0.626306 0.500000 0.122982
Si Si4 0.332056 0.666206 0.468056
Si Si5 0.861601 0.500000 0.512359
Si Si6 0.544261 0.000000 0.745750
Si Si7 0.115938 0.285347 0.451220
O O1 0.623430 0.404076 0.925238
O O2 0.694401 0.500000 0.974454
O O3 0.369393 0.500000 0.246262
O O4 0.842847 0.776515 0.203752
O O5 0.493137 0.595818 0.270873
O O6 0.814764 0.500000 0.980149
O O7 0.250000 0.750000 0.500000
O O8 0.151445 0.595475 0.667633
O O9 0.419612 0.717417 0.446832
O O10 0.903697 0.500000 0.388702
O O11 0.925885 0.398891 0.483977
O O12 0.000000 0.259235 0.500000
#
# Coordination Sequence:
#
# PCOD9177185 Si02
#       7
#     4   4   4   8   4   4   8
#     4   9  16  34  56  84 126 152 191 248 313 374
#     4   9  20  32  54  89 120 156 190 245 316 375
#     4  11  24  38  65  94 120 169 217 256 310 372
#     4  11  22  43  62  90 133 166 207 264 314 367
#     4  10  18  39  59  92 132 155 194 261 320 369
#     4  11  23  39  63  91 122 168 211 258 307 370
#     4  11  23  37  62  92 128 163 204 254 317 381
#
# _framework density 19.730782000000001
#
# number of rings (size 3 to 8) (size 9 to 14) (size 15 to 20)
#    0.000    1.556    4.444    2.333    3.111    2.667 
#    0.000    2.222    0.000    4.000    0.000    0.000 
#    0.000    0.000    0.000    0.000    0.000    0.000 
#
# Total GULP energy -100531.025450 kJ/mol
# GULP energy per Si atom -5585.056969 kJ/mol
# Density = 1.968587 g / cm^3
# Si number density = 19.730782 Si / 1000 Ang^3
#
#
#
# Elastic Constant Matrix: (Units=GPa)
#
#
# Indices 1 2 3 4 5 6 
#
# 1 128.5708 49.5169 -1.9344 -0.0028 -7.6473 0.0023
# 2 49.5169 107.9772 19.4887 -0.0113 -7.6106 0.0048
# 3 -1.9344 19.4887 51.9047 -0.0100 -8.3550 0.0019
# 4 -0.0028 -0.0113 -0.0100 9.1700 0.0018 8.2090
# 5 -7.6473 -7.6106 -8.3550 0.0018 39.3994 -0.0013
# 6 0.0023 0.0048 0.0019 8.2090 -0.0013 19.3332
#
#
#
# Elastic Compliance Matrix: (Units=1/GPa)
#
#
# Indices 1 2 3 4 5 6 
#
# 1 0.009751 -0.004802 0.002404 -0.000001 0.001475 0.000000
# 2 -0.004802 0.012351 -0.004744 0.000016 0.000448 -0.000009
# 3 0.002404 -0.004744 0.021809 0.000030 0.004175 -0.000014
# 4 -0.000001 0.000016 0.000030 0.175920 -0.000001 -0.074697
# 5 0.001475 0.000448 0.004175 -0.000001 0.026639 0.000002
# 6 0.000000 -0.000009 -0.000014 -0.074697 0.000002 0.083441
#
#
# Mechanical properties :
#
#
# Convention : Reuss Voigt Hill
#
# Bulk Modulus (GPa) = 33.75349 46.95502 40.35425
# Shear Modulus (GPa) = 14.12143 28.33928 21.23035
#
# Velocity S-wave (km/s) = 2.67817 3.79396 3.28380
# Velocity P-wave (km/s) = 5.16794 6.56062 5.90548
#
# Compressibility (1/GPa) = 0.02962657
#
# Stress axis : x y z
#
# Youngs Moduli (GPa) = 102.55437 80.96517 45.85253
#
# Poissons Ratio (x) = 0.38876 -0.11021
# Poissons Ratio (y) = 0.49242 0.21754
# Poissons Ratio (z) = -0.24650 0.38412
#
# Static dielectric constant tensor:
#      x y z
#    x 1.689510 0.000000 -0.024130 
#    y 0.000000 1.685870 0.000010 
#    z -0.024130 0.000010 1.714010 
# 
# From -- ./inp_files/321488.got.cif
#   From: 2010.05.17/outbox.cif.g08.bks.cpg/sg12_161_cif.got.tgz:321488.got - 2010.06.03 13:09:07.
