data_PCOD9177040
_publ_section_title
;
Structure prediction by ZEFSAII (Michael W. Deem and Ramdas Pophale) SiO2 
 PCOD9177040
Probable space group: C 2/M
;
_chemical_formula_sum "Si O2"
_cell_formula_units_Z 64
_cell_length_a 28.028575
_cell_length_b 13.818756
_cell_length_c 8.634001
_cell_angle_alpha 90.000000
_cell_angle_beta 109.049376
_cell_angle_gamma 90.000000
_cell_volume 3160.989674
_symmetry_space_group_name_H-M "C 2/M"
_symmetry_group_IT_number 12
_symmetry_cell_setting 'monoclinic'
loop_
_space_group_symop_operation_xyz
x,y,z
-x,y,-z
-x,-y,-z
x,-y,z
1/2+x,1/2+y,z
1/2-x,1/2+y,-z
1/2-x,1/2-y,-z
1/2+x,1/2-y,z
loop_
_atom_site_type_symbol
_atom_site_label
_atom_site_fract_x
_atom_site_fract_y
_atom_site_fract_z
Si Si1 0.039777 0.795565 0.169401
Si Si2 0.183102 0.611516 0.016341
Si Si3 0.029158 0.299928 0.671767
Si Si4 0.073376 0.608070 0.028889
Si Si5 0.277251 0.317182 0.312870
Si Si6 0.869690 0.888667 0.890162
Si Si7 0.633862 0.278249 0.788787
Si Si8 0.741650 0.609327 0.369837
O O1 0.054461 0.687732 0.127398
O O2 0.091342 0.853877 0.200935
O O3 0.008790 0.779052 0.292937
O O4 0.000000 0.834963 0.000000
O O5 0.192219 0.500000 0.982266
O O6 0.134082 0.613014 0.076800
O O7 0.231967 0.656495 0.148353
O O8 0.165179 0.680565 0.859706
O O9 0.079845 0.249040 0.664299
O O10 0.000000 0.349784 0.500000
O O11 0.049470 0.365487 0.835617
O O12 0.059508 0.500000 0.059225
O O13 0.330052 0.338026 0.284924
O O14 0.268709 0.378407 0.458632
O O15 0.273750 0.203614 0.356574
O O16 0.812185 0.879623 0.772905
O O17 0.879914 0.000000 0.936395
O O18 0.875800 0.827287 0.053945
O O19 0.761064 0.500000 0.359128
#
# Coordination Sequence:
#
# PCOD9177040 Si02
#       8
#     8   8   8   8   8   8   8   8
#     4  10  18  37  60  82 112 154 196 241 292 347
#     4  10  19  35  61  87 120 154 195 238 289 358
#     4  10  22  37  58  83 120 156 192 250 294 348
#     4   9  18  35  61  89 115 151 197 241 287 351
#     4  11  22  38  63  86 125 162 190 244 295 359
#     4  11  22  39  62  87 115 149 200 248 289 352
#     4  11  22  41  57  92 118 155 201 243 301 343
#     4  10  23  40  59  89 121 157 198 240 295 355
#
# _framework density 20.246825000000001
#
# number of rings (size 3 to 8) (size 9 to 14) (size 15 to 20)
#    0.000    1.750    5.000    0.750    1.750    4.250 
#    0.000    0.000    0.000    0.750    0.000    0.000 
#    0.000    0.000    0.000    0.000    0.000    0.000 
#
# Total GULP energy -178549.463511 kJ/mol
# GULP energy per Si atom -5579.670735 kJ/mol
# Density = 2.020074 g / cm^3
# Si number density = 20.246825 Si / 1000 Ang^3
#
#
#
# Elastic Constant Matrix: (Units=GPa)
#
#
# Indices 1 2 3 4 5 6 
#
# 1 78.2179 3.0846 17.3060 0.0000 -5.7320 0.0000
# 2 3.0846 84.2748 8.2788 0.0000 2.7309 0.0000
# 3 17.3060 8.2788 53.8290 0.0000 11.3191 0.0000
# 4 0.0000 0.0000 0.0000 7.1246 0.0000 2.4220
# 5 -5.7320 2.7309 11.3191 0.0000 13.7488 0.0000
# 6 0.0000 0.0000 0.0000 2.4220 0.0000 11.1511
#
#
#
# Elastic Compliance Matrix: (Units=1/GPa)
#
#
# Indices 1 2 3 4 5 6 
#
# 1 0.015406 -0.000230 -0.007592 0.000000 0.012719 0.000000
# 2 -0.000230 0.012064 -0.001521 0.000000 -0.001240 0.000000
# 3 -0.007592 -0.001521 0.026429 0.000000 -0.024622 0.000000
# 4 0.000000 0.000000 0.000000 0.151548 0.000000 -0.032916
# 5 0.012719 -0.001240 -0.024622 0.000000 0.098553 0.000000
# 6 0.000000 0.000000 0.000000 -0.032916 0.000000 0.096827
#
#
# Mechanical properties :
#
#
# Convention : Reuss Voigt Hill
#
# Bulk Modulus (GPa) = 28.39820 30.40672 29.40246
# Shear Modulus (GPa) = 11.59421 18.91506 15.25463
#
# Velocity S-wave (km/s) = 2.39559 3.05982 2.74785
# Velocity P-wave (km/s) = 4.65921 5.24728 4.96197
#
# Compressibility (1/GPa) = 0.03521350
#
# Stress axis : x y z
#
# Youngs Moduli (GPa) = 64.91102 82.89169 37.83659
#
# Poissons Ratio (x) = 0.01908 0.28726
# Poissons Ratio (y) = 0.01494 0.05753
# Poissons Ratio (z) = 0.49280 0.12604
#
# Static dielectric constant tensor:
#      x y z
#    x 1.749660 0.000000 -0.007260 
#    y 0.000000 1.723840 0.000000 
#    z -0.007260 0.000000 1.705340 
# 
# From -- ./inp_files/111667.got.cif
#   From: 2010.05.17/outbox.cif.g08.bks.cpg/sg12_56_cif.got.tgz:111667.got - 2010.06.03 13:09:07.
