data_PCOD9177975
_publ_section_title
;
Structure prediction by ZEFSAII (Michael W. Deem and Ramdas Pophale) SiO2 
 PCOD9177975
Probable space group: C 2/M
;
_chemical_formula_sum "Si O2"
_cell_formula_units_Z 56
_cell_length_a 16.032874
_cell_length_b 8.873264
_cell_length_c 19.334779
_cell_angle_alpha 90.000000
_cell_angle_beta 119.094111
_cell_angle_gamma 90.000000
_cell_volume 2403.571642
_symmetry_space_group_name_H-M "C 2/M"
_symmetry_group_IT_number 12
_symmetry_cell_setting 'monoclinic'
loop_
_space_group_symop_operation_xyz
x,y,z
-x,y,-z
-x,-y,-z
x,-y,z
1/2+x,1/2+y,z
1/2-x,1/2+y,-z
1/2-x,1/2-y,-z
1/2+x,1/2-y,z
loop_
_atom_site_type_symbol
_atom_site_label
_atom_site_fract_x
_atom_site_fract_y
_atom_site_fract_z
Si Si1 0.860275 0.326660 0.117514
Si Si2 0.668405 0.816115 0.740908
Si Si3 0.872639 0.319453 0.688516
Si Si4 0.299594 0.181861 0.451414
Si Si5 0.877753 0.678715 0.839895
Si Si6 0.012797 0.681277 0.406871
Si Si7 0.372539 0.673193 0.981122
O O1 0.888371 0.500000 0.120496
O O2 0.881255 0.283565 0.204800
O O3 0.743908 0.317352 0.068318
O O4 0.898132 0.242546 0.065467
O O5 0.767575 0.729350 0.784667
O O6 0.595056 0.768501 0.651312
O O7 0.683743 0.000000 0.744156
O O8 0.857252 0.500000 0.683374
O O9 0.770997 0.238054 0.636559
O O10 0.919060 0.278279 0.781029
O O11 0.933989 0.287652 0.644872
O O12 0.250000 0.250000 0.500000
O O13 0.410715 0.230143 0.504186
O O14 0.298064 0.000000 0.452146
O O15 0.885034 0.500000 0.851237
O O16 0.907976 0.752239 0.924362
O O17 0.005265 0.500000 0.411482
O O18 0.398554 0.500000 0.990973
#
# Coordination Sequence:
#
# PCOD9177975 Si02
#       7
#     8   8   8   8   8   8   8
#     4   8  14  24  40  63  87 112 144 184 225 261
#     4   9  17  30  48  68  91 118 149 186 225 267
#     4   9  18  32  49  68  91 120 153 188 224 264
#     4   9  16  28  48  70  91 117 151 190 225 262
#     4  10  19  30  45  67  95 121 147 185 229 269
#     4   8  15  30  50  69  88 114 151 189 222 260
#     4   9  16  26  42  63  87 117 151 185 219 261
#
# _framework density 23.298660999999999
#
# number of rings (size 3 to 8) (size 9 to 14) (size 15 to 20)
#    0.000    3.143    0.000    3.000    0.000    4.571 
#    0.000    4.286    0.000    5.143    0.000    6.000 
#    0.000    0.000    0.000    0.000    0.000    0.000 
#
# Total GULP energy -156290.535644 kJ/mol
# GULP energy per Si atom -5581.804844 kJ/mol
# Density = 2.324563 g / cm^3
# Si number density = 23.298661 Si / 1000 Ang^3
#
#
#
# Elastic Constant Matrix: (Units=GPa)
#
#
# Indices 1 2 3 4 5 6 
#
# 1 79.9396 6.2472 13.6452 0.0000 1.5544 0.0000
# 2 6.2472 21.7091 31.6951 0.0000 -17.9770 0.0000
# 3 13.6452 31.6951 177.6033 0.0000 -6.9594 0.0000
# 4 0.0000 0.0000 0.0000 28.0350 0.0000 -2.7308
# 5 1.5544 -17.9770 -6.9594 0.0000 49.5507 0.0000
# 6 0.0000 0.0000 0.0000 -2.7308 0.0000 1.9352
#
#
#
# Elastic Compliance Matrix: (Units=1/GPa)
#
#
# Indices 1 2 3 4 5 6 
#
# 1 0.013016 -0.005675 -0.000084 0.000000 -0.002479 0.000000
# 2 -0.005675 0.098911 -0.015890 0.000000 0.033831 0.000000
# 3 -0.000084 -0.015890 0.008293 0.000000 -0.004598 0.000000
# 4 0.000000 0.000000 0.000000 0.041354 0.000000 0.058358
# 5 -0.002479 0.033831 -0.004598 0.000000 0.031887 0.000000
# 6 0.000000 0.000000 0.000000 0.058358 0.000000 0.599107
#
#
# Mechanical properties :
#
#
# Convention : Reuss Voigt Hill
#
# Bulk Modulus (GPa) = 13.00049 42.49188 27.74618
# Shear Modulus (GPa) = 5.80378 31.08179 18.44278
#
# Velocity S-wave (km/s) = 1.58001 3.65644 2.81656
# Velocity P-wave (km/s) = 2.98674 6.00862 4.74469
#
# Compressibility (1/GPa) = 0.07692019
#
# Stress axis : x y z
#
# Youngs Moduli (GPa) = 76.83106 10.11006 120.58986
#
# Poissons Ratio (x) = 0.05738 0.01017
# Poissons Ratio (y) = 0.43604 1.91617
# Poissons Ratio (z) = 0.00648 0.16065
#
# Static dielectric constant tensor:
#      x y z
#    x 1.986570 0.000000 -0.011750 
#    y 0.000000 1.777720 0.000000 
#    z -0.011750 0.000000 1.949760 
# 
# From -- ./inp_files/319324.got.cif
#   From: 2010.05.17/outbox.cif.g08.bks.cpg/sg12_160_cif.got.tgz:319324.got - 2010.06.03 13:09:07.
