data_PCOD9177560
_publ_section_title
;
Structure prediction by ZEFSAII (Michael W. Deem and Ramdas Pophale) SiO2 
 PCOD9177560
Probable space group: C 2/M
;
_chemical_formula_sum "Si O2"
_cell_formula_units_Z 64
_cell_length_a 22.169325
_cell_length_b 9.146900
_cell_length_c 19.201063
_cell_angle_alpha 90.000000
_cell_angle_beta 85.567880
_cell_angle_gamma 90.000000
_cell_volume 3881.959572
_symmetry_space_group_name_H-M "C 2/M"
_symmetry_group_IT_number 12
_symmetry_cell_setting 'monoclinic'
loop_
_space_group_symop_operation_xyz
x,y,z
-x,y,-z
-x,-y,-z
x,-y,z
1/2+x,1/2+y,z
1/2-x,1/2+y,-z
1/2-x,1/2-y,-z
1/2+x,1/2-y,z
loop_
_atom_site_type_symbol
_atom_site_label
_atom_site_fract_x
_atom_site_fract_y
_atom_site_fract_z
Si Si1 0.106742 0.329021 0.260533
Si Si2 0.041619 0.172829 0.390550
Si Si3 0.408110 0.326510 0.463204
Si Si4 0.254283 0.829816 0.700995
Si Si5 0.314326 0.175277 0.011465
Si Si6 0.857802 0.830759 0.878170
Si Si7 0.217982 0.332015 0.836386
Si Si8 0.713262 0.825895 0.565567
O O1 0.095350 0.500000 0.250286
O O2 0.062721 0.262840 0.322342
O O3 0.175143 0.314459 0.284597
O O4 0.105459 0.243992 0.187477
O O5 0.080572 0.208752 0.456292
O O6 0.971934 0.195452 0.418541
O O7 0.050007 0.000000 0.376328
O O8 0.393248 0.500000 0.460127
O O9 0.355367 0.229453 0.436556
O O10 0.216260 0.774501 0.771054
O O11 0.239421 0.731875 0.636010
O O12 0.242287 0.000000 0.687185
O O13 0.323326 0.204123 0.092937
O O14 0.309842 0.000000 0.003086
O O15 0.250000 0.250000 0.000000
O O16 0.359372 0.243607 0.950806
O O17 0.787431 0.826927 0.858510
O O18 0.873923 0.000000 0.886241
O O19 0.206528 0.500000 0.816130
O O20 0.750000 0.750000 0.500000
O O21 0.717730 0.000000 0.560317
#
# Coordination Sequence:
#
# PCOD9177560 Si02
#       8
#     8   8   8   8   8   8   8   8
#     4  10  19  29  44  67  94 123 156 193 231 272
#     4   9  18  33  53  72  92 120 150 185 230 276
#     4   9  19  36  54  72  93 118 151 188 228 275
#     4  10  20  32  46  66  92 123 158 194 230 271
#     4   9  15  23  36  55  82 115 150 186 225 269
#     4   9  16  25  38  57  84 118 154 189 226 270
#     4   8  15  26  39  57  83 117 152 187 227 270
#     4  12  24  36  51  70  94 123 154 190 231 273
#
# _framework density 16.486519000000001
#
# number of rings (size 3 to 8) (size 9 to 14) (size 15 to 20)
#    0.000    2.500    0.000    4.875    0.000    8.000 
#    0.000    1.250    0.000    0.000    0.000    0.000 
#    0.000    1.000    0.000   10.500    0.000    7.125 
#
# Total GULP energy -178382.229030 kJ/mol
# GULP energy per Si atom -5574.444657 kJ/mol
# Density = 1.644899 g / cm^3
# Si number density = 16.486519 Si / 1000 Ang^3
#
#
#
# Elastic Constant Matrix: (Units=GPa)
#
#
# Indices 1 2 3 4 5 6 
#
# 1 12.4787 22.8585 12.8909 0.0000 -3.2743 0.0000
# 2 22.8585 106.7037 72.3865 0.0000 -10.0982 0.0000
# 3 12.8909 72.3865 126.7659 0.0000 -24.8231 0.0000
# 4 0.0000 0.0000 0.0000 35.6723 0.0000 -3.9707
# 5 -3.2743 -10.0982 -24.8231 0.0000 16.3891 0.0000
# 6 0.0000 0.0000 0.0000 -3.9707 0.0000 18.4037
#
#
#
# Elastic Compliance Matrix: (Units=1/GPa)
#
#
# Indices 1 2 3 4 5 6 
#
# 1 0.138267 -0.034093 0.009530 0.000000 0.021051 0.000000
# 2 -0.034093 0.024049 -0.012365 0.000000 -0.010722 0.000000
# 3 0.009530 -0.012365 0.018284 0.000000 0.021978 0.000000
# 4 0.000000 0.000000 0.000000 0.028723 0.000000 0.006197
# 5 0.021051 -0.010722 0.021978 0.000000 0.091904 0.000000
# 6 0.000000 0.000000 0.000000 0.006197 0.000000 0.055674
#
#
# Mechanical properties :
#
#
# Convention : Reuss Voigt Hill
#
# Bulk Modulus (GPa) = 9.36826 51.35778 30.36302
# Shear Modulus (GPa) = 10.72183 23.28052 17.00118
#
# Velocity S-wave (km/s) = 2.55294 3.76186 3.21474
# Velocity P-wave (km/s) = 3.79272 7.07727 5.67770
#
# Compressibility (1/GPa) = 0.10674345
#
# Stress axis : x y z
#
# Youngs Moduli (GPa) = 7.23239 41.58190 54.69238
#
# Poissons Ratio (x) = 1.41764 -0.52120
# Poissons Ratio (y) = 0.24657 0.67628
# Poissons Ratio (z) = -0.06892 0.51417
#
# Static dielectric constant tensor:
#      x y z
#    x 1.541910 0.000000 -0.011910 
#    y 0.000000 1.552010 0.000000 
#    z -0.011910 0.000000 1.568300 
# 
# From -- ./inp_files/287534.got.cif
#   From: 2010.05.17/outbox.cif.g08.bks.cpg/sg12_144_cif.got.tgz:287534.got - 2010.06.03 13:09:07.
