data_PCOD9177737
_publ_section_title
;
Structure prediction by ZEFSAII (Michael W. Deem and Ramdas Pophale) SiO2 
 PCOD9177737
Probable space group: C 2/M
;
_chemical_formula_sum "Si O2"
_cell_formula_units_Z 64
_cell_length_a 23.604445
_cell_length_b 9.165294
_cell_length_c 21.584670
_cell_angle_alpha 90.000000
_cell_angle_beta 129.710753
_cell_angle_gamma 90.000000
_cell_volume 3592.277329
_symmetry_space_group_name_H-M "C 2/M"
_symmetry_group_IT_number 12
_symmetry_cell_setting 'monoclinic'
loop_
_space_group_symop_operation_xyz
x,y,z
-x,y,-z
-x,-y,-z
x,-y,z
1/2+x,1/2+y,z
1/2-x,1/2+y,-z
1/2-x,1/2-y,-z
1/2+x,1/2-y,z
loop_
_atom_site_type_symbol
_atom_site_label
_atom_site_fract_x
_atom_site_fract_y
_atom_site_fract_z
Si Si1 0.519364 0.168797 0.328008
Si Si2 0.348924 0.167177 0.161391
Si Si3 0.421042 0.169044 0.968883
Si Si4 0.826454 0.330467 0.778148
Si Si5 0.314140 0.175917 0.271593
Si Si6 0.435495 0.328367 0.760256
Si Si7 0.032120 0.827616 0.591067
Si Si8 0.394714 0.330343 0.075287
O O1 0.434075 0.168979 0.244744
O O2 0.563676 0.255147 0.306684
O O3 0.518850 0.251541 0.392873
O O4 0.541698 0.000000 0.349051
O O5 0.305268 0.216793 0.192206
O O6 0.347726 0.260451 0.098211
O O7 0.329169 0.000000 0.133482
O O8 0.367876 0.173416 0.873083
O O9 0.433468 0.000000 0.996250
O O10 0.500000 0.228409 0.000000
O O11 0.388984 0.252673 0.005268
O O12 0.811871 0.500000 0.752743
O O13 0.752551 0.238670 0.735454
O O14 0.880175 0.257353 0.765909
O O15 0.389378 0.248250 0.347838
O O16 0.319029 0.000000 0.277353
O O17 0.418125 0.500000 0.745424
O O18 0.518931 0.315121 0.845020
O O19 0.000000 0.811361 0.500000
O O20 0.039954 0.000000 0.610412
O O21 0.377270 0.500000 0.057576
#
# Coordination Sequence:
#
# PCOD9177737 Si02
#       8
#     8   8   8   8   8   8   8   8
#     4   9  17  30  51  79 108 138 175 217 258 304
#     4   8  16  31  50  70  97 133 170 212 261 312
#     4  10  20  34  50  70 100 138 179 222 268 317
#     4  11  22  35  53  75 103 142 181 221 268 320
#     4  10  21  37  56  79 107 140 176 216 261 315
#     4  10  19  31  49  75 106 139 177 222 267 312
#     4  10  20  35  58  87 115 141 171 210 255 306
#     4  10  19  29  48  75 100 129 171 226 272 308
#
# _framework density 17.815995000000001
#
# number of rings (size 3 to 8) (size 9 to 14) (size 15 to 20)
#    0.000    2.250    1.250    3.000    0.000    6.750 
#    0.000    0.625    0.000    0.750    0.000    0.000 
#    0.000    0.000    0.000    0.000    0.000    0.000 
#
# Total GULP energy -178573.862279 kJ/mol
# GULP energy per Si atom -5580.433196 kJ/mol
# Density = 1.777545 g / cm^3
# Si number density = 17.815995 Si / 1000 Ang^3
#
#
#
# Elastic Constant Matrix: (Units=GPa)
#
#
# Indices 1 2 3 4 5 6 
#
# 1 77.1083 57.3077 27.5773 0.0000 -21.2030 0.0000
# 2 57.3077 117.1100 41.2620 0.0000 -23.7143 0.0000
# 3 27.5773 41.2620 43.7358 0.0000 -19.7307 0.0000
# 4 0.0000 0.0000 0.0000 20.9935 0.0000 -8.3440
# 5 -21.2030 -23.7143 -19.7307 0.0000 27.3111 0.0000
# 6 0.0000 0.0000 0.0000 -8.3440 0.0000 30.1926
#
#
#
# Elastic Compliance Matrix: (Units=1/GPa)
#
#
# Indices 1 2 3 4 5 6 
#
# 1 0.022373 -0.008411 -0.002419 0.000000 0.008318 0.000000
# 2 -0.008411 0.016189 -0.009752 0.000000 0.000481 0.000000
# 3 -0.002419 -0.009752 0.042907 0.000000 0.020653 0.000000
# 4 0.000000 0.000000 0.000000 0.053512 0.000000 0.014788
# 5 0.008318 0.000481 0.020653 0.000000 0.058411 0.000000
# 6 0.000000 0.000000 0.000000 0.014788 0.000000 0.037208
#
#
# Mechanical properties :
#
#
# Convention : Reuss Voigt Hill
#
# Bulk Modulus (GPa) = 24.81152 54.47201 39.64177
# Shear Modulus (GPa) = 17.53173 23.15324 20.34249
#
# Velocity S-wave (km/s) = 3.14035 3.60887 3.38273
# Velocity P-wave (km/s) = 5.20633 6.92867 6.12831
#
# Compressibility (1/GPa) = 0.04030386
#
# Stress axis : x y z
#
# Youngs Moduli (GPa) = 44.69773 61.77213 23.30608
#
# Poissons Ratio (x) = 0.51959 0.05637
# Poissons Ratio (y) = 0.37597 0.22728
# Poissons Ratio (z) = 0.10811 0.60241
#
# Static dielectric constant tensor:
#      x y z
#    x 1.612170 0.000000 0.009480 
#    y 0.000000 1.597900 0.000000 
#    z 0.009480 0.000000 1.593700 
# 
# From -- ./inp_files/324338.got.cif
#   From: 2010.05.17/outbox.cif.g08.bks.cpg/sg12_163_cif.got.tgz:324338.got - 2010.06.03 13:09:07.
