data_PCOD9177446
_publ_section_title
;
Structure prediction by ZEFSAII (Michael W. Deem and Ramdas Pophale) SiO2 
 PCOD9177446
Probable space group: C 2/M
;
_chemical_formula_sum "Si O2"
_cell_formula_units_Z 56
_cell_length_a 29.918906
_cell_length_b 8.695934
_cell_length_c 14.036147
_cell_angle_alpha 90.000000
_cell_angle_beta 103.031091
_cell_angle_gamma 90.000000
_cell_volume 3557.781806
_symmetry_space_group_name_H-M "C 2/M"
_symmetry_group_IT_number 12
_symmetry_cell_setting 'monoclinic'
loop_
_space_group_symop_operation_xyz
x,y,z
-x,y,-z
-x,-y,-z
x,-y,z
1/2+x,1/2+y,z
1/2-x,1/2+y,-z
1/2-x,1/2-y,-z
1/2+x,1/2-y,z
loop_
_atom_site_type_symbol
_atom_site_label
_atom_site_fract_x
_atom_site_fract_y
_atom_site_fract_z
Si Si1 0.052075 0.683593 0.419051
Si Si2 0.516724 0.686837 0.110411
Si Si3 0.895319 0.185640 0.735903
Si Si4 0.801432 0.816847 0.412166
Si Si5 0.965222 0.816143 0.277594
Si Si6 0.108462 0.316212 0.632888
Si Si7 0.796979 0.815345 0.632812
O O1 0.046103 0.500000 0.418545
O O2 0.084848 0.733711 0.348375
O O3 0.076667 0.732801 0.527885
O O4 0.003477 0.759272 0.371315
O O5 0.514918 0.500000 0.107420
O O6 0.569148 0.727292 0.163318
O O7 0.484342 0.734953 0.183275
O O8 0.500000 0.743950 0.000000
O O9 0.841692 0.224073 0.716539
O O10 0.898378 0.000000 0.723693
O O11 0.840868 0.742364 0.367221
O O12 0.807084 0.772094 0.526922
O O13 0.750286 0.763809 0.360685
O O14 0.805390 0.000000 0.408766
O O15 0.916444 0.750300 0.286154
O O16 0.963911 0.000000 0.277746
O O17 0.108479 0.500000 0.637054
O O18 0.790611 0.000000 0.631634
#
# Coordination Sequence:
#
# PCOD9177446 Si02
#       7
#     8   8   8   8   8   8   8
#     4  10  19  29  42  62  90 122 154 186 220 260
#     4   8  15  29  49  72  93 113 144 186 228 270
#     4   9  16  28  47  68  91 121 153 186 223 266
#     4  10  19  29  44  63  89 123 158 191 220 259
#     4  10  20  31  46  65  88 119 153 186 223 270
#     4  11  21  31  43  62  91 124 155 187 224 263
#     4   9  17  29  43  63  91 121 155 189 222 262
#
# _framework density 15.740145
#
# number of rings (size 3 to 8) (size 9 to 14) (size 15 to 20)
#    0.000    2.429    1.429    3.000    0.000    4.571 
#    0.000    0.000    0.000   10.714    0.000    1.000 
#    0.000    0.000    0.000    0.000    0.000    0.000 
#
# Total GULP energy -156067.709668 kJ/mol
# GULP energy per Si atom -5573.846774 kJ/mol
# Density = 1.570432 g / cm^3
# Si number density = 15.740145 Si / 1000 Ang^3
#
#
#
# Elastic Constant Matrix: (Units=GPa)
#
#
# Indices 1 2 3 4 5 6 
#
# 1 140.8917 32.3379 53.2136 0.0000 0.8868 0.0000
# 2 32.3379 22.4725 15.8072 0.0000 0.8323 0.0000
# 3 53.2136 15.8072 75.5514 0.0000 10.4287 0.0000
# 4 0.0000 0.0000 0.0000 6.5962 0.0000 -0.2433
# 5 0.8868 0.8323 10.4287 0.0000 12.0807 0.0000
# 6 0.0000 0.0000 0.0000 -0.2433 0.0000 28.7883
#
#
#
# Elastic Compliance Matrix: (Units=1/GPa)
#
#
# Indices 1 2 3 4 5 6 
#
# 1 0.012884 -0.013828 -0.007019 0.000000 0.006066 0.000000
# 2 -0.013828 0.067489 -0.004404 0.000000 0.000167 0.000000
# 3 -0.007019 -0.004404 0.021557 0.000000 -0.017790 0.000000
# 4 0.000000 0.000000 0.000000 0.151650 0.000000 0.001282
# 5 0.006066 0.000167 -0.017790 0.000000 0.097678 0.000000
# 6 0.000000 0.000000 0.000000 0.001282 0.000000 0.034747
#
#
# Mechanical properties :
#
#
# Convention : Reuss Voigt Hill
#
# Bulk Modulus (GPa) = 19.44457 49.07035 34.25746
# Shear Modulus (GPa) = 11.02172 18.66350 14.84261
#
# Velocity S-wave (km/s) = 2.64906 3.44717 3.07413
# Velocity P-wave (km/s) = 4.66229 6.86199 5.86617
#
# Compressibility (1/GPa) = 0.05142824
#
# Stress axis : x y z
#
# Youngs Moduli (GPa) = 77.61333 14.81726 46.38886
#
# Poissons Ratio (x) = 0.20489 0.32561
# Poissons Ratio (y) = 1.07324 0.20429
# Poissons Ratio (z) = 0.54478 0.06525
#
# Static dielectric constant tensor:
#      x y z
#    x 1.542250 0.000000 0.005460 
#    y 0.000000 1.526290 0.000000 
#    z 0.005460 0.000000 1.518320 
# 
# From -- ./inp_files/243043.got.cif
#   From: 2010.05.17/outbox.cif.g08.bks.cpg/sg12_122_cif.got.tgz:243043.got - 2010.06.03 13:09:07.
