data_PCOD9177642
_publ_section_title
;
Structure prediction by ZEFSAII (Michael W. Deem and Ramdas Pophale) SiO2 
 PCOD9177642
Probable space group: C 2/M
;
_chemical_formula_sum "Si O2"
_cell_formula_units_Z 48
_cell_length_a 32.650929
_cell_length_b 7.305691
_cell_length_c 7.590257
_cell_angle_alpha 90.000000
_cell_angle_beta 77.912566
_cell_angle_gamma 90.000000
_cell_volume 1770.420049
_symmetry_space_group_name_H-M "C 2/M"
_symmetry_group_IT_number 12
_symmetry_cell_setting 'monoclinic'
loop_
_space_group_symop_operation_xyz
x,y,z
-x,y,-z
-x,-y,-z
x,-y,z
1/2+x,1/2+y,z
1/2-x,1/2+y,-z
1/2-x,1/2-y,-z
1/2+x,1/2-y,z
loop_
_atom_site_type_symbol
_atom_site_label
_atom_site_fract_x
_atom_site_fract_y
_atom_site_fract_z
Si Si1 0.316427 0.791353 0.047786
Si Si2 0.335578 0.215792 0.390649
Si Si3 0.030819 0.777238 0.727792
Si Si4 0.562276 0.721546 0.062723
Si Si5 0.907216 0.780538 0.610463
Si Si6 0.223256 0.276630 0.265606
O O1 0.342205 0.706831 0.187992
O O2 0.269159 0.788454 0.172188
O O3 0.329296 0.000000 0.008301
O O4 0.308512 0.711633 0.861277
O O5 0.371603 0.234477 0.502843
O O6 0.294846 0.286904 0.531725
O O7 0.329620 0.000000 0.368593
O O8 0.050287 0.718517 0.526106
O O9 0.983674 0.727486 0.819559
O O10 0.030843 0.000000 0.725622
O O11 0.060771 0.715551 0.862451
O O12 0.564136 0.500000 0.053107
O O13 0.594229 0.783539 0.185855
O O14 0.908364 0.000000 0.618970
O O15 0.223747 0.500000 0.261503
#
# Coordination Sequence:
#
# PCOD9177642 Si02
#       6
#     8   8   8   8   8   8
#     4   9  18  33  52  71  90 116 152 190 226 266
#     4  10  21  34  46  65  97 130 151 175 223 279
#     4   8  14  26  45  68  92 117 148 190 235 270
#     4   8  14  26  45  68  92 117 148 190 235 270
#     4  10  19  29  45  70  94 118 153 191 223 263
#     4   9  18  33  52  71  90 116 152 190 226 266
#
# _framework density 27.112207999999999
#
# number of rings (size 3 to 8) (size 9 to 14) (size 15 to 20)
#    0.000    3.000    0.000    2.000    0.000    4.667 
#    0.000    0.000    0.000    2.000    0.000    2.333 
#    0.000    0.000    0.000    0.000    0.000    0.000 
#
# Total GULP energy -134175.199613 kJ/mol
# GULP energy per Si atom -5590.633317 kJ/mol
# Density = 2.705050 g / cm^3
# Si number density = 27.112208 Si / 1000 Ang^3
#
#
#
# Elastic Constant Matrix: (Units=GPa)
#
#
# Indices 1 2 3 4 5 6 
#
# 1 78.8045 0.5822 14.0966 0.0000 22.4094 0.0000
# 2 0.5822 129.3740 14.8644 0.0000 -2.2534 0.0000
# 3 14.0966 14.8644 180.6803 0.0000 34.0221 0.0000
# 4 0.0000 0.0000 0.0000 9.1876 0.0000 -7.1874
# 5 22.4094 -2.2534 34.0221 0.0000 56.4394 0.0000
# 6 0.0000 0.0000 0.0000 -7.1874 0.0000 40.8178
#
#
#
# Elastic Compliance Matrix: (Units=1/GPa)
#
#
# Indices 1 2 3 4 5 6 
#
# 1 0.014308 -0.000159 -0.000036 0.000000 -0.005666 0.000000
# 2 -0.000159 0.007836 -0.000793 0.000000 0.000854 0.000000
# 3 -0.000036 -0.000793 0.006324 0.000000 -0.003829 0.000000
# 4 0.000000 0.000000 0.000000 0.126231 0.000000 0.022228
# 5 -0.005666 0.000854 -0.003829 0.000000 0.022310 0.000000
# 6 0.000000 0.000000 0.000000 0.022228 0.000000 0.028413
#
#
# Mechanical properties :
#
#
# Convention : Reuss Voigt Hill
#
# Bulk Modulus (GPa) = 37.74783 49.77170 43.75976
# Shear Modulus (GPa) = 23.12353 45.24331 34.18342
#
# Velocity S-wave (km/s) = 2.92358 4.08946 3.55464
# Velocity P-wave (km/s) = 5.03483 6.37932 5.74653
#
# Compressibility (1/GPa) = 0.02649159
#
# Stress axis : x y z
#
# Youngs Moduli (GPa) = 69.88885 127.61220 158.13349
#
# Poissons Ratio (x) = 0.02028 0.00576
# Poissons Ratio (y) = 0.01110 0.12542
# Poissons Ratio (z) = 0.00255 0.10121
#
# Static dielectric constant tensor:
#      x y z
#    x 2.192600 0.000000 0.053690 
#    y 0.000000 2.017340 0.000000 
#    z 0.053690 0.000000 2.123680 
# 
# From -- ./inp_files/108555.got.cif
#   From: 2010.05.17/outbox.cif.g08.bks.cpg/sg12_55_cif.got.tgz:108555.got - 2010.06.03 13:09:07.
