data_PCOD9177756
_publ_section_title
;
Structure prediction by ZEFSAII (Michael W. Deem and Ramdas Pophale) SiO2 
 PCOD9177756
Probable space group: C 2/M
;
_chemical_formula_sum "Si O2"
_cell_formula_units_Z 56
_cell_length_a 22.529891
_cell_length_b 7.711503
_cell_length_c 14.452152
_cell_angle_alpha 90.000000
_cell_angle_beta 79.301984
_cell_angle_gamma 90.000000
_cell_volume 2467.265579
_symmetry_space_group_name_H-M "C 2/M"
_symmetry_group_IT_number 12
_symmetry_cell_setting 'monoclinic'
loop_
_space_group_symop_operation_xyz
x,y,z
-x,y,-z
-x,-y,-z
x,-y,z
1/2+x,1/2+y,z
1/2-x,1/2+y,-z
1/2-x,1/2-y,-z
1/2+x,1/2-y,z
loop_
_atom_site_type_symbol
_atom_site_label
_atom_site_fract_x
_atom_site_fract_y
_atom_site_fract_z
Si Si1 0.181507 0.206448 0.551411
Si Si2 0.726678 0.290980 0.729293
Si Si3 0.954032 0.796865 0.932662
Si Si4 0.011746 0.286514 0.391996
Si Si5 0.955079 0.300245 0.231658
Si Si6 0.642552 0.797330 0.367575
Si Si7 0.365534 0.794593 0.102033
O O1 0.250000 0.250000 0.500000
O O2 0.182489 0.269160 0.657691
O O3 0.142426 0.285470 0.479952
O O4 0.172638 0.000000 0.552249
O O5 0.728193 0.500000 0.721523
O O6 0.794202 0.223581 0.688611
O O7 0.699675 0.243411 0.836296
O O8 0.978115 0.704976 0.834327
O O9 0.963951 0.000000 0.915836
O O10 0.888218 0.772016 0.996403
O O11 0.000000 0.732901 0.000000
O O12 0.010834 0.500000 0.389703
O O13 0.963433 0.223070 0.330752
O O14 0.079613 0.225405 0.349364
O O15 0.000000 0.233498 0.500000
O O16 0.936850 0.500000 0.246972
O O17 0.910609 0.218576 0.168578
O O18 0.643459 0.000000 0.343489
O O19 0.373728 0.000000 0.095259
#
# Coordination Sequence:
#
# PCOD9177756 Si02
#       7
#     8   8   8   8   8   8   8
#     4   9  17  29  45  66  93 127 165 205 248 292
#     4   9  18  30  44  68  99 130 161 201 252 300
#     4   9  17  31  51  73 100 133 160 195 252 309
#     4   9  18  32  52  75 100 134 174 211 245 288
#     4   9  18  32  50  75 102 129 166 209 246 289
#     4   9  18  32  50  69  96 133 172 209 248 295
#     4  10  19  29  49  79 103 126 160 207 252 296
#
# _framework density 22.697192000000001
#
# number of rings (size 3 to 8) (size 9 to 14) (size 15 to 20)
#    0.000    2.857    0.000    2.143    2.000    5.143 
#    0.000    0.714    0.000    1.714    0.000    0.000 
#    0.000    0.000    0.000    0.000    0.000    0.000 
#
# Total GULP energy -156117.139733 kJ/mol
# GULP energy per Si atom -5575.612133 kJ/mol
# Density = 2.264553 g / cm^3
# Si number density = 22.697192 Si / 1000 Ang^3
#
#
#
# Elastic Constant Matrix: (Units=GPa)
#
#
# Indices 1 2 3 4 5 6 
#
# 1 55.4619 3.9453 -0.8320 0.0000 -10.2948 0.0000
# 2 3.9453 53.8306 -0.7532 0.0000 -2.0998 0.0000
# 3 -0.8320 -0.7532 66.5381 0.0000 -24.0691 0.0000
# 4 0.0000 0.0000 0.0000 20.8683 0.0000 -7.6998
# 5 -10.2948 -2.0998 -24.0691 0.0000 34.7760 0.0000
# 6 0.0000 0.0000 0.0000 -7.6998 0.0000 8.2879
#
#
#
# Elastic Compliance Matrix: (Units=1/GPa)
#
#
# Indices 1 2 3 4 5 6 
#
# 1 0.019615 -0.001087 0.003081 0.000000 0.007874 0.000000
# 2 -0.001087 0.018715 0.000654 0.000000 0.001261 0.000000
# 3 0.003081 0.000654 0.020569 0.000000 0.015188 0.000000
# 4 0.000000 0.000000 0.000000 0.072914 0.000000 0.067740
# 5 0.007874 0.001261 0.015188 0.000000 0.041674 0.000000
# 6 0.000000 0.000000 0.000000 0.067740 0.000000 0.183591
#
#
# Mechanical properties :
#
#
# Convention : Reuss Voigt Hill
#
# Bulk Modulus (GPa) = 15.57745 20.06121 17.81933
# Shear Modulus (GPa) = 13.39835 24.35115 18.87475
#
# Velocity S-wave (km/s) = 2.43226 3.27902 2.88686
# Velocity P-wave (km/s) = 3.84265 4.81600 4.35659
#
# Compressibility (1/GPa) = 0.06419537
#
# Stress axis : x y z
#
# Youngs Moduli (GPa) = 50.98021 53.43357 48.61731
#
# Poissons Ratio (x) = 0.05810 -0.14980
# Poissons Ratio (y) = 0.05544 -0.03182
# Poissons Ratio (z) = -0.15708 -0.03497
#
# Static dielectric constant tensor:
#      x y z
#    x 1.877570 0.000000 -0.025320 
#    y 0.000000 1.810670 0.000000 
#    z -0.025320 0.000000 1.887520 
# 
# From -- ./inp_files/243036.got.cif
#   From: 2010.05.17/outbox.cif.g08.bks.cpg/sg12_122_cif.got.tgz:243036.got - 2010.06.03 13:09:07.
