data_PCOD9177009
_publ_section_title
;
Structure prediction by ZEFSAII (Michael W. Deem and Ramdas Pophale) SiO2 
 PCOD9177009
Probable space group: C 2/M
;
_chemical_formula_sum "Si O2"
_cell_formula_units_Z 34
_cell_length_a 16.602252
_cell_length_b 21.199581
_cell_length_c 7.786842
_cell_angle_alpha 90.000000
_cell_angle_beta 150.299497
_cell_angle_gamma 90.000000
_cell_volume 1357.906156
_symmetry_space_group_name_H-M "C 2/M"
_symmetry_group_IT_number 12
_symmetry_cell_setting 'monoclinic'
loop_
_space_group_symop_operation_xyz
x,y,z
-x,y,-z
-x,-y,-z
x,-y,z
1/2+x,1/2+y,z
1/2-x,1/2+y,-z
1/2-x,1/2-y,-z
1/2+x,1/2-y,z
loop_
_atom_site_type_symbol
_atom_site_label
_atom_site_fract_x
_atom_site_fract_y
_atom_site_fract_z
Si Si1 0.454318 0.608039 0.651564
Si Si2 0.531188 0.845054 0.351433
Si Si3 0.339423 0.729327 0.991558
Si Si4 0.000000 0.000000 0.500000
Si Si5 0.257333 0.071151 0.437801
O O1 0.515724 0.678169 0.716955
O O2 0.395767 0.558180 0.400980
O O3 0.322614 0.611037 0.557605
O O4 0.617826 0.574211 0.029845
O O5 0.500000 0.853656 0.500000
O O6 0.403454 0.795473 0.041609
O O7 0.571163 0.907920 0.324120
O O8 0.701377 0.808116 0.638036
O O9 0.250000 0.750000 0.000000
O O10 0.264387 0.000000 0.511918
#
# Coordination Sequence:
#
# PCOD9177009 Si02
#       5
#     8   8   8   2   8
#     4  10  20  33  57  81 113 147 193 231 276 333
#     4   9  19  34  57  83 111 147 191 227 285 332
#     4   9  19  35  55  85 112 147 184 239 273 335
#     4  12  20  30  56  88 106 150 194 226 284 324
#     4  10  18  37  54  80 114 149 187 234 274 341
#
# _framework density 25.038549
#
# number of rings (size 3 to 8) (size 9 to 14) (size 15 to 20)
#    0.000    2.353    2.353    0.706    4.941    1.412 
#    0.000    0.000    0.000    0.000    0.000   16.471 
#    0.000    0.000    0.000    0.000    0.000    0.000 
#
# Total GULP energy -94650.405245 kJ/mol
# GULP energy per Si atom -5567.670897 kJ/mol
# Density = 2.498156 g / cm^3
# Si number density = 25.038549 Si / 1000 Ang^3
#
#
#
# Elastic Constant Matrix: (Units=GPa)
#
#
# Indices 1 2 3 4 5 6 
#
# 1 137.4360 59.3870 20.9064 0.0000 21.2333 0.0000
# 2 59.3870 125.3421 23.5532 0.0000 16.4733 0.0000
# 3 20.9064 23.5532 45.7029 0.0000 12.8470 0.0000
# 4 0.0000 0.0000 0.0000 18.7478 0.0000 11.8360
# 5 21.2333 16.4733 12.8470 0.0000 28.6054 0.0000
# 6 0.0000 0.0000 0.0000 11.8360 0.0000 55.7486
#
#
#
# Elastic Compliance Matrix: (Units=1/GPa)
#
#
# Indices 1 2 3 4 5 6 
#
# 1 0.009817 -0.003822 -0.001249 0.000000 -0.004525 0.000000
# 2 -0.003822 0.010635 -0.003214 0.000000 -0.001844 0.000000
# 3 -0.001249 -0.003214 0.026698 0.000000 -0.009212 0.000000
# 4 0.000000 0.000000 0.000000 0.061596 0.000000 -0.013077
# 5 -0.004525 -0.001844 -0.009212 0.000000 0.043516 0.000000
# 6 0.000000 0.000000 0.000000 -0.013077 0.000000 0.020714
#
#
# Mechanical properties :
#
#
# Convention : Reuss Voigt Hill
#
# Bulk Modulus (GPa) = 32.70159 57.35269 45.02714
# Shear Modulus (GPa) = 25.03263 34.26266 29.64764
#
# Velocity S-wave (km/s) = 3.16533 3.70320 3.44478
# Velocity P-wave (km/s) = 5.14276 6.42187 5.81757
#
# Compressibility (1/GPa) = 0.03057956
#
# Stress axis : x y z
#
# Youngs Moduli (GPa) = 101.86869 94.02682 37.45625
#
# Poissons Ratio (x) = 0.35934 0.04679
# Poissons Ratio (y) = 0.38931 0.12040
# Poissons Ratio (z) = 0.12724 0.30223
#
# Static dielectric constant tensor:
#      x y z
#    x 2.039020 0.000000 -0.065480 
#    y 0.000000 2.062030 0.000000 
#    z -0.065480 0.000000 2.173240 
# 
# From -- ./inp_files/47835.got.cif
#   From: 2010.05.17/outbox.cif.g08.bks.cpg/sg12_24_cif.got.tgz:47835.got - 2010.06.03 13:09:07.
