data_PCOD9177996
_publ_section_title
;
Structure prediction by ZEFSAII (Michael W. Deem and Ramdas Pophale) SiO2 
 PCOD9177996
Probable space group: C 2/M
;
_chemical_formula_sum "Si O2"
_cell_formula_units_Z 64
_cell_length_a 24.269668
_cell_length_b 7.804808
_cell_length_c 18.952817
_cell_angle_alpha 90.000000
_cell_angle_beta 90.907713
_cell_angle_gamma 90.000000
_cell_volume 3589.593953
_symmetry_space_group_name_H-M "C 2/M"
_symmetry_group_IT_number 12
_symmetry_cell_setting 'monoclinic'
loop_
_space_group_symop_operation_xyz
x,y,z
-x,y,-z
-x,-y,-z
x,-y,z
1/2+x,1/2+y,z
1/2-x,1/2+y,-z
1/2-x,1/2-y,-z
1/2+x,1/2-y,z
loop_
_atom_site_type_symbol
_atom_site_label
_atom_site_fract_x
_atom_site_fract_y
_atom_site_fract_z
Si Si1 0.193375 0.289829 0.422376
Si Si2 0.312528 0.202184 0.733432
Si Si3 0.678288 0.198890 0.572039
Si Si4 0.999790 0.790468 0.082772
Si Si5 0.882908 0.793052 0.138851
Si Si6 0.686230 0.706379 0.996641
Si Si7 0.618592 0.296639 0.129381
Si Si8 0.815600 0.704030 0.275168
O O1 0.197568 0.500000 0.423905
O O2 0.171293 0.237465 0.345196
O O3 0.255105 0.214531 0.426104
O O4 0.163089 0.233032 0.493790
O O5 0.349485 0.272653 0.797023
O O6 0.246911 0.234753 0.741594
O O7 0.320275 0.000000 0.734759
O O8 0.663774 0.275025 0.648291
O O9 0.661362 0.000000 0.571877
O O10 0.944536 0.733198 0.121501
O O11 0.056136 0.731276 0.121042
O O12 0.998533 0.000000 0.082994
O O13 0.000000 0.740484 0.000000
O O14 0.856856 0.743069 0.212752
O O15 0.883543 0.000000 0.136889
O O16 0.843172 0.731330 0.074997
O O17 0.681752 0.500000 0.996453
O O18 0.654938 0.773094 0.065293
O O19 0.750000 0.750000 0.000000
O O20 0.614346 0.500000 0.117964
O O21 0.811126 0.500000 0.282631
#
# Coordination Sequence:
#
# PCOD9177996 Si02
#       8
#     8   8   8   8   8   8   8   8
#     4   8  14  25  41  61  87 120 153 182 216 262
#     4  10  19  30  45  68  98 126 152 186 227 273
#     4   8  14  25  41  61  87 120 153 182 216 262
#     4   9  16  32  55  71  84 111 156 200 233 271
#     4  10  19  32  50  69  89 117 153 192 231 271
#     4  10  20  31  45  65  89 118 149 180 217 266
#     4  10  19  32  50  69  89 117 153 192 231 271
#     4  10  19  30  45  68  98 126 152 186 227 273
#
# _framework density 17.829312999999999
#
# number of rings (size 3 to 8) (size 9 to 14) (size 15 to 20)
#    0.000    2.625    1.250    1.500    0.000    4.000 
#    0.000    0.625    0.000    0.750    0.000    0.875 
#    0.000    7.000    0.000    0.000    0.000    0.000 
#
# Total GULP energy -178231.703546 kJ/mol
# GULP energy per Si atom -5569.740736 kJ/mol
# Density = 1.778873 g / cm^3
# Si number density = 17.829313 Si / 1000 Ang^3
#
#
#
# Elastic Constant Matrix: (Units=GPa)
#
#
# Indices 1 2 3 4 5 6 
#
# 1 103.0184 -1.8814 75.2978 0.0000 -13.5660 0.0000
# 2 -1.8814 19.4583 -4.4126 0.0000 -0.3965 0.0000
# 3 75.2978 -4.4126 183.2779 0.0000 -9.0517 0.0000
# 4 0.0000 0.0000 0.0000 -5.4142 0.0000 -4.7877
# 5 -13.5660 -0.3965 -9.0517 0.0000 5.1982 0.0000
# 6 0.0000 0.0000 0.0000 -4.7877 0.0000 12.9093
#
#
#
# Elastic Compliance Matrix: (Units=1/GPa)
#
#
# Indices 1 2 3 4 5 6 
#
# 1 0.019387 0.001350 -0.005939 0.000000 0.040356 0.000000
# 2 0.001350 0.051981 0.001167 0.000000 0.009520 0.000000
# 3 -0.005939 0.001167 0.007837 0.000000 -0.001764 0.000000
# 4 0.000000 0.000000 0.000000 -0.139085 0.000000 -0.051583
# 5 0.040356 0.009520 -0.001764 0.000000 0.295346 0.000000
# 6 0.000000 0.000000 0.000000 -0.051583 0.000000 0.058333
#
#
# Mechanical properties :
#
#
# Convention : Reuss Voigt Hill
#
# Bulk Modulus (GPa) = 13.81960 49.30690 31.56325
# Shear Modulus (GPa) = 15.39574 18.32206 16.85890
#
# Velocity S-wave (km/s) = 2.94174 3.20915 3.07835
# Velocity P-wave (km/s) = 4.39389 6.43790 5.51148
#
# Compressibility (1/GPa) = 0.07236099
#
# Stress axis : x y z
#
# Youngs Moduli (GPa) = 51.58055 19.23774 127.59486
#
# Poissons Ratio (x) = -0.02597 0.75784
# Poissons Ratio (y) = -0.06964 -0.14891
# Poissons Ratio (z) = 0.30636 -0.02245
#
# Static dielectric constant tensor:
#      x y z
#    x 1.573620 0.000000 0.006950 
#    y 0.000000 1.670870 0.000000 
#    z 0.006950 0.000000 1.678850 
# 
# From -- ./inp_files/287599.got.cif
#   From: 2010.05.17/outbox.cif.g08.bks.cpg/sg12_144_cif.got.tgz:287599.got - 2010.06.03 13:09:07.
