data_PCOD9177255
_publ_section_title
;
Structure prediction by ZEFSAII (Michael W. Deem and Ramdas Pophale) SiO2 
 PCOD9177255
Probable space group: C 2/M
;
_chemical_formula_sum "Si O2"
_cell_formula_units_Z 64
_cell_length_a 27.041564
_cell_length_b 8.982703
_cell_length_c 17.633397
_cell_angle_alpha 90.000000
_cell_angle_beta 100.988895
_cell_angle_gamma 90.000000
_cell_volume 4204.726597
_symmetry_space_group_name_H-M "C 2/M"
_symmetry_group_IT_number 12
_symmetry_cell_setting 'monoclinic'
loop_
_space_group_symop_operation_xyz
x,y,z
-x,y,-z
-x,-y,-z
x,-y,z
1/2+x,1/2+y,z
1/2-x,1/2+y,-z
1/2-x,1/2-y,-z
1/2+x,1/2-y,z
loop_
_atom_site_type_symbol
_atom_site_label
_atom_site_fract_x
_atom_site_fract_y
_atom_site_fract_z
Si Si1 0.063734 0.323683 0.679533
Si Si2 0.534754 0.329291 0.407248
Si Si3 0.613546 0.323251 0.558629
Si Si4 0.425320 0.319628 0.834204
Si Si5 0.367485 0.673046 0.672029
Si Si6 0.559565 0.671528 0.995911
Si Si7 0.534563 0.177695 0.838408
Si Si8 0.304417 0.177364 0.526588
O O1 0.071854 0.500000 0.675773
O O2 0.103695 0.237438 0.639477
O O3 0.061320 0.280936 0.767363
O O4 0.009003 0.280425 0.630107
O O5 0.515244 0.500000 0.402895
O O6 0.562349 0.297123 0.494705
O O7 0.580029 0.323002 0.359536
O O8 0.622712 0.500000 0.559700
O O9 0.657839 0.240448 0.526739
O O10 0.430901 0.500000 0.834141
O O11 0.382520 0.279518 0.761119
O O12 0.478890 0.250456 0.825533
O O13 0.414633 0.276992 0.918370
O O14 0.350847 0.500000 0.667261
O O15 0.328382 0.770853 0.613720
O O16 0.573238 0.500000 0.984465
O O17 0.564033 0.767047 0.921504
O O18 0.500000 0.673350 0.000000
O O19 0.528824 0.000000 0.838539
O O20 0.250000 0.250000 0.500000
O O21 0.301797 0.000000 0.521698
#
# Coordination Sequence:
#
# PCOD9177255 Si02
#       8
#     8   8   8   8   8   8   8   8
#     4  11  21  29  40  62  91 122 156 191 225 266
#     4   9  17  29  44  61  85 119 153 186 224 267
#     4  10  21  35  49  66  86 114 152 189 228 270
#     4   9  16  28  44  61  85 118 156 193 226 267
#     4   9  17  30  48  69  92 119 153 190 230 271
#     4   8  15  26  40  57  79 115 159 193 224 264
#     4  10  19  27  37  58  89 123 157 192 229 264
#     4  11  22  37  55  72  93 117 145 183 228 275
#
# _framework density 15.220966000000001
#
# number of rings (size 3 to 8) (size 9 to 14) (size 15 to 20)
#    0.000    2.375    1.250    4.125    0.000    8.250 
#    0.000    0.000    0.000    0.000    0.000    0.000 
#    0.000    1.000    0.000    3.000    0.000    4.625 
#
# Total GULP energy -178397.264019 kJ/mol
# GULP energy per Si atom -5574.914501 kJ/mol
# Density = 1.518632 g / cm^3
# Si number density = 15.220966 Si / 1000 Ang^3
#
#
#
# Elastic Constant Matrix: (Units=GPa)
#
#
# Indices 1 2 3 4 5 6 
#
# 1 50.5225 33.9764 42.7806 0.0000 7.3974 0.0000
# 2 33.9764 66.3530 57.6978 0.0000 3.7160 0.0000
# 3 42.7806 57.6978 144.0832 0.0000 8.5123 0.0000
# 4 0.0000 0.0000 0.0000 24.9113 0.0000 -0.0069
# 5 7.3974 3.7160 8.5123 0.0000 11.5093 0.0000
# 6 0.0000 0.0000 0.0000 -0.0069 0.0000 19.7656
#
#
#
# Elastic Compliance Matrix: (Units=1/GPa)
#
#
# Indices 1 2 3 4 5 6 
#
# 1 0.034237 -0.013230 -0.003994 0.000000 -0.014779 0.000000
# 2 -0.013230 0.028240 -0.007680 0.000000 0.005066 0.000000
# 3 -0.003994 -0.007680 0.011402 0.000000 -0.003386 0.000000
# 4 0.000000 0.000000 0.000000 0.040142 0.000000 0.000014
# 5 -0.014779 0.005066 -0.003386 0.000000 0.097254 0.000000
# 6 0.000000 0.000000 0.000000 0.000014 0.000000 0.050593
#
#
# Mechanical properties :
#
#
# Convention : Reuss Voigt Hill
#
# Bulk Modulus (GPa) = 41.54539 58.87425 50.20982
# Shear Modulus (GPa) = 15.63974 19.67084 17.65529
#
# Velocity S-wave (km/s) = 3.20896 3.59883 3.40947
# Velocity P-wave (km/s) = 6.40968 7.48548 6.96837
#
# Compressibility (1/GPa) = 0.02407006
#
# Stress axis : x y z
#
# Youngs Moduli (GPa) = 29.20858 35.41138 87.70637
#
# Poissons Ratio (x) = 0.46849 0.35032
# Poissons Ratio (y) = 0.38643 0.67354
# Poissons Ratio (z) = 0.11667 0.27194
#
# Static dielectric constant tensor:
#      x y z
#    x 1.474700 0.000000 0.004260 
#    y 0.000000 1.507370 0.000000 
#    z 0.004260 0.000000 1.551620 
# 
# From -- ./inp_files/287499.got.cif
#   From: 2010.05.17/outbox.cif.g08.bks.cpg/sg12_144_cif.got.tgz:287499.got - 2010.06.03 13:09:07.
