data_PCOD9177669
_publ_section_title
;
Structure prediction by ZEFSAII (Michael W. Deem and Ramdas Pophale) SiO2 
 PCOD9177669
Probable space group: C 2/M
;
_chemical_formula_sum "Si O2"
_cell_formula_units_Z 56
_cell_length_a 9.458317
_cell_length_b 26.005564
_cell_length_c 17.841472
_cell_angle_alpha 90.000000
_cell_angle_beta 130.093610
_cell_angle_gamma 90.000000
_cell_volume 3357.132008
_symmetry_space_group_name_H-M "C 2/M"
_symmetry_group_IT_number 12
_symmetry_cell_setting 'monoclinic'
loop_
_space_group_symop_operation_xyz
x,y,z
-x,y,-z
-x,-y,-z
x,-y,z
1/2+x,1/2+y,z
1/2-x,1/2+y,-z
1/2-x,1/2-y,-z
1/2+x,1/2-y,z
loop_
_atom_site_type_symbol
_atom_site_label
_atom_site_fract_x
_atom_site_fract_y
_atom_site_fract_z
Si Si1 0.757324 0.722977 0.381036
Si Si2 0.369602 0.814352 0.563505
Si Si3 0.084623 0.639028 0.759394
Si Si4 0.932460 0.661079 0.865014
Si Si5 0.097269 0.781431 0.167878
Si Si6 0.083544 0.939801 0.112067
Si Si7 0.800660 0.864142 0.079406
O O1 0.731486 0.777587 0.412080
O O2 0.751184 0.681204 0.446756
O O3 0.615748 0.717487 0.264788
O O4 0.953610 0.717286 0.407271
O O5 0.461586 0.860242 0.641686
O O6 0.952308 0.644837 0.785648
O O7 0.221553 0.689140 0.802274
O O8 0.225603 0.591629 0.814527
O O9 0.925387 0.723224 0.866389
O O10 0.760872 0.642020 0.855664
O O11 0.114626 0.638056 0.967148
O O12 0.921672 0.816385 0.090515
O O13 0.929538 0.913372 0.111739
O O14 0.108570 0.000000 0.135138
O O15 0.000000 0.933386 0.000000
#
# Coordination Sequence:
#
# PCOD9177669 Si02
#       7
#     8   8   8   8   8   8   8
#     4   9  17  27  43  65  97 136 163 191 231 267
#     4   9  17  29  43  67  97 133 164 196 223 286
#     4  10  19  31  50  70  97 132 170 199 238 291
#     4  11  19  31  44  72 104 130 166 197 236 286
#     4  10  19  29  46  68 101 143 162 194 224 290
#     4  10  20  38  56  69  90 125 167 213 258 299
#     4  10  22  32  46  70  98 131 168 203 242 292
#
# _framework density 16.680904999999999
#
# number of rings (size 3 to 8) (size 9 to 14) (size 15 to 20)
#    0.000    2.143    2.857    1.286    2.000    1.143 
#    0.000    2.143    0.000    0.000    0.000   18.000 
#    0.000    0.000    0.000   39.857    0.000    0.000 
#
# Total GULP energy -155945.518272 kJ/mol
# GULP energy per Si atom -5569.482795 kJ/mol
# Density = 1.664294 g / cm^3
# Si number density = 16.680905 Si / 1000 Ang^3
#
#
#
# Elastic Constant Matrix: (Units=GPa)
#
#
# Indices 1 2 3 4 5 6 
#
# 1 78.6830 31.6411 12.4310 0.0000 -24.6060 0.0000
# 2 31.6411 91.5065 22.8300 0.0000 -6.1214 0.0000
# 3 12.4310 22.8300 43.5695 0.0000 -9.3017 0.0000
# 4 0.0000 0.0000 0.0000 13.8766 0.0000 2.2120
# 5 -24.6060 -6.1214 -9.3017 0.0000 17.2191 0.0000
# 6 0.0000 0.0000 0.0000 2.2120 0.0000 7.8261
#
#
#
# Elastic Compliance Matrix: (Units=1/GPa)
#
#
# Indices 1 2 3 4 5 6 
#
# 1 0.027285 -0.008013 0.004668 0.000000 0.038663 0.000000
# 2 -0.008013 0.014941 -0.007747 0.000000 -0.010323 0.000000
# 3 0.004668 -0.007747 0.029972 0.000000 0.020107 0.000000
# 4 0.000000 0.000000 0.000000 0.075464 0.000000 -0.021330
# 5 0.038663 -0.010323 0.020107 0.000000 0.120516 0.000000
# 6 0.000000 0.000000 0.000000 -0.021330 0.000000 0.133807
#
#
# Mechanical properties :
#
#
# Convention : Reuss Voigt Hill
#
# Bulk Modulus (GPa) = 19.99414 38.61813 29.30613
# Shear Modulus (GPa) = 11.34202 17.57481 14.45842
#
# Velocity S-wave (km/s) = 2.61040 3.24942 2.94728
# Velocity P-wave (km/s) = 4.59324 6.10571 5.40266
#
# Compressibility (1/GPa) = 0.05001466
#
# Stress axis : x y z
#
# Youngs Moduli (GPa) = 36.65070 66.93022 33.36464
#
# Poissons Ratio (x) = 0.53629 -0.15575
# Poissons Ratio (y) = 0.29367 0.25847
# Poissons Ratio (z) = -0.17109 0.51849
#
# Static dielectric constant tensor:
#      x y z
#    x 1.581370 0.000000 -0.006640 
#    y 0.000000 1.537930 0.000000 
#    z -0.006640 0.000000 1.644260 
# 
# From -- ./inp_files/259415.got.cif
#   From: 2010.05.17/outbox.cif.g08.bks.cpg/sg12_130_cif.got.tgz:259415.got - 2010.06.03 13:09:07.
