data_PCOD9177655
_publ_section_title
;
Structure prediction by ZEFSAII (Michael W. Deem and Ramdas Pophale) SiO2 
 PCOD9177655
Probable space group: C 2/M
;
_chemical_formula_sum "Si O2"
_cell_formula_units_Z 64
_cell_length_a 25.794706
_cell_length_b 7.310886
_cell_length_c 16.464502
_cell_angle_alpha 90.000000
_cell_angle_beta 115.842480
_cell_angle_gamma 90.000000
_cell_volume 2794.407214
_symmetry_space_group_name_H-M "C 2/M"
_symmetry_group_IT_number 12
_symmetry_cell_setting 'monoclinic'
loop_
_space_group_symop_operation_xyz
x,y,z
-x,y,-z
-x,-y,-z
x,-y,z
1/2+x,1/2+y,z
1/2-x,1/2+y,-z
1/2-x,1/2-y,-z
1/2+x,1/2-y,z
loop_
_atom_site_type_symbol
_atom_site_label
_atom_site_fract_x
_atom_site_fract_y
_atom_site_fract_z
Si Si1 0.237340 0.224587 0.185775
Si Si2 0.335542 0.277633 0.014244
Si Si3 0.141975 0.288945 0.665380
Si Si4 0.446793 0.221780 0.519938
Si Si5 0.587700 0.278616 0.793344
Si Si6 0.363104 0.294405 0.764566
Si Si7 0.560170 0.293393 0.024102
Si Si8 0.539890 0.287736 0.281700
O O1 0.216565 0.282411 0.080538
O O2 0.299721 0.289126 0.256726
O O3 0.192248 0.283306 0.225528
O O4 0.235058 0.000000 0.181987
O O5 0.332001 0.500000 0.013330
O O6 0.392577 0.218512 0.003933
O O7 0.355210 0.218445 0.117391
O O8 0.155556 0.500000 0.656960
O O9 0.111512 0.213579 0.564547
O O10 0.095644 0.281277 0.706336
O O11 0.500000 0.281267 0.500000
O O12 0.453369 0.280184 0.616921
O O13 0.446554 0.000000 0.519243
O O14 0.586639 0.500000 0.794412
O O15 0.524680 0.216040 0.781874
O O16 0.345713 0.500000 0.725779
O O17 0.408124 0.307591 0.869005
O O18 0.402697 0.207985 0.721359
O O19 0.547927 0.500000 0.984120
O O20 0.500000 0.200926 0.000000
O O21 0.539209 0.500000 0.255005
#
# Coordination Sequence:
#
# PCOD9177655 Si02
#       8
#     8   8   8   8   8   8   8   8
#     4   8  15  29  48  67  92 127 162 190 221 269
#     4   8  14  24  39  64  96 125 151 183 224 270
#     4  10  20  34  51  68  88 123 166 199 228 272
#     4  10  20  35  51  67  91 123 160 197 233 276
#     4  10  19  29  45  73 103 124 148 189 238 279
#     4   8  14  25  42  67  95 121 149 186 229 272
#     4   8  11  17  33  57  89 124 151 176 215 268
#     4  10  19  30  49  76 101 120 146 190 242 286
#
# _framework density 22.902889999999999
#
# number of rings (size 3 to 8) (size 9 to 14) (size 15 to 20)
#    0.000    3.000    1.250    2.250    0.000    4.250 
#    0.000    0.625    0.000    0.750    0.000    2.625 
#    0.000    9.000    0.000    0.000    0.000    0.000 
#
# Total GULP energy -178330.838771 kJ/mol
# GULP energy per Si atom -5572.838712 kJ/mol
# Density = 2.285076 g / cm^3
# Si number density = 22.902890 Si / 1000 Ang^3
#
#
#
# Elastic Constant Matrix: (Units=GPa)
#
#
# Indices 1 2 3 4 5 6 
#
# 1 47.7774 -4.7343 38.4531 0.0000 16.0739 0.0000
# 2 -4.7343 91.1354 -3.7056 0.0000 6.3247 0.0000
# 3 38.4531 -3.7056 125.0930 0.0000 15.1885 0.0000
# 4 0.0000 0.0000 0.0000 13.3399 0.0000 -16.8304
# 5 16.0739 6.3247 15.1885 0.0000 42.4680 0.0000
# 6 0.0000 0.0000 0.0000 -16.8304 0.0000 3.6460
#
#
#
# Elastic Compliance Matrix: (Units=1/GPa)
#
#
# Indices 1 2 3 4 5 6 
#
# 1 0.030846 0.001886 -0.008336 0.000000 -0.008974 0.000000
# 2 0.001886 0.011239 0.000045 0.000000 -0.002404 0.000000
# 3 -0.008336 0.000045 0.010638 0.000000 -0.000656 0.000000
# 4 0.000000 0.000000 0.000000 -0.015540 0.000000 -0.071733
# 5 -0.008974 -0.002404 -0.000656 0.000000 0.027536 0.000000
# 6 0.000000 0.000000 0.000000 -0.071733 0.000000 -0.056856
#
#
# Mechanical properties :
#
#
# Convention : Reuss Voigt Hill
#
# Bulk Modulus (GPa) = 25.05471 36.00356 30.52914
# Shear Modulus (GPa) = 147.15479 27.49030 87.32254
#
# Velocity S-wave (km/s) = 8.02441 3.46829 6.18143
# Velocity P-wave (km/s) = 9.83962 5.63852 8.01907
#
# Compressibility (1/GPa) = 0.03991265
#
# Stress axis : x y z
#
# Youngs Moduli (GPa) = 32.41902 88.97324 94.00605
#
# Poissons Ratio (x) = -0.16783 0.78367
# Poissons Ratio (y) = -0.06115 -0.00423
# Poissons Ratio (z) = 0.27026 -0.00400
#
# Static dielectric constant tensor:
#      x y z
#    x 1.905250 0.000000 0.002420 
#    y 0.000000 1.939020 0.000000 
#    z 0.002420 0.000000 1.840260 
# 
# From -- ./inp_files/244150.got.cif
#   From: 2010.05.17/outbox.cif.g08.bks.cpg/sg12_123_cif.got.tgz:244150.got - 2010.06.03 13:09:07.
