data_PCOD9177364
_publ_section_title
;
Structure prediction by ZEFSAII (Michael W. Deem and Ramdas Pophale) SiO2 
 PCOD9177364
Probable space group: C 2/M
;
_chemical_formula_sum "Si O2"
_cell_formula_units_Z 52
_cell_length_a 15.298725
_cell_length_b 14.423080
_cell_length_c 17.056419
_cell_angle_alpha 90.000000
_cell_angle_beta 36.534070
_cell_angle_gamma 90.000000
_cell_volume 2240.461507
_symmetry_space_group_name_H-M "C 2/M"
_symmetry_group_IT_number 12
_symmetry_cell_setting 'monoclinic'
loop_
_space_group_symop_operation_xyz
x,y,z
-x,y,-z
-x,-y,-z
x,-y,z
1/2+x,1/2+y,z
1/2-x,1/2+y,-z
1/2-x,1/2-y,-z
1/2+x,1/2-y,z
loop_
_atom_site_type_symbol
_atom_site_label
_atom_site_fract_x
_atom_site_fract_y
_atom_site_fract_z
Si Si1 0.668762 0.887956 0.488587
Si Si2 0.000000 0.748019 0.500000
Si Si3 0.673818 0.244649 0.869669
Si Si4 0.099228 0.893935 0.553751
Si Si5 0.817078 0.604576 0.997677
Si Si6 0.168678 0.596745 0.749039
Si Si7 0.634273 0.890366 0.209136
O O1 0.621084 0.825010 0.449037
O O2 0.825666 0.865177 0.417394
O O3 0.534310 0.869813 0.647280
O O4 0.668868 0.000000 0.472814
O O5 0.001316 0.821461 0.574276
O O6 0.701368 0.187419 0.772352
O O7 0.765322 0.337276 0.802650
O O8 0.500000 0.261487 0.000000
O O9 0.721186 0.175610 0.906456
O O10 0.241641 0.902425 0.394830
O O11 0.039572 0.000000 0.602898
O O12 0.757388 0.500000 0.052205
O O13 0.794245 0.638488 0.925749
O O14 0.994034 0.595596 0.868250
O O15 0.207962 0.500000 0.763164
O O16 0.647460 0.000000 0.202390
#
# Coordination Sequence:
#
# PCOD9177364 Si02
#       7
#     8   4   8   8   8   8   8
#     4  10  21  38  57  76 103 140 179 214 254 313
#     4  12  22  34  56  86 106 128 170 224 270 308
#     4  10  19  28  45  76 102 123 161 213 251 285
#     4  10  20  36  56  79 109 139 168 209 265 320
#     4   9  16  29  49  70  94 126 164 201 239 287
#     4   9  16  30  50  71  97 128 160 198 246 297
#     4  10  19  33  50  66  93 136 172 198 241 302
#
# _framework density 23.209503000000002
#
# number of rings (size 3 to 8) (size 9 to 14) (size 15 to 20)
#    0.000    2.154    1.538    2.769    0.000    2.154 
#    0.000    0.000    0.000    0.000    0.000    0.000 
#    0.000    0.000    0.000    0.000    0.000    0.000 
#
# Total GULP energy -144912.845684 kJ/mol
# GULP energy per Si atom -5573.570988 kJ/mol
# Density = 2.315668 g / cm^3
# Si number density = 23.209503 Si / 1000 Ang^3
#
#
#
# Elastic Constant Matrix: (Units=GPa)
#
#
# Indices 1 2 3 4 5 6 
#
# 1 110.9032 35.4973 -3.9355 -0.0001 -5.7621 0.0001
# 2 35.4973 38.2229 -6.1848 -0.0001 -4.1597 0.0001
# 3 -3.9355 -6.1848 34.4645 0.0000 6.0099 0.0000
# 4 -0.0001 -0.0001 0.0000 -7.0281 0.0000 9.7844
# 5 -5.7621 -4.1597 6.0099 0.0000 32.5219 0.0000
# 6 0.0001 0.0001 0.0000 9.7844 0.0000 32.5482
#
#
#
# Elastic Compliance Matrix: (Units=1/GPa)
#
#
# Indices 1 2 3 4 5 6 
#
# 1 0.012872 -0.011992 -0.000839 0.000000 0.000902 0.000000
# 2 -0.011992 0.038338 0.005193 0.000000 0.001819 0.000000
# 3 -0.000839 0.005193 0.030753 0.000000 -0.005167 0.000000
# 4 0.000000 0.000000 0.000000 -0.100307 0.000000 0.030153
# 5 0.000902 0.001819 -0.005167 0.000000 0.032096 0.000000
# 6 0.000000 0.000000 0.000000 0.030153 0.000000 0.021659
#
#
# Mechanical properties :
#
#
# Convention : Reuss Voigt Hill
#
# Bulk Modulus (GPa) = 14.99567 26.03829 20.51698
# Shear Modulus (GPa) = 68.57236 22.15597 45.36416
#
# Velocity S-wave (km/s) = 5.44142 3.09302 4.42583
# Velocity P-wave (km/s) = 6.77892 4.89887 5.91408
#
# Compressibility (1/GPa) = 0.06668591
#
# Stress axis : x y z
#
# Youngs Moduli (GPa) = 77.68626 26.08409 32.51759
#
# Poissons Ratio (x) = 0.31280 0.02730
# Poissons Ratio (y) = 0.93162 -0.16887
# Poissons Ratio (z) = 0.06521 -0.13546
#
# Static dielectric constant tensor:
#      x y z
#    x 1.948970 0.000000 0.000110 
#    y 0.000000 1.880810 0.000000 
#    z 0.000110 0.000000 1.889880 
# 
# From -- ./inp_files/270576.got.cif
#   From: 2010.05.17/outbox.cif.g08.bks.cpg/sg12_136_cif.got.tgz:270576.got - 2010.06.03 13:09:07.
