data_PCOD9177029
_publ_section_title
;
Structure prediction by ZEFSAII (Michael W. Deem and Ramdas Pophale) SiO2 
 PCOD9177029
Probable space group: C 2/M
;
_chemical_formula_sum "Si O2"
_cell_formula_units_Z 46
_cell_length_a 10.382128
_cell_length_b 29.054249
_cell_length_c 9.371586
_cell_angle_alpha 90.000000
_cell_angle_beta 117.653105
_cell_angle_gamma 90.000000
_cell_volume 2503.986327
_symmetry_space_group_name_H-M "C 2/M"
_symmetry_group_IT_number 12
_symmetry_cell_setting 'monoclinic'
loop_
_space_group_symop_operation_xyz
x,y,z
-x,y,-z
-x,-y,-z
x,-y,z
1/2+x,1/2+y,z
1/2-x,1/2+y,-z
1/2-x,1/2-y,-z
1/2+x,1/2-y,z
loop_
_atom_site_type_symbol
_atom_site_label
_atom_site_fract_x
_atom_site_fract_y
_atom_site_fract_z
Si Si1 0.864108 0.375508 0.336800
Si Si2 0.565353 0.892950 0.179915
Si Si3 0.000000 0.165243 0.500000
Si Si4 0.814003 0.082837 0.516008
Si Si5 0.000000 0.000000 0.500000
Si Si6 0.834626 0.802054 0.903364
Si Si7 0.764836 0.300990 0.820151
O O1 0.780731 0.413080 0.389351
O O2 0.756618 0.334575 0.245234
O O3 0.000000 0.358303 0.500000
O O4 0.936294 0.392477 0.228078
O O5 0.701045 0.918406 0.324230
O O6 0.627645 0.841466 0.177851
O O7 0.500000 0.912077 0.000000
O O8 0.095676 0.130347 0.452939
O O9 0.114586 0.193532 0.654282
O O10 0.920797 0.040473 0.555747
O O11 0.829485 0.750045 0.841013
O O12 0.767439 0.805620 0.027766
O O13 0.000000 0.817483 0.000000
#
# Coordination Sequence:
#
# PCOD9177029 Si02
#       7
#     8   8   4   8   2   8   8
#     4  10  21  37  57  88 119 154 203 245 295 352
#     4  10  18  37  58  83 119 161 193 238 291 352
#     4   9  18  37  56  82 116 150 210 241 294 365
#     4   9  20  37  64  91 108 149 190 236 306 362
#     4  10  20  44  72  86 122 140 180 246 300 374
#     4  11  22  33  51  81 121 159 212 257 288 331
#     4  10  21  33  52  80 116 165 211 248 292 333
#
# _framework density 18.370708
#
# number of rings (size 3 to 8) (size 9 to 14) (size 15 to 20)
#    0.000    2.087    1.739    1.565    3.652    0.000 
#    0.000    7.826    0.000    1.043    0.000    0.000 
#    0.000    0.000    0.000    0.000    0.000    0.000 
#
# Total GULP energy -128034.347420 kJ/mol
# GULP energy per Si atom -5566.710757 kJ/mol
# Density = 1.832890 g / cm^3
# Si number density = 18.370708 Si / 1000 Ang^3
#
#
#
# Elastic Constant Matrix: (Units=GPa)
#
#
# Indices 1 2 3 4 5 6 
#
# 1 96.2072 14.4958 30.6425 0.0000 -6.5974 0.0000
# 2 14.4958 43.0146 19.2212 0.0000 -2.3327 0.0000
# 3 30.6425 19.2212 86.5938 0.0000 -6.1266 0.0000
# 4 0.0000 0.0000 0.0000 -1.2588 0.0000 -7.3808
# 5 -6.5974 -2.3327 -6.1266 0.0000 31.1383 0.0000
# 6 0.0000 0.0000 0.0000 -7.3808 0.0000 6.3315
#
#
#
# Elastic Compliance Matrix: (Units=1/GPa)
#
#
# Indices 1 2 3 4 5 6 
#
# 1 0.012012 -0.002344 -0.003613 0.000000 0.001659 0.000000
# 2 -0.002344 0.026285 -0.004970 0.000000 0.000495 0.000000
# 3 -0.003613 -0.004970 0.014045 0.000000 0.001626 0.000000
# 4 0.000000 0.000000 0.000000 -0.101392 0.000000 -0.118194
# 5 0.001659 0.000495 0.001626 0.000000 0.032823 0.000000
# 6 0.000000 0.000000 0.000000 -0.118194 0.000000 0.020157
#
#
# Mechanical properties :
#
#
# Convention : Reuss Voigt Hill
#
# Bulk Modulus (GPa) = 32.79912 39.39271 36.09591
# Shear Modulus (GPa) = 139.09039 18.00596 78.54818
#
# Velocity S-wave (km/s) = 8.71077 3.13412 6.54600
# Velocity P-wave (km/s) = 10.91159 5.88105 8.76497
#
# Compressibility (1/GPa) = 0.03048863
#
# Stress axis : x y z
#
# Youngs Moduli (GPa) = 83.25125 38.04380 71.19998
#
# Poissons Ratio (x) = 0.08916 0.25725
# Poissons Ratio (y) = 0.19510 0.35388
# Poissons Ratio (z) = 0.30079 0.18909
#
# Static dielectric constant tensor:
#      x y z
#    x 1.667090 0.000000 -0.004810 
#    y 0.000000 1.581230 0.000000 
#    z -0.004810 0.000000 1.661840 
# 
# From -- ./inp_files/52810.got.cif
#   From: 2010.05.17/outbox.cif.g08.bks.cpg/sg12_27_cif.got.tgz:52810.got - 2010.06.03 13:09:07.
