data_PCOD9177890
_publ_section_title
;
Structure prediction by ZEFSAII (Michael W. Deem and Ramdas Pophale) SiO2 
 PCOD9177890
Probable space group: C 2/M
;
_chemical_formula_sum "Si O2"
_cell_formula_units_Z 56
_cell_length_a 27.579419
_cell_length_b 8.911933
_cell_length_c 17.889371
_cell_angle_alpha 90.000000
_cell_angle_beta 53.890415
_cell_angle_gamma 90.000000
_cell_volume 3552.262336
_symmetry_space_group_name_H-M "C 2/M"
_symmetry_group_IT_number 12
_symmetry_cell_setting 'monoclinic'
loop_
_space_group_symop_operation_xyz
x,y,z
-x,y,-z
-x,-y,-z
x,-y,z
1/2+x,1/2+y,z
1/2-x,1/2+y,-z
1/2-x,1/2-y,-z
1/2+x,1/2-y,z
loop_
_atom_site_type_symbol
_atom_site_label
_atom_site_fract_x
_atom_site_fract_y
_atom_site_fract_z
Si Si1 0.655539 0.321505 0.107954
Si Si2 0.040435 0.678025 0.279420
Si Si3 0.098555 0.678735 0.388797
Si Si4 0.229782 0.820022 0.282128
Si Si5 0.714743 0.679919 0.463451
Si Si6 0.762955 0.821813 0.106311
Si Si7 0.424013 0.679883 0.435593
O O1 0.653253 0.500000 0.123277
O O2 0.590947 0.249154 0.180561
O O3 0.704124 0.249200 0.120368
O O4 0.682646 0.295405 0.000740
O O5 0.035996 0.500000 0.271602
O O6 0.064886 0.703799 0.341624
O O7 0.975518 0.754924 0.335802
O O8 0.104576 0.500000 0.394143
O O9 0.163510 0.755829 0.325762
O O10 0.067626 0.749841 0.489505
O O11 0.241679 0.777652 0.357620
O O12 0.270918 0.750911 0.180242
O O13 0.228955 0.000000 0.277670
O O14 0.717533 0.500000 0.466090
O O15 0.750000 0.750000 0.500000
O O16 0.643973 0.720972 0.526601
O O17 0.753528 0.000000 0.122009
O O18 0.427872 0.500000 0.436530
#
# Coordination Sequence:
#
# PCOD9177890 Si02
#       7
#     8   8   8   8   8   8   8
#     4  10  20  31  46  66  96 134 169 205 240 276
#     4  11  21  31  45  68  97 130 169 201 234 281
#     4  10  19  30  44  66  96 128 165 201 231 276
#     4  10  19  31  49  72  98 129 164 199 243 291
#     4   9  20  36  53  75  97 122 157 198 244 294
#     4  10  19  31  46  69  96 129 170 205 240 281
#     4  10  21  34  48  68  95 126 162 197 240 293
#
# _framework density 15.764602
#
# number of rings (size 3 to 8) (size 9 to 14) (size 15 to 20)
#    0.000    2.000    1.429    3.857    0.000    8.571 
#    0.000    0.000    0.000    0.000    0.000    1.000 
#    0.000    8.000    0.000    0.000    0.000    0.000 
#
# Total GULP energy -156221.138583 kJ/mol
# GULP energy per Si atom -5579.326378 kJ/mol
# Density = 1.572872 g / cm^3
# Si number density = 15.764602 Si / 1000 Ang^3
#
#
#
# Elastic Constant Matrix: (Units=GPa)
#
#
# Indices 1 2 3 4 5 6 
#
# 1 60.3194 39.7526 51.1517 0.0000 12.2843 -0.0001
# 2 39.7526 63.1054 59.1604 0.0000 5.4076 -0.0002
# 3 51.1517 59.1604 133.2948 0.0000 0.7957 0.0000
# 4 0.0000 0.0000 0.0000 30.7218 0.0000 0.6850
# 5 12.2843 5.4076 0.7957 0.0000 17.8923 0.0000
# 6 -0.0001 -0.0002 0.0000 0.6850 0.0000 20.8048
#
#
#
# Elastic Compliance Matrix: (Units=1/GPa)
#
#
# Indices 1 2 3 4 5 6 
#
# 1 0.036502 -0.014082 -0.007635 0.000000 -0.020465 0.000000
# 2 -0.014082 0.033666 -0.009537 0.000000 -0.000082 0.000000
# 3 -0.007635 -0.009537 0.014620 0.000000 0.007474 0.000000
# 4 0.000000 0.000000 0.000000 0.032574 0.000000 -0.001073
# 5 -0.020465 -0.000082 0.007474 0.000000 0.069633 0.000000
# 6 0.000000 0.000000 0.000000 -0.001073 0.000000 0.048101
#
#
# Mechanical properties :
#
#
# Convention : Reuss Voigt Hill
#
# Bulk Modulus (GPa) = 44.88681 61.87211 53.37946
# Shear Modulus (GPa) = 16.39175 20.99413 18.69294
#
# Velocity S-wave (km/s) = 3.22806 3.65324 3.44721
# Velocity P-wave (km/s) = 6.51374 7.55828 7.05537
#
# Compressibility (1/GPa) = 0.02227826
#
# Stress axis : x y z
#
# Youngs Moduli (GPa) = 27.39599 29.70393 68.39742
#
# Poissons Ratio (x) = 0.41830 0.52222
# Poissons Ratio (y) = 0.38580 0.65232
# Poissons Ratio (z) = 0.20917 0.28329
#
# Static dielectric constant tensor:
#      x y z
#    x 1.498500 0.000000 -0.003720 
#    y 0.000000 1.523860 0.000000 
#    z -0.003720 0.000000 1.568960 
# 
# From -- ./inp_files/291805.got.cif
#   From: 2010.05.17/outbox.cif.g08.bks.cpg/sg12_146_cif.got.tgz:291805.got - 2010.06.03 13:09:07.
