data_PCOD9177271
_publ_section_title
;
Structure prediction by ZEFSAII (Michael W. Deem and Ramdas Pophale) SiO2 
 PCOD9177271
Probable space group: C 2/M
;
_chemical_formula_sum "Si O2"
_cell_formula_units_Z 60
_cell_length_a 16.988421
_cell_length_b 29.701873
_cell_length_c 5.529348
_cell_angle_alpha 90.000000
_cell_angle_beta 108.994479
_cell_angle_gamma 90.000000
_cell_volume 2638.124264
_symmetry_space_group_name_H-M "C 2/M"
_symmetry_group_IT_number 12
_symmetry_cell_setting 'monoclinic'
loop_
_space_group_symop_operation_xyz
x,y,z
-x,y,-z
-x,-y,-z
x,-y,z
1/2+x,1/2+y,z
1/2-x,1/2+y,-z
1/2-x,1/2-y,-z
1/2+x,1/2-y,z
loop_
_atom_site_type_symbol
_atom_site_label
_atom_site_fract_x
_atom_site_fract_y
_atom_site_fract_z
Si Si1 0.947230 0.000000 0.197230
Si Si2 0.676615 0.583739 0.926615
Si Si3 0.036892 0.183731 0.286892
Si Si4 0.195943 0.135790 0.445942
Si Si5 0.603071 0.125856 0.353072
Si Si6 0.675164 0.214148 0.925164
Si Si7 0.353325 0.106236 0.103324
Si Si8 0.921541 0.278561 0.671540
O O1 0.887700 0.043414 0.137700
O O2 0.000000 0.000000 0.500000
O O3 0.000000 0.000000 0.000000
O O4 0.668895 0.610508 0.665080
O O5 0.775105 0.572793 0.025104
O O6 0.668895 0.610509 0.172709
O O7 0.137200 0.179547 0.387200
O O8 0.017256 0.236631 0.267256
O O9 0.000000 0.164439 0.500000
O O10 0.000000 0.164439 0.000000
O O11 0.296169 0.139791 0.546168
O O12 0.596429 0.101182 0.092779
O O13 0.545978 0.170267 0.295978
O O14 0.596428 0.101182 0.600079
O O15 0.629625 0.223674 0.627218
O O16 0.750000 0.250000 0.000000
O O17 0.682965 0.158832 0.932966
O O18 0.629625 0.223674 0.132034
#
# Coordination Sequence:
#
# PCOD9177271 Si02
#       8
#     4   8   8   8   8   8   8   8
#     4  12  26  40  56  70  86 120 174 210 240 286
#     4  10  21  37  53  70  88 113 143 205 256 296
#     4  12  26  37  45  64  94 136 168 189 232 292
#     4  10  21  35  56  70  93 110 150 204 259 300
#     4   8  16  30  48  74  83 110 139 191 249 280
#     4  10  19  27  50  75  92 111 138 185 246 295
#     4   8  16  28  45  70  94 104 131 172 243 304
#     4  10  21  32  47  65  95 116 151 195 227 281
#
# _framework density 22.743433
#
# number of rings (size 3 to 8) (size 9 to 14) (size 15 to 20)
#    0.000    2.133    0.000    2.800   11.200    3.200 
#    0.000    0.000    0.000    0.000    0.000    0.000 
#    0.000    0.000    0.000    0.000    0.000    0.000 
#
# Total GULP energy -167328.992865 kJ/mol
# GULP energy per Si atom -5577.633095 kJ/mol
# Density = 2.269167 g / cm^3
# Si number density = 22.743433 Si / 1000 Ang^3
#
#
#
# Elastic Constant Matrix: (Units=GPa)
#
#
# Indices 1 2 3 4 5 6 
#
# 1 92.6404 29.8258 49.4254 0.0000 -1.4856 0.0000
# 2 29.8258 44.2020 29.5587 0.0000 0.0682 0.0000
# 3 49.4254 29.5587 244.1916 0.0000 -37.2365 0.0000
# 4 0.0000 0.0000 0.0000 23.8776 0.0000 3.4677
# 5 -1.4856 0.0682 -37.2365 0.0000 33.6491 0.0000
# 6 0.0000 0.0000 0.0000 3.4677 0.0000 37.4499
#
#
#
# Elastic Compliance Matrix: (Units=1/GPa)
#
#
# Indices 1 2 3 4 5 6 
#
# 1 0.014656 -0.008400 -0.002224 0.000000 -0.001797 0.000000
# 2 -0.008400 0.029892 -0.002387 0.000000 -0.003073 0.000000
# 3 -0.002224 -0.002387 0.005798 0.000000 0.006323 0.000000
# 4 0.000000 0.000000 0.000000 0.042451 0.000000 -0.003931
# 5 -0.001797 -0.003073 0.006323 0.000000 0.036643 0.000000
# 6 0.000000 0.000000 0.000000 -0.003931 0.000000 0.027066
#
#
# Mechanical properties :
#
#
# Convention : Reuss Voigt Hill
#
# Bulk Modulus (GPa) = 41.10773 66.51709 53.81241
# Shear Modulus (GPa) = 26.22800 37.14359 31.68580
#
# Velocity S-wave (km/s) = 3.39958 4.04562 3.73659
# Velocity P-wave (km/s) = 5.78993 7.15073 6.50601
#
# Compressibility (1/GPa) = 0.02432633
#
# Stress axis : x y z
#
# Youngs Moduli (GPa) = 68.23000 33.45378 172.46264
#
# Poissons Ratio (x) = 0.28100 0.38351
# Poissons Ratio (y) = 0.57311 0.41162
# Poissons Ratio (z) = 0.15172 0.07985
#
# Static dielectric constant tensor:
#      x y z
#    x 1.938800 0.000000 0.013260 
#    y 0.000000 1.834840 0.000000 
#    z 0.013260 0.000000 1.886910 
# 
# From -- ./inp_files/22337.got.cif
#   From: 2010.05.17/outbox.cif.g08.bks.cpg/sg12_12_cif.got.tgz:22337.got - 2010.06.03 13:09:07.
