data_PCOD9177649
_publ_section_title
;
Structure prediction by ZEFSAII (Michael W. Deem and Ramdas Pophale) SiO2 
 PCOD9177649
Probable space group: C 2/M
;
_chemical_formula_sum "Si O2"
_cell_formula_units_Z 58
_cell_length_a 27.240062
_cell_length_b 8.873274
_cell_length_c 15.909539
_cell_angle_alpha 90.000000
_cell_angle_beta 117.012821
_cell_angle_gamma 90.000000
_cell_volume 3425.949316
_symmetry_space_group_name_H-M "C 2/M"
_symmetry_group_IT_number 12
_symmetry_cell_setting 'monoclinic'
loop_
_space_group_symop_operation_xyz
x,y,z
-x,y,-z
-x,-y,-z
x,-y,z
1/2+x,1/2+y,z
1/2-x,1/2+y,-z
1/2-x,1/2-y,-z
1/2+x,1/2-y,z
loop_
_atom_site_type_symbol
_atom_site_label
_atom_site_fract_x
_atom_site_fract_y
_atom_site_fract_z
Si Si1 0.560781 0.672877 0.969264
Si Si2 0.500000 0.500000 0.500000
Si Si3 0.728725 0.820162 0.184598
Si Si4 0.978023 0.321996 0.782550
Si Si5 0.822250 0.174073 0.022219
Si Si6 0.950978 0.834252 0.304729
Si Si7 0.615878 0.181067 0.175043
Si Si8 0.333562 0.179018 0.209785
O O1 0.541842 0.500000 0.961564
O O2 0.515113 0.777560 0.892011
O O3 0.612872 0.674861 0.947526
O O4 0.584226 0.733750 0.075340
O O5 0.478785 0.371218 0.415448
O O6 0.680766 0.783331 0.215098
O O7 0.788654 0.745758 0.239703
O O8 0.734698 0.000000 0.185290
O O9 0.704441 0.757948 0.077768
O O10 0.981379 0.500000 0.770212
O O11 0.005013 0.236585 0.725184
O O12 0.915753 0.282659 0.762987
O O13 0.815246 0.259292 0.104027
O O14 0.803360 0.000000 0.012093
O O15 0.895634 0.737499 0.271218
O O16 0.933880 0.000000 0.257050
O O17 0.610306 0.000000 0.157422
O O18 0.331905 0.000000 0.209338
#
# Coordination Sequence:
#
# PCOD9177649 Si02
#       8
#     8   2   8   8   8   8   8   8
#     4  10  19  29  45  71 107 154 198 236 262 304
#     4   8  24  44  66  84 114 124 170 224 298 362
#     4  10  20  34  49  70 110 158 198 229 262 300
#     4  11  20  32  53  80 109 143 186 227 273 327
#     4  10  19  31  46  70 108 154 195 238 265 305
#     4  10  21  40  61  84 106 134 171 221 284 350
#     4   9  20  34  47  70 112 156 196 228 265 301
#     4  12  22  33  53  80 108 142 186 228 274 327
#
# _framework density 16.929614000000001
#
# number of rings (size 3 to 8) (size 9 to 14) (size 15 to 20)
#    0.414    1.379    1.379    4.138    0.000    4.414 
#    0.000    1.379    0.000    0.000    0.000    0.966 
#    0.000    0.000    0.000    0.000    0.000    0.000 
#
# Total GULP energy -161445.466612 kJ/mol
# GULP energy per Si atom -5567.085056 kJ/mol
# Density = 1.689108 g / cm^3
# Si number density = 16.929614 Si / 1000 Ang^3
#
#
#
# Elastic Constant Matrix: (Units=GPa)
#
#
# Indices 1 2 3 4 5 6 
#
# 1 146.8092 54.8833 40.7175 0.0000 -18.7978 0.0000
# 2 54.8833 94.2889 18.8014 0.0000 -7.1785 0.0000
# 3 40.7175 18.8014 33.3568 0.0000 -3.6889 0.0000
# 4 0.0000 0.0000 0.0000 12.6567 0.0000 -0.4030
# 5 -18.7978 -7.1785 -3.6889 0.0000 5.1483 0.0000
# 6 0.0000 0.0000 0.0000 -0.4030 0.0000 23.9140
#
#
#
# Elastic Compliance Matrix: (Units=1/GPa)
#
#
# Indices 1 2 3 4 5 6 
#
# 1 0.019804 -0.004192 -0.015705 0.000000 0.055211 0.000000
# 2 -0.004192 0.013674 -0.002361 0.000000 0.002067 0.000000
# 3 -0.015705 -0.002361 0.047542 0.000000 -0.026572 0.000000
# 4 0.000000 0.000000 0.000000 0.079052 0.000000 0.001332
# 5 0.055211 0.002067 -0.026572 0.000000 0.379677 0.000000
# 6 0.000000 0.000000 0.000000 0.001332 0.000000 0.041839
#
#
# Mechanical properties :
#
#
# Convention : Reuss Voigt Hill
#
# Bulk Modulus (GPa) = 27.39537 55.91770 41.65653
# Shear Modulus (GPa) = 7.83363 19.01397 13.42380
#
# Velocity S-wave (km/s) = 2.15342 3.35493 2.81894
# Velocity P-wave (km/s) = 4.73286 6.93604 5.93754
#
# Compressibility (1/GPa) = 0.03650252
#
# Stress axis : x y z
#
# Youngs Moduli (GPa) = 50.49451 73.13034 21.03388
#
# Poissons Ratio (x) = 0.30659 0.33035
# Poissons Ratio (y) = 0.21169 0.04967
# Poissons Ratio (z) = 0.79304 0.17268
#
# Static dielectric constant tensor:
#      x y z
#    x 1.656020 0.000000 -0.019120 
#    y 0.000000 1.572670 0.000000 
#    z -0.019120 0.000000 1.524730 
# 
# From -- ./inp_files/243222.got.cif
#   From: 2010.05.17/outbox.cif.g08.bks.cpg/sg12_122_cif.got.tgz:243222.got - 2010.06.03 13:09:07.
