data_PCOD9177295
_publ_section_title
;
Structure prediction by ZEFSAII (Michael W. Deem and Ramdas Pophale) SiO2 
 PCOD9177295
Probable space group: C 2/M
;
_chemical_formula_sum "Si O2"
_cell_formula_units_Z 64
_cell_length_a 28.505658
_cell_length_b 18.688414
_cell_length_c 32.470407
_cell_angle_alpha 90.000000
_cell_angle_beta 164.790640
_cell_angle_gamma 90.000000
_cell_volume 4538.026820
_symmetry_space_group_name_H-M "C 2/M"
_symmetry_group_IT_number 12
_symmetry_cell_setting 'monoclinic'
loop_
_space_group_symop_operation_xyz
x,y,z
-x,y,-z
-x,-y,-z
x,-y,z
1/2+x,1/2+y,z
1/2-x,1/2+y,-z
1/2-x,1/2-y,-z
1/2+x,1/2-y,z
loop_
_atom_site_type_symbol
_atom_site_label
_atom_site_fract_x
_atom_site_fract_y
_atom_site_fract_z
Si Si1 0.520942 0.798516 0.721123
Si Si2 0.636029 0.659530 0.782784
Si Si3 0.055786 0.416663 0.814389
Si Si4 0.466303 0.084665 0.019406
Si Si5 0.321211 0.415326 0.374311
Si Si6 0.321537 0.701489 0.621383
Si Si7 0.090016 0.083328 0.831436
Si Si8 0.723029 0.340465 0.576296
O O1 0.653691 0.742296 0.812108
O O2 0.592505 0.866841 0.805960
O O3 0.422120 0.750010 0.672137
O O4 0.367379 0.820048 0.558713
O O5 0.607613 0.612182 0.799748
O O6 0.456640 0.655273 0.603313
O O7 0.804847 0.630127 0.901225
O O8 0.036396 0.500000 0.787348
O O9 0.876231 0.387801 0.684123
O O10 0.219189 0.408992 0.984629
O O11 0.646658 0.096294 0.198311
O O12 0.420728 0.000000 0.983900
O O13 0.500000 0.100587 0.000000
O O14 0.500000 0.399415 0.500000
O O15 0.326459 0.500000 0.389625
O O16 0.309677 0.369874 0.406036
O O17 0.446174 0.633157 0.732745
O O18 0.287241 0.757685 0.628856
O O19 0.039979 0.000000 0.789063
#
# Coordination Sequence:
#
# PCOD9177295 Si02
#       8
#     8   8   8   8   8   8   8   8
#     4   8  16  29  42  58  80 107 139 172 206 245
#     4  10  19  30  44  61  82 110 143 175 208 247
#     4  10  19  28  40  61  86 111 141 174 207 246
#     4  10  20  32  45  62  84 110 141 175 209 244
#     4  10  20  32  45  62  84 110 141 175 209 244
#     4   8  16  29  42  58  80 107 139 172 206 245
#     4  10  19  28  40  61  86 111 141 174 207 246
#     4  10  19  30  44  61  82 110 143 175 208 247
#
# _framework density 14.103046000000001
#
# number of rings (size 3 to 8) (size 9 to 14) (size 15 to 20)
#    0.000    2.500    0.000    4.500    0.000   12.000 
#    0.000    0.000    0.000    0.000    0.000    0.000 
#    0.000    1.000    0.000    3.250    0.000    4.750 
#
# Total GULP energy -178343.821184 kJ/mol
# GULP energy per Si atom -5573.244412 kJ/mol
# Density = 1.407095 g / cm^3
# Si number density = 14.103046 Si / 1000 Ang^3
#
#
#
# Elastic Constant Matrix: (Units=GPa)
#
#
# Indices 1 2 3 4 5 6 
#
# 1 95.3321 63.9563 45.7533 -0.0069 0.2591 0.0030
# 2 63.9563 104.0149 60.8019 -0.0128 0.8751 -0.0044
# 3 45.7533 60.8019 70.0916 -0.0223 6.8664 -0.0068
# 4 -0.0069 -0.0128 -0.0223 24.7268 -0.0083 1.0012
# 5 0.2591 0.8751 6.8664 -0.0083 22.3863 0.0030
# 6 0.0030 -0.0044 -0.0068 1.0012 0.0030 28.2822
#
#
#
# Elastic Compliance Matrix: (Units=1/GPa)
#
#
# Indices 1 2 3 4 5 6 
#
# 1 0.018579 -0.008636 -0.004793 -0.000003 0.001592 -0.000005
# 2 -0.008636 0.023981 -0.015551 -0.000003 0.003932 0.000001
# 3 -0.004793 -0.015551 0.031775 0.000016 -0.009083 0.000006
# 4 -0.000003 -0.000003 0.000016 0.040500 0.000010 -0.001434
# 5 0.001592 0.003932 -0.009083 0.000010 0.047284 -0.000007
# 6 -0.000005 0.000001 0.000006 -0.001434 -0.000007 0.035409
#
#
# Mechanical properties :
#
#
# Convention : Reuss Voigt Hill
#
# Bulk Modulus (GPa) = 61.06174 67.82907 64.44540
# Shear Modulus (GPa) = 19.16115 21.67419 20.41767
#
# Velocity S-wave (km/s) = 3.68999 3.92451 3.80906
# Velocity P-wave (km/s) = 7.84510 8.29069 8.07097
#
# Compressibility (1/GPa) = 0.01637687
#
# Stress axis : x y z
#
# Youngs Moduli (GPa) = 53.82448 41.69967 31.47128
#
# Poissons Ratio (x) = 0.36010 0.15083
# Poissons Ratio (y) = 0.46481 0.48940
# Poissons Ratio (z) = 0.25796 0.64846
#
# Static dielectric constant tensor:
#      x y z
#    x 1.447870 0.000000 -0.006040 
#    y 0.000000 1.467280 -0.000010 
#    z -0.006040 -0.000010 1.469150 
# 
# From -- ./inp_files/368278.got.cif
#   From: 2010.05.17/outbox.cif.g08.bks.cpg/sg12_185_cif.got.tgz:368278.got - 2010.06.03 13:09:07.
