data_PCOD9177412
_publ_section_title
;
Structure prediction by ZEFSAII (Michael W. Deem and Ramdas Pophale) SiO2 
 PCOD9177412
Probable space group: C 2/M
;
_chemical_formula_sum "Si O2"
_cell_formula_units_Z 64
_cell_length_a 28.064474
_cell_length_b 8.611286
_cell_length_c 20.356907
_cell_angle_alpha 90.000000
_cell_angle_beta 59.012747
_cell_angle_gamma 90.000000
_cell_volume 4217.551057
_symmetry_space_group_name_H-M "C 2/M"
_symmetry_group_IT_number 12
_symmetry_cell_setting 'monoclinic'
loop_
_space_group_symop_operation_xyz
x,y,z
-x,y,-z
-x,-y,-z
x,-y,z
1/2+x,1/2+y,z
1/2-x,1/2+y,-z
1/2-x,1/2-y,-z
1/2+x,1/2-y,z
loop_
_atom_site_type_symbol
_atom_site_label
_atom_site_fract_x
_atom_site_fract_y
_atom_site_fract_z
Si Si1 0.915238 0.184972 0.090783
Si Si2 0.415420 0.314909 0.939444
Si Si3 0.207734 0.314556 0.976563
Si Si4 0.208283 0.688246 0.827170
Si Si5 0.745171 0.811718 0.663360
Si Si6 0.527365 0.815253 0.822360
Si Si7 0.366796 0.187472 0.335325
Si Si8 0.194575 0.813425 0.503777
O O1 0.851236 0.234369 0.143810
O O2 0.949630 0.270610 0.122127
O O3 0.922504 0.000000 0.093335
O O4 0.929394 0.226940 0.005563
O O5 0.411007 0.500000 0.939471
O O6 0.466427 0.257523 0.859274
O O7 0.355172 0.243928 0.967352
O O8 0.207855 0.500000 0.979257
O O9 0.224557 0.268146 0.889837
O O10 0.250000 0.250000 0.000000
O O11 0.201702 0.500000 0.830400
O O12 0.246760 0.734526 0.738391
O O13 0.685979 0.762675 0.672719
O O14 0.794985 0.764329 0.579231
O O15 0.744486 0.000000 0.662651
O O16 0.575215 0.760868 0.737802
O O17 0.522939 0.000000 0.820190
O O18 0.355117 0.247445 0.416994
O O19 0.366036 0.000000 0.336334
O O20 0.250000 0.750000 0.500000
O O21 0.193627 0.000000 0.507705
#
# Coordination Sequence:
#
# PCOD9177412 Si02
#       8
#     8   8   8   8   8   8   8   8
#     4  10  19  29  41  61  89 117 146 185 225 256
#     4  10  21  34  46  64  89 113 145 187 225 264
#     4  10  20  34  53  70  88 115 145 180 225 271
#     4   9  16  29  47  65  85 116 152 181 218 265
#     4   8  13  25  41  58  82 111 147 186 215 247
#     4  11  20  30  44  61  86 120 156 187 216 259
#     4   9  17  28  40  56  83 118 152 186 216 250
#     4   9  16  25  38  56  81 113 148 185 219 254
#
# _framework density 15.174682000000001
#
# number of rings (size 3 to 8) (size 9 to 14) (size 15 to 20)
#    0.000    2.500    1.250    3.000    0.000    4.500 
#    0.000    0.625    0.000    0.000    0.000    0.000 
#    0.000    1.000    0.000   11.500    0.000    2.875 
#
# Total GULP energy -178230.001671 kJ/mol
# GULP energy per Si atom -5569.687552 kJ/mol
# Density = 1.514014 g / cm^3
# Si number density = 15.174682 Si / 1000 Ang^3
#
#
#
# Elastic Constant Matrix: (Units=GPa)
#
#
# Indices 1 2 3 4 5 6 
#
# 1 59.2337 16.6686 63.3747 0.0001 2.2192 -0.0002
# 2 16.6686 19.0408 28.5328 0.0001 -2.8641 -0.0006
# 3 63.3747 28.5328 140.6331 0.0000 -7.9601 0.0000
# 4 0.0001 0.0001 0.0000 20.6034 0.0000 -1.5073
# 5 2.2192 -2.8641 -7.9601 0.0000 13.1734 0.0000
# 6 -0.0002 -0.0006 0.0000 -1.5073 0.0000 19.9774
#
#
#
# Elastic Compliance Matrix: (Units=1/GPa)
#
#
# Indices 1 2 3 4 5 6 
#
# 1 0.037646 -0.012561 -0.015459 0.000000 -0.018414 0.000000
# 2 -0.012561 0.080357 -0.009872 0.000000 0.013622 0.000002
# 3 -0.015459 -0.009872 0.016676 0.000000 0.010534 0.000000
# 4 0.000000 0.000000 0.000000 0.048805 0.000000 0.003682
# 5 -0.018414 0.013622 0.010534 0.000000 0.088340 0.000000
# 6 0.000000 0.000002 0.000000 0.003682 0.000000 0.050334
#
#
# Mechanical properties :
#
#
# Convention : Reuss Voigt Hill
#
# Bulk Modulus (GPa) = 16.97900 48.45109 32.71505
# Shear Modulus (GPa) = 11.97390 18.10626 15.04008
#
# Velocity S-wave (km/s) = 2.81209 3.45800 3.15164
# Velocity P-wave (km/s) = 4.66445 6.92401 5.90335
#
# Compressibility (1/GPa) = 0.05889627
#
# Stress axis : x y z
#
# Youngs Moduli (GPa) = 26.56308 12.44441 59.96600
#
# Poissons Ratio (x) = 0.15632 0.92699
# Poissons Ratio (y) = 0.33366 0.59198
# Poissons Ratio (z) = 0.41063 0.12285
#
# Static dielectric constant tensor:
#      x y z
#    x 1.468250 0.000000 0.002100 
#    y 0.000000 1.510110 0.000000 
#    z 0.002100 0.000000 1.563810 
# 
# From -- ./inp_files/323664.got.cif
#   From: 2010.05.17/outbox.cif.g08.bks.cpg/sg12_162_cif.got.tgz:323664.got - 2010.06.03 13:09:07.
