data_PCOD9177272
_publ_section_title
;
Structure prediction by ZEFSAII (Michael W. Deem and Ramdas Pophale) SiO2 
 PCOD9177272
Probable space group: C 2/M
;
_chemical_formula_sum "Si O2"
_cell_formula_units_Z 34
_cell_length_a 15.151799
_cell_length_b 16.150464
_cell_length_c 12.116730
_cell_angle_alpha 90.000000
_cell_angle_beta 152.834623
_cell_angle_gamma 90.000000
_cell_volume 1353.732509
_symmetry_space_group_name_H-M "C 2/M"
_symmetry_group_IT_number 12
_symmetry_cell_setting 'monoclinic'
loop_
_space_group_symop_operation_xyz
x,y,z
-x,y,-z
-x,-y,-z
x,-y,z
1/2+x,1/2+y,z
1/2-x,1/2+y,-z
1/2-x,1/2-y,-z
1/2+x,1/2-y,z
loop_
_atom_site_type_symbol
_atom_site_label
_atom_site_fract_x
_atom_site_fract_y
_atom_site_fract_z
Si Si1 0.776505 0.242376 0.273520
Si Si2 0.085845 0.593054 0.945287
Si Si3 0.801177 0.591921 0.171238
Si Si4 0.722022 0.125566 0.565336
Si Si5 0.000000 0.000000 0.000000
O O1 0.731550 0.322603 0.146152
O O2 0.751356 0.279764 0.367850
O O3 0.000000 0.222892 0.500000
O O4 0.657028 0.163983 0.103996
O O5 0.097975 0.500000 0.001426
O O6 0.224951 0.595476 0.990301
O O7 0.869598 0.609132 0.656029
O O8 0.735484 0.500000 0.143498
O O9 0.036426 0.595008 0.432327
O O10 0.898288 0.072575 0.804182
#
# Coordination Sequence:
#
# PCOD9177272 Si02
#       5
#     8   8   8   8   2
#     4  10  19  27  50  77 100 122 164 189 239 297
#     4   9  17  33  46  71 103 131 150 195 242 281
#     4   8  15  28  46  70  99 125 147 197 241 278
#     4   9  19  29  50  69  94 127 160 202 238 277
#     4  12  16  36  50  72  88 130 164 208 240 282
#
# _framework density 25.115743999999999
#
# number of rings (size 3 to 8) (size 9 to 14) (size 15 to 20)
#    1.412    1.412    2.353    0.706    1.647    1.882 
#    0.000    1.176    0.000    0.000    0.000    0.824 
#    0.000    0.000    0.000    0.000    0.000    0.000 
#
# Total GULP energy -94732.045934 kJ/mol
# GULP energy per Si atom -5572.473290 kJ/mol
# Density = 2.505858 g / cm^3
# Si number density = 25.115744 Si / 1000 Ang^3
#
#
#
# Elastic Constant Matrix: (Units=GPa)
#
#
# Indices 1 2 3 4 5 6 
#
# 1 51.7875 44.7819 17.9688 0.0000 -7.8259 0.0000
# 2 44.7819 260.7810 115.4850 0.0000 -7.8627 0.0000
# 3 17.9688 115.4850 149.6087 0.0000 10.7675 0.0000
# 4 0.0000 0.0000 0.0000 41.9650 0.0000 -7.3396
# 5 -7.8259 -7.8627 10.7675 0.0000 23.9550 0.0000
# 6 0.0000 0.0000 0.0000 -7.3396 0.0000 23.9868
#
#
#
# Elastic Compliance Matrix: (Units=1/GPa)
#
#
# Indices 1 2 3 4 5 6 
#
# 1 0.023650 -0.003621 -0.000533 0.000000 0.006778 0.000000
# 2 -0.003621 0.006791 -0.005045 0.000000 0.003314 0.000000
# 3 -0.000533 -0.005045 0.011135 0.000000 -0.006835 0.000000
# 4 0.000000 0.000000 0.000000 0.025177 0.000000 0.007704
# 5 0.006778 0.003314 -0.006835 0.000000 0.048119 0.000000
# 6 0.000000 0.000000 0.000000 0.007704 0.000000 0.044047
#
#
# Mechanical properties :
#
#
# Convention : Reuss Voigt Hill
#
# Bulk Modulus (GPa) = 43.14775 90.96097 67.05436
# Shear Modulus (GPa) = 27.02087 36.91081 31.96584
#
# Velocity S-wave (km/s) = 3.28358 3.83773 3.57142
# Velocity P-wave (km/s) = 5.62074 7.47883 6.61535
#
# Compressibility (1/GPa) = 0.02317618
#
# Stress axis : x y z
#
# Youngs Moduli (GPa) = 42.28367 147.26192 89.80896
#
# Poissons Ratio (x) = 0.53318 0.04791
# Poissons Ratio (y) = 0.15309 0.45312
# Poissons Ratio (z) = 0.02256 0.74300
#
# Static dielectric constant tensor:
#      x y z
#    x 1.930880 0.000000 -0.142920 
#    y 0.000000 1.919190 0.000000 
#    z -0.142920 0.000000 1.910150 
# 
# From -- ./inp_files/289687.got.cif
#   From: 2010.05.17/outbox.cif.g08.bks.cpg/sg12_145_cif.got.tgz:289687.got - 2010.06.03 13:09:07.
