data_PCOD9177078
_publ_section_title
;
Structure prediction by ZEFSAII (Michael W. Deem and Ramdas Pophale) SiO2 
 PCOD9177078
Probable space group: C 2/M
;
_chemical_formula_sum "Si O2"
_cell_formula_units_Z 48
_cell_length_a 7.382932
_cell_length_b 13.247565
_cell_length_c 25.789581
_cell_angle_alpha 90.000000
_cell_angle_beta 47.669621
_cell_angle_gamma 90.000000
_cell_volume 1864.724748
_symmetry_space_group_name_H-M "C 2/M"
_symmetry_group_IT_number 12
_symmetry_cell_setting 'monoclinic'
loop_
_space_group_symop_operation_xyz
x,y,z
-x,y,-z
-x,-y,-z
x,-y,z
1/2+x,1/2+y,z
1/2-x,1/2+y,-z
1/2-x,1/2-y,-z
1/2+x,1/2-y,z
loop_
_atom_site_type_symbol
_atom_site_label
_atom_site_fract_x
_atom_site_fract_y
_atom_site_fract_z
Si Si1 0.244199 0.810924 0.054368
Si Si2 0.013537 0.388142 0.700441
Si Si3 0.218965 0.880425 0.497070
Si Si4 0.033544 0.110063 0.243841
Si Si5 0.273207 0.186955 0.839390
Si Si6 0.729743 0.315484 0.613226
O O1 0.228040 0.724001 0.101498
O O2 0.990678 0.867001 0.113951
O O3 0.500000 0.869462 0.000000
O O4 0.250000 0.750000 0.000000
O O5 0.105668 0.500000 0.668661
O O6 0.169452 0.295867 0.647529
O O7 0.734526 0.378037 0.732182
O O8 0.975768 0.376384 0.769756
O O9 0.497127 0.855107 0.426497
O O10 0.000000 0.849682 0.500000
O O11 0.198034 0.832500 0.558194
O O12 0.203252 0.000000 0.505741
O O13 0.963547 0.117908 0.317638
O O14 0.198120 0.204272 0.195435
O O15 0.133399 0.000000 0.211241
#
# Coordination Sequence:
#
# PCOD9177078 Si02
#       6
#     8   8   8   8   8   8
#     4   9  18  33  62  96 133 178 226 278 350 428
#     4  10  22  41  69 101 140 189 242 299 359 424
#     4  10  21  43  76 114 150 188 240 298 365 444
#     4  10  20  38  68 100 134 178 234 291 354 430
#     4  10  18  37  64  96 131 180 230 283 354 417
#     4  10  21  43  75 105 144 191 236 299 373 435
#
# _framework density 25.741063
#
# number of rings (size 3 to 8) (size 9 to 14) (size 15 to 20)
#    0.000    2.167    1.667    2.000    0.000    0.000 
#    6.000    5.833    0.000   23.000    0.000    0.000 
#    0.000    0.000    0.000    0.000    0.000    0.000 
#
# Total GULP energy -134192.312580 kJ/mol
# GULP energy per Si atom -5591.346357 kJ/mol
# Density = 2.568248 g / cm^3
# Si number density = 25.741063 Si / 1000 Ang^3
#
#
#
# Elastic Constant Matrix: (Units=GPa)
#
#
# Indices 1 2 3 4 5 6 
#
# 1 100.4023 26.8597 75.8146 0.0001 -14.1405 0.0000
# 2 26.8597 174.7598 41.7983 -0.0004 -12.8882 0.0003
# 3 75.8146 41.7983 200.3107 -0.0006 3.6893 0.0001
# 4 0.0001 -0.0004 -0.0006 7.5814 0.0002 -1.1812
# 5 -14.1405 -12.8882 3.6893 0.0002 57.0683 -0.0001
# 6 0.0000 0.0003 0.0001 -1.1812 -0.0001 25.4819
#
#
#
# Elastic Compliance Matrix: (Units=1/GPa)
#
#
# Indices 1 2 3 4 5 6 
#
# 1 0.014893 -0.000670 -0.005569 -0.000001 0.003899 0.000000
# 2 -0.000670 0.006174 -0.001059 0.000000 0.001297 0.000000
# 3 -0.005569 -0.001059 0.007360 0.000001 -0.002095 0.000000
# 4 -0.000001 0.000000 0.000001 0.132861 -0.000001 0.006159
# 5 0.003899 0.001297 -0.002095 -0.000001 0.018917 0.000000
# 6 0.000000 0.000000 0.000000 0.006159 0.000000 0.039529
#
#
# Mechanical properties :
#
#
# Convention : Reuss Voigt Hill
#
# Bulk Modulus (GPa) = 72.29495 84.93535 78.61515
# Shear Modulus (GPa) = 20.92578 40.09298 30.50938
#
# Velocity S-wave (km/s) = 2.85429 3.95086 3.44647
# Velocity P-wave (km/s) = 6.24572 7.34031 6.81503
#
# Compressibility (1/GPa) = 0.01383223
#
# Stress axis : x y z
#
# Youngs Moduli (GPa) = 67.14365 161.97170 135.87756
#
# Poissons Ratio (x) = 0.10844 0.75671
# Poissons Ratio (y) = 0.04495 0.14386
# Poissons Ratio (z) = 0.37393 0.17149
#
# Static dielectric constant tensor:
#      x y z
#    x 2.203310 0.000000 -0.015550 
#    y 0.000000 1.957760 0.000000 
#    z -0.015550 0.000000 2.011330 
# 
# From -- ./inp_files/372326.got.cif
#   From: 2010.05.17/outbox.cif.g08.bks.cpg/sg12_187_cif.got.tgz:372326.got - 2010.06.03 13:09:07.
