data_PCOD9177599
_publ_section_title
;
Structure prediction by ZEFSAII (Michael W. Deem and Ramdas Pophale) SiO2 
 PCOD9177599
Probable space group: C 2/M
;
_chemical_formula_sum "Si O2"
_cell_formula_units_Z 64
_cell_length_a 26.327646
_cell_length_b 7.411836
_cell_length_c 15.668605
_cell_angle_alpha 90.000000
_cell_angle_beta 109.607415
_cell_angle_gamma 90.000000
_cell_volume 2880.219161
_symmetry_space_group_name_H-M "C 2/M"
_symmetry_group_IT_number 12
_symmetry_cell_setting 'monoclinic'
loop_
_space_group_symop_operation_xyz
x,y,z
-x,y,-z
-x,-y,-z
x,-y,z
1/2+x,1/2+y,z
1/2-x,1/2+y,-z
1/2-x,1/2-y,-z
1/2+x,1/2-y,z
loop_
_atom_site_type_symbol
_atom_site_label
_atom_site_fract_x
_atom_site_fract_y
_atom_site_fract_z
Si Si1 0.041881 0.782060 0.951008
Si Si2 0.395175 0.207345 0.713075
Si Si3 0.372049 0.785743 0.203190
Si Si4 0.312975 0.713986 0.519981
Si Si5 0.699895 0.716599 0.673426
Si Si6 0.814132 0.278192 0.806327
Si Si7 0.337287 0.796058 0.001109
Si Si8 0.010016 0.295951 0.743645
O O1 0.101083 0.704113 0.997318
O O2 0.020331 0.705688 0.850598
O O3 0.046175 0.000000 0.947583
O O4 0.000000 0.736062 0.000000
O O5 0.349931 0.206372 0.614539
O O6 0.366749 0.283326 0.782548
O O7 0.450348 0.288655 0.705687
O O8 0.409198 0.000000 0.741913
O O9 0.335559 0.761457 0.264671
O O10 0.343863 0.714316 0.099908
O O11 0.432763 0.713770 0.254446
O O12 0.379195 0.000000 0.190508
O O13 0.322160 0.500000 0.528555
O O14 0.250000 0.750000 0.500000
O O15 0.323592 0.781589 0.429797
O O16 0.702599 0.500000 0.668641
O O17 0.761025 0.778179 0.724674
O O18 0.815734 0.500000 0.809126
O O19 0.808272 0.216063 0.901457
O O20 0.316153 0.000000 0.000137
O O21 0.007008 0.500000 0.706162
#
# Coordination Sequence:
#
# PCOD9177599 Si02
#       8
#     8   8   8   8   8   8   8   8
#     4  10  19  29  44  71 109 143 177 225 273 317
#     4  10  19  35  59  85 111 140 177 226 277 323
#     4   9  19  35  53  79 109 141 187 229 262 309
#     4  11  22  38  59  84 112 140 176 221 273 332
#     4  10  21  37  56  78 106 144 182 218 271 331
#     4   9  17  32  54  80 108 139 180 224 267 324
#     4   9  18  33  53  74 102 143 187 226 262 314
#     4   9  19  35  56  78 104 143 186 222 264 322
#
# _framework density 22.220531000000001
#
# number of rings (size 3 to 8) (size 9 to 14) (size 15 to 20)
#    0.000    2.375    1.250    2.250    0.000    6.000 
#    0.000    1.875    0.000    3.750    0.000    0.000 
#    0.000    0.000    0.000    0.000    0.000    0.000 
#
# Total GULP energy -178480.626622 kJ/mol
# GULP energy per Si atom -5577.519582 kJ/mol
# Density = 2.216996 g / cm^3
# Si number density = 22.220531 Si / 1000 Ang^3
#
#
#
# Elastic Constant Matrix: (Units=GPa)
#
#
# Indices 1 2 3 4 5 6 
#
# 1 59.2681 -3.2564 35.7137 0.0000 -3.6613 0.0000
# 2 -3.2564 79.3795 -9.8397 0.0000 -2.7724 0.0000
# 3 35.7137 -9.8397 92.4287 0.0000 -13.6041 0.0000
# 4 0.0000 0.0000 0.0000 1.1817 0.0000 -15.1514
# 5 -3.6613 -2.7724 -13.6041 0.0000 39.1949 0.0000
# 6 0.0000 0.0000 0.0000 -15.1514 0.0000 1.9064
#
#
#
# Elastic Compliance Matrix: (Units=1/GPa)
#
#
# Indices 1 2 3 4 5 6 
#
# 1 0.022030 -0.000206 -0.008676 0.000000 -0.000968 0.000000
# 2 -0.000206 0.012847 0.001663 0.000000 0.001467 0.000000
# 3 -0.008676 0.001663 0.015014 0.000000 0.004518 0.000000
# 4 0.000000 0.000000 0.000000 -0.008387 0.000000 -0.066655
# 5 -0.000968 0.001467 0.004518 0.000000 0.027095 0.000000
# 6 0.000000 0.000000 0.000000 -0.066655 0.000000 -0.005199
#
#
# Mechanical properties :
#
#
# Convention : Reuss Voigt Hill
#
# Bulk Modulus (GPa) = 28.20738 30.70127 29.45432
# Shear Modulus (GPa) = 55.76911 22.35385 39.06148
#
# Velocity S-wave (km/s) = 5.01523 3.17519 4.19728
# Velocity P-wave (km/s) = 6.80136 5.22389 6.06414
#
# Compressibility (1/GPa) = 0.03545172
#
# Stress axis : x y z
#
# Youngs Moduli (GPa) = 45.39340 77.84135 66.60571
#
# Poissons Ratio (x) = 0.01600 0.57790
# Poissons Ratio (y) = 0.00933 -0.11076
# Poissons Ratio (z) = 0.39385 -0.12945
#
# Static dielectric constant tensor:
#      x y z
#    x 1.903760 0.000000 0.013260 
#    y 0.000000 2.220420 0.000000 
#    z 0.013260 0.000000 1.760740 
# 
# From -- ./inp_files/244078.got.cif
#   From: 2010.05.17/outbox.cif.g08.bks.cpg/sg12_123_cif.got.tgz:244078.got - 2010.06.03 13:09:07.
