data_PCOD9177731
_publ_section_title
;
Structure prediction by ZEFSAII (Michael W. Deem and Ramdas Pophale) SiO2 
 PCOD9177731
Probable space group: C 2/M
;
_chemical_formula_sum "Si O2"
_cell_formula_units_Z 64
_cell_length_a 17.271769
_cell_length_b 19.077065
_cell_length_c 19.073738
_cell_angle_alpha 90.000000
_cell_angle_beta 27.910843
_cell_angle_gamma 90.000000
_cell_volume 2941.847135
_symmetry_space_group_name_H-M "C 2/M"
_symmetry_group_IT_number 12
_symmetry_cell_setting 'monoclinic'
loop_
_space_group_symop_operation_xyz
x,y,z
-x,y,-z
-x,-y,-z
x,-y,z
1/2+x,1/2+y,z
1/2-x,1/2+y,-z
1/2-x,1/2-y,-z
1/2+x,1/2-y,z
loop_
_atom_site_type_symbol
_atom_site_label
_atom_site_fract_x
_atom_site_fract_y
_atom_site_fract_z
Si Si1 0.408178 0.273095 0.829004
Si Si2 0.770364 0.075959 0.598680
Si Si3 0.248405 0.725875 0.581897
Si Si4 0.342388 0.721524 0.208427
Si Si5 0.399889 0.077767 0.845704
Si Si6 0.152747 0.080976 0.164805
Si Si7 0.320373 0.116671 0.173541
Si Si8 0.272639 0.314432 0.119247
O O1 0.548389 0.222906 0.747761
O O2 0.451065 0.355340 0.788265
O O3 0.349085 0.250963 0.798924
O O4 0.250000 0.250000 0.000000
O O5 0.839480 0.152581 0.522426
O O6 0.596975 0.077167 0.695110
O O7 0.731496 0.080381 0.712394
O O8 0.850866 0.000000 0.520123
O O9 0.250000 0.750000 0.500000
O O10 0.268911 0.777678 0.631948
O O11 0.334586 0.801002 0.183743
O O12 0.276215 0.673073 0.198891
O O13 0.538000 0.701016 0.056943
O O14 0.312847 0.127145 0.859401
O O15 0.347697 0.000000 0.867050
O O16 0.323531 0.089537 0.984107
O O17 0.195054 0.096819 0.211523
O O18 0.097573 0.000000 0.199625
O O19 0.500000 0.095431 0.000000
#
# Coordination Sequence:
#
# PCOD9177731 Si02
#       8
#     8   8   8   8   8   8   8   8
#     4  12  19  35  58  81 109 149 188 225 279 325
#     4  10  20  33  52  78 111 150 186 228 285 334
#     4  11  23  39  59  84 111 145 192 236 271 337
#     4  10  20  32  54  82 111 147 188 224 283 332
#     4  10  19  29  47  78 110 145 185 230 281 328
#     4  11  20  28  46  80 117 147 178 220 277 337
#     4  11  17  27  45  82 121 150 179 225 276 340
#     4  11  18  32  56  81 108 144 185 229 274 335
#
# _framework density 21.755039
#
# number of rings (size 3 to 8) (size 9 to 14) (size 15 to 20)
#    0.000    1.250    7.500    0.375    0.000    0.500 
#    0.000    2.500    0.000    2.250    0.000    4.375 
#    0.000    0.000    0.000    0.000    0.000    0.000 
#
# Total GULP energy -178248.439788 kJ/mol
# GULP energy per Si atom -5570.263743 kJ/mol
# Density = 2.170552 g / cm^3
# Si number density = 21.755039 Si / 1000 Ang^3
#
#
#
# Elastic Constant Matrix: (Units=GPa)
#
#
# Indices 1 2 3 4 5 6 
#
# 1 105.0154 40.8447 8.0466 -0.0121 28.1589 0.0070
# 2 40.8447 124.3667 9.2282 -0.0156 14.2339 0.0104
# 3 8.0466 9.2282 59.2629 -0.0167 29.0137 0.0096
# 4 -0.0121 -0.0156 -0.0167 5.6357 0.0073 3.9531
# 5 28.1589 14.2339 29.0137 0.0073 39.3693 -0.0033
# 6 0.0070 0.0104 0.0096 3.9531 -0.0033 28.3015
#
#
#
# Elastic Compliance Matrix: (Units=1/GPa)
#
#
# Indices 1 2 3 4 5 6 
#
# 1 0.013710 -0.003479 0.004483 0.000058 -0.011852 -0.000013
# 2 -0.003479 0.009274 -0.000858 0.000019 -0.000232 -0.000005
# 3 0.004483 -0.000858 0.027874 0.000143 -0.023438 -0.000033
# 4 0.000058 0.000019 0.000143 0.196715 -0.000193 -0.027477
# 5 -0.011852 -0.000232 -0.023438 -0.000193 0.051234 0.000044
# 6 -0.000013 -0.000005 -0.000033 -0.027477 0.000044 0.039172
#
#
# Mechanical properties :
#
#
# Convention : Reuss Voigt Hill
#
# Bulk Modulus (GPa) = 19.55087 44.98710 32.26898
# Shear Modulus (GPa) = 14.09500 30.02967 22.06234
#
# Velocity S-wave (km/s) = 2.54814 3.71934 3.18799
# Velocity P-wave (km/s) = 4.20282 6.25847 5.33068
#
# Compressibility (1/GPa) = 0.05114862
#
# Stress axis : x y z
#
# Youngs Moduli (GPa) = 72.93979 107.83410 35.87635
#
# Poissons Ratio (x) = 0.37513 -0.16082
# Poissons Ratio (y) = 0.25374 0.03078
# Poissons Ratio (z) = -0.32696 0.09251
#
# Static dielectric constant tensor:
#      x y z
#    x 1.860510 -0.000010 0.017250 
#    y -0.000010 1.865730 0.000010 
#    z 0.017250 0.000010 1.932700 
# 
# From -- ./inp_files/279098.got.cif
#   From: 2010.05.17/outbox.cif.g08.bks.cpg/sg12_140_cif.got.tgz:279098.got - 2010.06.03 13:09:07.
