data_PCOD9177101
_publ_section_title
;
Structure prediction by ZEFSAII (Michael W. Deem and Ramdas Pophale) SiO2 
 PCOD9177101
Probable space group: C 2/M
;
_chemical_formula_sum "Si O2"
_cell_formula_units_Z 52
_cell_length_a 15.192474
_cell_length_b 13.071805
_cell_length_c 18.310793
_cell_angle_alpha 90.000000
_cell_angle_beta 47.688105
_cell_angle_gamma 90.000000
_cell_volume 2689.083685
_symmetry_space_group_name_H-M "C 2/M"
_symmetry_group_IT_number 12
_symmetry_cell_setting 'monoclinic'
loop_
_space_group_symop_operation_xyz
x,y,z
-x,y,-z
-x,-y,-z
x,-y,z
1/2+x,1/2+y,z
1/2-x,1/2+y,-z
1/2-x,1/2-y,-z
1/2+x,1/2-y,z
loop_
_atom_site_type_symbol
_atom_site_label
_atom_site_fract_x
_atom_site_fract_y
_atom_site_fract_z
Si Si1 0.355453 0.887981 0.987079
Si Si2 0.796860 0.297754 0.166531
Si Si3 0.589112 0.621919 0.516641
Si Si4 0.000000 0.853647 0.000000
Si Si5 0.345240 0.121992 0.303485
Si Si6 0.480300 0.274552 0.718168
Si Si7 0.412024 0.660768 0.904312
O O1 0.416318 0.782996 0.924641
O O2 0.404414 0.000000 0.939420
O O3 0.338438 0.882464 0.084113
O O4 0.222994 0.873539 0.030299
O O5 0.821291 0.332480 0.235530
O O6 0.658937 0.268276 0.228167
O O7 0.881952 0.206856 0.092741
O O8 0.500000 0.649230 0.500000
O O9 0.575554 0.500000 0.536592
O O10 0.723544 0.642306 0.416344
O O11 0.551563 0.680845 0.610270
O O12 0.037401 0.898158 0.055726
O O13 0.453879 0.174152 0.286936
O O14 0.359578 0.000000 0.289875
O O15 0.477199 0.348488 0.790859
#
# Coordination Sequence:
#
# PCOD9177101 Si02
#       7
#     8   8   8   4   8   8   8
#     4   9  18  33  52  78 112 151 193 240 290 339
#     4  10  20  35  60  86 119 159 201 247 299 350
#     4  10  21  38  64  93 119 149 199 258 308 361
#     4  10  18  38  54  78 124 154 200 240 286 342
#     4  11  22  38  60  94 125 156 199 251 306 365
#     4  11  21  37  60  91 120 160 200 247 313 357
#     4   9  19  32  52  80 110 152 191 239 284 348
#
# _framework density 19.337441999999999
#
# number of rings (size 3 to 8) (size 9 to 14) (size 15 to 20)
#    0.000    2.000    3.077    1.846    0.000    3.077 
#    0.000    2.308    0.000    2.308    0.000    0.000 
#    0.000    0.000    0.000    0.000    0.000    0.000 
#
# Total GULP energy -144848.026028 kJ/mol
# GULP energy per Si atom -5571.077924 kJ/mol
# Density = 1.929343 g / cm^3
# Si number density = 19.337442 Si / 1000 Ang^3
#
#
#
# Elastic Constant Matrix: (Units=GPa)
#
#
# Indices 1 2 3 4 5 6 
#
# 1 113.4101 43.9819 70.1139 0.0000 18.3229 0.0000
# 2 43.9819 101.7713 48.5865 0.0000 5.8644 0.0000
# 3 70.1139 48.5865 154.0858 0.0000 14.2313 0.0000
# 4 0.0000 0.0000 0.0000 316.5958 0.0000 -9.8513
# 5 18.3229 5.8644 14.2313 0.0000 40.8974 0.0000
# 6 0.0000 0.0000 0.0000 -9.8513 0.0000 -10.5165
#
#
#
# Elastic Compliance Matrix: (Units=1/GPa)
#
#
# Indices 1 2 3 4 5 6 
#
# 1 0.013769 -0.003420 -0.004817 0.000000 -0.004002 0.000000
# 2 -0.003420 0.012423 -0.002416 0.000000 0.000591 0.000000
# 3 -0.004817 -0.002416 0.009518 0.000000 -0.000808 0.000000
# 4 0.000000 0.000000 0.000000 0.003069 0.000000 -0.002875
# 5 -0.004002 0.000591 -0.000808 0.000000 0.026441 0.000000
# 6 0.000000 0.000000 0.000000 -0.002875 0.000000 -0.092396
#
#
# Mechanical properties :
#
#
# Convention : Reuss Voigt Hill
#
# Bulk Modulus (GPa) = 69.42391 77.18130 73.30260
# Shear Modulus (GPa) = -4676.07809 83.16766 -2296.45522
#
# Velocity S-wave (km/s) = -49.22801 6.56521 -34.49851
# Velocity P-wave (km/s) = 56.52625 9.87263 39.35573
#
# Compressibility (1/GPa) = 0.01440426
#
# Stress axis : x y z
#
# Youngs Moduli (GPa) = 72.62952 80.49497 105.06256
#
# Poissons Ratio (x) = 0.27529 0.50610
# Poissons Ratio (y) = 0.24839 0.25380
# Poissons Ratio (z) = 0.34986 0.19445
#
# Static dielectric constant tensor:
#      x y z
#    x 1.706220 0.000000 0.004750 
#    y 0.000000 1.726460 0.000000 
#    z 0.004750 0.000000 1.673760 
# 
# From -- ./inp_files/269775.got.cif
#   From: 2010.05.17/outbox.cif.g08.bks.cpg/sg12_135_cif.got.tgz:269775.got - 2010.06.03 13:09:07.
