data_PCOD9177079
_publ_section_title
;
Structure prediction by ZEFSAII (Michael W. Deem and Ramdas Pophale) SiO2 
 PCOD9177079
Probable space group: C 2/M
;
_chemical_formula_sum "Si O2"
_cell_formula_units_Z 52
_cell_length_a 19.780713
_cell_length_b 14.870410
_cell_length_c 9.712441
_cell_angle_alpha 90.000000
_cell_angle_beta 110.384751
_cell_angle_gamma 90.000000
_cell_volume 2677.975000
_symmetry_space_group_name_H-M "C 2/M"
_symmetry_group_IT_number 12
_symmetry_cell_setting 'monoclinic'
loop_
_space_group_symop_operation_xyz
x,y,z
-x,y,-z
-x,-y,-z
x,-y,z
1/2+x,1/2+y,z
1/2-x,1/2+y,-z
1/2-x,1/2-y,-z
1/2+x,1/2-y,z
loop_
_atom_site_type_symbol
_atom_site_label
_atom_site_fract_x
_atom_site_fract_y
_atom_site_fract_z
Si Si1 0.233799 0.662274 0.182301
Si Si2 0.415302 0.357693 0.096665
Si Si3 0.084989 0.604199 0.546989
Si Si4 0.829123 0.000000 0.227460
Si Si5 0.332125 0.766952 0.604611
Si Si6 0.585336 0.396169 0.221547
Si Si7 0.337495 0.184472 0.144370
O O1 0.282296 0.580612 0.268133
O O2 0.173463 0.685886 0.250421
O O3 0.279218 0.753269 0.183426
O O4 0.202055 0.635657 0.010147
O O5 0.373100 0.422032 0.170542
O O6 0.500319 0.374682 0.171824
O O7 0.392777 0.256305 0.117124
O O8 0.394666 0.380745 0.924738
O O9 0.092615 0.500000 0.511249
O O10 0.124175 0.670776 0.469001
O O11 0.122889 0.620863 0.720765
O O12 0.000000 0.624937 0.500000
O O13 0.250000 0.750000 0.500000
O O14 0.371283 0.671981 0.652959
O O15 0.597521 0.500000 0.266005
#
# Coordination Sequence:
#
# PCOD9177079 Si02
#       7
#     8   8   8   4   8   8   8
#     4  10  22  38  62  96 128 169 213 268 326 382
#     4  10  18  37  64  98 131 162 209 274 322 389
#     4  11  26  47  69  91 127 178 226 270 328 394
#     4  10  20  33  62  91 135 158 209 271 327 373
#     4  12  25  45  62  95 137 174 215 270 328 387
#     4  11  21  37  64  97 132 173 212 257 333 393
#     4  10  20  40  64  92 128 169 219 268 322 381
#
# _framework density 19.417656999999998
#
# number of rings (size 3 to 8) (size 9 to 14) (size 15 to 20)
#    0.000    1.385    4.615    1.385    2.154    0.615 
#    0.000    0.000    0.000    4.154    0.000    0.000 
#    0.000    0.000    0.000    0.000    0.000    0.000 
#
# Total GULP energy -144746.255006 kJ/mol
# GULP energy per Si atom -5567.163654 kJ/mol
# Density = 1.937346 g / cm^3
# Si number density = 19.417657 Si / 1000 Ang^3
#
#
#
# Elastic Constant Matrix: (Units=GPa)
#
#
# Indices 1 2 3 4 5 6 
#
# 1 84.8537 54.1702 36.9558 0.0000 -2.9617 0.0000
# 2 54.1702 87.6628 24.7527 0.0000 -3.2325 0.0000
# 3 36.9558 24.7527 66.1596 0.0000 8.5058 0.0000
# 4 0.0000 0.0000 0.0000 22.1131 0.0000 -7.7896
# 5 -2.9617 -3.2325 8.5058 0.0000 30.3087 0.0000
# 6 0.0000 0.0000 0.0000 -7.7896 0.0000 29.1748
#
#
#
# Elastic Compliance Matrix: (Units=1/GPa)
#
#
# Indices 1 2 3 4 5 6 
#
# 1 0.023380 -0.011736 -0.009131 0.000000 0.003595 0.000000
# 2 -0.011736 0.018880 -0.000642 0.000000 0.001047 0.000000
# 3 -0.009131 -0.000642 0.021349 0.000000 -0.006952 0.000000
# 4 0.000000 0.000000 0.000000 0.049917 0.000000 0.013328
# 5 0.003595 0.001047 -0.006952 0.000000 0.035408 0.000000
# 6 0.000000 0.000000 0.000000 0.013328 0.000000 0.037835
#
#
# Mechanical properties :
#
#
# Convention : Reuss Voigt Hill
#
# Bulk Modulus (GPa) = 48.56804 52.27037 50.41921
# Shear Modulus (GPa) = 21.12822 24.50581 22.81702
#
# Velocity S-wave (km/s) = 3.30220 3.55637 3.43164
# Velocity P-wave (km/s) = 6.29333 6.62126 6.45938
#
# Compressibility (1/GPa) = 0.02058967
#
# Stress axis : x y z
#
# Youngs Moduli (GPa) = 42.77245 52.96702 46.83969
#
# Poissons Ratio (x) = 0.62164 0.42768
# Poissons Ratio (y) = 0.50199 0.03009
# Poissons Ratio (z) = 0.39054 0.03403
#
# Static dielectric constant tensor:
#      x y z
#    x 1.685050 0.000000 0.001620 
#    y 0.000000 1.664690 0.000000 
#    z 0.001620 0.000000 1.723460 
# 
# From -- ./inp_files/85883.got.cif
#   From: 2010.05.17/outbox.cif.g08.bks.cpg/sg12_43_cif.got.tgz:85883.got - 2010.06.03 13:09:07.
