data_PCOD9177993
_publ_section_title
;
Structure prediction by ZEFSAII (Michael W. Deem and Ramdas Pophale) SiO2 
 PCOD9177993
Probable space group: C 2/M
;
_chemical_formula_sum "Si O2"
_cell_formula_units_Z 48
_cell_length_a 21.160427
_cell_length_b 8.552193
_cell_length_c 29.071020
_cell_angle_alpha 90.000000
_cell_angle_beta 32.540751
_cell_angle_gamma 90.000000
_cell_volume 2829.848528
_symmetry_space_group_name_H-M "C 2/M"
_symmetry_group_IT_number 12
_symmetry_cell_setting 'monoclinic'
loop_
_space_group_symop_operation_xyz
x,y,z
-x,y,-z
-x,-y,-z
x,-y,z
1/2+x,1/2+y,z
1/2-x,1/2+y,-z
1/2-x,1/2-y,-z
1/2+x,1/2-y,z
loop_
_atom_site_type_symbol
_atom_site_label
_atom_site_fract_x
_atom_site_fract_y
_atom_site_fract_z
Si Si1 0.874176 0.190521 0.056701
Si Si2 0.225714 0.310471 0.233416
Si Si3 0.012388 0.314720 0.420866
Si Si4 0.360818 0.312995 0.959622
Si Si5 0.888023 0.686555 0.216899
Si Si6 0.828249 0.814096 0.594200
O O1 0.773054 0.237910 0.154554
O O2 0.875438 0.000000 0.055147
O O3 0.858996 0.244085 0.013800
O O4 0.000000 0.240249 0.000000
O O5 0.230633 0.500000 0.233236
O O6 0.092776 0.263565 0.328457
O O7 0.315149 0.245796 0.217096
O O8 0.994252 0.500000 0.429886
O O9 0.097782 0.273310 0.411435
O O10 0.889124 0.234456 0.509149
O O11 0.356620 0.500000 0.962928
O O12 0.484037 0.260773 0.862083
O O13 0.250000 0.250000 0.000000
O O14 0.898903 0.500000 0.207302
O O15 0.806632 0.723593 0.311267
O O16 0.843940 0.000000 0.590907
#
# Coordination Sequence:
#
# PCOD9177993 Si02
#       6
#     8   8   8   8   8   8
#     4   9  16  30  52  73  93 126 165 195 236 290
#     4   9  16  28  46  69  95 125 161 196 236 284
#     4   9  15  22  37  62  91 119 152 194 232 274
#     4  11  22  36  53  71  97 129 162 202 240 286
#     4  10  19  30  45  68  95 126 162 198 239 283
#     4   9  16  25  38  57  89 126 155 186 231 286
#
# _framework density 16.962039000000001
#
# number of rings (size 3 to 8) (size 9 to 14) (size 15 to 20)
#    0.000    2.500    1.667    3.000    0.000    2.667 
#    0.000    2.500    0.000    0.000    0.000    1.167 
#    0.000    0.000    0.000    0.000    0.000    0.000 
#
# Total GULP energy -133652.051551 kJ/mol
# GULP energy per Si atom -5568.835481 kJ/mol
# Density = 1.692343 g / cm^3
# Si number density = 16.962039 Si / 1000 Ang^3
#
#
#
# Elastic Constant Matrix: (Units=GPa)
#
#
# Indices 1 2 3 4 5 6 
#
# 1 67.0868 15.0079 61.9812 0.0004 -1.0358 -0.0009
# 2 15.0079 27.1988 31.3566 0.0006 -1.3352 -0.0008
# 3 61.9812 31.3566 193.4856 -0.0004 11.1560 0.0012
# 4 0.0004 0.0006 -0.0004 25.3135 -0.0002 -7.1354
# 5 -1.0358 -1.3352 11.1560 -0.0002 15.4728 0.0008
# 6 -0.0009 -0.0008 0.0012 -7.1354 0.0008 7.0294
#
#
#
# Elastic Compliance Matrix: (Units=1/GPa)
#
#
# Indices 1 2 3 4 5 6 
#
# 1 0.022193 -0.004124 -0.006788 0.000001 0.006024 0.000003
# 2 -0.004124 0.047385 -0.006863 0.000000 0.008761 0.000005
# 3 -0.006788 -0.006863 0.008885 0.000000 -0.007453 -0.000003
# 4 0.000001 0.000000 0.000000 0.055339 -0.000002 0.056174
# 5 0.006024 0.008761 -0.007453 -0.000002 0.071163 -0.000007
# 6 0.000003 0.000005 -0.000003 0.056174 -0.000007 0.199280
#
#
# Mechanical properties :
#
#
# Convention : Reuss Voigt Hill
#
# Bulk Modulus (GPa) = 23.30391 56.05141 39.67766
# Shear Modulus (GPa) = 11.01079 21.52484 16.26781
#
# Velocity S-wave (km/s) = 2.55059 3.56617 3.10025
# Velocity P-wave (km/s) = 4.73737 7.07628 6.02148
#
# Compressibility (1/GPa) = 0.04291125
#
# Stress axis : x y z
#
# Youngs Moduli (GPa) = 45.05824 21.10395 112.54999
#
# Poissons Ratio (x) = 0.08704 0.76404
# Poissons Ratio (y) = 0.18583 0.77246
# Poissons Ratio (z) = 0.30588 0.14484
#
# Static dielectric constant tensor:
#      x y z
#    x 1.529410 0.000000 0.029960 
#    y 0.000000 1.574940 0.000000 
#    z 0.029960 0.000000 1.645980 
# 
# From -- ./inp_files/348283.got.cif
#   From: 2010.05.17/outbox.cif.g08.bks.cpg/sg12_175_cif.got.tgz:348283.got - 2010.06.03 13:09:07.
