data_PCOD9177326
_publ_section_title
;
Structure prediction by ZEFSAII (Michael W. Deem and Ramdas Pophale) SiO2 
 PCOD9177326
Probable space group: C 2/M
;
_chemical_formula_sum "Si O2"
_cell_formula_units_Z 64
_cell_length_a 28.332547
_cell_length_b 8.940283
_cell_length_c 24.793175
_cell_angle_alpha 90.000000
_cell_angle_beta 43.939668
_cell_angle_gamma 90.000000
_cell_volume 4357.789489
_symmetry_space_group_name_H-M "C 2/M"
_symmetry_group_IT_number 12
_symmetry_cell_setting 'monoclinic'
loop_
_space_group_symop_operation_xyz
x,y,z
-x,y,-z
-x,-y,-z
x,-y,z
1/2+x,1/2+y,z
1/2-x,1/2+y,-z
1/2-x,1/2-y,-z
1/2+x,1/2-y,z
loop_
_atom_site_type_symbol
_atom_site_label
_atom_site_fract_x
_atom_site_fract_y
_atom_site_fract_z
Si Si1 0.202362 0.819399 0.663049
Si Si2 0.200444 0.179354 0.495840
Si Si3 0.814239 0.320598 0.976731
Si Si4 0.964292 0.677730 0.821968
Si Si5 0.412377 0.678839 0.331857
Si Si6 0.498776 0.324295 0.096631
Si Si7 0.352976 0.681655 0.175728
Si Si8 0.652655 0.676455 0.937188
O O1 0.270847 0.747362 0.582894
O O2 0.139546 0.778049 0.674489
O O3 0.185494 0.773061 0.738006
O O4 0.207513 0.000000 0.656599
O O5 0.250000 0.250000 0.500000
O O6 0.125840 0.215904 0.580645
O O7 0.207325 0.000000 0.489928
O O8 0.810357 0.500000 0.979232
O O9 0.885167 0.274826 0.889028
O O10 0.750000 0.250000 0.000000
O O11 0.819592 0.263591 0.033969
O O12 0.966313 0.500000 0.816214
O O13 0.993881 0.730583 0.855107
O O14 0.014666 0.747968 0.736844
O O15 0.419299 0.500000 0.323033
O O16 0.489680 0.500000 0.118894
O O17 0.432155 0.277652 0.118917
O O18 0.570273 0.312790 0.007163
O O19 0.350825 0.500000 0.175468
O O20 0.326261 0.732410 0.139476
O O21 0.669525 0.500000 0.929251
#
# Coordination Sequence:
#
# PCOD9177326 Si02
#       8
#     8   8   8   8   8   8   8   8
#     4   9  16  26  39  57  84 117 150 182 210 241
#     4   9  17  27  38  54  78 111 150 185 214 248
#     4  10  21  36  50  65  86 110 139 178 222 265
#     4  10  19  28  42  65  87 108 140 181 220 256
#     4   9  16  27  41  57  81 113 148 182 212 249
#     4   9  15  26  41  58  84 116 148 177 205 244
#     4   9  15  25  41  62  87 115 150 181 203 243
#     4   9  17  28  46  66  83 111 146 178 214 251
#
# _framework density 14.686344999999999
#
# number of rings (size 3 to 8) (size 9 to 14) (size 15 to 20)
#    0.000    2.750    1.250    2.250    0.000    5.500 
#    0.000    1.250    0.000    3.000    0.000    0.000 
#    0.000    1.000    0.000   11.250    0.000    5.625 
#
# Total GULP energy -178147.091064 kJ/mol
# GULP energy per Si atom -5567.096596 kJ/mol
# Density = 1.465292 g / cm^3
# Si number density = 14.686345 Si / 1000 Ang^3
#
#
#
# Elastic Constant Matrix: (Units=GPa)
#
#
# Indices 1 2 3 4 5 6 
#
# 1 71.1203 25.5452 58.9374 -0.0035 -2.1147 0.0018
# 2 25.5452 25.5019 36.7720 -0.0070 -2.1578 0.0068
# 3 58.9374 36.7720 112.2096 -0.0033 3.0195 0.0050
# 4 -0.0035 -0.0070 -0.0033 23.7236 0.0023 -1.6421
# 5 -2.1147 -2.1578 3.0195 0.0023 13.6140 -0.0035
# 6 0.0018 0.0068 0.0050 -1.6421 -0.0035 12.7985
#
#
#
# Elastic Compliance Matrix: (Units=1/GPa)
#
#
# Indices 1 2 3 4 5 6 
#
# 1 0.027112 -0.011447 -0.010617 -0.000001 0.004752 0.000008
# 2 -0.011447 0.083453 -0.021774 0.000016 0.016278 -0.000028
# 3 -0.010617 -0.021774 0.021892 -0.000004 -0.009956 0.000001
# 4 -0.000001 0.000016 -0.000004 0.042530 -0.000002 0.005457
# 5 0.004752 0.016278 -0.009956 -0.000002 0.078980 0.000016
# 6 0.000008 -0.000028 0.000001 0.005457 0.000016 0.078834
#
#
# Mechanical properties :
#
#
# Convention : Reuss Voigt Hill
#
# Bulk Modulus (GPa) = 22.33091 50.14901 36.23996
# Shear Modulus (GPa) = 11.48363 15.86568 13.67466
#
# Velocity S-wave (km/s) = 2.79933 3.29036 3.05473
# Velocity P-wave (km/s) = 5.06819 6.97539 6.09683
#
# Compressibility (1/GPa) = 0.04478097
#
# Stress axis : x y z
#
# Youngs Moduli (GPa) = 36.88438 11.98286 45.67942
#
# Poissons Ratio (x) = 0.13717 0.48498
# Poissons Ratio (y) = 0.42221 0.99461
# Poissons Ratio (z) = 0.39160 0.26091
#
# Static dielectric constant tensor:
#      x y z
#    x 1.454040 0.000000 0.003400 
#    y 0.000000 1.491840 0.000000 
#    z 0.003400 0.000000 1.537300 
# 
# From -- ./inp_files/350952.got.cif
#   From: 2010.05.17/outbox.cif.g08.bks.cpg/sg12_176_cif.got.tgz:350952.got - 2010.06.03 13:09:07.
