data_PCOD9177859
_publ_section_title
;
Structure prediction by ZEFSAII (Michael W. Deem and Ramdas Pophale) SiO2 
 PCOD9177859
Probable space group: C 2/M
;
_chemical_formula_sum "Si O2"
_cell_formula_units_Z 56
_cell_length_a 28.572106
_cell_length_b 8.686533
_cell_length_c 14.434636
_cell_angle_alpha 90.000000
_cell_angle_beta 83.502406
_cell_angle_gamma 90.000000
_cell_volume 3559.556753
_symmetry_space_group_name_H-M "C 2/M"
_symmetry_group_IT_number 12
_symmetry_cell_setting 'monoclinic'
loop_
_space_group_symop_operation_xyz
x,y,z
-x,y,-z
-x,-y,-z
x,-y,z
1/2+x,1/2+y,z
1/2-x,1/2+y,-z
1/2-x,1/2-y,-z
1/2+x,1/2-y,z
loop_
_atom_site_type_symbol
_atom_site_label
_atom_site_fract_x
_atom_site_fract_y
_atom_site_fract_z
Si Si1 0.164266 0.686540 0.670586
Si Si2 0.889403 0.816768 0.977372
Si Si3 0.763103 0.314866 0.725587
Si Si4 0.799242 0.685196 0.526990
Si Si5 0.788305 0.815139 0.920174
Si Si6 0.083772 0.313625 0.828806
Si Si7 0.516839 0.177632 0.103835
O O1 0.167680 0.500000 0.675353
O O2 0.211363 0.755786 0.706427
O O3 0.164015 0.730658 0.561554
O O4 0.118565 0.734283 0.738924
O O5 0.896006 0.743325 0.077500
O O6 0.888961 0.000000 0.988408
O O7 0.840332 0.767590 0.942636
O O8 0.934562 0.768845 0.906152
O O9 0.761794 0.500000 0.732035
O O10 0.799342 0.268346 0.634647
O O11 0.777364 0.245614 0.820318
O O12 0.797473 0.500000 0.527123
O O13 0.750000 0.750000 0.500000
O O14 0.786007 0.000000 0.921112
O O15 0.750000 0.750000 0.000000
O O16 0.082311 0.500000 0.832553
O O17 0.029296 0.261886 0.832456
O O18 0.525766 0.000000 0.127538
O O19 0.500000 0.178643 0.000000
#
# Coordination Sequence:
#
# PCOD9177859 Si02
#       7
#     8   8   8   8   8   8   8
#     4   9  16  28  46  66  90 118 144 175 217 257
#     4  10  20  31  43  61  85 113 145 179 211 248
#     4  10  19  30  44  64  90 118 149 181 212 252
#     4   8  15  27  43  63  86 113 144 177 213 254
#     4  11  23  35  46  63  87 116 150 182 213 251
#     4   9  17  28  44  66  89 113 140 171 211 258
#     4   8  15  28  44  62  84 110 140 172 210 257
#
# _framework density 15.732296
#
# number of rings (size 3 to 8) (size 9 to 14) (size 15 to 20)
#    0.000    2.714    0.000    3.000    0.000    8.286 
#    0.000    0.000    0.000    0.000    0.000    1.000 
#    0.000    8.000    0.000    0.000    0.000    0.000 
#
# Total GULP energy -155898.601017 kJ/mol
# GULP energy per Si atom -5567.807179 kJ/mol
# Density = 1.569649 g / cm^3
# Si number density = 15.732296 Si / 1000 Ang^3
#
#
#
# Elastic Constant Matrix: (Units=GPa)
#
#
# Indices 1 2 3 4 5 6 
#
# 1 108.1134 24.4670 69.7026 0.0000 -23.4944 0.0000
# 2 24.4670 17.9776 23.8505 0.0000 -4.0543 0.0000
# 3 69.7026 23.8505 141.3346 0.0000 -24.2933 0.0000
# 4 0.0000 0.0000 0.0000 17.4698 0.0000 -0.3218
# 5 -23.4944 -4.0543 -24.2933 0.0000 27.3198 0.0000
# 6 0.0000 0.0000 0.0000 -0.3218 0.0000 21.0359
#
#
#
# Elastic Compliance Matrix: (Units=1/GPa)
#
#
# Indices 1 2 3 4 5 6 
#
# 1 0.017730 -0.016173 -0.004493 0.000000 0.008852 0.000000
# 2 -0.016173 0.086423 -0.008020 0.000000 -0.008215 0.000000
# 3 -0.004493 -0.008020 0.011540 0.000000 0.005207 0.000000
# 4 0.000000 0.000000 0.000000 0.057258 0.000000 0.000876
# 5 0.008852 -0.008215 0.005207 0.000000 0.047627 0.000000
# 6 0.000000 0.000000 0.000000 0.000876 0.000000 0.047551
#
#
# Mechanical properties :
#
#
# Convention : Reuss Voigt Hill
#
# Bulk Modulus (GPa) = 17.14657 55.94064 36.54360
# Shear Modulus (GPa) = 14.49520 23.12547 18.81033
#
# Velocity S-wave (km/s) = 3.03869 3.83813 3.46157
# Velocity P-wave (km/s) = 4.82018 7.43483 6.26542
#
# Compressibility (1/GPa) = 0.05832071
#
# Stress axis : x y z
#
# Youngs Moduli (GPa) = 56.40096 11.57099 86.65644
#
# Poissons Ratio (x) = 0.18714 0.38938
# Poissons Ratio (y) = 0.91216 0.69498
# Poissons Ratio (z) = 0.25343 0.09280
#
# Static dielectric constant tensor:
#      x y z
#    x 1.519560 0.000000 -0.038100 
#    y 0.000000 1.533220 0.000000 
#    z -0.038100 0.000000 1.547330 
# 
# From -- ./inp_files/247828.got.cif
#   From: 2010.05.17/outbox.cif.g08.bks.cpg/sg12_124_cif.got.tgz:247828.got - 2010.06.03 13:09:07.
