data_PCOD9177645
_publ_section_title
;
Structure prediction by ZEFSAII (Michael W. Deem and Ramdas Pophale) SiO2 
 PCOD9177645
Probable space group: C 2/M
;
_chemical_formula_sum "Si O2"
_cell_formula_units_Z 56
_cell_length_a 16.080963
_cell_length_b 8.938607
_cell_length_c 16.971514
_cell_angle_alpha 90.000000
_cell_angle_beta 95.998239
_cell_angle_gamma 90.000000
_cell_volume 2426.153275
_symmetry_space_group_name_H-M "C 2/M"
_symmetry_group_IT_number 12
_symmetry_cell_setting 'monoclinic'
loop_
_space_group_symop_operation_xyz
x,y,z
-x,y,-z
-x,-y,-z
x,-y,z
1/2+x,1/2+y,z
1/2-x,1/2+y,-z
1/2-x,1/2-y,-z
1/2+x,1/2-y,z
loop_
_atom_site_type_symbol
_atom_site_label
_atom_site_fract_x
_atom_site_fract_y
_atom_site_fract_z
Si Si1 0.133628 0.326277 0.978395
Si Si2 0.220282 0.319221 0.308077
Si Si3 0.048606 0.675212 0.124772
Si Si4 0.171523 0.819949 0.539630
Si Si5 0.064111 0.678577 0.404276
Si Si6 0.207993 0.824444 0.839697
Si Si7 0.028433 0.174336 0.735941
O O1 0.156488 0.500000 0.985928
O O2 0.195329 0.246203 0.923918
O O3 0.042086 0.320031 0.927378
O O4 0.114768 0.271299 0.065332
O O5 0.217737 0.500000 0.302443
O O6 0.302386 0.283788 0.368298
O O7 0.140901 0.277240 0.352746
O O8 0.228237 0.262252 0.219749
O O9 0.065782 0.500000 0.144494
O O10 0.034781 0.764937 0.203222
O O11 0.250000 0.750000 0.500000
O O12 0.090599 0.750297 0.489970
O O13 0.169659 0.000000 0.531601
O O14 0.061426 0.500000 0.412314
O O15 0.986228 0.737956 0.346648
O O16 0.119092 0.809737 0.785176
O O17 0.223871 0.000000 0.852527
O O18 0.014425 0.000000 0.718680
#
# Coordination Sequence:
#
# PCOD9177645 Si02
#       7
#     8   8   8   8   8   8   8
#     4   8  14  25  42  65  90 118 151 184 221 263
#     4   8  16  31  50  69  88 117 153 184 221 269
#     4   8  14  26  43  62  89 122 152 182 218 266
#     4   9  16  29  49  70  91 116 152 192 225 264
#     4  10  19  32  50  68  90 121 155 189 224 267
#     4   9  17  30  47  68  94 120 148 184 226 271
#     4  10  19  29  45  70  96 119 147 187 230 269
#
# _framework density 23.081806
#
# number of rings (size 3 to 8) (size 9 to 14) (size 15 to 20)
#    0.000    3.143    0.000    3.000    0.000    1.143 
#    0.000    7.857    0.000    5.143    0.000    0.000 
#    0.000    0.000    0.000    0.000    0.000    0.000 
#
# Total GULP energy -156358.066666 kJ/mol
# GULP energy per Si atom -5584.216667 kJ/mol
# Density = 2.302927 g / cm^3
# Si number density = 23.081806 Si / 1000 Ang^3
#
#
#
# Elastic Constant Matrix: (Units=GPa)
#
#
# Indices 1 2 3 4 5 6 
#
# 1 88.8873 11.0110 26.9174 0.0000 2.1630 0.0000
# 2 11.0110 40.6520 27.2742 0.0000 9.5611 0.0000
# 3 26.9174 27.2742 157.8487 0.0000 11.0315 0.0000
# 4 0.0000 0.0000 0.0000 29.3072 0.0000 4.6972
# 5 2.1630 9.5611 11.0315 0.0000 50.9212 0.0000
# 6 0.0000 0.0000 0.0000 4.6972 0.0000 2.5651
#
#
#
# Elastic Compliance Matrix: (Units=1/GPa)
#
#
# Indices 1 2 3 4 5 6 
#
# 1 0.012027 -0.002185 -0.001692 0.000000 0.000266 0.000000
# 2 -0.002185 0.029157 -0.004355 0.000000 -0.004438 0.000000
# 3 -0.001692 -0.004355 0.007426 0.000000 -0.000719 0.000000
# 4 0.000000 0.000000 0.000000 0.048296 0.000000 -0.088439
# 5 0.000266 -0.004438 -0.000719 0.000000 0.020616 0.000000
# 6 0.000000 0.000000 0.000000 -0.088439 0.000000 0.551796
#
#
# Mechanical properties :
#
#
# Convention : Reuss Voigt Hill
#
# Bulk Modulus (GPa) = 31.10821 46.42144 38.76482
# Shear Modulus (GPa) = 7.17878 31.37106 19.27492
#
# Velocity S-wave (km/s) = 1.76547 3.69063 2.89289
# Velocity P-wave (km/s) = 4.20268 6.19002 5.29050
#
# Compressibility (1/GPa) = 0.03214586
#
# Stress axis : x y z
#
# Youngs Moduli (GPa) = 83.14799 34.29750 134.65344
#
# Poissons Ratio (x) = 0.07494 0.22782
# Poissons Ratio (y) = 0.18167 0.58643
# Poissons Ratio (z) = 0.14068 0.14937
#
# Static dielectric constant tensor:
#      x y z
#    x 1.993630 0.000000 0.018030 
#    y 0.000000 1.770540 0.000000 
#    z 0.018030 0.000000 1.886480 
# 
# From -- ./inp_files/280304.got.cif
#   From: 2010.05.17/outbox.cif.g08.bks.cpg/sg12_141_cif.got.tgz:280304.got - 2010.06.03 13:09:07.
