data_PCOD9177171
_publ_section_title
;
Structure prediction by ZEFSAII (Michael W. Deem and Ramdas Pophale) SiO2 
 PCOD9177171
Probable space group: C 2/M
;
_chemical_formula_sum "Si O2"
_cell_formula_units_Z 32
_cell_length_a 8.720305
_cell_length_b 22.719755
_cell_length_c 8.934482
_cell_angle_alpha 90.000000
_cell_angle_beta 42.856453
_cell_angle_gamma 90.000000
_cell_volume 1203.977254
_symmetry_space_group_name_H-M "C 2/M"
_symmetry_group_IT_number 12
_symmetry_cell_setting 'monoclinic'
loop_
_space_group_symop_operation_xyz
x,y,z
-x,y,-z
-x,-y,-z
x,-y,z
1/2+x,1/2+y,z
1/2-x,1/2+y,-z
1/2-x,1/2-y,-z
1/2+x,1/2-y,z
loop_
_atom_site_type_symbol
_atom_site_label
_atom_site_fract_x
_atom_site_fract_y
_atom_site_fract_z
Si Si1 0.252114 0.375899 0.337051
Si Si2 0.750531 0.193189 0.648643
Si Si3 0.500000 0.900680 0.000000
Si Si4 0.454629 0.000000 0.790582
Si Si5 0.855794 0.000000 0.270853
Si Si6 0.500000 0.714729 0.000000
O O1 0.249267 0.336358 0.487786
O O2 0.423939 0.430668 0.230708
O O3 0.000000 0.400867 0.500000
O O4 0.300008 0.332624 0.162910
O O5 0.701663 0.141378 0.802428
O O6 0.554250 0.240834 0.824786
O O7 0.000000 0.218400 0.500000
O O8 0.556336 0.943367 0.096396
O O9 0.687348 0.000000 0.534438
O O10 0.253863 0.000000 0.816189
#
# Coordination Sequence:
#
# PCOD9177171 Si02
#       6
#     8   8   4   4   4   4
#     4  12  24  45  71  97 136 179 223 279 335 404
#     4  11  25  45  67 101 135 175 228 284 331 393
#     4  10  20  39  72  97 136 182 222 266 344 408
#     4  10  18  38  67 102 134 178 218 274 338 403
#     4  11  20  41  68  99 139 173 217 282 338 390
#     4  11  28  44  70  98 134 181 230 274 340 397
#
# _framework density 26.578574
#
# number of rings (size 3 to 8) (size 9 to 14) (size 15 to 20)
#    0.000    1.000    5.000    1.500    0.000    8.500 
#    0.000    5.625    0.000    0.000    0.000    0.000 
#    0.000    0.000    0.000    0.000    0.000    0.000 
#
# Total GULP energy -89371.471938 kJ/mol
# GULP energy per Si atom -5585.716996 kJ/mol
# Density = 2.651808 g / cm^3
# Si number density = 26.578574 Si / 1000 Ang^3
#
#
#
# Elastic Constant Matrix: (Units=GPa)
#
#
# Indices 1 2 3 4 5 6 
#
# 1 59.1863 27.5584 46.4161 0.0000 17.7995 0.0000
# 2 27.5584 204.9064 84.5513 0.0000 24.2600 0.0000
# 3 46.4161 84.5513 122.0111 0.0000 14.7553 0.0000
# 4 0.0000 0.0000 0.0000 91.0603 0.0000 14.5612
# 5 17.7995 24.2600 14.7553 0.0000 38.1044 0.0000
# 6 0.0000 0.0000 0.0000 14.5612 0.0000 35.1158
#
#
#
# Elastic Compliance Matrix: (Units=1/GPa)
#
#
# Indices 1 2 3 4 5 6 
#
# 1 0.027156 0.001796 -0.010389 0.000000 -0.009805 0.000000
# 2 0.001796 0.007216 -0.005274 0.000000 -0.003391 0.000000
# 3 -0.010389 -0.005274 0.015538 0.000000 0.002194 0.000000
# 4 0.000000 0.000000 0.000000 0.011762 0.000000 -0.004877
# 5 -0.009805 -0.003391 0.002194 0.000000 0.032133 0.000000
# 6 0.000000 0.000000 0.000000 -0.004877 0.000000 0.030500
#
#
# Mechanical properties :
#
#
# Convention : Reuss Voigt Hill
#
# Bulk Modulus (GPa) = 45.09558 78.12838 61.61198
# Shear Modulus (GPa) = 31.36128 48.02796 39.69462
#
# Velocity S-wave (km/s) = 3.43876 4.25552 3.86875
# Velocity P-wave (km/s) = 5.72455 7.32154 6.57174
#
# Compressibility (1/GPa) = 0.02217512
#
# Stress axis : x y z
#
# Youngs Moduli (GPa) = 36.82377 138.57248 64.35943
#
# Poissons Ratio (x) = -0.24883 0.66866
# Poissons Ratio (y) = -0.06612 0.33942
# Poissons Ratio (z) = 0.38258 0.73081
#
# Static dielectric constant tensor:
#      x y z
#    x 2.013900 0.000000 -0.030770 
#    y 0.000000 2.061890 0.000000 
#    z -0.030770 0.000000 2.140820 
# 
# From -- ./inp_files/135113.got.cif
#   From: 2010.05.17/outbox.cif.g08.bks.cpg/sg12_68_cif.got.tgz:135113.got - 2010.06.03 13:09:07.
