data_PCOD9177106
_publ_section_title
;
Structure prediction by ZEFSAII (Michael W. Deem and Ramdas Pophale) SiO2 
 PCOD9177106
Probable space group: C 2/M
;
_chemical_formula_sum "Si O2"
_cell_formula_units_Z 50
_cell_length_a 15.417886
_cell_length_b 17.789332
_cell_length_c 10.490840
_cell_angle_alpha 90.000000
_cell_angle_beta 110.939981
_cell_angle_gamma 90.000000
_cell_volume 2687.328958
_symmetry_space_group_name_H-M "C 2/M"
_symmetry_group_IT_number 12
_symmetry_cell_setting 'monoclinic'
loop_
_space_group_symop_operation_xyz
x,y,z
-x,y,-z
-x,-y,-z
x,-y,z
1/2+x,1/2+y,z
1/2-x,1/2+y,-z
1/2-x,1/2-y,-z
1/2+x,1/2-y,z
loop_
_atom_site_type_symbol
_atom_site_label
_atom_site_fract_x
_atom_site_fract_y
_atom_site_fract_z
Si Si1 0.106016 0.751295 0.051953
Si Si2 0.388336 0.656864 0.687953
Si Si3 0.211927 0.585867 0.494325
Si Si4 0.412443 0.380305 0.148431
Si Si5 0.110206 0.270959 0.535124
Si Si6 0.263739 0.654203 0.248728
Si Si7 0.000000 0.000000 0.000000
O O1 0.117214 0.810923 0.173219
O O2 0.181053 0.687857 0.120033
O O3 0.114330 0.799818 0.928146
O O4 0.000000 0.722355 0.000000
O O5 0.312278 0.594998 0.615061
O O6 0.492353 0.627990 0.722093
O O7 0.369999 0.726625 0.585559
O O8 0.180634 0.500000 0.481892
O O9 0.146624 0.644851 0.533922
O O10 0.225651 0.614075 0.355929
O O11 0.328790 0.399591 0.198259
O O12 0.441928 0.435311 0.050355
O O13 0.169929 0.223412 0.668846
O O14 0.000000 0.269069 0.500000
#
# Coordination Sequence:
#
# PCOD9177106 Si02
#       7
#     8   8   8   8   8   8   2
#     4  10  19  37  63  89 110 154 202 252 288 333
#     4  10  18  38  57  85 116 150 201 243 293 351
#     4  11  24  36  57  88 123 160 187 246 311 357
#     4  11  23  35  59  88 119 159 192 238 307 355
#     4  11  20  37  65  84 114 154 201 260 289 341
#     4  11  21  40  61  89 117 150 212 247 288 355
#     4  12  24  36  52  90 134 160 174 244 308 372
#
# _framework density 18.605834000000002
#
# number of rings (size 3 to 8) (size 9 to 14) (size 15 to 20)
#    0.000    1.280    7.200    1.440    2.240    0.320 
#    0.000    0.800    0.000    0.480    4.160    0.000 
#    0.000    0.000    0.000    0.000    0.000    0.000 
#
# Total GULP energy -139211.181114 kJ/mol
# GULP energy per Si atom -5568.447245 kJ/mol
# Density = 1.856349 g / cm^3
# Si number density = 18.605834 Si / 1000 Ang^3
#
#
#
# Elastic Constant Matrix: (Units=GPa)
#
#
# Indices 1 2 3 4 5 6 
#
# 1 64.1856 26.7851 22.9831 0.0000 -1.1042 0.0000
# 2 26.7851 101.6383 17.8624 0.0000 1.4513 0.0000
# 3 22.9831 17.8624 67.2337 0.0000 12.0543 0.0000
# 4 0.0000 0.0000 0.0000 2.6156 0.0000 -2.2938
# 5 -1.1042 1.4513 12.0543 0.0000 31.7915 0.0000
# 6 0.0000 0.0000 0.0000 -2.2938 0.0000 14.9573
#
#
#
# Elastic Compliance Matrix: (Units=1/GPa)
#
#
# Indices 1 2 3 4 5 6 
#
# 1 0.019562 -0.004117 -0.006168 0.000000 0.003206 0.000000
# 2 -0.004117 0.011198 -0.001556 0.000000 -0.000064 0.000000
# 3 -0.006168 -0.001556 0.018692 0.000000 -0.007230 0.000000
# 4 0.000000 0.000000 0.000000 0.441721 0.000000 0.067741
# 5 0.003206 -0.000064 -0.007230 0.000000 0.034311 0.000000
# 6 0.000000 0.000000 0.000000 0.067741 0.000000 0.077245
#
#
# Mechanical properties :
#
#
# Convention : Reuss Voigt Hill
#
# Bulk Modulus (GPa) = 38.80600 40.92431 39.86516
# Shear Modulus (GPa) = 7.87400 20.90134 14.38767
#
# Velocity S-wave (km/s) = 2.05942 3.35532 2.78382
# Velocity P-wave (km/s) = 5.15336 6.08720 5.63964
#
# Compressibility (1/GPa) = 0.02576921
#
# Stress axis : x y z
#
# Youngs Moduli (GPa) = 51.12063 89.30017 53.49948
#
# Poissons Ratio (x) = 0.36764 0.32998
# Poissons Ratio (y) = 0.21046 0.08326
# Poissons Ratio (z) = 0.31531 0.13898
#
# Static dielectric constant tensor:
#      x y z
#    x 1.663090 0.000000 -0.001670 
#    y 0.000000 1.627880 0.000000 
#    z -0.001670 0.000000 1.664560 
# 
# From -- ./inp_files/145734.got.cif
#   From: 2010.05.17/outbox.cif.g08.bks.cpg/sg12_73_cif.got.tgz:145734.got - 2010.06.03 13:09:07.
