data_PCOD9177443
_publ_section_title
;
Structure prediction by ZEFSAII (Michael W. Deem and Ramdas Pophale) SiO2 
 PCOD9177443
Probable space group: C 2/M
;
_chemical_formula_sum "Si O2"
_cell_formula_units_Z 48
_cell_length_a 25.260855
_cell_length_b 7.480861
_cell_length_c 37.142802
_cell_angle_alpha 90.000000
_cell_angle_beta 155.233763
_cell_angle_gamma 90.000000
_cell_volume 2940.372557
_symmetry_space_group_name_H-M "C 2/M"
_symmetry_group_IT_number 12
_symmetry_cell_setting 'monoclinic'
loop_
_space_group_symop_operation_xyz
x,y,z
-x,y,-z
-x,-y,-z
x,-y,z
1/2+x,1/2+y,z
1/2-x,1/2+y,-z
1/2-x,1/2-y,-z
1/2+x,1/2-y,z
loop_
_atom_site_type_symbol
_atom_site_label
_atom_site_fract_x
_atom_site_fract_y
_atom_site_fract_z
Si Si1 0.858475 0.789707 0.255789
Si Si2 0.003283 0.000000 0.062069
Si Si3 0.708887 0.500000 0.124166
Si Si4 0.130419 0.213646 0.450976
Si Si5 0.396514 0.717968 0.485529
Si Si6 0.319626 0.282422 0.361333
Si Si7 0.845333 0.710051 0.805886
O O1 0.794275 0.672563 0.185154
O O2 0.770198 0.772043 0.236798
O O3 0.998508 0.723642 0.352292
O O4 0.862091 0.000000 0.248867
O O5 0.040687 0.827826 0.108659
O O6 0.101697 0.000000 0.089267
O O7 0.865488 0.000000 0.959259
O O8 0.250000 0.250000 0.500000
O O9 0.145792 0.280586 0.501377
O O10 0.115782 0.000000 0.444760
O O11 0.393760 0.500000 0.483555
O O12 0.542667 0.769289 0.569065
O O13 0.317901 0.775552 0.401860
O O14 0.317847 0.500000 0.359613
O O15 0.210003 0.226003 0.266513
O O16 0.876890 0.500000 0.823540
#
# Coordination Sequence:
#
# PCOD9177443 Si02
#       7
#     8   4   4   8   8   8   8
#     4   9  17  29  44  61  84 118 155 182 216 266
#     4   9  18  28  40  66  89 114 147 184 220 275
#     4   9  18  30  44  59  88 119 148 183 226 266
#     4  10  19  29  42  62  88 121 155 187 217 256
#     4   8  13  23  40  62  84 112 155 183 211 260
#     4   8  12  21  42  64  83 114 148 182 216 262
#     4   9  15  26  44  63  88 118 146 177 224 268
#
# _framework density 16.324462
#
# number of rings (size 3 to 8) (size 9 to 14) (size 15 to 20)
#    0.000    3.167    1.667    1.000    1.167    0.667 
#    0.000    3.333    1.833    1.000    0.000    0.000 
#    0.000    1.333    0.667    0.000    0.000    0.000 
#
# Total GULP energy -133679.349890 kJ/mol
# GULP energy per Si atom -5569.972912 kJ/mol
# Density = 1.628731 g / cm^3
# Si number density = 16.324462 Si / 1000 Ang^3
#
#
#
# Elastic Constant Matrix: (Units=GPa)
#
#
# Indices 1 2 3 4 5 6 
#
# 1 76.8594 18.6482 58.6604 -0.0072 -18.8207 0.0088
# 2 18.6482 66.3093 51.4188 -0.0779 -12.3855 0.0900
# 3 58.6604 51.4188 150.0055 -0.0898 -41.2853 0.1065
# 4 -0.0072 -0.0779 -0.0898 -148.6177 0.0290 186.5068
# 5 -18.8207 -12.3855 -41.2853 0.0290 24.6314 -0.0325
# 6 0.0088 0.0900 0.1065 186.5068 -0.0325 -198.8059
#
#
#
# Elastic Compliance Matrix: (Units=1/GPa)
#
#
# Indices 1 2 3 4 5 6 
#
# 1 0.018742 0.000427 -0.006451 0.000002 0.003723 -0.000001
# 2 0.000427 0.020650 -0.007978 -0.000002 -0.002663 0.000003
# 3 -0.006451 -0.007978 0.017567 -0.000003 0.020504 -0.000001
# 4 0.000002 -0.000002 -0.000003 0.037950 -0.000003 0.035602
# 5 0.003723 -0.002663 0.020504 -0.000003 0.076471 -0.000006
# 6 -0.000001 0.000003 -0.000001 0.035602 -0.000006 0.028369
#
#
# Mechanical properties :
#
#
# Convention : Reuss Voigt Hill
#
# Bulk Modulus (GPa) = 34.53669 61.18100 47.85884
# Shear Modulus (GPa) = 21.06103 -53.59533 -16.26715
#
# Velocity S-wave (km/s) = 3.59576 -5.73608 -3.16015
# Velocity P-wave (km/s) = 6.20014 2.51210 4.00818
#
# Compressibility (1/GPa) = 0.02895472
#
# Stress axis : x y z
#
# Youngs Moduli (GPa) = 53.35521 48.42604 56.92503
#
# Poissons Ratio (x) = -0.02067 0.36722
# Poissons Ratio (y) = -0.02277 0.45416
# Poissons Ratio (z) = 0.34419 0.38635
#
# Static dielectric constant tensor:
#      x y z
#    x 1.532050 0.000000 -0.029530 
#    y 0.000000 1.608870 0.000000 
#    z -0.029530 0.000000 1.543590 
# 
# From -- ./inp_files/380266.got.cif
#   From: 2010.05.17/outbox.cif.g08.bks.cpg/sg12_191_cif.got.tgz:380266.got - 2010.06.03 13:09:07.
