data_PCOD9177140
_publ_section_title
;
Structure prediction by ZEFSAII (Michael W. Deem and Ramdas Pophale) SiO2 
 PCOD9177140
Probable space group: C 2/M
;
_chemical_formula_sum "Si O2"
_cell_formula_units_Z 40
_cell_length_a 13.947158
_cell_length_b 16.563965
_cell_length_c 7.272596
_cell_angle_alpha 90.000000
_cell_angle_beta 86.746599
_cell_angle_gamma 90.000000
_cell_volume 1677.409013
_symmetry_space_group_name_H-M "C 2/M"
_symmetry_group_IT_number 12
_symmetry_cell_setting 'monoclinic'
loop_
_space_group_symop_operation_xyz
x,y,z
-x,y,-z
-x,-y,-z
x,-y,z
1/2+x,1/2+y,z
1/2-x,1/2+y,-z
1/2-x,1/2-y,-z
1/2+x,1/2-y,z
loop_
_atom_site_type_symbol
_atom_site_label
_atom_site_fract_x
_atom_site_fract_y
_atom_site_fract_z
Si Si1 0.586872 0.666200 0.597156
Si Si2 0.047346 0.710789 0.168701
Si Si3 0.279785 0.590158 0.676432
Si Si4 0.611605 0.088459 0.437448
Si Si5 0.888466 0.875601 0.016509
O O1 0.500000 0.621407 0.500000
O O2 0.532045 0.744282 0.689772
O O3 0.666090 0.663816 0.431590
O O4 0.633975 0.623351 0.766801
O O5 0.116968 0.657204 0.283725
O O6 0.099971 0.784131 0.059112
O O7 0.000000 0.664602 0.000000
O O8 0.310112 0.500000 0.605562
O O9 0.171767 0.600207 0.617716
O O10 0.311126 0.589988 0.884850
O O11 0.500000 0.087037 0.500000
O O12 0.638321 0.000000 0.360137
O O13 0.000000 0.907097 0.000000
#
# Coordination Sequence:
#
# PCOD9177140 Si02
#       5
#     8   8   8   8   8
#     4  10  18  38  62  91 127 158 197 245 305 371
#     4   9  19  39  62  89 122 157 202 252 302 362
#     4  11  23  39  61  92 125 165 205 243 308 367
#     4  10  23  43  63  85 120 165 210 256 300 352
#     4   9  19  37  59  94 129 156 198 245 305 370
#
# _framework density 23.846302000000001
#
# number of rings (size 3 to 8) (size 9 to 14) (size 15 to 20)
#    0.000    2.600    4.000    0.600    0.000    2.800 
#    3.600    2.000    0.000    0.000    0.000    0.000 
#    0.000    0.000    0.000    0.000    0.000    0.000 
#
# Total GULP energy -111365.736739 kJ/mol
# GULP energy per Si atom -5568.286837 kJ/mol
# Density = 2.379203 g / cm^3
# Si number density = 23.846302 Si / 1000 Ang^3
#
#
#
# Elastic Constant Matrix: (Units=GPa)
#
#
# Indices 1 2 3 4 5 6 
#
# 1 87.1610 14.3902 51.3800 0.0000 53.1327 0.0000
# 2 14.3902 89.8734 45.2868 0.0000 21.5417 0.0000
# 3 51.3800 45.2868 213.4407 0.0000 58.7392 0.0000
# 4 0.0000 0.0000 0.0000 -7.0509 0.0000 0.6768
# 5 53.1327 21.5417 58.7392 0.0000 51.0373 0.0000
# 6 0.0000 0.0000 0.0000 0.6768 0.0000 11.9304
#
#
#
# Elastic Compliance Matrix: (Units=1/GPa)
#
#
# Indices 1 2 3 4 5 6 
#
# 1 0.032656 0.002793 0.001795 0.000000 -0.037242 0.000000
# 2 0.002793 0.013076 -0.001650 0.000000 -0.006527 0.000000
# 3 0.001795 -0.001650 0.007209 0.000000 -0.009470 0.000000
# 4 0.000000 0.000000 0.000000 -0.141058 0.000000 0.008002
# 5 -0.037242 -0.006527 -0.009470 0.000000 0.072018 0.000000
# 6 0.000000 0.000000 0.000000 0.008002 0.000000 0.083365
#
#
# Mechanical properties :
#
#
# Convention : Reuss Voigt Hill
#
# Bulk Modulus (GPa) = 17.00196 68.06544 42.53370
# Shear Modulus (GPa) = 61.73209 29.81126 45.77167
#
# Velocity S-wave (km/s) = 5.09349 3.53957 4.38590
# Velocity P-wave (km/s) = 6.46041 6.73128 6.59723
#
# Compressibility (1/GPa) = 0.05881673
#
# Stress axis : x y z
#
# Youngs Moduli (GPa) = 30.62240 76.47794 138.71232
#
# Poissons Ratio (x) = -0.21361 -0.24904
# Poissons Ratio (y) = -0.08553 0.22893
# Poissons Ratio (z) = -0.05498 0.12622
#
# Static dielectric constant tensor:
#      x y z
#    x 2.002420 0.000000 0.027130 
#    y 0.000000 1.980020 0.000000 
#    z 0.027130 0.000000 1.966210 
# 
# From -- ./inp_files/48809.got.cif
#   From: 2010.05.17/outbox.cif.g08.bks.cpg/sg12_25_cif.got.tgz:48809.got - 2010.06.03 13:09:07.
