data_PCOD9177131
_publ_section_title
;
Structure prediction by ZEFSAII (Michael W. Deem and Ramdas Pophale) SiO2 
 PCOD9177131
Probable space group: C 2/M
;
_chemical_formula_sum "Si O2"
_cell_formula_units_Z 50
_cell_length_a 17.956688
_cell_length_b 14.501079
_cell_length_c 30.616336
_cell_angle_alpha 90.000000
_cell_angle_beta 19.288385
_cell_angle_gamma 90.000000
_cell_volume 2633.411101
_symmetry_space_group_name_H-M "C 2/M"
_symmetry_group_IT_number 12
_symmetry_cell_setting 'monoclinic'
loop_
_space_group_symop_operation_xyz
x,y,z
-x,y,-z
-x,-y,-z
x,-y,z
1/2+x,1/2+y,z
1/2-x,1/2+y,-z
1/2-x,1/2-y,-z
1/2+x,1/2-y,z
loop_
_atom_site_type_symbol
_atom_site_label
_atom_site_fract_x
_atom_site_fract_y
_atom_site_fract_z
Si Si1 0.917510 0.700847 0.373933
Si Si2 0.836079 0.604030 0.331519
Si Si3 0.271294 0.604868 0.238813
Si Si4 0.000000 0.500000 0.000000
Si Si5 0.667940 0.672084 0.167429
Si Si6 0.360449 0.357907 0.034325
Si Si7 0.762326 0.294331 0.652393
O O1 0.750000 0.750000 0.500000
O O2 0.794143 0.645821 0.403125
O O3 0.077507 0.632077 0.311814
O O4 0.074300 0.776430 0.262687
O O5 0.753931 0.500000 0.371508
O O6 0.753031 0.683132 0.344495
O O7 0.108223 0.603717 0.176259
O O8 0.243631 0.500000 0.269139
O O9 0.256754 0.672872 0.287656
O O10 0.504135 0.614606 0.083445
O O11 0.805936 0.580968 0.100193
O O12 0.827711 0.747508 0.055364
O O13 0.446233 0.663711 0.259702
O O14 0.500000 0.386869 0.000000
O O15 0.000000 0.323499 0.500000
#
# Coordination Sequence:
#
# PCOD9177131 Si02
#       7
#     8   8   8   2   8   8   8
#     4  10  20  39  59  89 128 162 214 268 320 368
#     4  10  21  38  65  91 118 173 214 264 322 376
#     4  12  22  34  64  95 119 166 209 262 321 383
#     4  12  20  40  66  92 114 168 240 244 320 392
#     4  10  22  40  66  87 125 179 201 272 321 370
#     4  10  18  38  61  89 126 152 207 269 324 364
#     4  10  24  44  59  88 136 173 205 264 318 384
#
# _framework density 18.986782000000002
#
# number of rings (size 3 to 8) (size 9 to 14) (size 15 to 20)
#    0.000    1.920    4.000    2.880    1.120    3.840 
#    5.760    0.000   10.560    0.000    0.000    0.000 
#    0.000    0.000    0.000    0.000    0.000    0.000 
#
# Total GULP energy -139307.224342 kJ/mol
# GULP energy per Si atom -5572.288974 kJ/mol
# Density = 1.894357 g / cm^3
# Si number density = 18.986782 Si / 1000 Ang^3
#
#
#
# Elastic Constant Matrix: (Units=GPa)
#
#
# Indices 1 2 3 4 5 6 
#
# 1 91.0619 46.7364 22.8367 -0.0346 12.1869 0.0198
# 2 46.7364 163.6393 19.5597 -0.0650 5.0346 -0.0078
# 3 22.8367 19.5597 58.9073 -0.0814 5.4454 0.5476
# 4 -0.0346 -0.0650 -0.0814 5.3901 0.0211 12.8622
# 5 12.1869 5.0346 5.4454 0.0211 36.6476 -0.2001
# 6 0.0198 -0.0078 0.5476 12.8622 -0.2001 74.6435
#
#
#
# Elastic Compliance Matrix: (Units=1/GPa)
#
#
# Indices 1 2 3 4 5 6 
#
# 1 0.014271 -0.003480 -0.004038 -0.000058 -0.003667 0.000026
# 2 -0.003480 0.007224 -0.001079 0.000038 0.000325 0.000004
# 3 -0.004038 -0.001079 0.019028 0.001007 -0.001338 -0.000316
# 4 -0.000058 0.000038 0.001007 0.315156 -0.000613 -0.054315
# 5 -0.003667 0.000325 -0.001338 -0.000613 0.028662 0.000193
# 6 0.000026 0.000004 -0.000316 -0.054315 0.000193 0.022759
#
#
# Mechanical properties :
#
#
# Convention : Reuss Voigt Hill
#
# Bulk Modulus (GPa) = 42.86901 54.65268 48.76084
# Shear Modulus (GPa) = 11.57213 38.30128 24.93670
#
# Velocity S-wave (km/s) = 2.47145 4.49626 3.62798
# Velocity P-wave (km/s) = 5.54720 7.47009 6.57928
#
# Compressibility (1/GPa) = 0.02332688
#
# Stress axis : x y z
#
# Youngs Moduli (GPa) = 70.07036 138.42587 52.55464
#
# Poissons Ratio (x) = 0.48179 0.21223
# Poissons Ratio (y) = 0.24388 0.05673
# Poissons Ratio (z) = 0.28296 0.14943
#
# Static dielectric constant tensor:
#      x y z
#    x 1.658620 0.000000 -0.027470 
#    y 0.000000 1.664740 0.000010 
#    z -0.027470 0.000010 1.667370 
# 
# From -- ./inp_files/379426.got.cif
#   From: 2010.05.17/outbox.cif.g08.bks.cpg/sg12_190_cif.got.tgz:379426.got - 2010.06.03 13:09:07.
