data_PCOD9177804
_publ_section_title
;
Structure prediction by ZEFSAII (Michael W. Deem and Ramdas Pophale) SiO2 
 PCOD9177804
Probable space group: C 2/M
;
_chemical_formula_sum "Si O2"
_cell_formula_units_Z 48
_cell_length_a 31.306571
_cell_length_b 7.843907
_cell_length_c 12.385248
_cell_angle_alpha 90.000000
_cell_angle_beta 59.941010
_cell_angle_gamma 90.000000
_cell_volume 2632.357167
_symmetry_space_group_name_H-M "C 2/M"
_symmetry_group_IT_number 12
_symmetry_cell_setting 'monoclinic'
loop_
_space_group_symop_operation_xyz
x,y,z
-x,y,-z
-x,-y,-z
x,-y,z
1/2+x,1/2+y,z
1/2-x,1/2+y,-z
1/2-x,1/2-y,-z
1/2+x,1/2-y,z
loop_
_atom_site_type_symbol
_atom_site_label
_atom_site_fract_x
_atom_site_fract_y
_atom_site_fract_z
Si Si1 0.695859 0.799138 0.113568
Si Si2 0.213969 0.792326 0.694213
Si Si3 0.640230 0.295255 0.975704
Si Si4 0.370243 0.295369 0.357606
Si Si5 0.943770 0.791191 0.079952
Si Si6 0.680001 0.205462 0.375050
O O1 0.682103 0.728458 0.249472
O O2 0.698639 0.000000 0.123473
O O3 0.750000 0.750000 0.000000
O O4 0.654324 0.760087 0.077307
O O5 0.185524 0.745592 0.840179
O O6 0.178883 0.730466 0.642563
O O7 0.269599 0.729984 0.631909
O O8 0.215058 0.000000 0.687474
O O9 0.638577 0.500000 0.977972
O O10 0.590697 0.236541 0.977205
O O11 0.369946 0.500000 0.350760
O O12 0.416187 0.237938 0.225594
O O13 0.365122 0.249892 0.489192
O O14 0.944054 0.000000 0.078859
O O15 0.000000 0.733359 0.000000
O O16 0.682220 0.000000 0.369031
#
# Coordination Sequence:
#
# PCOD9177804 Si02
#       6
#     8   8   8   8   8   8
#     4  11  21  32  47  67  96 133 168 197 229 276
#     4   8  14  27  43  62  92 125 151 184 231 275
#     4   9  16  30  50  71  97 125 159 198 236 280
#     4   9  17  28  46  70  93 118 156 196 230 281
#     4   8  15  30  54  78  97 120 151 197 253 293
#     4  10  19  30  43  61  95 132 156 186 232 279
#
# _framework density 18.234607
#
# number of rings (size 3 to 8) (size 9 to 14) (size 15 to 20)
#    0.000    2.833    1.667    3.000    0.000    1.333 
#    0.000    3.333    0.000    3.000    0.000    7.000 
#    0.000    0.000    0.000    0.000    0.000    0.000 
#
# Total GULP energy -133700.345418 kJ/mol
# GULP energy per Si atom -5570.847726 kJ/mol
# Density = 1.819310 g / cm^3
# Si number density = 18.234607 Si / 1000 Ang^3
#
#
#
# Elastic Constant Matrix: (Units=GPa)
#
#
# Indices 1 2 3 4 5 6 
#
# 1 94.8412 7.1051 82.6190 0.0000 -13.2906 0.0000
# 2 7.1051 18.5461 8.1604 0.0000 -1.3996 0.0000
# 3 82.6190 8.1604 173.7015 0.0000 6.2745 0.0000
# 4 0.0000 0.0000 0.0000 19.8471 0.0000 3.7581
# 5 -13.2906 -1.3996 6.2745 0.0000 16.8691 0.0000
# 6 0.0000 0.0000 0.0000 3.7581 0.0000 13.0223
#
#
#
# Elastic Compliance Matrix: (Units=1/GPa)
#
#
# Indices 1 2 3 4 5 6 
#
# 1 0.025321 -0.002205 -0.012827 0.000000 0.024538 0.000000
# 2 -0.002205 0.055778 -0.001699 0.000000 0.003522 0.000000
# 3 -0.012827 -0.001699 0.012475 0.000000 -0.014887 0.000000
# 4 0.000000 0.000000 0.000000 0.053298 0.000000 -0.015381
# 5 0.024538 0.003522 -0.014887 0.000000 0.084442 0.000000
# 6 0.000000 0.000000 0.000000 -0.015381 0.000000 0.081230
#
#
# Mechanical properties :
#
#
# Convention : Reuss Voigt Hill
#
# Bulk Modulus (GPa) = 16.63522 53.65085 35.14304
# Shear Modulus (GPa) = 13.65960 22.56132 18.11046
#
# Velocity S-wave (km/s) = 2.73994 3.52132 3.15491
# Velocity P-wave (km/s) = 4.37635 6.78375 5.70840
#
# Compressibility (1/GPa) = 0.06011342
#
# Stress axis : x y z
#
# Youngs Moduli (GPa) = 39.49240 17.92829 80.15813
#
# Poissons Ratio (x) = 0.03954 1.02815
# Poissons Ratio (y) = 0.08709 0.13617
# Poissons Ratio (z) = 0.50655 0.03046
#
# Static dielectric constant tensor:
#      x y z
#    x 1.562700 0.000000 0.025700 
#    y 0.000000 1.663700 0.000000 
#    z 0.025700 0.000000 1.666790 
# 
# From -- ./inp_files/179160.got.cif
#   From: 2010.05.17/outbox.cif.g08.bks.cpg/sg12_90_cif.got.tgz:179160.got - 2010.06.03 13:09:07.
