data_PCOD9177288
_publ_section_title
;
Structure prediction by ZEFSAII (Michael W. Deem and Ramdas Pophale) SiO2 
 PCOD9177288
Probable space group: C 2/M
;
_chemical_formula_sum "Si O2"
_cell_formula_units_Z 64
_cell_length_a 13.974361
_cell_length_b 28.718996
_cell_length_c 9.111767
_cell_angle_alpha 90.000000
_cell_angle_beta 78.246834
_cell_angle_gamma 90.000000
_cell_volume 3580.153835
_symmetry_space_group_name_H-M "C 2/M"
_symmetry_group_IT_number 12
_symmetry_cell_setting 'monoclinic'
loop_
_space_group_symop_operation_xyz
x,y,z
-x,y,-z
-x,-y,-z
x,-y,z
1/2+x,1/2+y,z
1/2-x,1/2+y,-z
1/2-x,1/2-y,-z
1/2+x,1/2-y,z
loop_
_atom_site_type_symbol
_atom_site_label
_atom_site_fract_x
_atom_site_fract_y
_atom_site_fract_z
Si Si1 0.741667 0.551493 0.507068
Si Si2 0.231914 0.141826 0.355778
Si Si3 0.646987 0.117898 0.946519
Si Si4 0.939981 0.449004 0.253189
Si Si5 0.796774 0.239783 0.738709
Si Si6 0.353760 0.082232 0.736771
Si Si7 0.611459 0.773402 0.986627
Si Si8 0.616174 0.825061 0.457862
O O1 0.698821 0.500000 0.493166
O O2 0.690289 0.598506 0.462783
O O3 0.846603 0.552951 0.389330
O O4 0.770804 0.557460 0.667630
O O5 0.258662 0.122950 0.186749
O O6 0.177458 0.190313 0.343331
O O7 0.332422 0.157775 0.408117
O O8 0.571850 0.091318 0.862972
O O9 0.616743 0.170329 0.997453
O O10 0.667045 0.088674 0.085542
O O11 0.938769 0.500000 0.182586
O O12 0.041119 0.442495 0.306340
O O13 0.683517 0.239102 0.828614
O O14 0.825703 0.280487 0.618978
O O15 0.851333 0.249976 0.875194
O O16 0.367338 0.132929 0.660722
O O17 0.500000 0.759740 0.000000
O O18 0.500000 0.816318 0.500000
#
# Coordination Sequence:
#
# PCOD9177288 Si02
#       8
#     8   8   8   8   8   8   8   8
#     4   9  18  31  45  61  89 129 163 205 260 304
#     4   9  20  35  48  69 102 128 173 216 252 308
#     4  10  19  30  46  64  91 133 172 210 250 294
#     4  10  19  28  39  61  92 128 172 214 246 289
#     4  10  21  34  53  77  99 139 180 213 261 305
#     4  11  18  27  43  65  92 130 174 208 245 294
#     4  10  20  35  54  75 104 137 178 216 260 308
#     4  11  21  32  50  74 102 141 176 214 254 304
#
# _framework density 17.876327
#
# number of rings (size 3 to 8) (size 9 to 14) (size 15 to 20)
#    0.000    2.000    1.250    4.500    3.500    2.500 
#    0.000    0.000    0.000    0.000    0.000    0.000 
#    0.000    1.000    0.000    0.375    0.000    8.250 
#
# Total GULP energy -178377.257097 kJ/mol
# GULP energy per Si atom -5574.289284 kJ/mol
# Density = 1.783564 g / cm^3
# Si number density = 17.876327 Si / 1000 Ang^3
#
#
#
# Elastic Constant Matrix: (Units=GPa)
#
#
# Indices 1 2 3 4 5 6 
#
# 1 27.8593 20.7624 6.5968 0.0000 4.2604 0.0000
# 2 20.7624 131.8319 22.7487 0.0000 8.0242 0.0000
# 3 6.5968 22.7487 78.0352 0.0000 8.4227 0.0000
# 4 0.0000 0.0000 0.0000 18.5189 0.0000 -2.6071
# 5 4.2604 8.0242 8.4227 0.0000 14.8776 0.0000
# 6 0.0000 0.0000 0.0000 -2.6071 0.0000 1.8434
#
#
#
# Elastic Compliance Matrix: (Units=1/GPa)
#
#
# Indices 1 2 3 4 5 6 
#
# 1 0.041786 -0.005921 -0.000916 0.000000 -0.008255 0.000000
# 2 -0.005921 0.008970 -0.001891 0.000000 -0.002072 0.000000
# 3 -0.000916 -0.001891 0.014171 0.000000 -0.006741 0.000000
# 4 0.000000 0.000000 0.000000 0.067423 0.000000 0.095356
# 5 -0.008255 -0.002072 -0.006741 0.000000 0.074513 0.000000
# 6 0.000000 0.000000 0.000000 0.095356 0.000000 0.677337
#
#
# Mechanical properties :
#
#
# Convention : Reuss Voigt Hill
#
# Bulk Modulus (GPa) = 21.06443 37.54915 29.30679
# Shear Modulus (GPa) = 5.44972 19.55587 12.50280
#
# Velocity S-wave (km/s) = 1.74791 3.31109 2.64750
# Velocity P-wave (km/s) = 3.98530 5.97229 5.07695
#
# Compressibility (1/GPa) = 0.04747339
#
# Stress axis : x y z
#
# Youngs Moduli (GPa) = 23.93140 111.47947 70.56715
#
# Poissons Ratio (x) = 0.66002 0.06461
# Poissons Ratio (y) = 0.14169 0.13343
# Poissons Ratio (z) = 0.02191 0.21079
#
# Static dielectric constant tensor:
#      x y z
#    x 1.593400 0.000000 -0.000730 
#    y 0.000000 1.662770 0.000000 
#    z -0.000730 0.000000 1.648530 
# 
# From -- ./inp_files/67861.got.cif
#   From: 2010.05.17/outbox.cif.g08.bks.cpg/sg12_34_cif.got.tgz:67861.got - 2010.06.03 13:09:07.
