data_PCOD9177482
_publ_section_title
;
Structure prediction by ZEFSAII (Michael W. Deem and Ramdas Pophale) SiO2 
 PCOD9177482
Probable space group: C 2/M
;
_chemical_formula_sum "Si O2"
_cell_formula_units_Z 64
_cell_length_a 28.543025
_cell_length_b 9.339440
_cell_length_c 20.950295
_cell_angle_alpha 90.000000
_cell_angle_beta 45.487582
_cell_angle_gamma 90.000000
_cell_volume 3982.543357
_symmetry_space_group_name_H-M "C 2/M"
_symmetry_group_IT_number 12
_symmetry_cell_setting 'monoclinic'
loop_
_space_group_symop_operation_xyz
x,y,z
-x,y,-z
-x,-y,-z
x,-y,z
1/2+x,1/2+y,z
1/2-x,1/2+y,-z
1/2-x,1/2-y,-z
1/2+x,1/2-y,z
loop_
_atom_site_type_symbol
_atom_site_label
_atom_site_fract_x
_atom_site_fract_y
_atom_site_fract_z
Si Si1 0.511453 0.164768 0.307451
Si Si2 0.823801 0.169746 0.639144
Si Si3 0.854648 0.336362 0.480808
Si Si4 0.445885 0.328398 0.606722
Si Si5 0.667960 0.335574 0.620549
Si Si6 0.989919 0.164814 0.203808
Si Si7 0.966047 0.671137 0.099096
Si Si8 0.815079 0.669286 0.268061
O O1 0.432628 0.162557 0.392638
O O2 0.540028 0.245066 0.341748
O O3 0.522861 0.250057 0.230756
O O4 0.533694 0.000000 0.282197
O O5 0.844042 0.252165 0.556105
O O6 0.874131 0.208027 0.647033
O O7 0.745875 0.195075 0.721152
O O8 0.833047 0.000000 0.619193
O O9 0.832708 0.500000 0.507319
O O10 0.821373 0.256981 0.452991
O O11 0.500000 0.294078 0.500000
O O12 0.450142 0.500000 0.613631
O O13 0.688445 0.500000 0.592953
O O14 0.588640 0.336119 0.707007
O O15 0.695236 0.261663 0.658222
O O16 0.996132 0.245193 0.130434
O O17 0.011634 0.000000 0.180174
O O18 0.973558 0.500000 0.102026
O O19 0.887640 0.701138 0.172322
O O20 0.000000 0.709069 0.000000
O O21 0.814288 0.500000 0.285918
#
# Coordination Sequence:
#
# PCOD9177482 Si02
#       8
#     8   8   8   8   8   8   8   8
#     4  10  19  30  46  67  93 123 158 200 239 273
#     4  10  20  32  45  62  87 121 158 194 230 268
#     4  10  19  29  43  63  87 119 158 196 231 267
#     4  10  19  31  47  65  88 121 162 203 238 271
#     4   9  17  29  45  63  87 120 156 190 226 267
#     4   9  17  29  47  71  97 123 153 189 229 275
#     4   9  17  31  52  76 100 123 147 180 226 280
#     4   9  18  32  47  65  91 120 151 185 223 272
#
# _framework density 16.070132999999998
#
# number of rings (size 3 to 8) (size 9 to 14) (size 15 to 20)
#    0.000    2.500    1.250    1.500    0.000    6.000 
#    0.000    0.000    0.000    0.000    0.000    0.875 
#    0.000    0.000    0.000    0.000    0.000    0.000 
#
# Total GULP energy -178459.453193 kJ/mol
# GULP energy per Si atom -5576.857912 kJ/mol
# Density = 1.603356 g / cm^3
# Si number density = 16.070133 Si / 1000 Ang^3
#
#
#
# Elastic Constant Matrix: (Units=GPa)
#
#
# Indices 1 2 3 4 5 6 
#
# 1 142.3034 74.5651 48.4019 -0.0029 20.2609 0.0007
# 2 74.5651 74.8051 45.8009 -0.0012 17.5177 0.0042
# 3 48.4019 45.8009 70.5208 -0.0070 21.1756 0.0030
# 4 -0.0029 -0.0012 -0.0070 16.5407 0.0063 7.8548
# 5 20.2609 17.5177 21.1756 0.0063 21.9678 -0.0018
# 6 0.0007 0.0042 0.0030 7.8548 -0.0018 24.1990
#
#
#
# Elastic Compliance Matrix: (Units=1/GPa)
#
#
# Indices 1 2 3 4 5 6 
#
# 1 0.014814 -0.014008 -0.000452 0.000002 -0.002057 0.000001
# 2 -0.014008 0.035895 -0.012642 -0.000002 -0.003518 -0.000004
# 3 -0.000452 -0.012642 0.027512 0.000021 -0.016022 -0.000009
# 4 0.000002 -0.000002 0.000021 0.071474 -0.000043 -0.023200
# 5 -0.002057 -0.003518 -0.016022 -0.000043 0.065667 0.000021
# 6 0.000001 -0.000004 -0.000009 -0.023200 0.000021 0.048854
#
#
# Mechanical properties :
#
#
# Convention : Reuss Voigt Hill
#
# Bulk Modulus (GPa) = 41.63741 69.46277 55.55009
# Shear Modulus (GPa) = 15.31738 20.46559 17.89149
#
# Velocity S-wave (km/s) = 3.09068 3.57251 3.34029
# Velocity P-wave (km/s) = 6.22113 7.76761 7.03698
#
# Compressibility (1/GPa) = 0.02401686
#
# Stress axis : x y z
#
# Youngs Moduli (GPa) = 67.50496 27.85905 36.34751
#
# Poissons Ratio (x) = 0.39024 0.01644
# Poissons Ratio (y) = 0.94558 0.45951
# Poissons Ratio (z) = 0.03054 0.35219
#
# Static dielectric constant tensor:
#      x y z
#    x 1.547230 0.000000 -0.032620 
#    y 0.000000 1.541970 0.000000 
#    z -0.032620 0.000000 1.517780 
# 
# From -- ./inp_files/326861.got.cif
#   From: 2010.05.17/outbox.cif.g08.bks.cpg/sg12_164_cif.got.tgz:326861.got - 2010.06.03 13:09:07.
