data_PCOD9177484
_publ_section_title
;
Structure prediction by ZEFSAII (Michael W. Deem and Ramdas Pophale) SiO2 
 PCOD9177484
Probable space group: C 2/M
;
_chemical_formula_sum "Si O2"
_cell_formula_units_Z 56
_cell_length_a 25.415461
_cell_length_b 7.897448
_cell_length_c 19.338531
_cell_angle_alpha 90.000000
_cell_angle_beta 50.085226
_cell_angle_gamma 90.000000
_cell_volume 2977.168779
_symmetry_space_group_name_H-M "C 2/M"
_symmetry_group_IT_number 12
_symmetry_cell_setting 'monoclinic'
loop_
_space_group_symop_operation_xyz
x,y,z
-x,y,-z
-x,-y,-z
x,-y,z
1/2+x,1/2+y,z
1/2-x,1/2+y,-z
1/2-x,1/2-y,-z
1/2+x,1/2-y,z
loop_
_atom_site_type_symbol
_atom_site_label
_atom_site_fract_x
_atom_site_fract_y
_atom_site_fract_z
Si Si1 0.052523 0.293409 0.897566
Si Si2 0.540590 0.207851 0.749469
Si Si3 0.304425 0.796490 0.395248
Si Si4 0.048214 0.692030 0.294495
Si Si5 0.945285 0.812436 0.483428
Si Si6 0.292813 0.795175 0.246894
Si Si7 0.849534 0.698597 0.677111
O O1 0.051602 0.500000 0.899231
O O2 0.033690 0.242992 0.835258
O O3 0.131648 0.243060 0.841662
O O4 0.000000 0.233226 0.000000
O O5 0.616669 0.260868 0.659526
O O6 0.478632 0.271146 0.753777
O O7 0.539587 0.000000 0.747403
O O8 0.250000 0.750000 0.500000
O O9 0.285100 0.738746 0.333702
O O10 0.306549 0.000000 0.390963
O O11 0.070591 0.500000 0.260917
O O12 0.106389 0.770546 0.295379
O O13 0.978481 0.690946 0.399393
O O14 0.875774 0.771625 0.581781
O O15 0.000000 0.811060 0.500000
O O16 0.942298 0.000000 0.455618
O O17 0.230938 0.728353 0.252827
O O18 0.289773 0.000000 0.248984
O O19 0.866012 0.500000 0.660648
#
# Coordination Sequence:
#
# PCOD9177484 Si02
#       7
#     8   8   8   8   8   8   8
#     4   8  14  28  52  76  92 110 144 192 241 284
#     4   8  15  28  45  66  91 116 147 189 233 271
#     4   9  18  30  43  62  89 119 148 184 227 269
#     4   9  17  29  44  64  91 123 158 192 224 266
#     4   9  17  28  41  59  86 122 160 195 227 256
#     4   9  18  31  46  68  95 118 149 192 233 273
#     4  10  19  29  43  63  90 126 163 190 218 267
#
# _framework density 18.809818
#
# number of rings (size 3 to 8) (size 9 to 14) (size 15 to 20)
#    0.000    3.143    0.000    2.571    2.000    2.857 
#    0.000    0.000    0.000    2.143    0.000    0.000 
#    0.000    0.000    0.000    0.000    0.000    0.429 
#
# Total GULP energy -155912.791823 kJ/mol
# GULP energy per Si atom -5568.313994 kJ/mol
# Density = 1.876701 g / cm^3
# Si number density = 18.809818 Si / 1000 Ang^3
#
#
#
# Elastic Constant Matrix: (Units=GPa)
#
#
# Indices 1 2 3 4 5 6 
#
# 1 132.4118 -3.4622 54.3549 -0.0066 -8.0432 0.0022
# 2 -3.4622 22.6871 -3.4262 -0.0100 0.3438 -0.0162
# 3 54.3549 -3.4262 117.6583 -0.0083 -5.4029 0.0023
# 4 -0.0066 -0.0100 -0.0083 11.8369 0.0011 -4.4466
# 5 -8.0432 0.3438 -5.4029 0.0011 14.2195 -0.0004
# 6 0.0022 -0.0162 0.0023 -4.4466 -0.0004 11.9698
#
#
#
# Elastic Compliance Matrix: (Units=1/GPa)
#
#
# Indices 1 2 3 4 5 6 
#
# 1 0.009528 0.000762 -0.004206 0.000003 0.003773 0.000001
# 2 0.000762 0.044338 0.000926 0.000071 -0.000289 0.000086
# 3 -0.004206 0.000926 0.010543 0.000007 0.001604 0.000003
# 4 0.000003 0.000071 0.000007 0.098184 -0.000004 0.036474
# 5 0.003773 -0.000289 0.001604 -0.000004 0.073077 0.000000
# 6 0.000001 0.000086 0.000003 0.036474 0.000000 0.097094
#
#
# Mechanical properties :
#
#
# Convention : Reuss Voigt Hill
#
# Bulk Modulus (GPa) = 16.84292 40.85447 28.84870
# Shear Modulus (GPa) = 13.98245 22.62461 18.30353
#
# Velocity S-wave (km/s) = 2.72942 3.47192 3.12281
# Velocity P-wave (km/s) = 4.34819 6.15136 5.32663
#
# Compressibility (1/GPa) = 0.05937211
#
# Stress axis : x y z
#
# Youngs Moduli (GPa) = 104.95457 22.55381 94.84988
#
# Poissons Ratio (x) = -0.01718 0.39896
# Poissons Ratio (y) = -0.07994 -0.08783
# Poissons Ratio (z) = 0.44146 -0.02088
#
# Static dielectric constant tensor:
#      x y z
#    x 1.699780 0.000000 0.000400 
#    y 0.000000 1.707210 0.000000 
#    z 0.000400 0.000000 1.635200 
# 
# From -- ./inp_files/287334.got.cif
#   From: 2010.05.17/outbox.cif.g08.bks.cpg/sg12_144_cif.got.tgz:287334.got - 2010.06.03 13:09:07.
