data_PCOD9177262
_publ_section_title
;
Structure prediction by ZEFSAII (Michael W. Deem and Ramdas Pophale) SiO2 
 PCOD9177262
Probable space group: C 2/M
;
_chemical_formula_sum "Si O2"
_cell_formula_units_Z 56
_cell_length_a 14.370987
_cell_length_b 28.438452
_cell_length_c 9.713239
_cell_angle_alpha 90.000000
_cell_angle_beta 71.264129
_cell_angle_gamma 90.000000
_cell_volume 3759.333880
_symmetry_space_group_name_H-M "C 2/M"
_symmetry_group_IT_number 12
_symmetry_cell_setting 'monoclinic'
loop_
_space_group_symop_operation_xyz
x,y,z
-x,y,-z
-x,-y,-z
x,-y,z
1/2+x,1/2+y,z
1/2-x,1/2+y,-z
1/2-x,1/2-y,-z
1/2+x,1/2-y,z
loop_
_atom_site_type_symbol
_atom_site_label
_atom_site_fract_x
_atom_site_fract_y
_atom_site_fract_z
Si Si1 0.599817 0.550065 0.042507
Si Si2 0.979973 0.751558 0.351423
Si Si3 0.857782 0.153680 0.369285
Si Si4 0.682797 0.278021 0.138227
Si Si5 0.619946 0.352403 0.950102
Si Si6 0.216426 0.706924 0.614633
Si Si7 0.465023 0.554095 0.359905
O O1 0.651160 0.500000 0.009516
O O2 0.558945 0.558521 0.214765
O O3 0.500000 0.547282 0.000000
O O4 0.654584 0.594456 0.957527
O O5 0.936838 0.805419 0.371604
O O6 0.899913 0.715940 0.326576
O O7 0.000000 0.739106 0.500000
O O8 0.081960 0.751496 0.222490
O O9 0.839492 0.164147 0.216268
O O10 0.764260 0.162765 0.511936
O O11 0.898735 0.100329 0.361933
O O12 0.736853 0.288636 0.256540
O O13 0.750000 0.250000 0.000000
O O14 0.651627 0.323646 0.067285
O O15 0.500000 0.351045 0.000000
O O16 0.250000 0.750000 0.500000
O O17 0.500000 0.556298 0.500000
O O18 0.425952 0.500000 0.353330
#
# Coordination Sequence:
#
# PCOD9177262 Si02
#       7
#     8   8   8   8   8   8   8
#     4   9  16  29  43  63  93 129 166 197 236 290
#     4  11  20  35  52  68  96 134 166 201 246 294
#     4  11  19  32  48  67 100 132 171 195 239 302
#     4  12  23  33  52  73  97 124 169 216 245 292
#     4  11  20  29  46  70  94 132 166 201 243 280
#     4  10  22  34  49  71  92 131 167 198 245 295
#     4  10  19  27  43  69  98 132 169 205 246 296
#
# _framework density 14.896255999999999
#
# number of rings (size 3 to 8) (size 9 to 14) (size 15 to 20)
#    0.000    1.429    7.143    2.143    2.000    0.000 
#    0.000    0.000    0.000    0.000    0.000    0.000 
#    0.000    1.714    0.000    2.571    0.000    0.000 
#
# Total GULP energy -155871.135842 kJ/mol
# GULP energy per Si atom -5566.826280 kJ/mol
# Density = 1.486235 g / cm^3
# Si number density = 14.896256 Si / 1000 Ang^3
#
#
#
# Elastic Constant Matrix: (Units=GPa)
#
#
# Indices 1 2 3 4 5 6 
#
# 1 73.4876 28.5240 43.3939 0.0000 0.9179 0.0000
# 2 28.5240 64.4282 17.5100 0.0000 -0.1070 0.0000
# 3 43.3939 17.5100 111.0676 0.0000 11.9565 0.0000
# 4 0.0000 0.0000 0.0000 22.7264 0.0000 1.6774
# 5 0.9179 -0.1070 11.9565 0.0000 32.5881 0.0000
# 6 0.0000 0.0000 0.0000 1.6774 0.0000 3.9008
#
#
#
# Elastic Compliance Matrix: (Units=1/GPa)
#
#
# Indices 1 2 3 4 5 6 
#
# 1 0.020571 -0.007168 -0.007124 0.000000 0.002011 0.000000
# 2 -0.007168 0.018747 -0.000191 0.000000 0.000333 0.000000
# 3 -0.007124 -0.000191 0.012280 0.000000 -0.004306 0.000000
# 4 0.000000 0.000000 0.000000 0.045444 0.000000 -0.019541
# 5 0.002011 0.000333 -0.004306 0.000000 0.032210 0.000000
# 6 0.000000 0.000000 0.000000 -0.019541 0.000000 0.264762
#
#
# Mechanical properties :
#
#
# Convention : Reuss Voigt Hill
#
# Bulk Modulus (GPa) = 44.18200 47.53770 45.85985
# Shear Modulus (GPa) = 11.61373 22.48009 17.04691
#
# Velocity S-wave (km/s) = 2.79523 3.88894 3.38653
# Velocity P-wave (km/s) = 6.33577 7.22128 6.79297
#
# Compressibility (1/GPa) = 0.02263365
#
# Stress axis : x y z
#
# Youngs Moduli (GPa) = 48.61139 53.34165 81.43143
#
# Poissons Ratio (x) = 0.38236 0.58008
# Poissons Ratio (y) = 0.34845 0.01554
# Poissons Ratio (z) = 0.34629 0.01018
#
# Static dielectric constant tensor:
#      x y z
#    x 1.503770 0.000000 0.097350 
#    y 0.000000 1.542980 0.000000 
#    z 0.097350 0.000000 0.621860 
# 
# From -- ./inp_files/67589.got.cif
#   From: 2010.05.17/outbox.cif.g08.bks.cpg/sg12_34_cif.got.tgz:67589.got - 2010.06.03 13:09:07.
