data_PCOD9177753
_publ_section_title
;
Structure prediction by ZEFSAII (Michael W. Deem and Ramdas Pophale) SiO2 
 PCOD9177753
Probable space group: C 2/M
;
_chemical_formula_sum "Si O2"
_cell_formula_units_Z 50
_cell_length_a 26.369184
_cell_length_b 7.451487
_cell_length_c 15.148825
_cell_angle_alpha 90.000000
_cell_angle_beta 54.033544
_cell_angle_gamma 90.000000
_cell_volume 2409.133398
_symmetry_space_group_name_H-M "C 2/M"
_symmetry_group_IT_number 12
_symmetry_cell_setting 'monoclinic'
loop_
_space_group_symop_operation_xyz
x,y,z
-x,y,-z
-x,-y,-z
x,-y,z
1/2+x,1/2+y,z
1/2-x,1/2+y,-z
1/2-x,1/2-y,-z
1/2+x,1/2-y,z
loop_
_atom_site_type_symbol
_atom_site_label
_atom_site_fract_x
_atom_site_fract_y
_atom_site_fract_z
Si Si1 0.042353 0.214094 0.709380
Si Si2 0.098736 0.211077 0.126374
Si Si3 0.691635 0.721232 0.878999
Si Si4 0.165780 0.716914 0.242573
Si Si5 0.563051 0.783851 0.484563
Si Si6 0.884933 0.801499 0.203673
Si Si7 0.500000 0.500000 0.000000
O O1 0.061348 0.236052 0.588800
O O2 0.091348 0.287358 0.730696
O O3 0.971732 0.285304 0.796050
O O4 0.039271 0.000000 0.730983
O O5 0.132079 0.228382 0.186551
O O6 0.091214 0.000000 0.113303
O O7 0.144573 0.282533 0.004110
O O8 0.690682 0.500000 0.879715
O O9 0.762572 0.777631 0.824912
O O10 0.664436 0.781964 0.812840
O O11 0.166519 0.500000 0.242557
O O12 0.123142 0.778375 0.367987
O O13 0.500000 0.719208 0.500000
O O14 0.562284 0.000000 0.480758
O O15 0.858211 0.000000 0.255088
O O16 0.947975 0.847091 0.083164
#
# Coordination Sequence:
#
# PCOD9177753 Si02
#       7
#     8   8   8   8   8   8   2
#     4  10  19  30  51  79 101 119 158 209 256 288
#     4  10  19  29  49  78 102 123 155 204 257 295
#     4   9  17  30  49  72 101 130 159 195 241 304
#     4  10  20  34  50  69  95 134 173 198 236 294
#     4  10  20  35  50  66  94 135 172 203 237 284
#     4   8  15  26  46  74 103 123 153 191 245 290
#     4   8  12  24  48  72 108 128 142 192 250 292
#
# _framework density 20.754352999999998
#
# number of rings (size 3 to 8) (size 9 to 14) (size 15 to 20)
#    0.480    2.080    1.600    1.440    2.240    0.960 
#    0.000    0.800    0.000    1.920    0.000    2.800 
#    0.000    0.000    0.000    0.000    0.000    0.000 
#
# Total GULP energy -139181.852897 kJ/mol
# GULP energy per Si atom -5567.274116 kJ/mol
# Density = 2.070711 g / cm^3
# Si number density = 20.754353 Si / 1000 Ang^3
#
#
#
# Elastic Constant Matrix: (Units=GPa)
#
#
# Indices 1 2 3 4 5 6 
#
# 1 103.1530 -6.3913 74.7586 -0.0011 25.5271 -0.0018
# 2 -6.3913 58.5269 2.4257 -0.0013 -1.9004 -0.0017
# 3 74.7586 2.4257 120.3583 0.0001 -12.0201 0.0001
# 4 -0.0011 -0.0013 0.0001 39.9686 0.0004 23.4282
# 5 25.5271 -1.9004 -12.0201 0.0004 -5.3742 0.0011
# 6 -0.0018 -0.0017 0.0001 23.4282 0.0011 19.4145
#
#
#
# Elastic Compliance Matrix: (Units=1/GPa)
#
#
# Indices 1 2 3 4 5 6 
#
# 1 0.004591 0.001264 -0.000608 0.000001 0.022720 -0.000002
# 2 0.001264 0.017327 -0.000937 -0.000001 0.001974 0.000003
# 3 -0.000608 -0.000937 0.006907 -0.000001 -0.018005 0.000002
# 4 0.000001 -0.000001 -0.000001 0.085492 -0.000005 -0.103166
# 5 0.022720 0.001974 -0.018005 -0.000005 -0.038584 0.000011
# 6 -0.000002 0.000003 0.000002 -0.103166 0.000011 0.176002
#
#
# Mechanical properties :
#
#
# Convention : Reuss Voigt Hill
#
# Bulk Modulus (GPa) = 35.38211 47.06934 41.22572
# Shear Modulus (GPa) = 19.10450 24.88480 21.99465
#
# Velocity S-wave (km/s) = 3.03728 3.46644 3.25893
# Velocity P-wave (km/s) = 5.42080 6.22496 5.83675
#
# Compressibility (1/GPa) = 0.02826287
#
# Stress axis : x y z
#
# Youngs Moduli (GPa) = 217.81981 57.71278 144.78177
#
# Poissons Ratio (x) = -0.07297 0.08804
# Poissons Ratio (y) = -0.27539 0.13571
# Poissons Ratio (z) = 0.13245 0.05410
#
# Static dielectric constant tensor:
#      x y z
#    x 1.748770 0.000000 0.021390 
#    y 0.000000 1.822360 0.000000 
#    z 0.021390 0.000000 1.714690 
# 
# From -- ./inp_files/237253.got.cif
#   From: 2010.05.17/outbox.cif.g08.bks.cpg/sg12_119_cif.got.tgz:237253.got - 2010.06.03 13:09:07.
