data_PCOD9177159
_publ_section_title
;
Structure prediction by ZEFSAII (Michael W. Deem and Ramdas Pophale) SiO2 
 PCOD9177159
Probable space group: C 2/M
;
_chemical_formula_sum "Si O2"
_cell_formula_units_Z 60
_cell_length_a 13.617548
_cell_length_b 10.055970
_cell_length_c 23.925005
_cell_angle_alpha 90.000000
_cell_angle_beta 113.399608
_cell_angle_gamma 90.000000
_cell_volume 3006.787866
_symmetry_space_group_name_H-M "C 2/M"
_symmetry_group_IT_number 12
_symmetry_cell_setting 'monoclinic'
loop_
_space_group_symop_operation_xyz
x,y,z
-x,y,-z
-x,-y,-z
x,-y,z
1/2+x,1/2+y,z
1/2-x,1/2+y,-z
1/2-x,1/2-y,-z
1/2+x,1/2-y,z
loop_
_atom_site_type_symbol
_atom_site_label
_atom_site_fract_x
_atom_site_fract_y
_atom_site_fract_z
Si Si1 0.516194 0.000000 0.864086
Si Si2 0.105866 0.713035 0.242154
Si Si3 0.204091 0.347070 0.073526
Si Si4 0.588407 0.736271 0.942971
Si Si5 0.140385 0.143720 0.143974
Si Si6 0.168801 0.848462 0.651258
Si Si7 0.001753 0.657778 0.331781
Si Si8 0.729433 0.153060 0.444282
O O1 0.452696 0.886140 0.813138
O O2 0.575212 0.881912 0.913217
O O3 0.131112 0.838144 0.208403
O O4 0.217297 0.658516 0.291418
O O5 0.029691 0.725100 0.278634
O O6 0.169414 0.500000 0.075965
O O7 0.316802 0.340045 0.067540
O O8 0.206620 0.264129 0.131404
O O9 0.124542 0.267624 0.014281
O O10 0.478512 0.658627 0.908316
O O11 0.187401 0.000000 0.140040
O O12 0.194362 0.821548 0.591895
O O13 0.091576 0.738683 0.659565
O O14 0.127161 0.000000 0.647066
O O15 0.978701 0.500000 0.317603
O O16 0.108862 0.665659 0.393447
O O17 0.750000 0.250000 0.500000
O O18 0.745344 0.000000 0.465167
#
# Coordination Sequence:
#
# PCOD9177159 Si02
#       8
#     4   8   8   8   8   8   8   8
#     4  10  18  38  65  86 109 160 200 246 311 370
#     4  10  21  41  62  81 123 160 205 253 308 371
#     4  11  24  40  63  92 118 153 199 247 314 380
#     4  10  23  40  64  84 121 152 198 248 308 374
#     4  11  26  41  60  89 121 158 202 253 308 373
#     4  10  21  39  63  91 122 166 208 255 308 363
#     4  10  21  39  63  92 123 169 209 254 316 364
#     4   9  20  39  62  90 131 171 212 253 301 357
#
# _framework density 19.954851000000001
#
# number of rings (size 3 to 8) (size 9 to 14) (size 15 to 20)
#    0.000    1.867    2.000    1.600    4.667    6.933 
#    0.000    5.333    0.000    0.000    0.000    0.000 
#    0.000    0.000    0.000    0.000    0.000    0.000 
#
# Total GULP energy -167008.717752 kJ/mol
# GULP energy per Si atom -5566.957258 kJ/mol
# Density = 1.990943 g / cm^3
# Si number density = 19.954851 Si / 1000 Ang^3
#
#
#
# Elastic Constant Matrix: (Units=GPa)
#
#
# Indices 1 2 3 4 5 6 
#
# 1 71.6798 29.2809 23.1060 0.0000 -21.1923 0.0000
# 2 29.2809 95.8602 47.2343 0.0000 -24.3528 0.0000
# 3 23.1060 47.2343 93.8242 0.0000 -23.9215 0.0000
# 4 0.0000 0.0000 0.0000 7.9428 0.0000 -5.2428
# 5 -21.1923 -24.3528 -23.9215 0.0000 15.9962 0.0000
# 6 0.0000 0.0000 0.0000 -5.2428 0.0000 16.6633
#
#
#
# Elastic Compliance Matrix: (Units=1/GPa)
#
#
# Indices 1 2 3 4 5 6 
#
# 1 0.023641 0.000576 0.003389 0.000000 0.037265 0.000000
# 2 0.000576 0.017629 -0.003199 0.000000 0.022817 0.000000
# 3 0.003389 -0.003199 0.018324 0.000000 0.027022 0.000000
# 4 0.000000 0.000000 0.000000 0.158901 0.000000 0.049995
# 5 0.037265 0.022817 0.027022 0.000000 0.187032 0.000000
# 6 0.000000 0.000000 0.000000 0.049995 0.000000 0.075742
#
#
# Mechanical properties :
#
#
# Convention : Reuss Voigt Hill
#
# Bulk Modulus (GPa) = 16.35992 51.17849 33.76921
# Shear Modulus (GPa) = 9.99777 18.90332 14.45055
#
# Velocity S-wave (km/s) = 2.24078 3.08117 2.69395
# Velocity P-wave (km/s) = 3.86148 6.19362 5.16101
#
# Compressibility (1/GPa) = 0.06112499
#
# Stress axis : x y z
#
# Youngs Moduli (GPa) = 42.29988 56.72483 54.57397
#
# Poissons Ratio (x) = -0.03266 -0.18497
# Poissons Ratio (y) = -0.02436 0.17461
# Poissons Ratio (z) = -0.14337 0.18149
#
# Static dielectric constant tensor:
#      x y z
#    x 1.730530 0.000000 -0.022420 
#    y 0.000000 1.718810 0.000000 
#    z -0.022420 0.000000 1.702500 
# 
# From -- ./inp_files/338956.got.cif
#   From: 2010.05.17/outbox.cif.g08.bks.cpg/sg12_170_cif.got.tgz:338956.got - 2010.06.03 13:09:07.
