data_PCOD9177199
_publ_section_title
;
Structure prediction by ZEFSAII (Michael W. Deem and Ramdas Pophale) SiO2 
 PCOD9177199
Probable space group: C 2/M
;
_chemical_formula_sum "Si O2"
_cell_formula_units_Z 36
_cell_length_a 12.963474
_cell_length_b 17.697691
_cell_length_c 8.991332
_cell_angle_alpha 90.000000
_cell_angle_beta 131.461566
_cell_angle_gamma 90.000000
_cell_volume 1545.879912
_symmetry_space_group_name_H-M "C 2/M"
_symmetry_group_IT_number 12
_symmetry_cell_setting 'monoclinic'
loop_
_space_group_symop_operation_xyz
x,y,z
-x,y,-z
-x,-y,-z
x,-y,z
1/2+x,1/2+y,z
1/2-x,1/2+y,-z
1/2-x,1/2-y,-z
1/2+x,1/2-y,z
loop_
_atom_site_type_symbol
_atom_site_label
_atom_site_fract_x
_atom_site_fract_y
_atom_site_fract_z
Si Si1 0.620039 0.000000 0.438658
Si Si2 0.873006 0.000000 0.503118
Si Si3 0.500000 0.745044 0.000000
Si Si4 0.952794 0.874059 0.209836
Si Si5 0.500000 0.133928 0.500000
Si Si6 0.655642 0.500000 0.083428
Si Si7 0.289897 0.264570 0.210470
O O1 0.706279 0.000000 0.365564
O O2 0.532969 0.076279 0.394233
O O3 0.732421 0.000000 0.681697
O O4 0.000000 0.000000 0.500000
O O5 0.917091 0.075031 0.632386
O O6 0.495912 0.690852 0.138461
O O7 0.646314 0.784974 0.149887
O O8 0.885600 0.837162 0.289476
O O9 0.842057 0.926954 0.019966
O O10 0.371991 0.191832 0.350315
O O11 0.500000 0.500000 0.000000
O O12 0.250000 0.250000 0.000000
#
# Coordination Sequence:
#
# PCOD9177199 Si02
#       7
#     4   4   4   8   4   4   8
#     4  11  21  41  65  99 124 159 228 268 333 367
#     4  11  22  37  55  85 131 171 205 256 310 402
#     4  10  18  39  66  87 116 164 218 264 310 383
#     4  10  19  35  61  90 117 162 217 253 315 372
#     4  11  24  40  68  99 132 162 212 293 320 378
#     4  11  17  35  74  88 114 165 225 275 298 374
#     4  10  22  39  60  95 130 161 207 263 333 385
#
# _framework density 23.287709
#
# number of rings (size 3 to 8) (size 9 to 14) (size 15 to 20)
#    0.000    1.556    3.333    4.000    1.556    0.000 
#    8.000    5.556    0.000    1.333    0.000    0.000 
#    0.000    0.000    0.000    0.000    0.000    0.000 
#
# Total GULP energy -100330.638542 kJ/mol
# GULP energy per Si atom -5573.924363 kJ/mol
# Density = 2.323471 g / cm^3
# Si number density = 23.287709 Si / 1000 Ang^3
#
#
#
# Elastic Constant Matrix: (Units=GPa)
#
#
# Indices 1 2 3 4 5 6 
#
# 1 156.1376 44.4335 7.0480 0.0000 23.7081 0.0000
# 2 44.4335 89.0464 7.5173 0.0000 15.4918 0.0000
# 3 7.0480 7.5173 52.0942 0.0000 15.1399 0.0000
# 4 0.0000 0.0000 0.0000 7.8088 0.0000 -4.0881
# 5 23.7081 15.4918 15.1399 0.0000 28.3562 0.0000
# 6 0.0000 0.0000 0.0000 -4.0881 0.0000 24.5991
#
#
#
# Elastic Compliance Matrix: (Units=1/GPa)
#
#
# Indices 1 2 3 4 5 6 
#
# 1 0.008105 -0.003157 0.000979 0.000000 -0.005575 0.000000
# 2 -0.003157 0.013641 -0.000169 0.000000 -0.004723 0.000000
# 3 0.000979 -0.000169 0.022844 0.000000 -0.012923 0.000000
# 4 0.000000 0.000000 0.000000 0.140264 0.000000 0.023310
# 5 -0.005575 -0.004723 -0.012923 0.000000 0.049407 0.000000
# 6 0.000000 0.000000 0.000000 0.023310 0.000000 0.044526
#
#
# Mechanical properties :
#
#
# Convention : Reuss Voigt Hill
#
# Bulk Modulus (GPa) = 25.06478 46.14176 35.60327
# Shear Modulus (GPa) = 16.84752 28.03810 22.44281
#
# Velocity S-wave (km/s) = 2.69262 3.47362 3.10775
# Velocity P-wave (km/s) = 4.52255 5.99540 5.31028
#
# Compressibility (1/GPa) = 0.03989662
#
# Stress axis : x y z
#
# Youngs Moduli (GPa) = 123.37481 73.30574 43.77576
#
# Poissons Ratio (x) = 0.23145 -0.04286
# Poissons Ratio (y) = 0.38954 0.00739
# Poissons Ratio (z) = -0.12080 0.01237
#
# Static dielectric constant tensor:
#      x y z
#    x 2.158400 0.000000 -0.024680 
#    y 0.000000 1.918680 0.000000 
#    z -0.024680 0.000000 1.974160 
# 
# From -- ./inp_files/130612.got.cif
#   From: 2010.05.17/outbox.cif.g08.bks.cpg/sg12_66_cif.got.tgz:130612.got - 2010.06.03 13:09:07.
