data_PCOD9177330
_publ_section_title
;
Structure prediction by ZEFSAII (Michael W. Deem and Ramdas Pophale) SiO2 
 PCOD9177330
Probable space group: C 2/M
;
_chemical_formula_sum "Si O2"
_cell_formula_units_Z 64
_cell_length_a 8.294597
_cell_length_b 22.493816
_cell_length_c 14.054926
_cell_angle_alpha 90.000000
_cell_angle_beta 89.507483
_cell_angle_gamma 90.000000
_cell_volume 2622.230994
_symmetry_space_group_name_H-M "C 2/M"
_symmetry_group_IT_number 12
_symmetry_cell_setting 'monoclinic'
loop_
_space_group_symop_operation_xyz
x,y,z
-x,y,-z
-x,-y,-z
x,-y,z
1/2+x,1/2+y,z
1/2-x,1/2+y,-z
1/2-x,1/2-y,-z
1/2+x,1/2-y,z
loop_
_atom_site_type_symbol
_atom_site_label
_atom_site_fract_x
_atom_site_fract_y
_atom_site_fract_z
Si Si1 0.097535 0.566199 0.390426
Si Si2 0.713296 0.814279 0.131900
Si Si3 0.743663 0.064015 0.181398
Si Si4 0.422106 0.310195 0.871267
Si Si5 0.409440 0.564495 0.899210
Si Si6 0.180098 0.690011 0.361565
Si Si7 0.160722 0.063514 0.436328
Si Si8 0.449322 0.683700 0.642797
O O1 0.016777 0.500000 0.382872
O O2 0.203912 0.565705 0.293233
O O3 0.053772 0.636832 0.385656
O O4 0.193637 0.564231 0.489068
O O5 0.658826 0.882682 0.124581
O O6 0.638031 0.753857 0.095299
O O7 0.700334 0.806958 0.246790
O O8 0.895561 0.816351 0.094210
O O9 0.937646 0.068507 0.173269
O O10 0.696529 0.000000 0.142529
O O11 0.325020 0.371190 0.892960
O O12 0.441226 0.308723 0.756676
O O13 0.672541 0.500000 0.114437
O O14 0.500000 0.562220 0.000000
O O15 0.364666 0.676640 0.392522
O O16 0.122113 0.754460 0.395929
O O17 0.150074 0.124187 0.378872
O O18 0.000000 0.062556 0.500000
O O19 0.161969 0.000000 0.382359
#
# Coordination Sequence:
#
# PCOD9177330 Si02
#       8
#     8   8   8   8   8   8   8   8
#     4   9  16  28  44  64  86 112 147 188 225 258
#     4   8  15  27  45  67  88 116 147 182 218 261
#     4   8  14  26  45  63  84 114 148 183 221 261
#     4   9  17  30  47  65  93 122 147 180 223 264
#     4   9  17  28  44  68  93 116 147 186 222 260
#     4   9  17  29  45  65  89 115 148 182 222 265
#     4  10  19  28  42  66  91 111 146 195 228 256
#     4  10  19  31  46  67  92 120 148 183 224 266
#
# _framework density 24.406697000000001
#
# number of rings (size 3 to 8) (size 9 to 14) (size 15 to 20)
#    0.000    3.000    1.250    0.750    0.000    1.000 
#    0.000    2.500    0.000    1.500    0.000    8.750 
#    0.000    9.500    0.000    0.000    0.000    0.000 
#
# Total GULP energy -178199.116424 kJ/mol
# GULP energy per Si atom -5568.722388 kJ/mol
# Density = 2.435115 g / cm^3
# Si number density = 24.406697 Si / 1000 Ang^3
#
#
#
# Elastic Constant Matrix: (Units=GPa)
#
#
# Indices 1 2 3 4 5 6 
#
# 1 38.9656 36.6054 6.9044 0.0000 -6.5830 0.0000
# 2 36.6054 318.1501 17.8346 0.0000 4.6093 0.0000
# 3 6.9044 17.8346 56.8813 0.0000 -12.5104 0.0000
# 4 0.0000 0.0000 0.0000 30.9583 0.0000 3.6775
# 5 -6.5830 4.6093 -12.5104 0.0000 14.6900 0.0000
# 6 0.0000 0.0000 0.0000 3.6775 0.0000 24.4713
#
#
#
# Elastic Compliance Matrix: (Units=1/GPa)
#
#
# Indices 1 2 3 4 5 6 
#
# 1 0.031998 -0.003974 0.000972 0.000000 0.016414 0.000000
# 2 -0.003974 0.003757 -0.001657 0.000000 -0.004370 0.000000
# 3 0.000972 -0.001657 0.022385 0.000000 0.020019 0.000000
# 4 0.000000 0.000000 0.000000 0.032889 0.000000 -0.004942
# 5 0.016414 -0.004370 0.020019 0.000000 0.093849 0.000000
# 6 0.000000 0.000000 0.000000 -0.004942 0.000000 0.041607
#
#
# Mechanical properties :
#
#
# Convention : Reuss Voigt Hill
#
# Bulk Modulus (GPa) = 20.48259 59.63177 40.05718
# Shear Modulus (GPa) = 19.83540 37.53408 28.68474
#
# Velocity S-wave (km/s) = 2.85389 3.92581 3.43196
# Velocity P-wave (km/s) = 4.38976 6.71080 5.67031
#
# Compressibility (1/GPa) = 0.04882195
#
# Stress axis : x y z
#
# Youngs Moduli (GPa) = 31.25239 266.19980 44.67300
#
# Poissons Ratio (x) = 1.05783 -0.04342
# Poissons Ratio (y) = 0.12419 0.07401
# Poissons Ratio (z) = -0.03038 0.44101
#
# Static dielectric constant tensor:
#      x y z
#    x 1.999420 0.000000 -0.028580 
#    y 0.000000 2.071920 0.000000 
#    z -0.028580 0.000000 1.969590 
# 
# From -- ./inp_files/263893.got.cif
#   From: 2010.05.17/outbox.cif.g08.bks.cpg/sg12_132_cif.got.tgz:263893.got - 2010.06.03 13:09:07.
