data_PCOD9177473
_publ_section_title
;
Structure prediction by ZEFSAII (Michael W. Deem and Ramdas Pophale) SiO2 
 PCOD9177473
Probable space group: C 2/M
;
_chemical_formula_sum "Si O2"
_cell_formula_units_Z 56
_cell_length_a 33.504070
_cell_length_b 9.115752
_cell_length_c 11.575794
_cell_angle_alpha 90.000000
_cell_angle_beta 81.130587
_cell_angle_gamma 90.000000
_cell_volume 3493.143310
_symmetry_space_group_name_H-M "C 2/M"
_symmetry_group_IT_number 12
_symmetry_cell_setting 'monoclinic'
loop_
_space_group_symop_operation_xyz
x,y,z
-x,y,-z
-x,-y,-z
x,-y,z
1/2+x,1/2+y,z
1/2-x,1/2+y,-z
1/2-x,1/2-y,-z
1/2+x,1/2-y,z
loop_
_atom_site_type_symbol
_atom_site_label
_atom_site_fract_x
_atom_site_fract_y
_atom_site_fract_z
Si Si1 0.281175 0.330822 0.826230
Si Si2 0.298997 0.330912 0.094809
Si Si3 0.520923 0.677741 0.665018
Si Si4 0.119413 0.674354 0.988220
Si Si5 0.958503 0.823625 0.086602
Si Si6 0.363168 0.825542 0.748733
Si Si7 0.063153 0.822500 0.409479
O O1 0.279462 0.500000 0.790253
O O2 0.238620 0.249551 0.828515
O O3 0.319150 0.246945 0.754832
O O4 0.289281 0.330028 0.961336
O O5 0.302290 0.500000 0.129486
O O6 0.341180 0.246663 0.087757
O O7 0.520343 0.500000 0.666834
O O8 0.535555 0.726278 0.783663
O O9 0.475027 0.721117 0.654183
O O10 0.549617 0.719035 0.545295
O O11 0.119775 0.500000 0.970668
O O12 0.079017 0.745603 0.956725
O O13 0.123224 0.701964 0.124285
O O14 0.048004 0.000000 0.912081
O O15 0.000000 0.794648 0.000000
O O16 0.396399 0.753116 0.651839
O O17 0.360816 0.000000 0.733361
O O18 0.067143 0.000000 0.402350
#
# Coordination Sequence:
#
# PCOD9177473 Si02
#       7
#     8   8   8   8   8   8   8
#     4   9  16  26  42  64  90 120 151 183 224 272
#     4   9  16  27  43  63  89 120 152 186 224 267
#     4   8  16  30  48  69  90 115 150 191 231 271
#     4  10  20  31  43  63  93 126 156 187 225 269
#     4  10  19  31  48  69  92 119 153 190 227 270
#     4  10  19  29  42  65  95 122 152 190 228 266
#     4   9  16  30  50  67  87 117 152 189 230 274
#
# _framework density 16.031407000000002
#
# number of rings (size 3 to 8) (size 9 to 14) (size 15 to 20)
#    0.000    2.714    0.000    3.429    0.000    6.571 
#    0.000    2.857    0.000    0.000    0.000    1.000 
#    0.000    0.000    0.000    0.000    0.000    0.000 
#
# Total GULP energy -156072.866103 kJ/mol
# GULP energy per Si atom -5574.030932 kJ/mol
# Density = 1.599492 g / cm^3
# Si number density = 16.031407 Si / 1000 Ang^3
#
#
#
# Elastic Constant Matrix: (Units=GPa)
#
#
# Indices 1 2 3 4 5 6 
#
# 1 127.8502 64.4659 53.1958 0.0000 -30.5442 0.0000
# 2 64.4659 72.4481 43.5118 0.0000 -17.3438 0.0000
# 3 53.1958 43.5118 60.3837 0.0000 -21.1788 0.0000
# 4 0.0000 0.0000 0.0000 16.1660 0.0000 -5.7749
# 5 -30.5442 -17.3438 -21.1788 0.0000 30.8183 0.0000
# 6 0.0000 0.0000 0.0000 -5.7749 0.0000 29.7694
#
#
#
# Elastic Compliance Matrix: (Units=1/GPa)
#
#
# Indices 1 2 3 4 5 6 
#
# 1 0.016785 -0.010289 -0.004703 0.000000 0.007614 0.000000
# 2 -0.010289 0.030751 -0.013969 0.000000 -0.002491 0.000000
# 3 -0.004703 -0.013969 0.034754 0.000000 0.011361 0.000000
# 4 0.000000 0.000000 0.000000 0.066464 0.000000 0.012893
# 5 0.007614 -0.002491 0.011361 0.000000 0.046401 0.000000
# 6 0.000000 0.000000 0.000000 0.012893 0.000000 0.036093
#
#
# Mechanical properties :
#
#
# Convention : Reuss Voigt Hill
#
# Bulk Modulus (GPa) = 41.03301 64.78099 52.90700
# Shear Modulus (GPa) = 16.81850 21.98465 19.40157
#
# Velocity S-wave (km/s) = 3.24249 3.70719 3.48260
# Velocity P-wave (km/s) = 6.29836 7.66948 7.01748
#
# Compressibility (1/GPa) = 0.02437062
#
# Stress axis : x y z
#
# Youngs Moduli (GPa) = 59.57606 32.51892 28.77342
#
# Poissons Ratio (x) = 0.33458 0.13531
# Poissons Ratio (y) = 0.61296 0.40193
# Poissons Ratio (z) = 0.28017 0.45425
#
# Static dielectric constant tensor:
#      x y z
#    x 1.516760 0.000000 0.000500 
#    y 0.000000 1.534870 0.000000 
#    z 0.000500 0.000000 1.527690 
# 
# From -- ./inp_files/186395.got.cif
#   From: 2010.05.17/outbox.cif.g08.bks.cpg/sg12_94_cif.got.tgz:186395.got - 2010.06.03 13:09:07.
