data_PCOD9177086
_publ_section_title
;
Structure prediction by ZEFSAII (Michael W. Deem and Ramdas Pophale) SiO2 
 PCOD9177086
Probable space group: C 2/M
;
_chemical_formula_sum "Si O2"
_cell_formula_units_Z 42
_cell_length_a 17.484401
_cell_length_b 12.976748
_cell_length_c 9.304572
_cell_angle_alpha 90.000000
_cell_angle_beta 75.698160
_cell_angle_gamma 90.000000
_cell_volume 2045.692263
_symmetry_space_group_name_H-M "C 2/M"
_symmetry_group_IT_number 12
_symmetry_cell_setting 'monoclinic'
loop_
_space_group_symop_operation_xyz
x,y,z
-x,y,-z
-x,-y,-z
x,-y,z
1/2+x,1/2+y,z
1/2-x,1/2+y,-z
1/2-x,1/2-y,-z
1/2+x,1/2-y,z
loop_
_atom_site_type_symbol
_atom_site_label
_atom_site_fract_x
_atom_site_fract_y
_atom_site_fract_z
Si Si1 0.211983 0.117240 0.117885
Si Si2 0.066652 0.378025 0.362983
Si Si3 0.768018 0.288250 0.649966
Si Si4 0.500000 0.500000 0.000000
Si Si5 0.394387 0.120519 0.974687
Si Si6 0.387013 0.326986 0.113410
O O1 0.213039 0.194103 0.250285
O O2 0.201244 0.000000 0.170586
O O3 0.298631 0.124980 0.003955
O O4 0.146866 0.142535 0.029072
O O5 0.054109 0.500000 0.362539
O O6 0.153851 0.357065 0.382970
O O7 0.067759 0.347341 0.194604
O O8 0.000000 0.332815 0.500000
O O9 0.750000 0.250000 0.500000
O O10 0.688186 0.338089 0.748651
O O11 0.454530 0.408243 0.112664
O O12 0.412476 0.000000 0.000367
O O13 0.411328 0.206742 0.087256
#
# Coordination Sequence:
#
# PCOD9177086 Si02
#       6
#     8   8   8   2   8   8
#     4  10  18  37  66  91 118 165 217 261 306 391
#     4  10  20  34  59  89 117 157 208 261 316 373
#     4  11  23  39  62  93 130 168 211 268 327 388
#     4  12  28  36  66 102 130 172 214 278 322 388
#     4   9  17  34  66  89 110 156 218 265 304 365
#     4  11  21  41  62  93 128 168 221 260 317 393
#
# _framework density 20.530947000000001
#
# number of rings (size 3 to 8) (size 9 to 14) (size 15 to 20)
#    0.000    1.714    4.762    1.143    1.333    2.286 
#    0.000    0.476    0.000    1.714    0.000    0.000 
#    0.000    0.000    0.000    0.000    0.000    0.000 
#
# Total GULP energy -116962.511008 kJ/mol
# GULP energy per Si atom -5569.643381 kJ/mol
# Density = 2.048422 g / cm^3
# Si number density = 20.530947 Si / 1000 Ang^3
#
#
#
# Elastic Constant Matrix: (Units=GPa)
#
#
# Indices 1 2 3 4 5 6 
#
# 1 47.5330 -9.8104 20.0599 0.0000 -13.6498 0.0000
# 2 -9.8104 74.7785 5.1753 0.0000 -13.1191 0.0000
# 3 20.0599 5.1753 92.7774 0.0000 -20.1992 0.0000
# 4 0.0000 0.0000 0.0000 18.6639 0.0000 -13.8526
# 5 -13.6498 -13.1191 -20.1992 0.0000 35.6922 0.0000
# 6 0.0000 0.0000 0.0000 -13.8526 0.0000 -0.9030
#
#
#
# Elastic Compliance Matrix: (Units=1/GPa)
#
#
# Indices 1 2 3 4 5 6 
#
# 1 0.026709 0.005536 -0.003897 0.000000 0.010044 0.000000
# 2 0.005536 0.015455 -0.000412 0.000000 0.007564 0.000000
# 3 -0.003897 -0.000412 0.012873 0.000000 0.005643 0.000000
# 4 0.000000 0.000000 0.000000 0.004326 0.000000 -0.066360
# 5 0.010044 0.007564 0.005643 0.000000 0.037832 0.000000
# 6 0.000000 0.000000 0.000000 -0.066360 0.000000 -0.089409
#
#
# Mechanical properties :
#
#
# Convention : Reuss Voigt Hill
#
# Bulk Modulus (GPa) = 17.39424 27.32650 22.36037
# Shear Modulus (GPa) = 204.10926 24.00156 114.05541
#
# Velocity S-wave (km/s) = 9.98154 3.42284 7.46147
# Velocity P-wave (km/s) = 11.88832 5.38144 9.22746
#
# Compressibility (1/GPa) = 0.05749031
#
# Stress axis : x y z
#
# Youngs Moduli (GPa) = 37.43988 64.70506 77.68382
#
# Poissons Ratio (x) = -0.35820 0.30274
# Poissons Ratio (y) = -0.20726 0.03202
# Poissons Ratio (z) = 0.14591 0.02667
#
# Static dielectric constant tensor:
#      x y z
#    x 1.793380 0.000000 -0.032060 
#    y 0.000000 1.769810 0.000000 
#    z -0.032060 0.000000 1.740140 
# 
# From -- ./inp_files/73534.got.cif
#   From: 2010.05.17/outbox.cif.g08.bks.cpg/sg12_37_cif.got.tgz:73534.got - 2010.06.03 13:09:07.
