data_PCOD9177215
_publ_section_title
;
Structure prediction by ZEFSAII (Michael W. Deem and Ramdas Pophale) SiO2 
 PCOD9177215
Probable space group: C 2/M
;
_chemical_formula_sum "Si O2"
_cell_formula_units_Z 36
_cell_length_a 11.378046
_cell_length_b 22.980285
_cell_length_c 13.780146
_cell_angle_alpha 90.000000
_cell_angle_beta 153.094260
_cell_angle_gamma 90.000000
_cell_volume 1630.491650
_symmetry_space_group_name_H-M "C 2/M"
_symmetry_group_IT_number 12
_symmetry_cell_setting 'monoclinic'
loop_
_space_group_symop_operation_xyz
x,y,z
-x,y,-z
-x,-y,-z
x,-y,z
1/2+x,1/2+y,z
1/2-x,1/2+y,-z
1/2-x,1/2-y,-z
1/2+x,1/2-y,z
loop_
_atom_site_type_symbol
_atom_site_label
_atom_site_fract_x
_atom_site_fract_y
_atom_site_fract_z
Si Si1 0.957681 0.606342 0.581931
Si Si2 0.500000 0.639481 0.000000
Si Si3 0.952613 0.323582 0.078121
Si Si4 0.767821 0.433128 0.637716
Si Si5 0.118670 0.790771 0.279974
O O1 0.766861 0.576062 0.519256
O O2 0.853270 0.673232 0.499613
O O3 0.000000 0.586543 0.500000
O O4 0.245935 0.603024 0.837865
O O5 0.582800 0.679780 0.148963
O O6 0.026314 0.387148 0.169397
O O7 0.129040 0.277733 0.268994
O O8 0.653624 0.305479 0.870387
O O9 0.000000 0.318842 0.000000
O O10 0.500000 0.421807 0.500000
O O11 0.838141 0.500000 0.707902
#
# Coordination Sequence:
#
# PCOD9177215 Si02
#       5
#     8   4   8   8   8
#     4  10  22  40  71  96 131 168 212 273 339 389
#     4  10  18  40  61  98 129 160 204 272 322 408
#     4  11  22  39  64  95 133 172 217 263 334 395
#     4  11  25  44  64  93 134 178 229 271 311 384
#     4  10  21  37  64 100 130 161 207 273 337 397
#
# _framework density 22.079231
#
# number of rings (size 3 to 8) (size 9 to 14) (size 15 to 20)
#    0.000    1.556    3.333    1.333    0.000    4.444 
#    0.000    1.667    0.000    0.000    0.000    0.000 
#    0.000    0.000    0.000    0.000    0.000    0.000 
#
# Total GULP energy -100441.428467 kJ/mol
# GULP energy per Si atom -5580.079359 kJ/mol
# Density = 2.202898 g / cm^3
# Si number density = 22.079231 Si / 1000 Ang^3
#
#
#
# Elastic Constant Matrix: (Units=GPa)
#
#
# Indices 1 2 3 4 5 6 
#
# 1 194.5949 46.4561 23.7723 -0.0006 12.2757 -0.0001
# 2 46.4561 99.7102 28.0605 -0.0002 0.1485 -0.0004
# 3 23.7723 28.0605 54.6950 -0.0012 9.8585 -0.0004
# 4 -0.0006 -0.0002 -0.0012 17.2618 -0.0007 -14.5881
# 5 12.2757 0.1485 9.8585 -0.0007 21.2787 -0.0004
# 6 -0.0001 -0.0004 -0.0004 -14.5881 -0.0004 32.1360
#
#
#
# Elastic Compliance Matrix: (Units=1/GPa)
#
#
# Indices 1 2 3 4 5 6 
#
# 1 0.006048 -0.002609 -0.000725 0.000000 -0.003135 0.000000
# 2 -0.002609 0.013019 -0.006329 0.000000 0.004347 0.000000
# 3 -0.000725 -0.006329 0.023745 0.000002 -0.010539 0.000001
# 4 0.000000 0.000000 0.000002 0.093989 0.000003 0.042666
# 5 -0.003135 0.004347 -0.010539 0.000003 0.053656 0.000002
# 6 0.000000 0.000000 0.000001 0.042666 0.000002 0.050486
#
#
# Mechanical properties :
#
#
# Convention : Reuss Voigt Hill
#
# Bulk Modulus (GPa) = 42.57817 60.61976 51.59896
# Shear Modulus (GPa) = 18.64988 30.84938 24.74963
#
# Velocity S-wave (km/s) = 2.90949 3.74199 3.35169
# Velocity P-wave (km/s) = 5.53290 6.79596 6.19670
#
# Compressibility (1/GPa) = 0.02348621
#
# Stress axis : x y z
#
# Youngs Moduli (GPa) = 165.34068 76.80922 42.11454
#
# Poissons Ratio (x) = 0.20041 0.03053
# Poissons Ratio (y) = 0.43140 0.26653
# Poissons Ratio (z) = 0.11988 0.48611
#
# Static dielectric constant tensor:
#      x y z
#    x 1.894920 0.000000 0.032250 
#    y 0.000000 1.805770 0.000000 
#    z 0.032250 0.000000 1.873740 
# 
# From -- ./inp_files/207866.got.cif
#   From: 2010.05.17/outbox.cif.g08.bks.cpg/sg12_104_cif.got.tgz:207866.got - 2010.06.03 13:09:07.
