data_PCOD9177998
_publ_section_title
;
Structure prediction by ZEFSAII (Michael W. Deem and Ramdas Pophale) SiO2 
 PCOD9177998
Probable space group: C 2/M
;
_chemical_formula_sum "Si O2"
_cell_formula_units_Z 50
_cell_length_a 19.133935
_cell_length_b 7.611270
_cell_length_c 27.094306
_cell_angle_alpha 90.000000
_cell_angle_beta 148.023358
_cell_angle_gamma 90.000000
_cell_volume 2089.612189
_symmetry_space_group_name_H-M "C 2/M"
_symmetry_group_IT_number 12
_symmetry_cell_setting 'monoclinic'
loop_
_space_group_symop_operation_xyz
x,y,z
-x,y,-z
-x,-y,-z
x,-y,z
1/2+x,1/2+y,z
1/2-x,1/2+y,-z
1/2-x,1/2-y,-z
1/2+x,1/2-y,z
loop_
_atom_site_type_symbol
_atom_site_label
_atom_site_fract_x
_atom_site_fract_y
_atom_site_fract_z
Si Si1 0.295152 0.209969 0.683714
Si Si2 0.254552 0.203671 0.762969
Si Si3 0.317500 0.292814 0.591896
Si Si4 0.927496 0.706535 0.031745
Si Si5 0.615172 0.288510 0.776724
Si Si6 0.402064 0.210376 0.125328
Si Si7 0.000000 0.000000 0.000000
O O1 0.223937 0.279619 0.690297
O O2 0.242611 0.241047 0.597323
O O3 0.446583 0.277324 0.775612
O O4 0.302944 0.000000 0.694416
O O5 0.412855 0.206372 0.862253
O O6 0.193594 0.281889 0.776162
O O7 0.211646 0.000000 0.736450
O O8 0.331243 0.500000 0.602391
O O9 0.250000 0.250000 0.500000
O O10 0.465830 0.216977 0.682913
O O11 0.895639 0.500000 0.001620
O O12 0.868548 0.769513 0.049447
O O13 0.921521 0.845330 0.984487
O O14 0.614256 0.500000 0.772644
O O15 0.664489 0.254629 0.862103
O O16 0.404957 0.000000 0.123255
#
# Coordination Sequence:
#
# PCOD9177998 Si02
#       7
#     8   8   8   8   8   8   2
#     4   8  14  28  49  67  92 124 162 207 251 296
#     4   8  15  32  53  75 100 127 161 213 264 293
#     4  10  19  30  45  68  98 132 168 206 251 304
#     4   9  19  35  54  78 107 136 168 213 254 303
#     4   9  17  29  51  77  96 125 170 216 250 300
#     4   8  15  29  48  73  98 127 165 206 254 291
#     4  12  22  32  56  86 104 136 176 202 254 318
#
# _framework density 23.927883000000001
#
# number of rings (size 3 to 8) (size 9 to 14) (size 15 to 20)
#    0.000    3.200    0.000    2.640    1.120    0.640 
#    5.760    0.800    0.000    5.760    0.000    0.000 
#    0.000    0.000    0.000    0.000    0.000    0.000 
#
# Total GULP energy -139226.382856 kJ/mol
# GULP energy per Si atom -5569.055314 kJ/mol
# Density = 2.387342 g / cm^3
# Si number density = 23.927883 Si / 1000 Ang^3
#
#
#
# Elastic Constant Matrix: (Units=GPa)
#
#
# Indices 1 2 3 4 5 6 
#
# 1 264.2451 38.1082 64.5397 -0.0001 -55.2142 -0.0001
# 2 38.1082 84.7674 6.8966 -0.0001 -12.4053 -0.0001
# 3 64.5397 6.8966 90.0370 -0.0001 -47.3354 0.0000
# 4 -0.0001 -0.0001 -0.0001 -0.0335 0.0000 -7.6637
# 5 -55.2142 -12.4053 -47.3354 0.0000 42.9792 0.0000
# 6 -0.0001 -0.0001 0.0000 -7.6637 0.0000 27.2944
#
#
#
# Elastic Compliance Matrix: (Units=1/GPa)
#
#
# Indices 1 2 3 4 5 6 
#
# 1 0.005364 -0.001532 -0.000801 0.000000 0.005567 0.000000
# 2 -0.001532 0.012941 0.002461 -0.000001 0.004477 0.000000
# 3 -0.000801 0.002461 0.026901 -0.000001 0.029308 0.000000
# 4 0.000000 -0.000001 -0.000001 -0.457596 -0.000002 -0.128483
# 5 0.005567 0.004477 0.029308 -0.000002 0.063989 -0.000001
# 6 0.000000 0.000000 0.000000 -0.128483 -0.000001 0.000562
#
#
# Mechanical properties :
#
#
# Convention : Reuss Voigt Hill
#
# Bulk Modulus (GPa) = 21.99691 73.12649 47.56170
# Shear Modulus (GPa) = -15.01769 36.01502 10.49867
#
# Velocity S-wave (km/s) = -2.50796 3.88383 2.09694
# Velocity P-wave (km/s) = 0.90911 7.12318 5.07771
#
# Compressibility (1/GPa) = 0.04546093
#
# Stress axis : x y z
#
# Youngs Moduli (GPa) = 186.42507 77.27602 37.17395
#
# Poissons Ratio (x) = 0.11836 0.02978
# Poissons Ratio (y) = 0.28554 -0.09147
# Poissons Ratio (z) = 0.14936 -0.19015
#
# Static dielectric constant tensor:
#      x y z
#    x 2.024320 0.000000 -0.039170 
#    y 0.000000 1.866540 0.000000 
#    z -0.039170 0.000000 2.124910 
# 
# From -- ./inp_files/362698.got.cif
#   From: 2010.05.17/outbox.cif.g08.bks.cpg/sg12_182_cif.got.tgz:362698.got - 2010.06.03 13:09:07.
