data_PCOD9177146
_publ_section_title
;
Structure prediction by ZEFSAII (Michael W. Deem and Ramdas Pophale) SiO2 
 PCOD9177146
Probable space group: C 2/M
;
_chemical_formula_sum "Si O2"
_cell_formula_units_Z 36
_cell_length_a 13.936059
_cell_length_b 16.328430
_cell_length_c 7.577012
_cell_angle_alpha 90.000000
_cell_angle_beta 119.628929
_cell_angle_gamma 90.000000
_cell_volume 1498.734806
_symmetry_space_group_name_H-M "C 2/M"
_symmetry_group_IT_number 12
_symmetry_cell_setting 'monoclinic'
loop_
_space_group_symop_operation_xyz
x,y,z
-x,y,-z
-x,-y,-z
x,-y,z
1/2+x,1/2+y,z
1/2-x,1/2+y,-z
1/2-x,1/2-y,-z
1/2+x,1/2-y,z
loop_
_atom_site_type_symbol
_atom_site_label
_atom_site_fract_x
_atom_site_fract_y
_atom_site_fract_z
Si Si1 0.686780 0.000000 0.202905
Si Si2 0.614353 0.326568 0.184404
Si Si3 0.126321 0.871367 0.594523
Si Si4 0.942544 0.645614 0.731608
Si Si5 0.653697 0.183070 0.732160
O O1 0.780807 0.070780 0.244948
O O2 0.602236 0.071053 0.199717
O O3 0.644733 0.367123 0.399009
O O4 0.595199 0.231511 0.218179
O O5 0.716385 0.332670 0.143773
O O6 0.500000 0.358187 0.000000
O O7 0.133311 0.779866 0.681750
O O8 0.000000 0.898998 0.500000
O O9 0.888453 0.642169 0.487833
O O10 0.073629 0.651208 0.811970
#
# Coordination Sequence:
#
# PCOD9177146 Si02
#       5
#     4   8   8   8   8
#     4  12  21  35  66  94 124 150 208 264 305 345
#     4  11  21  38  63  90 122 164 207 250 296 367
#     4  11  20  39  63  92 117 162 211 248 298 361
#     4  10  20  36  62  91 116 160 208 253 294 356
#     4  10  18  38  63  85 119 161 215 242 285 371
#
# _framework density 24.020261000000001
#
# number of rings (size 3 to 8) (size 9 to 14) (size 15 to 20)
#    0.000    1.333    8.889    1.667    0.000    2.667 
#    0.000    1.111    0.000    0.000    0.000    0.000 
#    0.000    0.000    0.000    0.000    0.000    0.000 
#
# Total GULP energy -100296.878131 kJ/mol
# GULP energy per Si atom -5572.048785 kJ/mol
# Density = 2.396559 g / cm^3
# Si number density = 24.020261 Si / 1000 Ang^3
#
#
#
# Elastic Constant Matrix: (Units=GPa)
#
#
# Indices 1 2 3 4 5 6 
#
# 1 262.2843 50.0284 27.0229 0.0000 40.2022 0.0000
# 2 50.0284 56.7949 10.1587 0.0000 -0.1364 0.0000
# 3 27.0229 10.1587 76.3733 0.0000 0.7341 0.0000
# 4 0.0000 0.0000 0.0000 -16.9229 0.0000 13.2332
# 5 40.2022 -0.1364 0.7341 0.0000 36.6645 0.0000
# 6 0.0000 0.0000 0.0000 13.2332 0.0000 40.4969
#
#
#
# Elastic Compliance Matrix: (Units=1/GPa)
#
#
# Indices 1 2 3 4 5 6 
#
# 1 0.005886 -0.004957 -0.001361 0.000000 -0.006446 0.000000
# 2 -0.004957 0.022211 -0.001254 0.000000 0.005543 0.000000
# 3 -0.001361 -0.001254 0.013730 0.000000 0.001213 0.000000
# 4 0.000000 0.000000 0.000000 -0.047065 0.000000 0.015380
# 5 -0.006446 0.005543 0.001213 0.000000 0.034338 0.000000
# 6 0.000000 0.000000 0.000000 0.015380 0.000000 0.019668
#
#
# Mechanical properties :
#
#
# Convention : Reuss Voigt Hill
#
# Bulk Modulus (GPa) = 37.47629 63.31917 50.39773
# Shear Modulus (GPa) = 68.67401 32.59719 50.63560
#
# Velocity S-wave (km/s) = 5.35277 3.68784 4.59632
# Velocity P-wave (km/s) = 7.33748 6.67469 7.01392
#
# Compressibility (1/GPa) = 0.02668353
#
# Stress axis : x y z
#
# Youngs Moduli (GPa) = 169.88337 45.02230 72.83108
#
# Poissons Ratio (x) = 0.22318 0.09916
# Poissons Ratio (y) = 0.84212 0.09131
# Poissons Ratio (z) = 0.23129 0.05645
#
# Static dielectric constant tensor:
#      x y z
#    x 1.922840 0.000000 0.027230 
#    y 0.000000 1.864820 0.000000 
#    z 0.027230 0.000000 2.007030 
# 
# From -- ./inp_files/60498.got.cif
#   From: 2010.05.17/outbox.cif.g08.bks.cpg/sg12_31_cif.got.tgz:60498.got - 2010.06.03 13:09:07.
