data_PCOD9177537
_publ_section_title
;
Structure prediction by ZEFSAII (Michael W. Deem and Ramdas Pophale) SiO2 
 PCOD9177537
Probable space group: C 2/M
;
_chemical_formula_sum "Si O2"
_cell_formula_units_Z 64
_cell_length_a 25.614429
_cell_length_b 9.132053
_cell_length_c 19.558444
_cell_angle_alpha 90.000000
_cell_angle_beta 115.707422
_cell_angle_gamma 90.000000
_cell_volume 4122.135262
_symmetry_space_group_name_H-M "C 2/M"
_symmetry_group_IT_number 12
_symmetry_cell_setting 'monoclinic'
loop_
_space_group_symop_operation_xyz
x,y,z
-x,y,-z
-x,-y,-z
x,-y,z
1/2+x,1/2+y,z
1/2-x,1/2+y,-z
1/2-x,1/2-y,-z
1/2+x,1/2-y,z
loop_
_atom_site_type_symbol
_atom_site_label
_atom_site_fract_x
_atom_site_fract_y
_atom_site_fract_z
Si Si1 0.006764 0.674871 0.819306
Si Si2 0.049123 0.824095 0.084344
Si Si3 0.996449 0.325896 0.656993
Si Si4 0.111042 0.177008 0.661434
Si Si5 0.210637 0.824533 0.820873
Si Si6 0.330346 0.675669 0.918922
Si Si7 0.438329 0.331233 0.505325
Si Si8 0.631827 0.676241 0.906935
O O1 0.010183 0.500000 0.829367
O O2 0.070565 0.744433 0.863534
O O3 0.966720 0.744215 0.854736
O O4 0.985485 0.706785 0.730215
O O5 0.111746 0.784072 0.089754
O O6 0.047271 0.000000 0.093213
O O7 0.000000 0.788555 0.000000
O O8 0.002034 0.500000 0.651773
O O9 0.948038 0.264755 0.577783
O O10 0.057051 0.250452 0.669688
O O11 0.170021 0.215680 0.733595
O O12 0.106637 0.217118 0.578806
O O13 0.103530 0.000000 0.660999
O O14 0.272597 0.749062 0.858046
O O15 0.174413 0.786431 0.868772
O O16 0.217905 0.000000 0.824639
O O17 0.324579 0.500000 0.912641
O O18 0.340668 0.715257 0.004305
O O19 0.500000 0.327949 0.500000
O O20 0.427158 0.500000 0.517851
O O21 0.622178 0.500000 0.900563
#
# Coordination Sequence:
#
# PCOD9177537 Si02
#       8
#     8   8   8   8   8   8   8   8
#     4  11  22  32  48  75 101 127 162 206 248 285
#     4  10  20  37  56  70  91 127 167 204 248 295
#     4  10  19  29  43  69 101 128 157 196 243 288
#     4   9  17  30  47  68  96 130 165 194 230 285
#     4  10  20  32  50  73  99 133 165 197 240 289
#     4  10  21  35  51  71  95 126 166 208 243 286
#     4   8  15  27  44  66  93 127 162 194 229 282
#     4  10  19  34  52  69  96 134 168 197 238 289
#
# _framework density 15.525935
#
# number of rings (size 3 to 8) (size 9 to 14) (size 15 to 20)
#    0.000    2.250    2.500    1.875    0.000    6.000 
#    0.000    0.000    0.000    0.000    0.000    0.875 
#    0.000    0.000    0.000    0.000    0.000    0.000 
#
# Total GULP energy -178445.746372 kJ/mol
# GULP energy per Si atom -5576.429574 kJ/mol
# Density = 1.549060 g / cm^3
# Si number density = 15.525935 Si / 1000 Ang^3
#
#
#
# Elastic Constant Matrix: (Units=GPa)
#
#
# Indices 1 2 3 4 5 6 
#
# 1 86.2464 33.2022 75.9403 0.0000 11.4960 0.0000
# 2 33.2022 29.5952 55.0656 0.0000 -1.6948 0.0000
# 3 75.9403 55.0656 166.6026 0.0000 1.2460 0.0000
# 4 0.0000 0.0000 0.0000 22.9316 0.0000 4.0215
# 5 11.4960 -1.6948 1.2460 0.0000 15.7627 0.0000
# 6 0.0000 0.0000 0.0000 4.0215 0.0000 22.5526
#
#
#
# Elastic Compliance Matrix: (Units=1/GPa)
#
#
# Indices 1 2 3 4 5 6 
#
# 1 0.027917 -0.024025 -0.004616 0.000000 -0.022579 0.000000
# 2 -0.024025 0.110658 -0.025859 0.000000 0.031463 0.000000
# 3 -0.004616 -0.025859 0.016659 0.000000 -0.000731 0.000000
# 4 0.000000 0.000000 0.000000 0.045016 0.000000 -0.008027
# 5 -0.022579 0.031463 -0.000731 0.000000 0.083348 0.000000
# 6 0.000000 0.000000 0.000000 -0.008027 0.000000 0.045772
#
#
# Mechanical properties :
#
#
# Convention : Reuss Voigt Hill
#
# Bulk Modulus (GPa) = 21.62873 67.87337 44.75105
# Shear Modulus (GPa) = 11.01856 20.13179 15.57517
#
# Velocity S-wave (km/s) = 2.66689 3.60482 3.17072
# Velocity P-wave (km/s) = 4.84190 7.81903 6.50313
#
# Compressibility (1/GPa) = 0.04623480
#
# Stress axis : x y z
#
# Youngs Moduli (GPa) = 35.82050 9.03687 60.02894
#
# Poissons Ratio (x) = 0.21711 0.27707
# Poissons Ratio (y) = 0.86057 1.55230
# Poissons Ratio (z) = 0.16533 0.23369
#
# Static dielectric constant tensor:
#      x y z
#    x 1.481900 0.000000 -0.006020 
#    y 0.000000 1.518840 0.000000 
#    z -0.006020 0.000000 1.537390 
# 
# From -- ./inp_files/323780.got.cif
#   From: 2010.05.17/outbox.cif.g08.bks.cpg/sg12_162_cif.got.tgz:323780.got - 2010.06.03 13:09:07.
