data_PCOD9177651
_publ_section_title
;
Structure prediction by ZEFSAII (Michael W. Deem and Ramdas Pophale) SiO2 
 PCOD9177651
Probable space group: C 2/M
;
_chemical_formula_sum "Si O2"
_cell_formula_units_Z 56
_cell_length_a 27.637401
_cell_length_b 8.841623
_cell_length_c 17.993308
_cell_angle_alpha 90.000000
_cell_angle_beta 54.351685
_cell_angle_gamma 90.000000
_cell_volume 3572.910621
_symmetry_space_group_name_H-M "C 2/M"
_symmetry_group_IT_number 12
_symmetry_cell_setting 'monoclinic'
loop_
_space_group_symop_operation_xyz
x,y,z
-x,y,-z
-x,-y,-z
x,-y,z
1/2+x,1/2+y,z
1/2-x,1/2+y,-z
1/2-x,1/2-y,-z
1/2+x,1/2-y,z
loop_
_atom_site_type_symbol
_atom_site_label
_atom_site_fract_x
_atom_site_fract_y
_atom_site_fract_z
Si Si1 0.536207 0.182192 0.039942
Si Si2 0.326615 0.181057 0.063953
Si Si3 0.905473 0.683596 0.599280
Si Si4 0.481506 0.323732 0.787461
Si Si5 0.209928 0.681359 0.213469
Si Si6 0.660696 0.322320 0.106425
Si Si7 0.984811 0.317434 0.393505
O O1 0.606182 0.224305 0.972994
O O2 0.533611 0.000000 0.045891
O O3 0.500000 0.232899 0.000000
O O4 0.510468 0.246718 0.139793
O O5 0.274938 0.246193 0.162188
O O6 0.322931 0.000000 0.063739
O O7 0.316958 0.249522 0.990298
O O8 0.905794 0.500000 0.599185
O O9 0.839722 0.731620 0.682197
O O10 0.954392 0.728742 0.617591
O O11 0.931264 0.730400 0.496289
O O12 0.495773 0.500000 0.779738
O O13 0.410984 0.309054 0.832276
O O14 0.515650 0.249183 0.688128
O O15 0.214283 0.500000 0.210546
O O16 0.184592 0.735829 0.156674
O O17 0.676551 0.500000 0.095748
O O18 0.985125 0.500000 0.388840
#
# Coordination Sequence:
#
# PCOD9177651 Si02
#       7
#     8   8   8   8   8   8   8
#     4   9  19  36  55  71  87 114 153 191 228 277
#     4  10  20  32  46  65  89 116 148 187 229 272
#     4   8  16  27  44  65  88 123 164 197 219 252
#     4  10  19  29  45  71  98 122 149 187 236 278
#     4  11  19  29  44  64  91 124 158 187 221 262
#     4  10  19  30  42  61  91 125 158 186 216 262
#     4   9  15  29  47  64  88 123 164 195 221 257
#
# _framework density 15.673496
#
# number of rings (size 3 to 8) (size 9 to 14) (size 15 to 20)
#    0.000    2.429    1.429    3.000    0.000    2.000 
#    0.000    2.857    0.000    0.000    0.000    1.000 
#    0.000    0.000    0.000    0.000    0.000    0.000 
#
# Total GULP energy -156113.579310 kJ/mol
# GULP energy per Si atom -5575.484975 kJ/mol
# Density = 1.563782 g / cm^3
# Si number density = 15.673496 Si / 1000 Ang^3
#
#
#
# Elastic Constant Matrix: (Units=GPa)
#
#
# Indices 1 2 3 4 5 6 
#
# 1 59.4804 19.9124 60.1886 0.0000 5.0842 -0.0001
# 2 19.9124 32.4838 35.4857 0.0000 -2.0598 -0.0001
# 3 60.1886 35.4857 153.8132 0.0000 -9.8699 0.0000
# 4 0.0000 0.0000 0.0000 17.8275 0.0000 -5.2109
# 5 5.0842 -2.0598 -9.8699 0.0000 23.3850 0.0000
# 6 -0.0001 -0.0001 0.0000 -5.2109 0.0000 14.7111
#
#
#
# Elastic Compliance Matrix: (Units=1/GPa)
#
#
# Indices 1 2 3 4 5 6 
#
# 1 0.032303 -0.007899 -0.011628 0.000000 -0.012627 0.000000
# 2 -0.007899 0.043092 -0.006678 0.000000 0.002695 0.000000
# 3 -0.011628 -0.006678 0.013071 0.000000 0.007457 0.000000
# 4 0.000000 0.000000 0.000000 0.062571 0.000000 0.022164
# 5 -0.012627 0.002695 0.007457 0.000000 0.048892 0.000000
# 6 0.000000 0.000000 0.000000 0.022164 0.000000 0.075827
#
#
# Mechanical properties :
#
#
# Convention : Reuss Voigt Hill
#
# Bulk Modulus (GPa) = 27.73505 52.99451 40.36478
# Shear Modulus (GPa) = 14.69792 19.86412 17.28102
#
# Velocity S-wave (km/s) = 3.06560 3.56388 3.32409
# Velocity P-wave (km/s) = 5.50132 7.12881 6.36728
#
# Compressibility (1/GPa) = 0.03605546
#
# Stress axis : x y z
#
# Youngs Moduli (GPa) = 30.95733 23.20596 76.50730
#
# Poissons Ratio (x) = 0.18331 0.88964
# Poissons Ratio (y) = 0.24454 0.51090
# Poissons Ratio (z) = 0.35998 0.15496
#
# Static dielectric constant tensor:
#      x y z
#    x 1.516320 0.000000 -0.029240 
#    y 0.000000 1.524290 0.000000 
#    z -0.029240 0.000000 1.534390 
# 
# From -- ./inp_files/243644.got.cif
#   From: 2010.05.17/outbox.cif.g08.bks.cpg/sg12_122_cif.got.tgz:243644.got - 2010.06.03 13:09:07.
