data_PCOD9177076
_publ_section_title
;
Structure prediction by ZEFSAII (Michael W. Deem and Ramdas Pophale) SiO2 
 PCOD9177076
Probable space group: C 2/M
;
_chemical_formula_sum "Si O2"
_cell_formula_units_Z 52
_cell_length_a 9.396831
_cell_length_b 21.444303
_cell_length_c 18.497094
_cell_angle_alpha 90.000000
_cell_angle_beta 41.850669
_cell_angle_gamma 90.000000
_cell_volume 2486.837092
_symmetry_space_group_name_H-M "C 2/M"
_symmetry_group_IT_number 12
_symmetry_cell_setting 'monoclinic'
loop_
_space_group_symop_operation_xyz
x,y,z
-x,y,-z
-x,-y,-z
x,-y,z
1/2+x,1/2+y,z
1/2-x,1/2+y,-z
1/2-x,1/2-y,-z
1/2+x,1/2-y,z
loop_
_atom_site_type_symbol
_atom_site_label
_atom_site_fract_x
_atom_site_fract_y
_atom_site_fract_z
Si Si1 0.365980 0.500000 0.979251
Si Si2 0.082875 0.900463 0.797220
Si Si3 0.156674 0.000000 0.642863
Si Si4 0.606236 0.398753 0.533595
Si Si5 0.305725 0.138211 0.130541
Si Si6 0.737777 0.292626 0.297581
Si Si7 0.911764 0.500000 0.115036
Si Si8 0.979631 0.673270 0.676576
O O1 0.430244 0.440958 0.906689
O O2 0.500000 0.500000 0.000000
O O3 0.115143 0.500000 0.089110
O O4 0.171527 0.945588 0.701160
O O5 0.277000 0.870910 0.767394
O O6 0.920951 0.851334 0.822178
O O7 0.137786 0.946446 0.586369
O O8 0.500000 0.425647 0.500000
O O9 0.441516 0.344471 0.618024
O O10 0.832842 0.367118 0.429925
O O11 0.336745 0.186117 0.183588
O O12 0.291533 0.065762 0.166309
O O13 0.500000 0.139991 0.000000
O O14 0.914649 0.296469 0.292730
O O15 0.616286 0.227314 0.337546
O O16 0.000000 0.500000 0.000000
#
# Coordination Sequence:
#
# PCOD9177076 Si02
#       8
#     4   8   4   8   8   8   4   8
#     4  11  23  38  63  97 136 179 222 280 334 405
#     4  11  23  41  63 100 139 176 223 276 335 405
#     4  11  22  42  67 102 143 176 213 276 347 401
#     4  10  23  43  71 103 136 175 224 276 343 413
#     4  11  21  40  69  99 129 179 225 271 339 404
#     4  11  24  45  69  97 132 182 229 286 326 406
#     4  10  18  37  64  94 128 174 225 261 339 407
#     4  11  26  45  66  97 135 178 234 277 342 395
#
# _framework density 20.910094999999998
#
# number of rings (size 3 to 8) (size 9 to 14) (size 15 to 20)
#    0.000    1.231    4.615    2.077    2.154    2.462 
#    0.000    5.385    0.000    0.000    0.000    0.000 
#    0.000    0.000    0.000    0.000    0.000    0.000 
#
# Total GULP energy -144746.327718 kJ/mol
# GULP energy per Si atom -5567.166451 kJ/mol
# Density = 2.086250 g / cm^3
# Si number density = 20.910095 Si / 1000 Ang^3
#
#
#
# Elastic Constant Matrix: (Units=GPa)
#
#
# Indices 1 2 3 4 5 6 
#
# 1 145.1773 22.7354 29.4736 -0.0001 -16.4788 0.0000
# 2 22.7354 51.5172 7.1983 -0.0002 -15.0698 0.0000
# 3 29.4736 7.1983 55.9013 -0.0005 -11.6821 -0.0003
# 4 -0.0001 -0.0002 -0.0005 22.9002 0.0000 -2.0528
# 5 -16.4788 -15.0698 -11.6821 0.0000 33.9605 0.0003
# 6 0.0000 0.0000 -0.0003 -2.0528 0.0003 27.9121
#
#
#
# Elastic Compliance Matrix: (Units=1/GPa)
#
#
# Indices 1 2 3 4 5 6 
#
# 1 0.008226 -0.002665 -0.003671 0.000000 0.001546 0.000000
# 2 -0.002665 0.023209 0.000322 0.000000 0.009116 0.000000
# 3 -0.003671 0.000322 0.020946 0.000000 0.005567 0.000000
# 4 0.000000 0.000000 0.000000 0.043958 0.000000 0.003233
# 5 0.001546 0.009116 0.005567 0.000000 0.036157 0.000000
# 6 0.000000 0.000000 0.000000 0.003233 0.000000 0.036064
#
#
# Mechanical properties :
#
#
# Convention : Reuss Voigt Hill
#
# Bulk Modulus (GPa) = 24.78160 41.26783 33.02471
# Shear Modulus (GPa) = 25.76796 29.83379 27.80087
#
# Velocity S-wave (km/s) = 3.51425 3.78135 3.65025
# Velocity P-wave (km/s) = 5.32389 6.23246 5.79601
#
# Compressibility (1/GPa) = 0.04035252
#
# Stress axis : x y z
#
# Youngs Moduli (GPa) = 121.56150 43.08688 47.74166
#
# Poissons Ratio (x) = 0.11483 0.17526
# Poissons Ratio (y) = 0.32398 -0.01536
# Poissons Ratio (z) = 0.44624 -0.01386
#
# Static dielectric constant tensor:
#      x y z
#    x 1.763640 0.000000 -0.019770 
#    y 0.000000 1.758010 0.000000 
#    z -0.019770 0.000000 1.784340 
# 
# From -- ./inp_files/258445.got.cif
#   From: 2010.05.17/outbox.cif.g08.bks.cpg/sg12_130_cif.got.tgz:258445.got - 2010.06.03 13:09:07.
