data_PCOD9177080
_publ_section_title
;
Structure prediction by ZEFSAII (Michael W. Deem and Ramdas Pophale) SiO2 
 PCOD9177080
Probable space group: C 2/M
;
_chemical_formula_sum "Si O2"
_cell_formula_units_Z 52
_cell_length_a 9.194265
_cell_length_b 32.211677
_cell_length_c 15.760193
_cell_angle_alpha 90.000000
_cell_angle_beta 142.990999
_cell_angle_gamma 90.000000
_cell_volume 2809.606078
_symmetry_space_group_name_H-M "C 2/M"
_symmetry_group_IT_number 12
_symmetry_cell_setting 'monoclinic'
loop_
_space_group_symop_operation_xyz
x,y,z
-x,y,-z
-x,-y,-z
x,-y,z
1/2+x,1/2+y,z
1/2-x,1/2+y,-z
1/2-x,1/2-y,-z
1/2+x,1/2-y,z
loop_
_atom_site_type_symbol
_atom_site_label
_atom_site_fract_x
_atom_site_fract_y
_atom_site_fract_z
Si Si1 0.265242 0.211723 0.832914
Si Si2 0.780841 0.000000 0.652811
Si Si3 0.741469 0.000000 0.839093
Si Si4 0.127234 0.140089 0.650419
Si Si5 0.267926 0.086561 0.450039
Si Si6 0.500000 0.642910 0.000000
Si Si7 0.027754 0.586977 0.753294
Si Si8 0.467045 0.283689 0.112826
O O1 0.237597 0.181511 0.741347
O O2 0.308118 0.258677 0.821121
O O3 0.037767 0.208533 0.789616
O O4 0.500000 0.199722 0.000000
O O5 0.500000 0.000000 0.500000
O O6 0.854165 0.044126 0.644362
O O7 0.785941 0.000000 0.757456
O O8 0.605489 0.959505 0.808043
O O9 0.000000 0.000000 0.000000
O O10 0.340234 0.107555 0.730458
O O11 0.000000 0.852268 0.500000
O O12 0.937498 0.120638 0.628793
O O13 0.500000 0.097593 0.500000
O O14 0.390304 0.082197 0.599469
O O15 0.270773 0.615055 0.865620
O O16 0.569864 0.674243 0.956179
O O17 0.250000 0.250000 0.000000
#
# Coordination Sequence:
#
# PCOD9177080 Si02
#       8
#     8   4   4   8   8   4   8   8
#     4  10  20  38  61  88 118 155 204 257 303 367
#     4  10  18  37  65  83 115 159 211 247 285 370
#     4  12  22  39  59  95 128 162 198 251 310 353
#     4  10  24  41  60  90 129 160 204 261 304 361
#     4  10  20  39  63  86 114 164 210 247 298 363
#     4  12  22  35  64  94 124 166 200 255 320 364
#     4  11  22  37  62  89 126 162 203 251 301 365
#     4  10  19  35  59  87 116 156 204 249 302 369
#
# _framework density 18.507932
#
# number of rings (size 3 to 8) (size 9 to 14) (size 15 to 20)
#    0.000    1.538    6.154    1.846    2.154    0.615 
#    2.769    3.077    0.000    0.923    0.000    0.000 
#    0.000    0.000    0.000    0.000    0.000    0.000 
#
# Total GULP energy -144815.927942 kJ/mol
# GULP energy per Si atom -5569.843382 kJ/mol
# Density = 1.846581 g / cm^3
# Si number density = 18.507932 Si / 1000 Ang^3
#
#
#
# Elastic Constant Matrix: (Units=GPa)
#
#
# Indices 1 2 3 4 5 6 
#
# 1 83.9816 25.7925 12.8919 0.0000 -10.6740 0.0000
# 2 25.7925 112.1676 35.6368 0.0000 -8.4937 0.0000
# 3 12.8919 35.6368 68.4792 0.0000 -2.9867 0.0000
# 4 0.0000 0.0000 0.0000 20.2299 0.0000 -10.8192
# 5 -10.6740 -8.4937 -2.9867 0.0000 23.4215 0.0000
# 6 0.0000 0.0000 0.0000 -10.8192 0.0000 21.9869
#
#
#
# Elastic Compliance Matrix: (Units=1/GPa)
#
#
# Indices 1 2 3 4 5 6 
#
# 1 0.013451 -0.002361 -0.001080 0.000000 0.005136 0.000000
# 2 -0.002361 0.011337 -0.005353 0.000000 0.002353 0.000000
# 3 -0.001080 -0.005353 0.017583 0.000000 -0.000191 0.000000
# 4 0.000000 0.000000 0.000000 0.067087 0.000000 0.033012
# 5 0.005136 0.002353 -0.000191 0.000000 0.045865 0.000000
# 6 0.000000 0.000000 0.000000 0.033012 0.000000 0.061726
#
#
# Mechanical properties :
#
#
# Convention : Reuss Voigt Hill
#
# Bulk Modulus (GPa) = 40.34736 45.91897 43.13316
# Shear Modulus (GPa) = 20.58477 25.81480 23.19979
#
# Velocity S-wave (km/s) = 3.33860 3.73875 3.54433
# Velocity P-wave (km/s) = 6.05880 6.59560 6.33289
#
# Compressibility (1/GPa) = 0.02478477
#
# Stress axis : x y z
#
# Youngs Moduli (GPa) = 74.34373 88.20753 56.87173
#
# Poissons Ratio (x) = 0.20827 0.06140
# Poissons Ratio (y) = 0.17553 0.30441
# Poissons Ratio (z) = 0.08026 0.47214
#
# Static dielectric constant tensor:
#      x y z
#    x 1.704350 0.000000 0.024310 
#    y 0.000000 1.632090 0.000000 
#    z 0.024310 0.000000 1.693570 
# 
# From -- ./inp_files/201407.got.cif
#   From: 2010.05.17/outbox.cif.g08.bks.cpg/sg12_101_cif.got.tgz:201407.got - 2010.06.03 13:09:07.
