data_PCOD9177607
_publ_section_title
;
Structure prediction by ZEFSAII (Michael W. Deem and Ramdas Pophale) SiO2 
 PCOD9177607
Probable space group: C 2/M
;
_chemical_formula_sum "Si O2"
_cell_formula_units_Z 64
_cell_length_a 24.609656
_cell_length_b 9.184794
_cell_length_c 28.353725
_cell_angle_alpha 90.000000
_cell_angle_beta 42.249988
_cell_angle_gamma 90.000000
_cell_volume 4309.146424
_symmetry_space_group_name_H-M "C 2/M"
_symmetry_group_IT_number 12
_symmetry_cell_setting 'monoclinic'
loop_
_space_group_symop_operation_xyz
x,y,z
-x,y,-z
-x,-y,-z
x,-y,z
1/2+x,1/2+y,z
1/2-x,1/2+y,-z
1/2-x,1/2-y,-z
1/2+x,1/2-y,z
loop_
_atom_site_type_symbol
_atom_site_label
_atom_site_fract_x
_atom_site_fract_y
_atom_site_fract_z
Si Si1 0.604257 0.327452 0.234186
Si Si2 0.844782 0.827175 0.988888
Si Si3 0.589262 0.174189 0.961306
Si Si4 0.920522 0.669721 0.517069
Si Si5 0.015764 0.173472 0.382324
Si Si6 0.667395 0.174759 0.336579
Si Si7 0.152046 0.672459 0.110704
Si Si8 0.740067 0.173315 0.799275
O O1 0.604969 0.500000 0.223137
O O2 0.530352 0.297051 0.317602
O O3 0.606372 0.236820 0.185156
O O4 0.686550 0.296507 0.211083
O O5 0.869949 0.752348 0.923721
O O6 0.857280 0.000000 0.978637
O O7 0.889476 0.757450 0.004558
O O8 0.748235 0.800759 0.056584
O O9 0.656850 0.210172 0.878669
O O10 0.595018 0.000000 0.966121
O O11 0.500000 0.207195 0.000000
O O12 0.914133 0.500000 0.508109
O O13 0.846502 0.709781 0.599240
O O14 0.000000 0.682158 0.500000
O O15 0.938323 0.765074 0.459634
O O16 0.091406 0.252042 0.358859
O O17 0.257411 0.000000 0.212011
O O18 0.742840 0.239283 0.259688
O O19 0.663396 0.000000 0.334661
O O20 0.140055 0.500000 0.114091
O O21 0.477821 0.500000 0.615110
#
# Coordination Sequence:
#
# PCOD9177607 Si02
#       8
#     8   8   8   8   8   8   8   8
#     4   9  16  26  39  57  82 109 137 174 211 247
#     4  10  20  32  46  65  86 109 139 177 218 258
#     4  10  20  34  50  65  85 113 143 179 220 261
#     4   8  14  23  32  46  69  99 133 168 202 239
#     4   9  16  23  33  51  74 103 135 167 203 243
#     4   9  16  24  35  50  71 100 134 171 208 242
#     4  10  19  29  45  65  84 110 142 176 215 256
#     4   9  17  28  41  58  79 104 138 175 211 252
#
# _framework density 14.852129
#
# number of rings (size 3 to 8) (size 9 to 14) (size 15 to 20)
#    0.000    2.750    1.250    3.000    0.000    7.000 
#    0.000    0.000    0.000    0.000    0.000    0.000 
#    0.000    0.000    0.000    1.125    0.000   14.375 
#
# Total GULP energy -178137.056418 kJ/mol
# GULP energy per Si atom -5566.783013 kJ/mol
# Density = 1.481832 g / cm^3
# Si number density = 14.852129 Si / 1000 Ang^3
#
#
#
# Elastic Constant Matrix: (Units=GPa)
#
#
# Indices 1 2 3 4 5 6 
#
# 1 44.1570 35.4193 46.8257 0.0002 8.7975 -0.0013
# 2 35.4193 58.5826 69.7432 -0.0001 18.6627 -0.0012
# 3 46.8257 69.7432 148.8090 -0.0001 30.5523 0.0003
# 4 0.0002 -0.0001 -0.0001 30.4557 0.0002 8.3750
# 5 8.7975 18.6627 30.5523 0.0002 14.5094 -0.0002
# 6 -0.0013 -0.0012 0.0003 8.3750 -0.0002 13.9636
#
#
#
# Elastic Compliance Matrix: (Units=1/GPa)
#
#
# Indices 1 2 3 4 5 6 
#
# 1 0.047277 -0.027847 -0.005803 -0.000002 0.019371 0.000004
# 2 -0.027847 0.058766 -0.011850 0.000000 -0.033750 0.000002
# 3 -0.005803 -0.011850 0.018053 0.000001 -0.019253 -0.000003
# 4 -0.000002 0.000000 0.000001 0.039320 -0.000002 -0.023583
# 5 0.019371 -0.033750 -0.019253 -0.000002 0.141126 0.000003
# 6 0.000004 0.000002 -0.000003 -0.023583 0.000003 0.085759
#
#
# Mechanical properties :
#
#
# Convention : Reuss Voigt Hill
#
# Bulk Modulus (GPa) = 30.21502 61.72499 45.97001
# Shear Modulus (GPa) = 10.15574 18.42309 14.28942
#
# Velocity S-wave (km/s) = 2.61778 3.52580 3.10516
# Velocity P-wave (km/s) = 5.43370 7.63053 6.62382
#
# Compressibility (1/GPa) = 0.03309612
#
# Stress axis : x y z
#
# Youngs Moduli (GPa) = 21.15191 17.01671 55.39348
#
# Poissons Ratio (x) = 0.47386 0.32142
# Poissons Ratio (y) = 0.58901 0.65643
# Poissons Ratio (z) = 0.12274 0.20165
#
# Static dielectric constant tensor:
#      x y z
#    x 1.447690 0.000000 0.004840 
#    y 0.000000 1.491610 0.000000 
#    z 0.004840 0.000000 1.542160 
# 
# From -- ./inp_files/367037.got.cif
#   From: 2010.05.17/outbox.cif.g08.bks.cpg/sg12_184_cif.got.tgz:367037.got - 2010.06.03 13:09:07.
