data_PCOD9177093
_publ_section_title
;
Structure prediction by ZEFSAII (Michael W. Deem and Ramdas Pophale) SiO2 
 PCOD9177093
Probable space group: C 2/M
;
_chemical_formula_sum "Si O2"
_cell_formula_units_Z 60
_cell_length_a 23.594285
_cell_length_b 14.613404
_cell_length_c 16.095778
_cell_angle_alpha 90.000000
_cell_angle_beta 155.295926
_cell_angle_gamma 90.000000
_cell_volume 2319.399022
_symmetry_space_group_name_H-M "C 2/M"
_symmetry_group_IT_number 12
_symmetry_cell_setting 'monoclinic'
loop_
_space_group_symop_operation_xyz
x,y,z
-x,y,-z
-x,-y,-z
x,-y,z
1/2+x,1/2+y,z
1/2-x,1/2+y,-z
1/2-x,1/2-y,-z
1/2+x,1/2-y,z
loop_
_atom_site_type_symbol
_atom_site_label
_atom_site_fract_x
_atom_site_fract_y
_atom_site_fract_z
Si Si1 0.921615 0.107468 0.512657
Si Si2 0.143232 0.500000 0.871830
Si Si3 0.451359 0.397749 0.735963
Si Si4 0.647887 0.847874 0.730124
Si Si5 0.717357 0.348957 0.833358
Si Si6 0.549202 0.256447 0.141257
Si Si7 0.861740 0.597428 0.624384
Si Si8 0.738664 0.398852 0.295949
O O1 0.935132 0.145493 0.623549
O O2 0.808066 0.147338 0.300307
O O3 0.072135 0.116556 0.675661
O O4 0.890062 0.000000 0.479277
O O5 0.139704 0.420486 0.792755
O O6 0.174918 0.418166 0.984869
O O7 0.511475 0.500000 0.808896
O O8 0.521989 0.335491 0.898675
O O9 0.298049 0.405788 0.565050
O O10 0.500000 0.815653 0.500000
O O11 0.729196 0.758122 0.868601
O O12 0.709552 0.888584 0.727729
O O13 0.591315 0.187731 0.268637
O O14 0.651102 0.316999 0.219126
O O15 0.500000 0.193626 0.000000
O O16 0.919854 0.500000 0.729939
O O17 0.866548 0.599007 0.530779
O O18 0.672810 0.500000 0.217948
#
# Coordination Sequence:
#
# PCOD9177093 Si02
#       8
#     8   4   8   8   8   8   8   8
#     4  10  18  37  67  93 128 173 227 271 339 399
#     4  12  25  45  60  94 141 167 213 287 350 373
#     4   9  19  34  62  92 117 163 213 264 311 391
#     4  12  26  44  72  96 130 184 235 271 325 415
#     4  11  22  39  65  95 129 173 221 284 328 397
#     4  11  23  37  61  98 136 160 202 270 332 386
#     4   9  20  39  63  88 123 169 217 254 306 381
#     4  10  22  43  69  91 122 171 216 263 319 383
#
# _framework density 25.868769
#
# number of rings (size 3 to 8) (size 9 to 14) (size 15 to 20)
#    0.000    1.600    3.333    3.800    3.733    2.400 
#    0.000    1.333    0.000    0.000    0.000    0.000 
#    0.000    0.000    0.000    0.000    0.000    0.000 
#
# Total GULP energy -167110.348468 kJ/mol
# GULP energy per Si atom -5570.344949 kJ/mol
# Density = 2.580989 g / cm^3
# Si number density = 25.868769 Si / 1000 Ang^3
#
#
#
# Elastic Constant Matrix: (Units=GPa)
#
#
# Indices 1 2 3 4 5 6 
#
# 1 103.5337 20.9568 46.2150 0.0000 -27.5230 0.0000
# 2 20.9568 135.3757 27.7723 0.0000 -20.8771 0.0000
# 3 46.2150 27.7723 76.0220 0.0000 -40.7882 0.0000
# 4 0.0000 0.0000 0.0000 -3.3234 0.0000 0.5607
# 5 -27.5230 -20.8771 -40.7882 0.0000 44.8822 0.0000
# 6 0.0000 0.0000 0.0000 0.5607 0.0000 15.4697
#
#
#
# Elastic Compliance Matrix: (Units=1/GPa)
#
#
# Indices 1 2 3 4 5 6 
#
# 1 0.013329 -0.000363 -0.007173 0.000000 0.001486 0.000000
# 2 -0.000363 0.008095 -0.001631 0.000000 0.002061 0.000000
# 3 -0.007173 -0.001631 0.029944 0.000000 0.022055 0.000000
# 4 0.000000 0.000000 0.000000 -0.299065 0.000000 0.010839
# 5 0.001486 0.002061 0.022055 0.000000 0.044194 0.000000
# 6 0.000000 0.000000 0.000000 0.010839 0.000000 0.064250
#
#
# Mechanical properties :
#
#
# Convention : Reuss Voigt Hill
#
# Bulk Modulus (GPa) = 30.27154 56.09109 43.18132
# Shear Modulus (GPa) = -45.49275 26.07150 -9.71062
#
# Velocity S-wave (km/s) = -4.19811 3.17809 -1.93957
# Velocity P-wave (km/s) = 3.43096 5.93271 3.42239
#
# Compressibility (1/GPa) = 0.03303432
#
# Stress axis : x y z
#
# Youngs Moduli (GPa) = 75.02388 123.52612 33.39593
#
# Poissons Ratio (x) = 0.04480 0.23955
# Poissons Ratio (y) = 0.02721 0.05448
# Poissons Ratio (z) = 0.53815 0.20151
#
# Static dielectric constant tensor:
#      x y z
#    x 2.061210 0.000000 0.081880 
#    y 0.000000 2.345730 0.000000 
#    z 0.081880 0.000000 2.245650 
# 
# From -- ./inp_files/246729.got.cif
#   From: 2010.05.17/outbox.cif.g08.bks.cpg/sg12_124_cif.got.tgz:246729.got - 2010.06.03 13:09:07.
