data_PCOD9177771
_publ_section_title
;
Structure prediction by ZEFSAII (Michael W. Deem and Ramdas Pophale) SiO2 
 PCOD9177771
Probable space group: C 2/M
;
_chemical_formula_sum "Si O2"
_cell_formula_units_Z 58
_cell_length_a 28.565356
_cell_length_b 8.930215
_cell_length_c 12.133984
_cell_angle_alpha 90.000000
_cell_angle_beta 92.510102
_cell_angle_gamma 90.000000
_cell_volume 3092.345957
_symmetry_space_group_name_H-M "C 2/M"
_symmetry_group_IT_number 12
_symmetry_cell_setting 'monoclinic'
loop_
_space_group_symop_operation_xyz
x,y,z
-x,y,-z
-x,-y,-z
x,-y,z
1/2+x,1/2+y,z
1/2-x,1/2+y,-z
1/2-x,1/2-y,-z
1/2+x,1/2-y,z
loop_
_atom_site_type_symbol
_atom_site_label
_atom_site_fract_x
_atom_site_fract_y
_atom_site_fract_z
Si Si1 0.199124 0.319544 0.974515
Si Si2 0.849657 0.829962 0.231630
Si Si3 0.500000 0.500000 0.000000
Si Si4 0.488868 0.835495 0.336834
Si Si5 0.085650 0.824056 0.334900
Si Si6 0.554588 0.261844 0.881130
Si Si7 0.388313 0.682145 0.914311
Si Si8 0.608431 0.177421 0.556242
O O1 0.197840 0.500000 0.988726
O O2 0.181731 0.274505 0.849950
O O3 0.250000 0.250000 0.000000
O O4 0.162884 0.233087 0.051980
O O5 0.900505 0.832283 0.176742
O O6 0.858851 0.762655 0.352961
O O7 0.831693 0.000000 0.232892
O O8 0.486247 0.373010 0.089554
O O9 0.531320 0.721257 0.339831
O O10 0.466749 0.844507 0.212315
O O11 0.445481 0.793579 0.410681
O O12 0.507086 0.000000 0.369921
O O13 0.102390 0.790372 0.212465
O O14 0.112880 0.734790 0.432623
O O15 0.091498 0.000000 0.354331
O O16 0.577370 0.223443 0.001858
O O17 0.397749 0.500000 0.935738
O O18 0.615824 0.000000 0.566186
#
# Coordination Sequence:
#
# PCOD9177771 Si02
#       8
#     8   8   2   8   8   8   8   8
#     4  11  22  38  63  92 117 145 176 221 283 347
#     4  10  19  36  57  84 111 142 185 231 274 328
#     4  12  16  28  46  76 106 148 182 224 276 318
#     4  10  22  35  49  73 107 146 194 245 286 329
#     4  11  23  35  54  77 105 149 195 238 283 330
#     4  10  19  29  52  73 106 145 185 229 280 329
#     4  10  21  38  54  80 113 146 184 232 284 340
#     4  10  21  37  54  75 110 150 192 240 282 326
#
# _framework density 18.755987999999999
#
# number of rings (size 3 to 8) (size 9 to 14) (size 15 to 20)
#    0.000    1.655    1.379    4.552    2.897    7.172 
#    0.000    2.414    0.000    0.828    0.000    0.000 
#    0.000    0.000    0.000    0.000    0.000    0.000 
#
# Total GULP energy -161477.184000 kJ/mol
# GULP energy per Si atom -5568.178759 kJ/mol
# Density = 1.871330 g / cm^3
# Si number density = 18.755988 Si / 1000 Ang^3
#
#
#
# Elastic Constant Matrix: (Units=GPa)
#
#
# Indices 1 2 3 4 5 6 
#
# 1 27.2765 10.3555 21.7183 0.0000 6.4705 0.0000
# 2 10.3555 61.8689 42.9234 0.0000 2.5583 0.0000
# 3 21.7183 42.9234 149.7546 0.0000 1.6755 0.0000
# 4 0.0000 0.0000 0.0000 25.7010 0.0000 2.9959
# 5 6.4705 2.5583 1.6755 0.0000 16.0843 0.0000
# 6 0.0000 0.0000 0.0000 2.9959 0.0000 14.9537
#
#
#
# Elastic Compliance Matrix: (Units=1/GPa)
#
#
# Indices 1 2 3 4 5 6 
#
# 1 0.046537 -0.003139 -0.005652 0.000000 -0.017633 0.000000
# 2 -0.003139 0.020497 -0.005404 0.000000 -0.001434 0.000000
# 3 -0.005652 -0.005404 0.009022 0.000000 0.002193 0.000000
# 4 0.000000 0.000000 0.000000 0.039839 0.000000 -0.007982
# 5 -0.017633 -0.001434 0.002193 0.000000 0.069266 0.000000
# 6 0.000000 0.000000 0.000000 -0.007982 0.000000 0.068472
#
#
# Mechanical properties :
#
#
# Convention : Reuss Voigt Hill
#
# Bulk Modulus (GPa) = 20.97937 43.21049 32.09493
# Shear Modulus (GPa) = 16.78361 22.27465 19.52913
#
# Velocity S-wave (km/s) = 2.99463 3.44990 3.23030
# Velocity P-wave (km/s) = 4.81319 6.24158 5.57334
#
# Compressibility (1/GPa) = 0.04766588
#
# Stress axis : x y z
#
# Youngs Moduli (GPa) = 21.48850 48.78799 110.84551
#
# Poissons Ratio (x) = 0.15314 0.62650
# Poissons Ratio (y) = 0.06745 0.59897
# Poissons Ratio (z) = 0.12145 0.26363
#
# Static dielectric constant tensor:
#      x y z
#    x 1.665880 0.000000 0.023930 
#    y 0.000000 1.634290 0.000000 
#    z 0.023930 0.000000 1.680630 
# 
# From -- ./inp_files/186720.got.cif
#   From: 2010.05.17/outbox.cif.g08.bks.cpg/sg12_94_cif.got.tgz:186720.got - 2010.06.03 13:09:07.
