data_PCOD9177088
_publ_section_title
;
Structure prediction by ZEFSAII (Michael W. Deem and Ramdas Pophale) SiO2 
 PCOD9177088
Probable space group: C 2/M
;
_chemical_formula_sum "Si O2"
_cell_formula_units_Z 44
_cell_length_a 10.197611
_cell_length_b 27.089246
_cell_length_c 16.442837
_cell_angle_alpha 90.000000
_cell_angle_beta 27.469204
_cell_angle_gamma 90.000000
_cell_volume 2095.216961
_symmetry_space_group_name_H-M "C 2/M"
_symmetry_group_IT_number 12
_symmetry_cell_setting 'monoclinic'
loop_
_space_group_symop_operation_xyz
x,y,z
-x,y,-z
-x,-y,-z
x,-y,z
1/2+x,1/2+y,z
1/2-x,1/2+y,-z
1/2-x,1/2-y,-z
1/2+x,1/2-y,z
loop_
_atom_site_type_symbol
_atom_site_label
_atom_site_fract_x
_atom_site_fract_y
_atom_site_fract_z
Si Si1 0.611355 0.352344 0.351412
Si Si2 0.785080 0.691717 0.982030
Si Si3 0.693852 0.357144 0.642827
Si Si4 0.444887 0.944075 0.123220
Si Si5 0.000000 0.129066 0.000000
Si Si6 0.596689 0.556732 0.809203
O O1 0.500000 0.337091 0.500000
O O2 0.370422 0.350453 0.415921
O O3 0.730244 0.408175 0.285611
O O4 0.891555 0.321380 0.174363
O O5 0.561529 0.669052 0.168638
O O6 0.701093 0.664072 0.943876
O O7 0.750000 0.750000 0.000000
O O8 0.683414 0.414063 0.679861
O O9 0.000000 0.336998 0.500000
O O10 0.338512 0.000000 0.176207
O O11 0.500000 0.926519 0.000000
O O12 0.751928 0.944116 0.996808
O O13 0.831872 0.092586 0.154464
O O14 0.694898 0.500000 0.760615
#
# Coordination Sequence:
#
# PCOD9177088 Si02
#       6
#     8   8   8   8   4   8
#     4  12  25  43  67 101 140 181 230 288 345 408
#     4  11  26  47  74  96 131 181 232 290 357 412
#     4  11  25  44  69  99 141 181 232 287 344 416
#     4  10  18  37  66  93 126 181 233 273 330 405
#     4  10  21  38  68 102 134 162 231 276 344 400
#     4  10  20  37  67  97 136 181 224 272 341 408
#
# _framework density 21.000212000000001
#
# number of rings (size 3 to 8) (size 9 to 14) (size 15 to 20)
#    0.000    1.273    5.455    0.818    7.636    1.455 
#    0.000    1.818    0.000    0.000    0.000    0.000 
#    0.000    0.000    0.000    0.000    0.000    0.000 
#
# Total GULP energy -122929.720410 kJ/mol
# GULP energy per Si atom -5587.714564 kJ/mol
# Density = 2.095241 g / cm^3
# Si number density = 21.000212 Si / 1000 Ang^3
#
#
#
# Elastic Constant Matrix: (Units=GPa)
#
#
# Indices 1 2 3 4 5 6 
#
# 1 136.9282 37.7628 40.7192 0.0001 3.9188 0.0001
# 2 37.7628 137.9788 22.2696 0.0000 2.0366 0.0000
# 3 40.7192 22.2696 93.4401 0.0001 -10.8098 0.0001
# 4 0.0001 0.0000 0.0001 -2.0176 -0.0001 2.2689
# 5 3.9188 2.0366 -10.8098 -0.0001 27.0178 -0.0001
# 6 0.0001 0.0000 0.0001 2.2689 -0.0001 14.0538
#
#
#
# Elastic Compliance Matrix: (Units=1/GPa)
#
#
# Indices 1 2 3 4 5 6 
#
# 1 0.009012 -0.001812 -0.003807 0.000000 -0.002694 0.000000
# 2 -0.001812 0.007949 -0.001199 0.000000 -0.000816 0.000000
# 3 -0.003807 -0.001199 0.013339 0.000000 0.005979 0.000000
# 4 0.000000 0.000000 0.000000 -0.419484 -0.000002 0.067722
# 5 -0.002694 -0.000816 0.005979 -0.000002 0.039857 0.000001
# 6 0.000000 0.000000 0.000000 0.067722 0.000001 0.060222
#
#
# Mechanical properties :
#
#
# Convention : Reuss Voigt Hill
#
# Bulk Modulus (GPa) = 60.01364 63.31670 61.66517
# Shear Modulus (GPa) = -18.52440 25.65051 3.56306
#
# Velocity S-wave (km/s) = -2.97325 3.49870 1.30398
# Velocity P-wave (km/s) = 4.10521 6.82182 5.62983
#
# Compressibility (1/GPa) = 0.01666288
#
# Stress axis : x y z
#
# Youngs Moduli (GPa) = 110.96196 125.80077 74.97059
#
# Poissons Ratio (x) = 0.22799 0.28541
# Poissons Ratio (y) = 0.20109 0.08990
# Poissons Ratio (z) = 0.42243 0.15086
#
# Static dielectric constant tensor:
#      x y z
#    x 1.792400 0.000000 0.008320 
#    y 0.000000 1.758290 0.000000 
#    z 0.008320 0.000000 1.765590 
# 
# From -- ./inp_files/266241.got.cif
#   From: 2010.05.17/outbox.cif.g08.bks.cpg/sg12_134_cif.got.tgz:266241.got - 2010.06.03 13:09:07.
