data_PCOD9177084
_publ_section_title
;
Structure prediction by ZEFSAII (Michael W. Deem and Ramdas Pophale) SiO2 
 PCOD9177084
Probable space group: C 2/M
;
_chemical_formula_sum "Si O2"
_cell_formula_units_Z 50
_cell_length_a 23.698656
_cell_length_b 7.393776
_cell_length_c 14.398514
_cell_angle_alpha 90.000000
_cell_angle_beta 63.252533
_cell_angle_gamma 90.000000
_cell_volume 2252.986422
_symmetry_space_group_name_H-M "C 2/M"
_symmetry_group_IT_number 12
_symmetry_cell_setting 'monoclinic'
loop_
_space_group_symop_operation_xyz
x,y,z
-x,y,-z
-x,-y,-z
x,-y,z
1/2+x,1/2+y,z
1/2-x,1/2+y,-z
1/2-x,1/2-y,-z
1/2+x,1/2-y,z
loop_
_atom_site_type_symbol
_atom_site_label
_atom_site_fract_x
_atom_site_fract_y
_atom_site_fract_z
Si Si1 0.932682 0.294968 0.565292
Si Si2 0.647577 0.705121 0.543419
Si Si3 0.917584 0.707658 0.942835
Si Si4 0.718354 0.280887 0.874348
Si Si5 0.858696 0.720092 0.797974
Si Si6 0.000000 0.000000 0.000000
Si Si7 0.222533 0.780275 0.655080
O O1 0.945004 0.500000 0.589321
O O2 0.899339 0.302096 0.490649
O O3 0.886031 0.218738 0.678196
O O4 0.000000 0.204599 0.500000
O O5 0.625044 0.500000 0.569986
O O6 0.714341 0.707556 0.439415
O O7 0.664052 0.776940 0.633391
O O8 0.941047 0.500000 0.926920
O O9 0.906688 0.769593 0.844260
O O10 0.845311 0.708377 0.033805
O O11 0.960095 0.841719 0.971537
O O12 0.715430 0.500000 0.882456
O O13 0.786028 0.219202 0.864621
O O14 0.718165 0.232065 0.765286
O O15 0.854568 0.500000 0.800856
O O16 0.226160 0.000000 0.646815
#
# Coordination Sequence:
#
# PCOD9177084 Si02
#       7
#     8   8   8   8   8   2   8
#     4  10  20  38  60  83 117 165 211 252 310 380
#     4  10  19  32  51  83 118 158 205 255 306 363
#     4  11  24  44  69  98 130 170 217 269 320 391
#     4  10  18  37  65  95 130 167 215 268 329 384
#     4   9  19  38  65  94 127 164 209 272 328 379
#     4  12  26  52  68  90 134 176 216 258 332 402
#     4   9  18  33  56  82 121 160 196 251 314 367
#
# _framework density 22.192764
#
# number of rings (size 3 to 8) (size 9 to 14) (size 15 to 20)
#    0.000    2.080    2.400    1.200    0.000    1.600 
#    5.760    0.000    0.000    0.000    0.000    0.000 
#    0.000    0.000    0.000    0.000    0.000    0.000 
#
# Total GULP energy -139306.585350 kJ/mol
# GULP energy per Si atom -5572.263414 kJ/mol
# Density = 2.214225 g / cm^3
# Si number density = 22.192764 Si / 1000 Ang^3
#
#
#
# Elastic Constant Matrix: (Units=GPa)
#
#
# Indices 1 2 3 4 5 6 
#
# 1 159.3025 35.8327 26.1770 0.0000 27.1367 0.0000
# 2 35.8327 102.1718 6.2417 -0.0001 10.6150 0.0002
# 3 26.1770 6.2417 20.0293 0.0000 11.8669 0.0000
# 4 0.0000 -0.0001 0.0000 -1.9559 0.0000 16.2099
# 5 27.1367 10.6150 11.8669 0.0000 25.6155 0.0000
# 6 0.0000 0.0002 0.0000 16.2099 0.0000 -8.7587
#
#
#
# Elastic Compliance Matrix: (Units=1/GPa)
#
#
# Indices 1 2 3 4 5 6 
#
# 1 0.008910 -0.002130 -0.008148 0.000000 -0.004782 0.000000
# 2 -0.002130 0.010750 0.001015 0.000000 -0.002668 0.000000
# 3 -0.008148 0.001015 0.076351 0.000000 -0.027160 0.000000
# 4 0.000000 0.000000 0.000000 0.035658 0.000000 0.065993
# 5 -0.004782 -0.002668 -0.027160 0.000000 0.057793 0.000000
# 6 0.000000 0.000000 0.000000 0.065993 0.000000 0.007963
#
#
# Mechanical properties :
#
#
# Convention : Reuss Voigt Hill
#
# Bulk Modulus (GPa) = 12.90582 46.44513 29.67547
# Shear Modulus (GPa) = 20.68010 17.19699 18.93855
#
# Velocity S-wave (km/s) = 3.05592 2.78671 2.92441
# Velocity P-wave (km/s) = 4.27545 5.59712 4.98032
#
# Compressibility (1/GPa) = 0.07748445
#
# Stress axis : x y z
#
# Youngs Moduli (GPa) = 112.23399 93.02555 13.09740
#
# Poissons Ratio (x) = 0.19817 0.10672
# Poissons Ratio (y) = 0.23909 -0.01329
# Poissons Ratio (z) = 0.91447 -0.09442
#
# Static dielectric constant tensor:
#      x y z
#    x 1.803890 0.000000 0.015890 
#    y 0.000000 1.936000 0.000000 
#    z 0.015890 0.000000 1.819840 
# 
# From -- ./inp_files/237271.got.cif
#   From: 2010.05.17/outbox.cif.g08.bks.cpg/sg12_119_cif.got.tgz:237271.got - 2010.06.03 13:09:07.
