data_PCOD9177345
_publ_section_title
;
Structure prediction by ZEFSAII (Michael W. Deem and Ramdas Pophale) SiO2 
 PCOD9177345
Probable space group: C 2/M
;
_chemical_formula_sum "Si O2"
_cell_formula_units_Z 56
_cell_length_a 30.721722
_cell_length_b 8.632785
_cell_length_c 19.544848
_cell_angle_alpha 90.000000
_cell_angle_beta 141.825111
_cell_angle_gamma 90.000000
_cell_volume 3203.776181
_symmetry_space_group_name_H-M "C 2/M"
_symmetry_group_IT_number 12
_symmetry_cell_setting 'monoclinic'
loop_
_space_group_symop_operation_xyz
x,y,z
-x,y,-z
-x,-y,-z
x,-y,z
1/2+x,1/2+y,z
1/2-x,1/2+y,-z
1/2-x,1/2-y,-z
1/2+x,1/2-y,z
loop_
_atom_site_type_symbol
_atom_site_label
_atom_site_fract_x
_atom_site_fract_y
_atom_site_fract_z
Si Si1 0.807072 0.682812 0.018684
Si Si2 0.456257 0.321246 0.209353
Si Si3 0.618344 0.689400 0.256454
Si Si4 0.758906 0.313165 0.350063
Si Si5 0.465836 0.321613 0.055037
Si Si6 0.688247 0.687956 0.127465
Si Si7 0.610586 0.687089 0.405419
O O1 0.800172 0.500000 0.006771
O O2 0.886312 0.727631 0.139399
O O3 0.750000 0.750000 0.000000
O O4 0.797804 0.751968 0.931101
O O5 0.446039 0.500000 0.217784
O O6 0.464603 0.323242 0.136791
O O7 0.531648 0.262019 0.328664
O O8 0.615037 0.500000 0.250629
O O9 0.688411 0.736582 0.303636
O O10 0.542893 0.744367 0.132817
O O11 0.623645 0.736031 0.342691
O O12 0.762049 0.500000 0.357774
O O13 0.745684 0.269309 0.254913
O O14 0.827993 0.245829 0.470226
O O15 0.464916 0.500000 0.029733
O O16 0.389265 0.254557 0.943244
O O17 0.683940 0.500000 0.119075
O O18 0.609546 0.500000 0.404029
#
# Coordination Sequence:
#
# PCOD9177345 Si02
#       7
#     8   8   8   8   8   8   8
#     4  11  21  34  56  81 100 119 145 186 237 292
#     4   8  15  30  50  72  96 124 158 196 236 280
#     4   8  14  25  42  67  93 125 171 214 246 274
#     4  10  19  28  43  68  99 133 170 209 242 274
#     4   7  11  23  43  63  88 121 160 202 239 277
#     4   9  18  32  47  68  99 132 162 196 240 289
#     4   9  17  30  48  67  95 134 172 206 239 277
#
# _framework density 17.479374
#
# number of rings (size 3 to 8) (size 9 to 14) (size 15 to 20)
#    0.000    3.143    0.000    4.286    0.000    1.714 
#    0.000    2.857    0.000    4.286    0.000   16.000 
#    0.000    0.000    0.000    0.000    0.000    0.000 
#
# Total GULP energy -155970.760516 kJ/mol
# GULP energy per Si atom -5570.384304 kJ/mol
# Density = 1.743959 g / cm^3
# Si number density = 17.479374 Si / 1000 Ang^3
#
#
#
# Elastic Constant Matrix: (Units=GPa)
#
#
# Indices 1 2 3 4 5 6 
#
# 1 107.9293 27.4457 63.0624 0.0000 14.9408 0.0000
# 2 27.4457 25.1849 27.5657 0.0000 3.5757 0.0000
# 3 63.0624 27.5657 126.5477 0.0000 7.5087 0.0000
# 4 0.0000 0.0000 0.0000 24.2707 0.0000 4.3076
# 5 14.9408 3.5757 7.5087 0.0000 16.5398 0.0000
# 6 0.0000 0.0000 0.0000 4.3076 0.0000 14.9511
#
#
#
# Elastic Compliance Matrix: (Units=1/GPa)
#
#
# Indices 1 2 3 4 5 6 
#
# 1 0.016488 -0.010755 -0.005270 0.000000 -0.010177 0.000000
# 2 -0.010755 0.059796 -0.007682 0.000000 0.000276 0.000000
# 3 -0.005270 -0.007682 0.012148 0.000000 0.000906 0.000000
# 4 0.000000 0.000000 0.000000 0.043422 0.000000 -0.012510
# 5 -0.010177 0.000276 0.000906 0.000000 0.069182 0.000000
# 6 0.000000 0.000000 0.000000 -0.012510 0.000000 0.070489
#
#
# Mechanical properties :
#
#
# Convention : Reuss Voigt Hill
#
# Bulk Modulus (GPa) = 24.37968 55.08993 39.73481
# Shear Modulus (GPa) = 15.03247 20.59150 17.81199
#
# Velocity S-wave (km/s) = 2.93578 3.43599 3.19569
# Velocity P-wave (km/s) = 5.04675 6.87946 6.03310
#
# Compressibility (1/GPa) = 0.04101776
#
# Stress axis : x y z
#
# Youngs Moduli (GPa) = 60.64894 16.72347 82.31876
#
# Poissons Ratio (x) = 0.17987 0.43382
# Poissons Ratio (y) = 0.65231 0.63237
# Poissons Ratio (z) = 0.31962 0.12847
#
# Static dielectric constant tensor:
#      x y z
#    x 1.590850 0.000000 0.013840 
#    y 0.000000 1.598700 0.000000 
#    z 0.013840 0.000000 1.620020 
# 
# From -- ./inp_files/295149.got.cif
#   From: 2010.05.17/outbox.cif.g08.bks.cpg/sg12_148_cif.got.tgz:295149.got - 2010.06.03 13:09:07.
