data_PCOD9177021
_publ_section_title
;
Structure prediction by ZEFSAII (Michael W. Deem and Ramdas Pophale) SiO2 
 PCOD9177021
Probable space group: C 2/M
;
_chemical_formula_sum "Si O2"
_cell_formula_units_Z 64
_cell_length_a 22.049848
_cell_length_b 18.169615
_cell_length_c 15.083413
_cell_angle_alpha 90.000000
_cell_angle_beta 149.300370
_cell_angle_gamma 90.000000
_cell_volume 3085.165601
_symmetry_space_group_name_H-M "C 2/M"
_symmetry_group_IT_number 12
_symmetry_cell_setting 'monoclinic'
loop_
_space_group_symop_operation_xyz
x,y,z
-x,y,-z
-x,-y,-z
x,-y,z
1/2+x,1/2+y,z
1/2-x,1/2+y,-z
1/2-x,1/2-y,-z
1/2+x,1/2-y,z
loop_
_atom_site_type_symbol
_atom_site_label
_atom_site_fract_x
_atom_site_fract_y
_atom_site_fract_z
Si Si1 0.639490 0.202502 0.824085
Si Si2 0.129009 0.915043 0.613691
Si Si3 0.457484 0.683386 0.639355
Si Si4 0.648448 0.841281 0.027659
Si Si5 0.603511 0.200030 0.280458
Si Si6 0.717164 0.338625 0.357074
Si Si7 0.243573 0.821385 0.201381
Si Si8 0.016844 0.913644 0.871330
O O1 0.541433 0.265297 0.685452
O O2 0.671270 0.161163 0.774171
O O3 0.750000 0.250000 0.000000
O O4 0.616964 0.154225 0.883008
O O5 0.133507 0.857456 0.538349
O O6 0.246762 0.897814 0.818700
O O7 0.000000 0.904487 0.500000
O O8 0.131488 0.000000 0.587778
O O9 0.424403 0.739652 0.676524
O O10 0.515695 0.617255 0.768900
O O11 0.702265 0.761997 0.126139
O O12 0.514946 0.840389 0.899990
O O13 0.662800 0.255400 0.285558
O O14 0.700487 0.151362 0.452886
O O15 0.791299 0.339287 0.359226
O O16 0.605168 0.391533 0.232201
O O17 0.124667 0.869582 0.049677
O O18 0.033845 0.000000 0.895298
#
# Coordination Sequence:
#
# PCOD9177021 Si02
#       8
#     8   8   8   8   8   8   8   8
#     4   9  16  32  56  79 109 146 189 241 291 350
#     4  11  23  34  53  85 123 157 189 238 304 375
#     4  10  18  37  56  83 115 150 197 241 304 357
#     4  10  19  36  56  81 115 152 199 245 291 356
#     4   9  19  36  59  81 108 153 195 252 291 348
#     4  10  20  35  53  83 115 144 204 240 303 343
#     4  11  19  33  56  84 111 152 190 248 296 347
#     4  11  22  35  55  82 122 157 190 246 304 359
#
# _framework density 20.744430000000001
#
# number of rings (size 3 to 8) (size 9 to 14) (size 15 to 20)
#    0.000    1.875    5.000    3.000    0.000    1.000 
#    0.000    2.500    0.000    0.000    0.000   10.500 
#    0.000   19.500    0.000    0.000    0.000    0.000 
#
# Total GULP energy -178202.509065 kJ/mol
# GULP energy per Si atom -5568.828408 kJ/mol
# Density = 2.069721 g / cm^3
# Si number density = 20.744430 Si / 1000 Ang^3
#
#
#
# Elastic Constant Matrix: (Units=GPa)
#
#
# Indices 1 2 3 4 5 6 
#
# 1 32.8228 5.6648 7.1374 0.0000 -3.2541 0.0000
# 2 5.6648 67.5671 21.3975 0.0000 8.6139 0.0000
# 3 7.1374 21.3975 62.1312 0.0000 2.2375 0.0000
# 4 0.0000 0.0000 0.0000 23.3101 0.0000 2.7468
# 5 -3.2541 8.6139 2.2375 0.0000 24.9653 0.0000
# 6 0.0000 0.0000 0.0000 2.7468 0.0000 14.5271
#
#
#
# Elastic Compliance Matrix: (Units=1/GPa)
#
#
# Indices 1 2 3 4 5 6 
#
# 1 0.032067 -0.002396 -0.003049 0.000000 0.005280 0.000000
# 2 -0.002396 0.017502 -0.005542 0.000000 -0.005855 0.000000
# 3 -0.003049 -0.005542 0.018358 0.000000 -0.000131 0.000000
# 4 0.000000 0.000000 0.000000 0.043877 0.000000 -0.008296
# 5 0.005280 -0.005855 -0.000131 0.000000 0.042776 0.000000
# 6 0.000000 0.000000 0.000000 -0.008296 0.000000 0.070406
#
#
# Mechanical properties :
#
#
# Convention : Reuss Voigt Hill
#
# Bulk Modulus (GPa) = 21.76059 25.65784 23.70922
# Shear Modulus (GPa) = 19.06386 21.11526 20.08956
#
# Velocity S-wave (km/s) = 3.03477 3.19388 3.11534
# Velocity P-wave (km/s) = 4.77414 5.09868 4.93907
#
# Compressibility (1/GPa) = 0.04595463
#
# Stress axis : x y z
#
# Youngs Moduli (GPa) = 31.18519 57.13538 54.47111
#
# Poissons Ratio (x) = 0.13690 0.16606
# Poissons Ratio (y) = 0.07472 0.30185
# Poissons Ratio (z) = 0.09507 0.31662
#
# Static dielectric constant tensor:
#      x y z
#    x 1.886380 0.000000 -0.109590 
#    y 0.000000 1.718720 0.000000 
#    z -0.109590 0.000000 0.874490 
# 
# From -- ./inp_files/241512.got.cif
#   From: 2010.05.17/outbox.cif.g08.bks.cpg/sg12_121_cif.got.tgz:241512.got - 2010.06.03 13:09:07.
