data_PCOD9177175
_publ_section_title
;
Structure prediction by ZEFSAII (Michael W. Deem and Ramdas Pophale) SiO2 
 PCOD9177175
Probable space group: C 2/M
;
_chemical_formula_sum "Si O2"
_cell_formula_units_Z 44
_cell_length_a 11.912526
_cell_length_b 14.721665
_cell_length_c 18.769293
_cell_angle_alpha 90.000000
_cell_angle_beta 44.398066
_cell_angle_gamma 90.000000
_cell_volume 2302.941231
_symmetry_space_group_name_H-M "C 2/M"
_symmetry_group_IT_number 12
_symmetry_cell_setting 'monoclinic'
loop_
_space_group_symop_operation_xyz
x,y,z
-x,y,-z
-x,-y,-z
x,-y,z
1/2+x,1/2+y,z
1/2-x,1/2+y,-z
1/2-x,1/2-y,-z
1/2+x,1/2-y,z
loop_
_atom_site_type_symbol
_atom_site_label
_atom_site_fract_x
_atom_site_fract_y
_atom_site_fract_z
Si Si1 0.591446 0.145442 0.885797
Si Si2 0.994010 0.500000 0.813348
Si Si3 0.334758 0.500000 0.119398
Si Si4 0.527977 0.608266 0.274823
Si Si5 0.349874 0.327276 0.213698
Si Si6 0.427754 0.696692 0.610606
Si Si7 0.177825 0.000000 0.382897
O O1 0.780312 0.126090 0.814485
O O2 0.568668 0.248628 0.870352
O O3 0.525043 0.083999 0.852101
O O4 0.500000 0.126115 0.000000
O O5 0.129994 0.500000 0.688673
O O6 0.817155 0.500000 0.863460
O O7 0.323830 0.412539 0.174948
O O8 0.500000 0.500000 0.000000
O O9 0.500465 0.500000 0.298314
O O10 0.449825 0.641436 0.237130
O O11 0.462342 0.668760 0.371324
O O12 0.187251 0.278594 0.314907
O O13 0.500000 0.714609 0.500000
O O14 0.334529 0.600269 0.645436
O O15 0.000000 0.000000 0.500000
#
# Coordination Sequence:
#
# PCOD9177175 Si02
#       7
#     8   4   4   8   8   8   4
#     4  11  24  39  65  97 124 171 226 281 337 390
#     4  12  23  43  68 100 136 164 227 286 325 406
#     4  12  30  47  64  96 142 190 223 268 346 404
#     4  11  21  40  65  90 133 170 220 274 328 399
#     4  11  25  43  63  92 138 178 225 274 334 405
#     4  10  21  40  69 102 130 167 229 274 341 395
#     4  10  18  38  69 103 128 161 214 279 337 385
#
# _framework density 19.106003000000001
#
# number of rings (size 3 to 8) (size 9 to 14) (size 15 to 20)
#    0.000    1.091    6.364    0.818    7.636    1.455 
#    0.000    2.273    0.000    0.000    0.000    0.000 
#    0.000    0.000    0.000    0.000    0.000    0.000 
#
# Total GULP energy -122477.888651 kJ/mol
# GULP energy per Si atom -5567.176757 kJ/mol
# Density = 1.906252 g / cm^3
# Si number density = 19.106003 Si / 1000 Ang^3
#
#
#
# Elastic Constant Matrix: (Units=GPa)
#
#
# Indices 1 2 3 4 5 6 
#
# 1 145.9308 61.6947 52.8055 0.0000 14.6208 0.0000
# 2 61.6947 154.4706 44.0170 0.0000 5.8511 0.0000
# 3 52.8055 44.0170 145.8771 0.0000 8.4207 0.0000
# 4 0.0000 0.0000 0.0000 33.5173 0.0000 10.3844
# 5 14.6208 5.8511 8.4207 0.0000 21.0383 0.0000
# 6 0.0000 0.0000 0.0000 10.3844 0.0000 29.5329
#
#
#
# Elastic Compliance Matrix: (Units=1/GPa)
#
#
# Indices 1 2 3 4 5 6 
#
# 1 0.009381 -0.002928 -0.002235 0.000000 -0.004811 0.000000
# 2 -0.002928 0.008023 -0.001382 0.000000 0.000356 0.000000
# 3 -0.002235 -0.001382 0.008158 0.000000 -0.001328 0.000000
# 4 0.000000 0.000000 0.000000 0.033483 0.000000 -0.011773
# 5 -0.004811 0.000356 -0.001328 0.000000 0.051308 0.000000
# 6 0.000000 0.000000 0.000000 -0.011773 0.000000 0.038000
#
#
# Mechanical properties :
#
#
# Convention : Reuss Voigt Hill
#
# Bulk Modulus (GPa) = 80.16941 84.81256 82.49099
# Shear Modulus (GPa) = 30.19340 36.00178 33.09759
#
# Velocity S-wave (km/s) = 3.97962 4.34558 4.16662
# Velocity P-wave (km/s) = 7.94783 8.34660 8.14965
#
# Compressibility (1/GPa) = 0.01247359
#
# Stress axis : x y z
#
# Youngs Moduli (GPa) = 106.59964 124.63771 122.58553
#
# Poissons Ratio (x) = 0.36490 0.27394
# Poissons Ratio (y) = 0.31209 0.16938
# Poissons Ratio (z) = 0.23821 0.17221
#
# Static dielectric constant tensor:
#      x y z
#    x 1.669600 0.000000 0.010640 
#    y 0.000000 1.495290 0.000000 
#    z 0.010640 0.000000 1.743090 
# 
# From -- ./inp_files/262753.got.cif
#   From: 2010.05.17/outbox.cif.g08.bks.cpg/sg12_132_cif.got.tgz:262753.got - 2010.06.03 13:09:07.
