data_PCOD9177959
_publ_section_title
;
Structure prediction by ZEFSAII (Michael W. Deem and Ramdas Pophale) SiO2 
 PCOD9177959
Probable space group: C 2/M
;
_chemical_formula_sum "Si O2"
_cell_formula_units_Z 56
_cell_length_a 29.532829
_cell_length_b 9.045631
_cell_length_c 13.753747
_cell_angle_alpha 90.000000
_cell_angle_beta 77.727287
_cell_angle_gamma 90.000000
_cell_volume 3590.251039
_symmetry_space_group_name_H-M "C 2/M"
_symmetry_group_IT_number 12
_symmetry_cell_setting 'monoclinic'
loop_
_space_group_symop_operation_xyz
x,y,z
-x,y,-z
-x,-y,-z
x,-y,z
1/2+x,1/2+y,z
1/2-x,1/2+y,-z
1/2-x,1/2-y,-z
1/2+x,1/2-y,z
loop_
_atom_site_type_symbol
_atom_site_label
_atom_site_fract_x
_atom_site_fract_y
_atom_site_fract_z
Si Si1 0.445448 0.327963 0.927956
Si Si2 0.611199 0.670870 0.248666
Si Si3 0.017052 0.177993 0.384063
Si Si4 0.111000 0.675879 0.873265
Si Si5 0.302573 0.324482 0.085609
Si Si6 0.972161 0.323554 0.218667
Si Si7 0.304212 0.174838 0.873934
O O1 0.451948 0.500000 0.950984
O O2 0.414215 0.323172 0.844702
O O3 0.493443 0.251888 0.875314
O O4 0.418798 0.241531 0.023908
O O5 0.623274 0.500000 0.262668
O O6 0.570858 0.719692 0.341102
O O7 0.657205 0.766675 0.217573
O O8 0.000000 0.211109 0.500000
O O9 0.986359 0.256724 0.315876
O O10 0.014458 0.000000 0.369513
O O11 0.115470 0.500000 0.882624
O O12 0.160985 0.751021 0.858354
O O13 0.080278 0.705876 0.791673
O O14 0.310521 0.500000 0.077184
O O15 0.248683 0.297208 0.134646
O O16 0.310365 0.256718 0.974568
O O17 0.979692 0.500000 0.214356
O O18 0.309637 0.000000 0.887260
#
# Coordination Sequence:
#
# PCOD9177959 Si02
#       7
#     8   8   8   8   8   8   8
#     4  10  19  30  45  66  93 128 165 195 227 274
#     4   9  17  29  47  70  95 123 156 194 234 281
#     4   9  19  36  55  74  95 121 156 196 238 286
#     4  11  21  31  44  65  94 129 163 196 234 276
#     4  10  20  31  44  64  92 128 167 200 232 274
#     4  10  21  33  46  68  96 124 157 194 237 286
#     4  10  19  30  45  66  93 126 162 199 237 277
#
# _framework density 15.597796000000001
#
# number of rings (size 3 to 8) (size 9 to 14) (size 15 to 20)
#    0.000    2.143    1.429    3.429    0.000    8.286 
#    0.000    0.000    0.000    0.000    0.000    1.000 
#    0.000    0.000    0.000    0.000    0.000    0.000 
#
# Total GULP energy -156195.685486 kJ/mol
# GULP energy per Si atom -5578.417339 kJ/mol
# Density = 1.556229 g / cm^3
# Si number density = 15.597796 Si / 1000 Ang^3
#
#
#
# Elastic Constant Matrix: (Units=GPa)
#
#
# Indices 1 2 3 4 5 6 
#
# 1 129.8286 69.3307 45.9417 0.0000 -8.9358 0.0000
# 2 69.3307 75.6711 33.1594 0.0000 -3.7232 0.0000
# 3 45.9417 33.1594 62.6567 0.0000 -13.9666 0.0000
# 4 0.0000 0.0000 0.0000 16.8080 0.0000 -1.2248
# 5 -8.9358 -3.7232 -13.9666 0.0000 16.3040 0.0000
# 6 0.0000 0.0000 0.0000 -1.2248 0.0000 29.1291
#
#
#
# Elastic Compliance Matrix: (Units=1/GPa)
#
#
# Indices 1 2 3 4 5 6 
#
# 1 0.016368 -0.012800 -0.004795 0.000000 0.001940 0.000000
# 2 -0.012800 0.027522 -0.006604 0.000000 -0.006388 0.000000
# 3 -0.004795 -0.006604 0.027253 0.000000 0.019210 0.000000
# 4 0.000000 0.000000 0.000000 0.059678 0.000000 0.002509
# 5 0.001940 -0.006388 0.019210 0.000000 0.077395 0.000000
# 6 0.000000 0.000000 0.000000 0.002509 0.000000 0.034435
#
#
# Mechanical properties :
#
#
# Convention : Reuss Voigt Hill
#
# Bulk Modulus (GPa) = 43.96522 62.78000 53.37261
# Shear Modulus (GPa) = 16.74299 20.42984 18.58642
#
# Velocity S-wave (km/s) = 3.27986 3.62303 3.45571
# Velocity P-wave (km/s) = 6.52620 7.60516 7.08625
#
# Compressibility (1/GPa) = 0.02274525
#
# Stress axis : x y z
#
# Youngs Moduli (GPa) = 61.09367 36.33419 36.69353
#
# Poissons Ratio (x) = 0.46508 0.17595
# Poissons Ratio (y) = 0.78201 0.24232
# Poissons Ratio (z) = 0.29295 0.23995
#
# Static dielectric constant tensor:
#      x y z
#    x 1.548990 0.000000 -0.001840 
#    y 0.000000 1.522900 0.000000 
#    z -0.001840 0.000000 1.492530 
# 
# From -- ./inp_files/247764.got.cif
#   From: 2010.05.17/outbox.cif.g08.bks.cpg/sg12_124_cif.got.tgz:247764.got - 2010.06.03 13:09:07.
