data_PCOD9177552
_publ_section_title
;
Structure prediction by ZEFSAII (Michael W. Deem and Ramdas Pophale) SiO2 
 PCOD9177552
Probable space group: C 2/M
;
_chemical_formula_sum "Si O2"
_cell_formula_units_Z 64
_cell_length_a 30.829416
_cell_length_b 7.940066
_cell_length_c 14.710719
_cell_angle_alpha 90.000000
_cell_angle_beta 87.731712
_cell_angle_gamma 90.000000
_cell_volume 3598.180016
_symmetry_space_group_name_H-M "C 2/M"
_symmetry_group_IT_number 12
_symmetry_cell_setting 'monoclinic'
loop_
_space_group_symop_operation_xyz
x,y,z
-x,y,-z
-x,-y,-z
x,-y,z
1/2+x,1/2+y,z
1/2-x,1/2+y,-z
1/2-x,1/2-y,-z
1/2+x,1/2-y,z
loop_
_atom_site_type_symbol
_atom_site_label
_atom_site_fract_x
_atom_site_fract_y
_atom_site_fract_z
Si Si1 0.938932 0.697388 0.033523
Si Si2 0.076715 0.797685 0.285671
Si Si3 0.798649 0.200118 0.019528
Si Si4 0.991589 0.201589 0.192799
Si Si5 0.449145 0.293764 0.513276
Si Si6 0.411320 0.294786 0.327487
Si Si7 0.858461 0.795073 0.169659
Si Si8 0.378063 0.200267 0.885678
O O1 0.945376 0.500000 0.018903
O O2 0.979680 0.757355 0.090022
O O3 0.898552 0.730084 0.105590
O O4 0.918524 0.773681 0.942701
O O5 0.071534 0.737957 0.389453
O O6 0.117456 0.755961 0.218740
O O7 0.035485 0.729430 0.232254
O O8 0.073663 0.000000 0.289824
O O9 0.833722 0.254574 0.940860
O O10 0.800161 0.000000 0.022505
O O11 0.750000 0.250000 0.000000
O O12 0.816273 0.261502 0.116796
O O13 0.952564 0.256160 0.262452
O O14 0.993014 0.000000 0.198133
O O15 0.500000 0.243919 0.500000
O O16 0.449498 0.500000 0.512624
O O17 0.421243 0.237014 0.428533
O O18 0.410873 0.500000 0.330551
O O19 0.369172 0.242422 0.272189
O O20 0.860007 0.000000 0.168196
O O21 0.381704 0.000000 0.887856
#
# Coordination Sequence:
#
# PCOD9177552 Si02
#       8
#     8   8   8   8   8   8   8   8
#     4   9  17  28  42  59  83 118 158 193 227 268
#     4  10  19  29  44  66  90 121 162 202 237 273
#     4  10  19  33  54  78 100 120 146 180 224 281
#     4   9  16  26  41  61  86 119 158 197 235 272
#     4   9  14  23  42  68  92 118 159 207 241 265
#     4   8  12  22  41  64  91 120 153 194 233 266
#     4   8  15  27  45  69  94 119 147 182 224 273
#     4  10  21  35  47  63  92 126 155 189 232 277
#
# _framework density 17.786770000000001
#
# number of rings (size 3 to 8) (size 9 to 14) (size 15 to 20)
#    0.000    2.875    1.250    1.875    0.000    3.000 
#    0.000    2.500    0.000    3.375    0.000    0.875 
#    0.000    0.000    0.000    0.000    0.000    0.000 
#
# Total GULP energy -178178.351240 kJ/mol
# GULP energy per Si atom -5568.073476 kJ/mol
# Density = 1.774629 g / cm^3
# Si number density = 17.786770 Si / 1000 Ang^3
#
#
#
# Elastic Constant Matrix: (Units=GPa)
#
#
# Indices 1 2 3 4 5 6 
#
# 1 81.3795 5.8978 73.3493 0.0000 17.9243 0.0000
# 2 5.8978 17.4640 9.1518 0.0000 1.8523 0.0000
# 3 73.3493 9.1518 179.9984 0.0000 14.8774 0.0000
# 4 0.0000 0.0000 0.0000 -24.3089 0.0000 -12.2026
# 5 17.9243 1.8523 14.8774 0.0000 21.1195 0.0000
# 6 0.0000 0.0000 0.0000 -12.2026 0.0000 10.6877
#
#
#
# Elastic Compliance Matrix: (Units=1/GPa)
#
#
# Indices 1 2 3 4 5 6 
#
# 1 0.022583 -0.002020 -0.007996 0.000000 -0.013357 0.000000
# 2 -0.002020 0.059219 -0.002018 0.000000 -0.002058 0.000000
# 3 -0.007996 -0.002018 0.008857 0.000000 0.000724 0.000000
# 4 0.000000 0.000000 0.000000 -0.026150 0.000000 -0.029856
# 5 -0.013357 -0.002058 0.000724 0.000000 0.058356 0.000000
# 6 0.000000 0.000000 0.000000 -0.029856 0.000000 0.059477
#
#
# Mechanical properties :
#
#
# Convention : Reuss Voigt Hill
#
# Bulk Modulus (GPa) = 15.01690 50.62662 32.82176
# Shear Modulus (GPa) = 21.87168 14.19588 18.03378
#
# Velocity S-wave (km/s) = 3.51046 2.82816 3.18761
# Velocity P-wave (km/s) = 4.98920 6.26015 5.66046
#
# Compressibility (1/GPa) = 0.06659164
#
# Stress axis : x y z
#
# Youngs Moduli (GPa) = 44.28022 16.88660 112.90853
#
# Poissons Ratio (x) = 0.03411 0.90282
# Poissons Ratio (y) = 0.08944 0.22782
# Poissons Ratio (z) = 0.35407 0.03407
#
# Static dielectric constant tensor:
#      x y z
#    x 1.597220 0.000000 0.028050 
#    y 0.000000 1.651210 0.000000 
#    z 0.028050 0.000000 1.667010 
# 
# From -- ./inp_files/248389.got.cif
#   From: 2010.05.17/outbox.cif.g08.bks.cpg/sg12_125_cif.got.tgz:248389.got - 2010.06.03 13:09:07.
