data_PCOD9177108
_publ_section_title
;
Structure prediction by ZEFSAII (Michael W. Deem and Ramdas Pophale) SiO2 
 PCOD9177108
Probable space group: C 2/M
;
_chemical_formula_sum "Si O2"
_cell_formula_units_Z 60
_cell_length_a 8.957356
_cell_length_b 21.447698
_cell_length_c 21.443970
_cell_angle_alpha 90.000000
_cell_angle_beta 131.602728
_cell_angle_gamma 90.000000
_cell_volume 3080.574415
_symmetry_space_group_name_H-M "C 2/M"
_symmetry_group_IT_number 12
_symmetry_cell_setting 'monoclinic'
loop_
_space_group_symop_operation_xyz
x,y,z
-x,y,-z
-x,-y,-z
x,-y,z
1/2+x,1/2+y,z
1/2-x,1/2+y,-z
1/2-x,1/2-y,-z
1/2+x,1/2-y,z
loop_
_atom_site_type_symbol
_atom_site_label
_atom_site_fract_x
_atom_site_fract_y
_atom_site_fract_z
Si Si1 0.500000 0.650766 0.000000
Si Si2 0.953506 0.931241 0.250577
Si Si3 0.796711 0.181974 0.483812
Si Si4 0.966697 0.869415 0.852337
Si Si5 0.532201 0.185756 0.708419
Si Si6 0.351923 0.238286 0.093150
Si Si7 0.767858 0.313130 0.759978
Si Si8 0.763684 0.570667 0.439795
O O1 0.465956 0.616335 0.057097
O O2 0.682446 0.694590 0.075022
O O3 0.826705 0.878153 0.248861
O O4 0.972978 0.919238 0.182653
O O5 0.166278 0.926310 0.344371
O O6 0.871934 0.000000 0.240078
O O7 0.750000 0.250000 0.500000
O O8 0.606364 0.165823 0.387483
O O9 0.817594 0.127125 0.540555
O O10 0.000000 0.186039 0.500000
O O11 0.730082 0.855229 0.776666
O O12 0.080680 0.805283 0.862954
O O13 0.612528 0.256117 0.718712
O O14 0.387324 0.186850 0.728055
O O15 0.556080 0.201209 0.142442
O O16 0.250000 0.250000 0.000000
O O17 0.720144 0.500000 0.452014
O O18 0.000000 0.577790 0.500000
#
# Coordination Sequence:
#
# PCOD9177108 Si02
#       8
#     4   8   8   8   8   8   8   8
#     4  10  18  38  57  98 117 148 188 248 310 356
#     4  11  24  41  60  85 121 168 210 247 298 363
#     4  12  24  37  57  90 126 162 202 252 312 369
#     4  10  21  36  61  89 120 153 194 248 301 365
#     4  11  21  36  62  91 121 155 195 251 317 365
#     4   9  19  31  60  90 119 143 187 243 305 357
#     4  11  21  39  59  90 125 160 199 248 308 363
#     4  10  22  42  64  85 117 162 214 263 305 362
#
# _framework density 19.476887000000001
#
# number of rings (size 3 to 8) (size 9 to 14) (size 15 to 20)
#    0.000    1.467    1.333    5.200    3.733    0.267 
#    0.000    1.667    0.000    6.400    0.000    0.000 
#    0.000    0.000    0.000    0.000    0.000    0.000 
#
# Total GULP energy -167273.394376 kJ/mol
# GULP energy per Si atom -5575.779813 kJ/mol
# Density = 1.943256 g / cm^3
# Si number density = 19.476887 Si / 1000 Ang^3
#
#
#
# Elastic Constant Matrix: (Units=GPa)
#
#
# Indices 1 2 3 4 5 6 
#
# 1 79.2437 34.2869 14.7417 0.0000 -8.7958 0.0000
# 2 34.2869 86.2213 13.1126 0.0000 -2.7129 0.0000
# 3 14.7417 13.1126 106.0191 0.0000 1.3149 0.0000
# 4 0.0000 0.0000 0.0000 23.3365 0.0000 -3.4093
# 5 -8.7958 -2.7129 1.3149 0.0000 31.4805 0.0000
# 6 0.0000 0.0000 0.0000 -3.4093 0.0000 17.4109
#
#
#
# Elastic Compliance Matrix: (Units=1/GPa)
#
#
# Indices 1 2 3 4 5 6 
#
# 1 0.015934 -0.005978 -0.001526 0.000000 0.004001 0.000000
# 2 -0.005978 0.014100 -0.000907 0.000000 -0.000417 0.000000
# 3 -0.001526 -0.000907 0.009768 0.000000 -0.000912 0.000000
# 4 0.000000 0.000000 0.000000 0.044113 0.000000 0.008638
# 5 0.004001 -0.000417 -0.000912 0.000000 0.032886 0.000000
# 6 0.000000 0.000000 0.000000 0.008638 0.000000 0.059127
#
#
# Mechanical properties :
#
#
# Convention : Reuss Voigt Hill
#
# Bulk Modulus (GPa) = 43.51818 43.97404 43.74611
# Shear Modulus (GPa) = 24.94878 28.40179 26.67528
#
# Velocity S-wave (km/s) = 3.58291 3.82282 3.70481
# Velocity P-wave (km/s) = 6.28556 6.48936 6.38828
#
# Compressibility (1/GPa) = 0.02297890
#
# Stress axis : x y z
#
# Youngs Moduli (GPa) = 62.75935 70.92045 102.37535
#
# Poissons Ratio (x) = 0.42399 0.15620
# Poissons Ratio (y) = 0.37520 0.09291
# Poissons Ratio (z) = 0.09576 0.06436
#
# Static dielectric constant tensor:
#      x y z
#    x 1.765770 0.000000 -0.025630 
#    y 0.000000 1.693980 0.000000 
#    z -0.025630 0.000000 1.636590 
# 
# From -- ./inp_files/301926.got.cif
#   From: 2010.05.17/outbox.cif.g08.bks.cpg/sg12_151_cif.got.tgz:301926.got - 2010.06.03 13:09:07.
