data_PCOD9177713
_publ_section_title
;
Structure prediction by ZEFSAII (Michael W. Deem and Ramdas Pophale) SiO2 
 PCOD9177713
Probable space group: C 2/M
;
_chemical_formula_sum "Si O2"
_cell_formula_units_Z 64
_cell_length_a 22.669439
_cell_length_b 9.345701
_cell_length_c 15.569285
_cell_angle_alpha 90.000000
_cell_angle_beta 63.614667
_cell_angle_gamma 90.000000
_cell_volume 2954.913482
_symmetry_space_group_name_H-M "C 2/M"
_symmetry_group_IT_number 12
_symmetry_cell_setting 'monoclinic'
loop_
_space_group_symop_operation_xyz
x,y,z
-x,y,-z
-x,-y,-z
x,-y,z
1/2+x,1/2+y,z
1/2-x,1/2+y,-z
1/2-x,1/2-y,-z
1/2+x,1/2-y,z
loop_
_atom_site_type_symbol
_atom_site_label
_atom_site_fract_x
_atom_site_fract_y
_atom_site_fract_z
Si Si1 0.482877 0.662157 0.673615
Si Si2 0.453304 0.161489 0.954071
Si Si3 0.172572 0.840196 0.769606
Si Si4 0.565866 0.842108 0.740121
Si Si5 0.786359 0.335905 0.551492
Si Si6 0.626141 0.672890 0.381634
Si Si7 0.865248 0.836198 0.894253
Si Si8 0.717212 0.827805 0.180676
O O1 0.506979 0.500000 0.648504
O O2 0.541044 0.757938 0.672888
O O3 0.446345 0.704559 0.609258
O O4 0.424387 0.660686 0.784012
O O5 0.501752 0.147169 0.841682
O O6 0.396833 0.265769 0.958001
O O7 0.430348 0.000000 0.992531
O O8 0.500000 0.216588 0.000000
O O9 0.119450 0.736365 0.763610
O O10 0.232388 0.844038 0.662637
O O11 0.208355 0.801997 0.835655
O O12 0.144200 0.000000 0.794929
O O13 0.589205 0.000000 0.702933
O O14 0.802407 0.500000 0.518070
O O15 0.750000 0.250000 0.500000
O O16 0.848628 0.248445 0.548392
O O17 0.633450 0.500000 0.380566
O O18 0.673240 0.742150 0.278560
O O19 0.807859 0.737738 0.892084
O O20 0.844014 0.000000 0.921337
O O21 0.705807 0.000000 0.191873
#
# Coordination Sequence:
#
# PCOD9177713 Si02
#       8
#     8   8   8   8   8   8   8   8
#     4   8  15  27  43  64  92 122 150 186 232 276
#     4   9  18  32  48  68  96 127 157 192 236 284
#     4   9  19  33  48  68  96 127 155 187 233 282
#     4  10  19  29  47  72  94 122 158 194 232 274
#     4  10  20  33  50  72  97 127 158 191 234 280
#     4   9  16  27  45  69  94 121 154 194 235 273
#     4   9  16  26  43  68  93 118 152 195 237 275
#     4   9  16  27  44  66  91 121 155 191 234 279
#
# _framework density 21.658840000000001
#
# number of rings (size 3 to 8) (size 9 to 14) (size 15 to 20)
#    0.000    2.875    0.000    3.375    0.000    7.250 
#    0.000    0.000    0.000    1.500    0.000    5.250 
#    0.000    0.000    0.000    0.000    0.000    0.000 
#
# Total GULP energy -178502.034404 kJ/mol
# GULP energy per Si atom -5578.188575 kJ/mol
# Density = 2.160954 g / cm^3
# Si number density = 21.658840 Si / 1000 Ang^3
#
#
#
# Elastic Constant Matrix: (Units=GPa)
#
#
# Indices 1 2 3 4 5 6 
#
# 1 155.2586 123.2373 35.1072 0.0000 67.2220 0.0000
# 2 123.2373 162.3453 22.7007 0.0000 47.9528 0.0000
# 3 35.1072 22.7007 61.1914 0.0000 12.8739 0.0000
# 4 0.0000 0.0000 0.0000 9.6145 0.0000 11.4120
# 5 67.2220 47.9528 12.8739 0.0000 56.7254 0.0000
# 6 0.0000 0.0000 0.0000 11.4120 0.0000 6.8881
#
#
#
# Elastic Compliance Matrix: (Units=1/GPa)
#
#
# Indices 1 2 3 4 5 6 
#
# 1 0.027592 -0.014415 -0.006476 0.000000 -0.019042 0.000000
# 2 -0.014415 0.015905 0.001685 0.000000 0.003254 0.000000
# 3 -0.006476 0.001685 0.019026 0.000000 0.001932 0.000000
# 4 0.000000 0.000000 0.000000 -0.107614 0.000000 0.178291
# 5 -0.019042 0.003254 0.001932 0.000000 0.037005 0.000000
# 6 0.000000 0.000000 0.000000 0.178291 0.000000 -0.150208
#
#
# Mechanical properties :
#
#
# Convention : Reuss Voigt Hill
#
# Bulk Modulus (GPa) = 41.47529 82.32063 61.89796
# Shear Modulus (GPa) = -44.70516 27.82891 -8.43812
#
# Velocity S-wave (km/s) = -4.54812 3.58840 -1.97595
# Velocity P-wave (km/s) = 2.89648 7.43366 4.84095
#
# Compressibility (1/GPa) = 0.02411074
#
# Stress axis : x y z
#
# Youngs Moduli (GPa) = 36.24242 62.87184 52.55909
#
# Poissons Ratio (x) = 0.90630 0.34039
# Poissons Ratio (y) = 0.52244 -0.08857
# Poissons Ratio (z) = 0.23472 -0.10594
#
# Static dielectric constant tensor:
#      x y z
#    x 1.790390 0.000000 -0.021020 
#    y 0.000000 1.768250 0.000000 
#    z -0.021020 0.000000 1.896380 
# 
# From -- ./inp_files/287531.got.cif
#   From: 2010.05.17/outbox.cif.g08.bks.cpg/sg12_144_cif.got.tgz:287531.got - 2010.06.03 13:09:07.
