data_PCOD9177068
_publ_section_title
;
Structure prediction by ZEFSAII (Michael W. Deem and Ramdas Pophale) SiO2 
 PCOD9177068
Probable space group: C 2/M
;
_chemical_formula_sum "Si O2"
_cell_formula_units_Z 48
_cell_length_a 30.888832
_cell_length_b 14.805041
_cell_length_c 9.764851
_cell_angle_alpha 90.000000
_cell_angle_beta 146.873924
_cell_angle_gamma 90.000000
_cell_volume 2440.357797
_symmetry_space_group_name_H-M "C 2/M"
_symmetry_group_IT_number 12
_symmetry_cell_setting 'monoclinic'
loop_
_space_group_symop_operation_xyz
x,y,z
-x,y,-z
-x,-y,-z
x,-y,z
1/2+x,1/2+y,z
1/2-x,1/2+y,-z
1/2-x,1/2-y,-z
1/2+x,1/2-y,z
loop_
_atom_site_type_symbol
_atom_site_label
_atom_site_fract_x
_atom_site_fract_y
_atom_site_fract_z
Si Si1 0.910716 0.286193 0.812651
Si Si2 0.695350 0.660075 0.859486
Si Si3 0.342787 0.894194 0.882035
Si Si4 0.661594 0.396472 0.456467
Si Si5 0.412672 0.198007 0.327242
Si Si6 0.156790 0.600791 0.600903
O O1 0.890350 0.331328 0.903142
O O2 0.894035 0.179594 0.756404
O O3 0.850301 0.333958 0.546866
O O4 0.000000 0.305189 0.000000
O O5 0.674169 0.624465 0.652555
O O6 0.618221 0.700167 0.729571
O O7 0.750000 0.750000 0.000000
O O8 0.754364 0.598069 0.102407
O O9 0.247996 0.888238 0.614563
O O10 0.365332 0.000000 0.930617
O O11 0.360057 0.856036 0.078401
O O12 0.634535 0.500000 0.370476
O O13 0.500000 0.196949 0.500000
O O14 0.400697 0.143818 0.436750
O O15 0.131397 0.500000 0.497128
#
# Coordination Sequence:
#
# PCOD9177068 Si02
#       6
#     8   8   8   8   8   8
#     4  12  25  40  59  91 129 165 193 245 309 360
#     4  10  18  37  63  90 113 150 207 250 296 344
#     4  11  23  38  60  92 124 159 202 247 296 359
#     4  11  22  42  67  88 115 159 214 256 291 350
#     4  11  21  35  60  90 124 159 198 244 303 364
#     4  11  21  38  64  90 120 160 202 244 299 364
#
# _framework density 19.669246000000001
#
# number of rings (size 3 to 8) (size 9 to 14) (size 15 to 20)
#    0.000    1.000    6.667    3.000    0.000    4.333 
#    0.000    0.000    0.000    3.000    0.000    0.000 
#    0.000    0.000    0.000    0.000    0.000    0.000 
#
# Total GULP energy -133961.654908 kJ/mol
# GULP energy per Si atom -5581.735621 kJ/mol
# Density = 1.962448 g / cm^3
# Si number density = 19.669246 Si / 1000 Ang^3
#
#
#
# Elastic Constant Matrix: (Units=GPa)
#
#
# Indices 1 2 3 4 5 6 
#
# 1 -24.1718 55.8914 -19.7953 0.0000 -25.2681 0.0000
# 2 55.8914 109.5795 24.6294 0.0000 8.0089 0.0000
# 3 -19.7953 24.6294 9.8280 0.0000 -9.5356 0.0000
# 4 0.0000 0.0000 0.0000 13.4691 0.0000 2.3488
# 5 -25.2681 8.0089 -9.5356 0.0000 23.8587 0.0000
# 6 0.0000 0.0000 0.0000 2.3488 0.0000 -6.9951
#
#
#
# Elastic Compliance Matrix: (Units=1/GPa)
#
#
# Indices 1 2 3 4 5 6 
#
# 1 0.000595 0.005520 -0.022578 0.000000 -0.010247 0.000000
# 2 0.005520 0.005433 0.002295 0.000000 0.004940 0.000000
# 3 -0.022578 0.002295 0.043409 0.000000 -0.007333 0.000000
# 4 0.000000 0.000000 0.000000 0.070137 0.000000 0.023550
# 5 -0.010247 0.004940 -0.007333 0.000000 0.026473 0.000000
# 6 0.000000 0.000000 0.000000 0.023550 0.000000 -0.135049
#
#
# Mechanical properties :
#
#
# Convention : Reuss Voigt Hill
#
# Bulk Modulus (GPa) = 50.22072 24.07630 37.14851
# Shear Modulus (GPa) = 106.02109 8.36721 57.19415
#
# Velocity S-wave (km/s) = 7.34976 2.06475 5.39825
# Velocity P-wave (km/s) = 9.87995 4.23691 7.60147
#
# Compressibility (1/GPa) = 0.01991210
#
# Stress axis : x y z
#
# Youngs Moduli (GPa) = 1681.27081 184.04834 23.03674
#
# Poissons Ratio (x) = -1.01598 0.52012
# Poissons Ratio (y) = -9.28088 -0.05287
# Poissons Ratio (z) = 37.95919 -0.42240
#
# Static dielectric constant tensor:
#      x y z
#    x 1.683430 0.000000 0.012040 
#    y 0.000000 1.720930 0.000000 
#    z 0.012040 0.000000 1.740830 
# 
# From -- ./inp_files/105054.got.cif
#   From: 2010.05.17/outbox.cif.g08.bks.cpg/sg12_53_cif.got.tgz:105054.got - 2010.06.03 13:09:07.
