data_PCOD9177114
_publ_section_title
;
Structure prediction by ZEFSAII (Michael W. Deem and Ramdas Pophale) SiO2 
 PCOD9177114
Probable space group: C 2/M
;
_chemical_formula_sum "Si O2"
_cell_formula_units_Z 60
_cell_length_a 8.826342
_cell_length_b 28.479345
_cell_length_c 13.210116
_cell_angle_alpha 90.000000
_cell_angle_beta 115.389606
_cell_angle_gamma 90.000000
_cell_volume 2999.879144
_symmetry_space_group_name_H-M "C 2/M"
_symmetry_group_IT_number 12
_symmetry_cell_setting 'monoclinic'
loop_
_space_group_symop_operation_xyz
x,y,z
-x,y,-z
-x,-y,-z
x,-y,z
1/2+x,1/2+y,z
1/2-x,1/2+y,-z
1/2-x,1/2-y,-z
1/2+x,1/2-y,z
loop_
_atom_site_type_symbol
_atom_site_label
_atom_site_fract_x
_atom_site_fract_y
_atom_site_fract_z
Si Si1 0.500000 0.285395 0.500000
Si Si2 0.909314 0.212940 0.264020
Si Si3 0.515200 0.783345 0.124987
Si Si4 0.728711 0.132983 0.434855
Si Si5 0.615963 0.866718 0.785245
Si Si6 0.010628 0.446014 0.115816
Si Si7 0.869639 0.120587 0.683702
Si Si8 0.132333 0.054049 0.674933
O O1 0.526278 0.259882 0.615420
O O2 0.661779 0.319582 0.543414
O O3 0.710170 0.206954 0.204865
O O4 0.963949 0.238720 0.177476
O O5 0.999148 0.162827 0.295648
O O6 0.400588 0.825062 0.137722
O O7 0.500000 0.777694 0.000000
O O8 0.547299 0.138149 0.333623
O O9 0.732863 0.122003 0.554827
O O10 0.824682 0.090612 0.403186
O O11 0.596269 0.915129 0.839188
O O12 0.779386 0.869594 0.763203
O O13 0.954565 0.500000 0.098339
O O14 0.201794 0.444472 0.208168
O O15 0.000000 0.426326 0.000000
O O16 0.976375 0.073655 0.694615
O O17 0.108749 0.000000 0.635421
#
# Coordination Sequence:
#
# PCOD9177114 Si02
#       8
#     4   8   8   8   8   8   8   8
#     4  10  18  40  65  86 118 150 197 248 294 350
#     4  11  23  42  62  87 118 158 198 248 299 355
#     4  12  25  43  63  88 120 157 203 250 299 361
#     4  10  18  38  59  84 118 157 192 240 285 357
#     4  11  22  38  59  88 117 156 196 241 300 348
#     4   9  19  38  61  82 109 151 199 243 290 348
#     4  11  22  37  57  86 124 154 192 243 296 349
#     4  10  19  34  60  87 116 156 197 237 293 358
#
# _framework density 20.000806000000001
#
# number of rings (size 3 to 8) (size 9 to 14) (size 15 to 20)
#    0.000    1.467    4.000    2.800    0.000    2.133 
#    2.400    2.000    0.000    6.400    0.000    0.000 
#    0.000    0.000    0.000    0.000    0.000    0.000 
#
# Total GULP energy -167546.030635 kJ/mol
# GULP energy per Si atom -5584.867688 kJ/mol
# Density = 1.995528 g / cm^3
# Si number density = 20.000806 Si / 1000 Ang^3
#
#
#
# Elastic Constant Matrix: (Units=GPa)
#
#
# Indices 1 2 3 4 5 6 
#
# 1 76.6932 9.8757 25.6510 0.0000 -22.6543 0.0000
# 2 9.8757 52.1064 21.7255 0.0000 -12.4821 0.0000
# 3 25.6510 21.7255 120.2725 0.0000 -27.0321 0.0000
# 4 0.0000 0.0000 0.0000 -483.6540 0.0000 265.1753
# 5 -22.6543 -12.4821 -27.0321 0.0000 29.4214 0.0000
# 6 0.0000 0.0000 0.0000 265.1753 0.0000 -128.7358
#
#
#
# Elastic Compliance Matrix: (Units=1/GPa)
#
#
# Indices 1 2 3 4 5 6 
#
# 1 0.016948 0.000095 -0.000869 0.000000 0.012292 0.000000
# 2 0.000095 0.021878 -0.002356 0.000000 0.007190 0.000000
# 3 -0.000869 -0.002356 0.010776 0.000000 0.008232 0.000000
# 4 0.000000 0.000000 0.000000 0.015983 0.000000 0.032923
# 5 0.012292 0.007190 0.008232 0.000000 0.054067 0.000000
# 6 0.000000 0.000000 0.000000 0.032923 0.000000 0.060049
#
#
# Mechanical properties :
#
#
# Convention : Reuss Voigt Hill
#
# Bulk Modulus (GPa) = 23.07289 40.39739 31.73514
# Shear Modulus (GPa) = 24.94891 -103.80568 -39.42839
#
# Velocity S-wave (km/s) = 3.53568 -7.21203 -4.44479
# Velocity P-wave (km/s) = 5.31310 7.00782 3.23113
#
# Compressibility (1/GPa) = 0.04334090
#
# Stress axis : x y z
#
# Youngs Moduli (GPa) = 59.00298 45.70736 92.80273
#
# Poissons Ratio (x) = -0.00433 0.08065
# Poissons Ratio (y) = -0.00558 0.21866
# Poissons Ratio (z) = 0.05128 0.10770
#
# Static dielectric constant tensor:
#      x y z
#    x 1.693350 0.000000 -0.013220 
#    y 0.000000 1.724930 0.000000 
#    z -0.013220 0.000000 1.741850 
# 
# From -- ./inp_files/125799.got.cif
#   From: 2010.05.17/outbox.cif.g08.bks.cpg/sg12_63_cif.got.tgz:125799.got - 2010.06.03 13:09:07.
