data_PCOD9177046
_publ_section_title
;
Structure prediction by ZEFSAII (Michael W. Deem and Ramdas Pophale) SiO2 
 PCOD9177046
Probable space group: C 2/M
;
_chemical_formula_sum "Si O2"
_cell_formula_units_Z 56
_cell_length_a 11.845662
_cell_length_b 20.598772
_cell_length_c 11.800879
_cell_angle_alpha 90.000000
_cell_angle_beta 80.409361
_cell_angle_gamma 90.000000
_cell_volume 2839.240550
_symmetry_space_group_name_H-M "C 2/M"
_symmetry_group_IT_number 12
_symmetry_cell_setting 'monoclinic'
loop_
_space_group_symop_operation_xyz
x,y,z
-x,y,-z
-x,-y,-z
x,-y,z
1/2+x,1/2+y,z
1/2-x,1/2+y,-z
1/2-x,1/2-y,-z
1/2+x,1/2-y,z
loop_
_atom_site_type_symbol
_atom_site_label
_atom_site_fract_x
_atom_site_fract_y
_atom_site_fract_z
Si Si1 0.734027 0.135428 0.698022
Si Si2 0.466552 0.573542 0.627100
Si Si3 0.869296 0.577136 0.064772
Si Si4 0.310696 0.815776 0.530829
Si Si5 0.086175 0.255311 0.285207
Si Si6 0.267292 0.815566 0.923918
Si Si7 0.114014 0.837178 0.737400
O O1 0.831905 0.081710 0.662681
O O2 0.651291 0.111222 0.810344
O O3 0.672563 0.146023 0.588021
O O4 0.813002 0.199170 0.718940
O O5 0.500000 0.606299 0.500000
O O6 0.504311 0.500000 0.615038
O O7 0.526898 0.605377 0.724774
O O8 0.840177 0.500000 0.072415
O O9 0.791606 0.621233 0.994689
O O10 0.000000 0.582315 0.000000
O O11 0.250000 0.750000 0.500000
O O12 0.410111 0.794769 0.599225
O O13 0.217595 0.847284 0.631837
O O14 0.125215 0.299603 0.174994
O O15 0.963146 0.224653 0.283405
O O16 0.163150 0.828197 0.854193
O O17 0.250000 0.750000 0.000000
#
# Coordination Sequence:
#
# PCOD9177046 Si02
#       7
#     8   8   8   8   8   8   8
#     4  10  18  37  60  89 126 157 207 255 309 376
#     4  10  19  33  58  91 125 162 198 243 314 391
#     4  11  26  45  65  87 122 176 227 265 306 371
#     4   9  18  31  54  86 121 153 192 243 315 374
#     4   9  20  34  61  91 125 157 196 260 322 383
#     4  11  23  40  62  91 121 165 221 268 318 361
#     4  10  21  37  56  90 125 158 194 254 322 385
#
# _framework density 19.723585
#
# number of rings (size 3 to 8) (size 9 to 14) (size 15 to 20)
#    0.000    2.000    2.857    0.429    2.000    0.571 
#    0.000    1.429    0.000    2.571    0.000    8.000 
#    0.000    0.000    0.000    0.000    0.000    0.000 
#
# Total GULP energy -156166.991714 kJ/mol
# GULP energy per Si atom -5577.392561 kJ/mol
# Density = 1.967869 g / cm^3
# Si number density = 19.723585 Si / 1000 Ang^3
#
#
#
# Elastic Constant Matrix: (Units=GPa)
#
#
# Indices 1 2 3 4 5 6 
#
# 1 86.8800 37.8553 64.0084 0.0000 19.1991 0.0000
# 2 37.8553 80.9036 57.1030 0.0000 22.0869 0.0000
# 3 64.0084 57.1030 170.0832 0.0000 18.0286 0.0000
# 4 0.0000 0.0000 0.0000 25.2199 0.0000 -6.9645
# 5 19.1991 22.0869 18.0286 0.0000 43.3204 0.0000
# 6 0.0000 0.0000 0.0000 -6.9645 0.0000 12.0496
#
#
#
# Elastic Compliance Matrix: (Units=1/GPa)
#
#
# Indices 1 2 3 4 5 6 
#
# 1 0.017648 -0.003674 -0.004998 0.000000 -0.003868 0.000000
# 2 -0.003674 0.018775 -0.004267 0.000000 -0.006168 0.000000
# 3 -0.004998 -0.004267 0.009130 0.000000 0.000591 0.000000
# 4 0.000000 0.000000 0.000000 0.047182 0.000000 0.027271
# 5 -0.003868 -0.006168 0.000591 0.000000 0.027697 0.000000
# 6 0.000000 0.000000 0.000000 0.027271 0.000000 0.098752
#
#
# Mechanical properties :
#
#
# Convention : Reuss Voigt Hill
#
# Bulk Modulus (GPa) = 50.82436 72.86668 61.84552
# Shear Modulus (GPa) = 19.87109 28.04465 23.95787
#
# Velocity S-wave (km/s) = 3.17752 3.77488 3.48901
# Velocity P-wave (km/s) = 6.26789 7.48490 6.90327
#
# Compressibility (1/GPa) = 0.01967560
#
# Stress axis : x y z
#
# Youngs Moduli (GPa) = 56.66342 53.26186 109.52401
#
# Poissons Ratio (x) = 0.19568 0.54741
# Poissons Ratio (y) = 0.20817 0.46734
# Poissons Ratio (z) = 0.28321 0.22727
#
# Static dielectric constant tensor:
#      x y z
#    x 1.729240 0.000000 -0.025030 
#    y 0.000000 1.722380 0.000000 
#    z -0.025030 0.000000 1.758200 
# 
# From -- ./inp_files/133172.got.cif
#   From: 2010.05.17/outbox.cif.g08.bks.cpg/sg12_67_cif.got.tgz:133172.got - 2010.06.03 13:09:07.
