data_PCOD9177132
_publ_section_title
;
Structure prediction by ZEFSAII (Michael W. Deem and Ramdas Pophale) SiO2 
 PCOD9177132
Probable space group: C 2/M
;
_chemical_formula_sum "Si O2"
_cell_formula_units_Z 56
_cell_length_a 18.213657
_cell_length_b 28.403883
_cell_length_c 9.103173
_cell_angle_alpha 90.000000
_cell_angle_beta 143.537397
_cell_angle_gamma 90.000000
_cell_volume 2798.800357
_symmetry_space_group_name_H-M "C 2/M"
_symmetry_group_IT_number 12
_symmetry_cell_setting 'monoclinic'
loop_
_space_group_symop_operation_xyz
x,y,z
-x,y,-z
-x,-y,-z
x,-y,z
1/2+x,1/2+y,z
1/2-x,1/2+y,-z
1/2-x,1/2-y,-z
1/2+x,1/2-y,z
loop_
_atom_site_type_symbol
_atom_site_label
_atom_site_fract_x
_atom_site_fract_y
_atom_site_fract_z
Si Si1 0.067274 0.946211 0.765623
Si Si2 0.086848 0.889274 0.270446
Si Si3 0.573190 0.053660 0.875808
Si Si4 0.812861 0.553369 0.618109
Si Si5 0.619291 0.680880 0.582288
Si Si6 0.717220 0.126147 0.927292
Si Si7 0.349107 0.224641 0.277120
O O1 0.000000 0.938998 0.500000
O O2 0.969417 0.934040 0.733323
O O3 0.109395 0.000000 0.839940
O O4 0.178498 0.909629 0.960307
O O5 0.218155 0.906366 0.425494
O O6 0.090153 0.847691 0.391552
O O7 0.000000 0.875735 0.000000
O O8 0.436203 0.058167 0.720573
O O9 0.608483 0.092950 0.814146
O O10 0.589872 0.000000 0.846484
O O11 0.656645 0.057876 0.158363
O O12 0.766852 0.500000 0.520078
O O13 0.500000 0.680751 0.500000
O O14 0.656836 0.734655 0.609993
O O15 0.725534 0.652635 0.838501
O O16 0.689310 0.170110 0.775778
O O17 0.500000 0.221569 0.500000
O O18 0.250000 0.250000 0.000000
#
# Coordination Sequence:
#
# PCOD9177132 Si02
#       7
#     8   8   8   8   8   8   8
#     4  11  21  35  60  93 128 169 216 264 314 375
#     4  12  22  35  58  88 127 166 206 257 316 376
#     4   9  17  31  55  82 118 163 209 249 294 364
#     4   9  18  33  50  77 121 175 211 238 292 371
#     4  10  18  38  61  90 116 154 210 267 315 369
#     4  11  17  34  62  92 117 155 209 269 310 369
#     4   9  21  37  64  96 117 154 207 272 330 385
#
# _framework density 20.008572999999998
#
# number of rings (size 3 to 8) (size 9 to 14) (size 15 to 20)
#    0.000    1.857    4.286    1.714    0.000    3.429 
#    2.571    0.000    0.000    1.714   14.857    0.000 
#    0.000    0.000    0.000    0.000    0.000    0.000 
#
# Total GULP energy -156032.509624 kJ/mol
# GULP energy per Si atom -5572.589629 kJ/mol
# Density = 1.996303 g / cm^3
# Si number density = 20.008573 Si / 1000 Ang^3
#
#
#
# Elastic Constant Matrix: (Units=GPa)
#
#
# Indices 1 2 3 4 5 6 
#
# 1 26.3004 35.8438 14.3254 0.0000 7.5965 0.0000
# 2 35.8438 178.4083 45.9988 0.0000 12.3903 0.0000
# 3 14.3254 45.9988 75.2675 0.0000 6.4168 0.0000
# 4 0.0000 0.0000 0.0000 34.9772 0.0000 17.5629
# 5 7.5965 12.3903 6.4168 0.0000 16.5300 0.0000
# 6 0.0000 0.0000 0.0000 17.5629 0.0000 -1.7966
#
#
#
# Elastic Compliance Matrix: (Units=1/GPa)
#
#
# Indices 1 2 3 4 5 6 
#
# 1 0.058223 -0.009468 -0.003743 0.000000 -0.018207 0.000000
# 2 -0.009468 0.008398 -0.003273 0.000000 -0.000673 0.000000
# 3 -0.003743 -0.003273 0.016178 0.000000 -0.002107 0.000000
# 4 0.000000 0.000000 0.000000 0.004839 0.000000 0.047302
# 5 -0.018207 -0.000673 -0.002107 0.000000 0.070186 0.000000
# 6 0.000000 0.000000 0.000000 0.047302 0.000000 -0.094203
#
#
# Mechanical properties :
#
#
# Convention : Reuss Voigt Hill
#
# Bulk Modulus (GPa) = 20.06755 52.47913 36.27334
# Shear Modulus (GPa) = 44.16998 22.19601 33.18300
#
# Velocity S-wave (km/s) = 4.70356 3.33427 4.07681
# Velocity P-wave (km/s) = 6.28881 6.41158 6.35049
#
# Compressibility (1/GPa) = 0.04983168
#
# Stress axis : x y z
#
# Youngs Moduli (GPa) = 17.17523 119.07696 61.81187
#
# Poissons Ratio (x) = 1.12743 0.23136
# Poissons Ratio (y) = 0.16262 0.20230
# Poissons Ratio (z) = 0.06429 0.38972
#
# Static dielectric constant tensor:
#      x y z
#    x 1.793310 0.000000 0.029510 
#    y 0.000000 1.715040 0.000000 
#    z 0.029510 0.000000 1.757860 
# 
# From -- ./inp_files/80484.got.cif
#   From: 2010.05.17/outbox.cif.g08.bks.cpg/sg12_41_cif.got.tgz:80484.got - 2010.06.03 13:09:07.
