data_PCOD9177635
_publ_section_title
;
Structure prediction by ZEFSAII (Michael W. Deem and Ramdas Pophale) SiO2 
 PCOD9177635
Probable space group: C 2/M
;
_chemical_formula_sum "Si O2"
_cell_formula_units_Z 48
_cell_length_a 23.769384
_cell_length_b 12.464885
_cell_length_c 14.197198
_cell_angle_alpha 90.000000
_cell_angle_beta 134.688485
_cell_angle_gamma 90.000000
_cell_volume 2990.489593
_symmetry_space_group_name_H-M "C 2/M"
_symmetry_group_IT_number 12
_symmetry_cell_setting 'monoclinic'
loop_
_space_group_symop_operation_xyz
x,y,z
-x,y,-z
-x,-y,-z
x,-y,z
1/2+x,1/2+y,z
1/2-x,1/2+y,-z
1/2-x,1/2-y,-z
1/2+x,1/2-y,z
loop_
_atom_site_type_symbol
_atom_site_label
_atom_site_fract_x
_atom_site_fract_y
_atom_site_fract_z
Si Si1 0.675093 0.124750 0.875279
Si Si2 0.938611 0.205421 0.350094
Si Si3 0.190476 0.873953 0.659489
Si Si4 0.932505 0.875063 0.638322
Si Si5 0.028541 0.871506 0.926902
Si Si6 0.306566 0.746184 0.916653
O O1 0.604807 0.198854 0.753896
O O2 0.750608 0.157603 0.900728
O O3 0.658816 0.000000 0.849063
O O4 0.688883 0.160826 0.998912
O O5 0.872927 0.137773 0.329285
O O6 0.000000 0.247528 0.500000
O O7 0.990799 0.138274 0.338485
O O8 0.142519 0.833753 0.510260
O O9 0.262827 0.798427 0.775369
O O10 0.211131 0.000000 0.674112
O O11 0.915098 0.000000 0.630295
O O12 0.961275 0.833509 0.773333
O O13 0.108972 0.806152 0.004331
O O14 0.041868 0.000000 0.926563
O O15 0.000000 0.858215 0.000000
#
# Coordination Sequence:
#
# PCOD9177635 Si02
#       6
#     8   8   8   8   8   8
#     4  10  19  29  45  69  99 131 156 189 239 291
#     4   9  16  27  44  70  99 127 158 189 236 284
#     4   9  17  28  47  73  99 126 156 194 239 284
#     4   9  16  29  48  71  97 123 158 200 237 275
#     4  10  20  34  53  73  93 123 163 203 239 277
#     4  10  19  32  47  71  98 125 159 199 238 285
#
# _framework density 16.050882999999999
#
# number of rings (size 3 to 8) (size 9 to 14) (size 15 to 20)
#    0.000    2.500    1.667    1.500    0.000    2.333 
#    0.000    0.833    0.000    2.000    0.000    0.000 
#    0.000    0.000    0.000    0.000    0.000    0.000 
#
# Total GULP energy -133626.685857 kJ/mol
# GULP energy per Si atom -5567.778577 kJ/mol
# Density = 1.601435 g / cm^3
# Si number density = 16.050883 Si / 1000 Ang^3
#
#
#
# Elastic Constant Matrix: (Units=GPa)
#
#
# Indices 1 2 3 4 5 6 
#
# 1 30.6060 12.1021 33.2887 0.0000 1.2510 0.0000
# 2 12.1021 50.4465 31.9247 0.0000 8.1280 0.0000
# 3 33.2887 31.9247 145.0744 0.0000 -2.4594 0.0000
# 4 0.0000 0.0000 0.0000 21.7072 0.0000 4.4284
# 5 1.2510 8.1280 -2.4594 0.0000 18.6679 0.0000
# 6 0.0000 0.0000 0.0000 4.4284 0.0000 9.9798
#
#
#
# Elastic Compliance Matrix: (Units=1/GPa)
#
#
# Indices 1 2 3 4 5 6 
#
# 1 0.044647 -0.004457 -0.009302 0.000000 -0.002277 0.000000
# 2 -0.004457 0.025834 -0.004859 0.000000 -0.011590 0.000000
# 3 -0.009302 -0.004859 0.010166 0.000000 0.004078 0.000000
# 4 0.000000 0.000000 0.000000 0.050653 0.000000 -0.022477
# 5 -0.002277 -0.011590 0.004078 0.000000 0.059304 0.000000
# 6 0.000000 0.000000 0.000000 -0.022477 0.000000 0.110176
#
#
# Mechanical properties :
#
#
# Convention : Reuss Voigt Hill
#
# Bulk Modulus (GPa) = 23.03584 42.30643 32.67113
# Shear Modulus (GPa) = 14.18493 19.99172 17.08832
#
# Velocity S-wave (km/s) = 2.97601 3.53302 3.26641
# Velocity P-wave (km/s) = 5.11779 6.56185 5.88429
#
# Compressibility (1/GPa) = 0.04341062
#
# Stress axis : x y z
#
# Youngs Moduli (GPa) = 22.39815 38.70797 98.36795
#
# Poissons Ratio (x) = 0.17252 0.91506
# Poissons Ratio (y) = 0.09983 0.47796
# Poissons Ratio (z) = 0.20836 0.18808
#
# Static dielectric constant tensor:
#      x y z
#    x 1.515930 0.000000 -0.005510 
#    y 0.000000 1.506720 0.000000 
#    z -0.005510 0.000000 1.592530 
# 
# From -- ./inp_files/164295.got.cif
#   From: 2010.05.17/outbox.cif.g08.bks.cpg/sg12_83_cif.got.tgz:164295.got - 2010.06.03 13:09:07.
