data_PCOD9177800
_publ_section_title
;
Structure prediction by ZEFSAII (Michael W. Deem and Ramdas Pophale) SiO2 
 PCOD9177800
Probable space group: C 2/M
;
_chemical_formula_sum "Si O2"
_cell_formula_units_Z 56
_cell_length_a 20.886416
_cell_length_b 25.014455
_cell_length_c 7.284688
_cell_angle_alpha 90.000000
_cell_angle_beta 117.400364
_cell_angle_gamma 90.000000
_cell_volume 3378.991982
_symmetry_space_group_name_H-M "C 2/M"
_symmetry_group_IT_number 12
_symmetry_cell_setting 'monoclinic'
loop_
_space_group_symop_operation_xyz
x,y,z
-x,y,-z
-x,-y,-z
x,-y,z
1/2+x,1/2+y,z
1/2-x,1/2+y,-z
1/2-x,1/2-y,-z
1/2+x,1/2-y,z
loop_
_atom_site_type_symbol
_atom_site_label
_atom_site_fract_x
_atom_site_fract_y
_atom_site_fract_z
Si Si1 0.842733 0.177577 0.642405
Si Si2 0.758025 0.171976 0.165933
Si Si3 0.500000 0.695901 0.780612
Si Si4 0.644787 0.744361 0.968441
Si Si5 0.120738 0.941647 0.318102
Si Si6 0.469606 0.577861 0.264590
Si Si7 0.683026 0.558034 0.817876
O O1 0.779137 0.176567 0.409269
O O2 0.837582 0.215098 0.813222
O O3 0.855011 0.116108 0.725024
O O4 0.915104 0.196691 0.627650
O O5 0.679989 0.197314 0.025445
O O6 0.769831 0.111544 0.110619
O O7 0.813602 0.209814 0.128965
O O8 0.531476 0.641928 0.737722
O O9 0.500000 0.689038 0.000000
O O10 0.558853 0.741323 0.819922
O O11 0.150427 0.940096 0.567428
O O12 0.033898 0.939056 0.215817
O O13 0.142540 0.000000 0.272487
O O14 0.500000 0.559446 0.500000
O O15 0.387318 0.560295 0.143365
O O16 0.718648 0.500000 0.889415
#
# Coordination Sequence:
#
# PCOD9177800 Si02
#       7
#     8   8   8   8   8   8   8
#     4   9  18  30  45  60  83 112 142 173 206 245
#     4  10  19  30  45  61  81 115 140 170 212 245
#     4   9  17  27  41  58  83 109 138 178 204 237
#     4  10  19  30  43  61  85 107 144 175 206 248
#     4   8  14  23  38  59  80 109 140 171 200 227
#     4   9  14  22  38  56  79 108 140 168 196 232
#     4   9  15  24  39  58  79 105 143 172 197 242
#
# _framework density 16.572991999999999
#
# number of rings (size 3 to 8) (size 9 to 14) (size 15 to 20)
#    0.000    2.857    1.429    1.714    0.000    1.714 
#    0.000    0.714    0.000    3.857    0.000    0.000 
#    0.000    5.143    0.000    6.571    0.000    0.286 
#
# Total GULP energy -155902.625302 kJ/mol
# GULP energy per Si atom -5567.950904 kJ/mol
# Density = 1.653527 g / cm^3
# Si number density = 16.572992 Si / 1000 Ang^3
#
#
#
# Elastic Constant Matrix: (Units=GPa)
#
#
# Indices 1 2 3 4 5 6 
#
# 1 23.9784 28.2276 5.9182 0.0000 7.7755 0.0000
# 2 28.2276 112.4427 15.2462 0.0000 15.0788 0.0000
# 3 5.9182 15.2462 37.0310 0.0000 0.5776 0.0000
# 4 0.0000 0.0000 0.0000 11.1904 0.0000 -5.7510
# 5 7.7755 15.0788 0.5776 0.0000 17.8816 0.0000
# 6 0.0000 0.0000 0.0000 -5.7510 0.0000 9.0995
#
#
#
# Elastic Compliance Matrix: (Units=1/GPa)
#
#
# Indices 1 2 3 4 5 6 
#
# 1 0.063635 -0.013163 -0.004494 0.000000 -0.016426 0.000000
# 2 -0.013163 0.013379 -0.003320 0.000000 -0.005451 0.000000
# 3 -0.004494 -0.003320 0.029030 0.000000 0.003816 0.000000
# 4 0.000000 0.000000 0.000000 0.132350 0.000000 0.083646
# 5 -0.016426 -0.005451 0.003816 0.000000 0.067539 0.000000
# 6 0.000000 0.000000 0.000000 0.083646 0.000000 0.162761
#
#
# Mechanical properties :
#
#
# Convention : Reuss Voigt Hill
#
# Bulk Modulus (GPa) = 15.60301 30.24846 22.92573
# Shear Modulus (GPa) = 9.39831 15.90499 12.65165
#
# Velocity S-wave (km/s) = 2.38394 3.10125 2.76595
# Velocity P-wave (km/s) = 4.12465 5.57808 4.90549
#
# Compressibility (1/GPa) = 0.06409021
#
# Stress axis : x y z
#
# Youngs Moduli (GPa) = 15.71456 74.74446 34.44725
#
# Poissons Ratio (x) = 0.98385 0.15482
# Poissons Ratio (y) = 0.20685 0.11435
# Poissons Ratio (z) = 0.07063 0.24812
#
# Static dielectric constant tensor:
#      x y z
#    x 1.577790 0.000000 -0.027060 
#    y 0.000000 1.583710 0.000000 
#    z -0.027060 0.000000 1.619750 
# 
# From -- ./inp_files/98552.got.cif
#   From: 2010.05.17/outbox.cif.g08.bks.cpg/sg12_50_cif.got.tgz:98552.got - 2010.06.03 13:09:07.
