data_PCOD9177367
_publ_section_title
;
Structure prediction by ZEFSAII (Michael W. Deem and Ramdas Pophale) SiO2 
 PCOD9177367
Probable space group: C 2/M
;
_chemical_formula_sum "Si O2"
_cell_formula_units_Z 56
_cell_length_a 24.022993
_cell_length_b 26.525539
_cell_length_c 14.798280
_cell_angle_alpha 90.000000
_cell_angle_beta 159.613453
_cell_angle_gamma 90.000000
_cell_volume 3284.890045
_symmetry_space_group_name_H-M "C 2/M"
_symmetry_group_IT_number 12
_symmetry_cell_setting 'monoclinic'
loop_
_space_group_symop_operation_xyz
x,y,z
-x,y,-z
-x,-y,-z
x,-y,z
1/2+x,1/2+y,z
1/2-x,1/2+y,-z
1/2-x,1/2-y,-z
1/2+x,1/2-y,z
loop_
_atom_site_type_symbol
_atom_site_label
_atom_site_fract_x
_atom_site_fract_y
_atom_site_fract_z
Si Si1 0.508709 0.908696 0.233733
Si Si2 0.169524 0.942813 0.377152
Si Si3 0.600331 0.058009 0.561401
Si Si4 0.810141 0.309864 0.493113
Si Si5 0.671119 0.103659 0.210967
Si Si6 0.113705 0.866391 0.043340
Si Si7 0.145113 0.193973 0.440117
O O1 0.675867 0.931268 0.449170
O O2 0.492594 0.930375 0.309047
O O3 0.542585 0.848676 0.286602
O O4 0.370483 0.917871 0.950540
O O5 0.227680 0.932009 0.568402
O O6 0.119636 0.000000 0.288873
O O7 0.026405 0.904665 0.140948
O O8 0.500000 0.063377 0.500000
O O9 0.743702 0.098320 0.775451
O O10 0.658271 0.000000 0.643600
O O11 0.682318 0.332375 0.228421
O O12 0.853032 0.252670 0.534246
O O13 0.737711 0.310741 0.484143
O O14 0.760182 0.157395 0.347913
O O15 0.500000 0.110570 0.000000
O O16 0.029125 0.829465 0.842782
#
# Coordination Sequence:
#
# PCOD9177367 Si02
#       7
#     8   8   8   8   8   8   8
#     4  10  19  33  48  77 106 137 174 213 255 318
#     4  10  19  31  49  76 107 140 165 206 263 315
#     4  10  22  38  57  77  99 136 180 226 273 305
#     4  10  19  28  46  75 109 139 171 200 253 305
#     4   9  17  30  44  71 109 137 171 196 245 317
#     4  10  20  34  51  78 107 131 177 218 256 311
#     4  10  19  29  48  75 109 145 169 201 251 315
#
# _framework density 17.047754999999999
#
# number of rings (size 3 to 8) (size 9 to 14) (size 15 to 20)
#    0.000    2.143    4.286    1.286    4.000    3.143 
#    0.000    2.143    0.000    6.857    0.000    9.000 
#    0.000    0.000    0.000    0.000    0.000    0.000 
#
# Total GULP energy -156162.677148 kJ/mol
# GULP energy per Si atom -5577.238470 kJ/mol
# Density = 1.700895 g / cm^3
# Si number density = 17.047755 Si / 1000 Ang^3
#
#
#
# Elastic Constant Matrix: (Units=GPa)
#
#
# Indices 1 2 3 4 5 6 
#
# 1 77.7069 28.8225 32.7478 0.0000 -19.7971 0.0000
# 2 28.8225 126.2081 28.7291 0.0000 -3.7174 0.0000
# 3 32.7478 28.7291 76.8238 0.0000 -23.1502 0.0000
# 4 0.0000 0.0000 0.0000 11.6033 0.0000 0.2869
# 5 -19.7971 -3.7174 -23.1502 0.0000 16.8576 0.0000
# 6 0.0000 0.0000 0.0000 0.2869 0.0000 16.3035
#
#
#
# Elastic Compliance Matrix: (Units=1/GPa)
#
#
# Indices 1 2 3 4 5 6 
#
# 1 0.020135 -0.003838 -0.000473 0.000000 0.022150 0.000000
# 2 -0.003838 0.009582 -0.004553 0.000000 -0.008647 0.000000
# 3 -0.000473 -0.004553 0.024653 0.000000 0.032296 0.000000
# 4 0.000000 0.000000 0.000000 0.086220 0.000000 -0.001517
# 5 0.022150 -0.008647 0.032296 0.000000 0.127778 0.000000
# 6 0.000000 0.000000 0.000000 -0.001517 0.000000 0.061363
#
#
# Mechanical properties :
#
#
# Convention : Reuss Voigt Hill
#
# Bulk Modulus (GPa) = 27.29088 51.25976 39.27532
# Shear Modulus (GPa) = 13.90156 21.64884 17.77520
#
# Velocity S-wave (km/s) = 2.85870 3.56742 3.23255
# Velocity P-wave (km/s) = 5.19033 6.86311 6.08448
#
# Compressibility (1/GPa) = 0.03664228
#
# Stress axis : x y z
#
# Youngs Moduli (GPa) = 49.66498 104.36659 40.56291
#
# Poissons Ratio (x) = 0.40058 0.01918
# Poissons Ratio (y) = 0.19063 0.18467
# Poissons Ratio (z) = 0.02348 0.47514
#
# Static dielectric constant tensor:
#      x y z
#    x 1.573360 0.000000 -0.034260 
#    y 0.000000 1.598140 0.000000 
#    z -0.034260 0.000000 1.599340 
# 
# From -- ./inp_files/136332.got.cif
#   From: 2010.05.17/outbox.cif.g08.bks.cpg/sg12_69_cif.got.tgz:136332.got - 2010.06.03 13:09:07.
