data_PCOD9177522
_publ_section_title
;
Structure prediction by ZEFSAII (Michael W. Deem and Ramdas Pophale) SiO2 
 PCOD9177522
Probable space group: C 2/M
;
_chemical_formula_sum "Si O2"
_cell_formula_units_Z 56
_cell_length_a 29.586500
_cell_length_b 9.021775
_cell_length_c 17.736422
_cell_angle_alpha 90.000000
_cell_angle_beta 131.750703
_cell_angle_gamma 90.000000
_cell_volume 3531.986779
_symmetry_space_group_name_H-M "C 2/M"
_symmetry_group_IT_number 12
_symmetry_cell_setting 'monoclinic'
loop_
_space_group_symop_operation_xyz
x,y,z
-x,y,-z
-x,-y,-z
x,-y,z
1/2+x,1/2+y,z
1/2-x,1/2+y,-z
1/2-x,1/2-y,-z
1/2+x,1/2-y,z
loop_
_atom_site_type_symbol
_atom_site_label
_atom_site_fract_x
_atom_site_fract_y
_atom_site_fract_z
Si Si1 0.343986 0.824513 0.584469
Si Si2 0.077438 0.823604 0.710284
Si Si3 0.452166 0.324304 0.630923
Si Si4 0.760455 0.675780 0.631839
Si Si5 0.264520 0.827942 0.244245
Si Si6 0.717564 0.322957 0.892906
Si Si7 0.409368 0.171442 0.431151
O O1 0.410343 0.759727 0.644197
O O2 0.297741 0.745384 0.475239
O O3 0.316375 0.799880 0.636801
O O4 0.343267 0.000000 0.567976
O O5 0.145249 0.790160 0.813327
O O6 0.066361 0.734174 0.620926
O O7 0.023881 0.791525 0.709605
O O8 0.074826 0.000000 0.690135
O O9 0.443361 0.500000 0.628625
O O10 0.429390 0.269975 0.523647
O O11 0.751070 0.500000 0.630019
O O12 0.767673 0.751301 0.720733
O O13 0.257126 0.743630 0.157124
O O14 0.336447 0.821742 0.342855
O O15 0.247489 0.000000 0.218161
O O16 0.724852 0.500000 0.901871
O O17 0.750000 0.250000 0.000000
O O18 0.426758 0.000000 0.462038
#
# Coordination Sequence:
#
# PCOD9177522 Si02
#       7
#     8   8   8   8   8   8   8
#     4  10  20  31  44  66  96 130 168 205 238 276
#     4   9  20  34  47  66  93 126 160 195 236 290
#     4  11  20  30  45  65  93 131 167 195 234 281
#     4  10  19  31  47  67  94 130 167 202 241 281
#     4  10  19  31  49  72  99 128 162 199 240 287
#     4  10  20  36  55  74  98 123 156 200 246 292
#     4  10  19  29  43  66  95 127 162 199 233 274
#
# _framework density 15.855098
#
# number of rings (size 3 to 8) (size 9 to 14) (size 15 to 20)
#    0.000    2.000    1.429    3.000    0.000    6.286 
#    0.000    0.000    0.000    0.000    0.000    1.000 
#    0.000    8.000    0.000    0.000    0.000    0.000 
#
# Total GULP energy -156260.211931 kJ/mol
# GULP energy per Si atom -5580.721855 kJ/mol
# Density = 1.581901 g / cm^3
# Si number density = 15.855098 Si / 1000 Ang^3
#
#
#
# Elastic Constant Matrix: (Units=GPa)
#
#
# Indices 1 2 3 4 5 6 
#
# 1 118.6074 65.1117 39.1355 0.0000 -17.0502 0.0000
# 2 65.1117 87.5092 45.9704 0.0000 -12.0426 0.0000
# 3 39.1355 45.9704 74.6993 0.0000 -16.8821 0.0000
# 4 0.0000 0.0000 0.0000 23.2838 0.0000 -5.1656
# 5 -17.0502 -12.0426 -16.8821 0.0000 16.3162 0.0000
# 6 0.0000 0.0000 0.0000 -5.1656 0.0000 27.8304
#
#
#
# Elastic Compliance Matrix: (Units=1/GPa)
#
#
# Indices 1 2 3 4 5 6 
#
# 1 0.015226 -0.010308 0.000317 0.000000 0.008631 0.000000
# 2 -0.010308 0.023927 -0.010139 0.000000 -0.003602 0.000000
# 3 0.000317 -0.010139 0.023290 0.000000 0.016946 0.000000
# 4 0.000000 0.000000 0.000000 0.044793 0.000000 0.008314
# 5 0.008631 -0.003602 0.016946 0.000000 0.085184 0.000000
# 6 0.000000 0.000000 0.000000 0.008314 0.000000 0.037475
#
#
# Mechanical properties :
#
#
# Convention : Reuss Voigt Hill
#
# Bulk Modulus (GPa) = 45.07604 64.58346 54.82975
# Shear Modulus (GPa) = 18.01485 22.19262 20.10373
#
# Velocity S-wave (km/s) = 3.37444 3.74534 3.56471
# Velocity P-wave (km/s) = 6.60864 7.71527 7.18330
#
# Compressibility (1/GPa) = 0.02218474
#
# Stress axis : x y z
#
# Youngs Moduli (GPa) = 65.67752 41.79318 42.93666
#
# Poissons Ratio (x) = 0.43079 -0.01362
# Poissons Ratio (y) = 0.67699 0.43532
# Poissons Ratio (z) = -0.02083 0.42373
#
# Static dielectric constant tensor:
#      x y z
#    x 1.562760 0.000000 0.006880 
#    y 0.000000 1.528920 0.000000 
#    z 0.006880 0.000000 1.492450 
# 
# From -- ./inp_files/243659.got.cif
#   From: 2010.05.17/outbox.cif.g08.bks.cpg/sg12_122_cif.got.tgz:243659.got - 2010.06.03 13:09:07.
