data_PCOD9177766
_publ_section_title
;
Structure prediction by ZEFSAII (Michael W. Deem and Ramdas Pophale) SiO2 
 PCOD9177766
Probable space group: C 2/M
;
_chemical_formula_sum "Si O2"
_cell_formula_units_Z 40
_cell_length_a 19.726307
_cell_length_b 11.380416
_cell_length_c 6.767719
_cell_angle_alpha 90.000000
_cell_angle_beta 103.753636
_cell_angle_gamma 90.000000
_cell_volume 1475.746281
_symmetry_space_group_name_H-M "C 2/M"
_symmetry_group_IT_number 12
_symmetry_cell_setting 'monoclinic'
loop_
_space_group_symop_operation_xyz
x,y,z
-x,y,-z
-x,-y,-z
x,-y,z
1/2+x,1/2+y,z
1/2-x,1/2+y,-z
1/2-x,1/2-y,-z
1/2+x,1/2-y,z
loop_
_atom_site_type_symbol
_atom_site_label
_atom_site_fract_x
_atom_site_fract_y
_atom_site_fract_z
Si Si1 0.380405 0.000000 0.753991
Si Si2 0.719393 0.000000 0.805642
Si Si3 0.000000 0.711216 0.500000
Si Si4 0.919247 0.500000 0.308381
Si Si5 0.260568 0.745762 0.243165
Si Si6 0.368919 0.500000 0.870029
Si Si7 0.710083 0.500000 0.611282
Si Si8 0.100281 0.241915 0.228972
O O1 0.413412 0.124008 0.847923
O O2 0.399797 0.000000 0.530807
O O3 0.295233 0.000000 0.695127
O O4 0.648348 0.000000 0.879894
O O5 0.710762 0.875165 0.692660
O O6 0.797028 0.000000 0.947609
O O7 0.041041 0.622467 0.674724
O O8 0.055224 0.776907 0.397340
O O9 0.304858 0.630514 0.317450
O O10 0.185201 0.748501 0.296847
O O11 0.250000 0.750000 0.000000
O O12 0.331021 0.500000 0.626694
O O13 0.408724 0.623923 0.910548
#
# Coordination Sequence:
#
# PCOD9177766 Si02
#       8
#     4   4   4   4   8   4   4   8
#     4   8  15  27  47  72 101 129 158 196 259 313
#     4  10  20  32  57  80 107 135 173 223 262 315
#     4   9  18  31  50  76 108 140 168 210 266 310
#     4   9  16  29  50  78 106 131 172 209 262 307
#     4  10  21  35  52  77 107 142 173 210 262 311
#     4  10  20  30  48  86 108 125 165 221 290 300
#     4  10  19  29  50  76 106 129 159 222 262 314
#     4   9  19  32  51  75 106 137 168 211 257 321
#
# _framework density 27.104928999999998
#
# number of rings (size 3 to 8) (size 9 to 14) (size 15 to 20)
#    0.000    2.600    1.000    1.200    5.600    2.800 
#    0.000    0.000    0.000    2.400    0.000    1.400 
#    0.000    0.000    0.000    0.000    0.000    0.000 
#
# Total GULP energy -111456.041736 kJ/mol
# GULP energy per Si atom -5572.802087 kJ/mol
# Density = 2.704324 g / cm^3
# Si number density = 27.104929 Si / 1000 Ang^3
#
#
#
# Elastic Constant Matrix: (Units=GPa)
#
#
# Indices 1 2 3 4 5 6 
#
# 1 128.5913 20.6718 14.7278 0.0000 -29.9712 0.0000
# 2 20.6718 247.3512 32.5002 0.0000 -16.6546 0.0000
# 3 14.7278 32.5002 96.0745 0.0000 1.6382 0.0000
# 4 0.0000 0.0000 0.0000 28.6902 0.0000 -19.3515
# 5 -29.9712 -16.6546 1.6382 0.0000 27.2520 0.0000
# 6 0.0000 0.0000 0.0000 -19.3515 0.0000 34.8431
#
#
#
# Elastic Compliance Matrix: (Units=1/GPa)
#
#
# Indices 1 2 3 4 5 6 
#
# 1 0.010784 0.000163 -0.001914 0.000000 0.012075 0.000000
# 2 0.000163 0.004437 -0.001577 0.000000 0.002986 0.000000
# 3 -0.001914 -0.001577 0.011299 0.000000 -0.003748 0.000000
# 4 0.000000 0.000000 0.000000 0.055733 0.000000 0.030954
# 5 0.012075 0.002986 -0.003748 0.000000 0.052025 0.000000
# 6 0.000000 0.000000 0.000000 0.030954 0.000000 0.045891
#
#
# Mechanical properties :
#
#
# Convention : Reuss Voigt Hill
#
# Bulk Modulus (GPa) = 50.34046 67.53519 58.93782
# Shear Modulus (GPa) = 25.84681 45.09820 35.47250
#
# Velocity S-wave (km/s) = 3.09136 4.08344 3.62153
# Velocity P-wave (km/s) = 5.59954 6.87044 6.26729
#
# Compressibility (1/GPa) = 0.01986474
#
# Stress axis : x y z
#
# Youngs Moduli (GPa) = 92.73099 225.35335 88.49989
#
# Poissons Ratio (x) = -0.03680 0.16941
# Poissons Ratio (y) = -0.01514 0.13957
# Poissons Ratio (z) = 0.17751 0.35540
#
# Static dielectric constant tensor:
#      x y z
#    x 2.201440 0.000000 -0.091390 
#    y 0.000000 2.144940 0.000000 
#    z -0.091390 0.000000 2.265870 
# 
# From -- ./inp_files/83632.got.cif
#   From: 2010.05.17/outbox.cif.g08.bks.cpg/sg12_42_cif.got.tgz:83632.got - 2010.06.03 13:09:07.
