data_PCOD9177558
_publ_section_title
;
Structure prediction by ZEFSAII (Michael W. Deem and Ramdas Pophale) SiO2 
 PCOD9177558
Probable space group: C 2/M
;
_chemical_formula_sum "Si O2"
_cell_formula_units_Z 64
_cell_length_a 22.471465
_cell_length_b 9.119098
_cell_length_c 21.558559
_cell_angle_alpha 90.000000
_cell_angle_beta 116.345957
_cell_angle_gamma 90.000000
_cell_volume 3958.898620
_symmetry_space_group_name_H-M "C 2/M"
_symmetry_group_IT_number 12
_symmetry_cell_setting 'monoclinic'
loop_
_space_group_symop_operation_xyz
x,y,z
-x,y,-z
-x,-y,-z
x,-y,z
1/2+x,1/2+y,z
1/2-x,1/2+y,-z
1/2-x,1/2-y,-z
1/2+x,1/2-y,z
loop_
_atom_site_type_symbol
_atom_site_label
_atom_site_fract_x
_atom_site_fract_y
_atom_site_fract_z
Si Si1 0.036808 0.176060 0.371458
Si Si2 0.079257 0.828567 0.521510
Si Si3 0.513564 0.326001 0.108710
Si Si4 0.991303 0.326537 0.763803
Si Si5 0.352902 0.827841 0.195812
Si Si6 0.399157 0.826168 0.348707
Si Si7 0.256780 0.825749 0.936312
Si Si8 0.891442 0.174424 0.964052
O O1 0.048436 0.245355 0.309589
O O2 0.965568 0.241190 0.358716
O O3 0.084961 0.213212 0.451684
O O4 0.033054 0.000000 0.366219
O O5 0.116949 0.733722 0.590463
O O6 0.000000 0.815031 0.500000
O O7 0.095913 0.000000 0.536558
O O8 0.513183 0.500000 0.122307
O O9 0.524487 0.236300 0.176036
O O10 0.568871 0.300261 0.081523
O O11 0.442972 0.290837 0.043503
O O12 0.979929 0.500000 0.754686
O O13 0.070435 0.302294 0.788523
O O14 0.349148 0.802102 0.268344
O O15 0.303641 0.727896 0.134477
O O16 0.338314 0.000000 0.177407
O O17 0.412868 0.000000 0.357450
O O18 0.325555 0.768255 0.939317
O O19 0.256599 0.000000 0.942814
O O20 0.250000 0.750000 0.000000
O O21 0.876431 0.000000 0.960843
#
# Coordination Sequence:
#
# PCOD9177558 Si02
#       8
#     8   8   8   8   8   8   8   8
#     4   9  16  25  37  55  83 118 152 184 219 264
#     4   8  14  23  35  53  79 113 149 182 218 262
#     4   9  18  33  53  72  90 117 149 181 224 274
#     4  10  19  29  44  67  93 121 153 190 229 265
#     4   9  19  33  45  63  92 123 155 189 226 269
#     4   9  16  25  39  58  81 112 148 186 226 265
#     4  12  24  35  50  70  92 121 153 187 228 268
#     4   9  19  36  54  71  91 116 149 186 223 269
#
# _framework density 16.166111999999998
#
# number of rings (size 3 to 8) (size 9 to 14) (size 15 to 20)
#    0.000    2.625    0.000    5.250    0.000    8.750 
#    0.000    1.250    0.000    0.000    0.000    0.000 
#    0.000    1.000    0.000    3.250    0.000    5.375 
#
# Total GULP energy -178276.676050 kJ/mol
# GULP energy per Si atom -5571.146127 kJ/mol
# Density = 1.612932 g / cm^3
# Si number density = 16.166112 Si / 1000 Ang^3
#
#
#
# Elastic Constant Matrix: (Units=GPa)
#
#
# Indices 1 2 3 4 5 6 
#
# 1 20.1081 24.8970 22.3249 0.0000 -4.3526 0.0000
# 2 24.8970 77.6088 70.0032 0.0000 -9.2124 0.0000
# 3 22.3249 70.0032 130.8338 0.0000 -27.7817 0.0000
# 4 0.0000 0.0000 0.0000 31.3849 0.0000 -3.7776
# 5 -4.3526 -9.2124 -27.7817 0.0000 17.2607 0.0000
# 6 0.0000 0.0000 0.0000 -3.7776 0.0000 18.9478
#
#
#
# Elastic Compliance Matrix: (Units=1/GPa)
#
#
# Indices 1 2 3 4 5 6 
#
# 1 0.083851 -0.028651 0.003440 0.000000 0.011391 0.000000
# 2 -0.028651 0.036569 -0.018333 0.000000 -0.017215 0.000000
# 3 0.003440 -0.018333 0.022746 0.000000 0.027693 0.000000
# 4 0.000000 0.000000 0.000000 0.032646 0.000000 0.006509
# 5 0.011391 -0.017215 0.027693 0.000000 0.096192 0.000000
# 6 0.000000 0.000000 0.000000 0.006509 0.000000 0.054074
#
#
# Mechanical properties :
#
#
# Convention : Reuss Voigt Hill
#
# Bulk Modulus (GPa) = 17.83189 51.44456 34.63822
# Shear Modulus (GPa) = 11.57786 20.94040 16.25913
#
# Velocity S-wave (km/s) = 2.67906 3.60297 3.17480
# Velocity P-wave (km/s) = 4.54138 7.01428 5.90865
#
# Compressibility (1/GPa) = 0.05607932
#
# Stress axis : x y z
#
# Youngs Moduli (GPa) = 11.92593 27.34524 43.96382
#
# Poissons Ratio (x) = 0.78346 -0.15125
# Poissons Ratio (y) = 0.34168 0.80600
# Poissons Ratio (z) = -0.04103 0.50133
#
# Static dielectric constant tensor:
#      x y z
#    x 1.531670 0.000000 -0.024790 
#    y 0.000000 1.533200 0.000000 
#    z -0.024790 0.000000 1.578370 
# 
# From -- ./inp_files/323768.got.cif
#   From: 2010.05.17/outbox.cif.g08.bks.cpg/sg12_162_cif.got.tgz:323768.got - 2010.06.03 13:09:07.
