data_PCOD9177939
_publ_section_title
;
Structure prediction by ZEFSAII (Michael W. Deem and Ramdas Pophale) SiO2 
 PCOD9177939
Probable space group: C 2/M
;
_chemical_formula_sum "Si O2"
_cell_formula_units_Z 56
_cell_length_a 26.788308
_cell_length_b 18.114550
_cell_length_c 25.775773
_cell_angle_alpha 90.000000
_cell_angle_beta 163.076499
_cell_angle_gamma 90.000000
_cell_volume 3640.983564
_symmetry_space_group_name_H-M "C 2/M"
_symmetry_group_IT_number 12
_symmetry_cell_setting 'monoclinic'
loop_
_space_group_symop_operation_xyz
x,y,z
-x,y,-z
-x,-y,-z
x,-y,z
1/2+x,1/2+y,z
1/2-x,1/2+y,-z
1/2-x,1/2-y,-z
1/2+x,1/2-y,z
loop_
_atom_site_type_symbol
_atom_site_label
_atom_site_fract_x
_atom_site_fract_y
_atom_site_fract_z
Si Si1 0.147635 0.584568 0.416047
Si Si2 0.044828 0.583187 0.605016
Si Si3 0.681332 0.275740 0.987182
Si Si4 0.497235 0.584212 0.829137
Si Si5 0.044148 0.914682 0.988315
Si Si6 0.691093 0.789597 0.387457
Si Si7 0.980964 0.697001 0.628692
O O1 0.088000 0.500000 0.352576
O O2 0.325280 0.584596 0.624921
O O3 0.182418 0.624955 0.395807
O O4 0.030901 0.638552 0.334957
O O5 0.987783 0.500000 0.564257
O O6 0.969475 0.646795 0.566255
O O7 0.000000 0.592010 0.500000
O O8 0.251009 0.585897 0.814806
O O9 0.632530 0.361946 0.937817
O O10 0.499816 0.236100 0.816925
O O11 0.750000 0.250000 0.000000
O O12 0.832576 0.265887 0.179179
O O13 0.559498 0.500000 0.895362
O O14 0.466780 0.613639 0.857485
O O15 0.982599 0.000000 0.930352
O O16 0.000000 0.879741 0.000000
O O17 0.750000 0.750000 0.500000
O O18 0.831772 0.757554 0.487730
#
# Coordination Sequence:
#
# PCOD9177939 Si02
#       7
#     8   8   8   8   8   8   8
#     4  10  19  31  48  68  92 121 157 197 238 282
#     4  10  21  32  44  67  95 127 167 203 233 267
#     4  12  19  32  48  65  91 123 159 200 237 280
#     4  10  19  30  45  66  89 120 164 199 230 276
#     4   9  18  30  42  60  87 119 157 200 236 265
#     4  10  19  33  46  68  91 119 158 196 238 283
#     4  11  20  32  51  65  93 131 164 194 235 282
#
# _framework density 15.380459
#
# number of rings (size 3 to 8) (size 9 to 14) (size 15 to 20)
#    0.000    1.714    7.143    0.429    2.000    0.571 
#    0.000    0.000    0.000    0.000    0.000    0.000 
#    0.000    0.571    0.000    1.286    0.000    0.286 
#
# Total GULP energy -155990.605517 kJ/mol
# GULP energy per Si atom -5571.093054 kJ/mol
# Density = 1.534545 g / cm^3
# Si number density = 15.380459 Si / 1000 Ang^3
#
#
#
# Elastic Constant Matrix: (Units=GPa)
#
#
# Indices 1 2 3 4 5 6 
#
# 1 66.2647 35.4595 19.7684 0.0014 -4.7133 0.0006
# 2 35.4595 59.6291 20.1224 0.0018 -3.4805 -0.0005
# 3 19.7684 20.1224 86.9079 0.0048 2.0537 0.0055
# 4 0.0014 0.0018 0.0048 17.0127 0.0033 2.1438
# 5 -4.7133 -3.4805 2.0537 0.0033 15.5503 -0.0001
# 6 0.0006 -0.0005 0.0055 2.1438 -0.0001 29.0654
#
#
#
# Elastic Compliance Matrix: (Units=1/GPa)
#
#
# Indices 1 2 3 4 5 6 
#
# 1 0.022808 -0.012495 -0.002400 -0.000001 0.004434 0.000000
# 2 -0.012495 0.025377 -0.003088 -0.000001 0.002301 0.000001
# 3 -0.002400 -0.003088 0.012841 -0.000002 -0.003114 -0.000002
# 4 -0.000001 -0.000001 -0.000002 0.059331 -0.000013 -0.004376
# 5 0.004434 0.002301 -0.003114 -0.000013 0.066578 0.000002
# 6 0.000000 0.000001 -0.000002 -0.004376 0.000002 0.034728
#
#
# Mechanical properties :
#
#
# Convention : Reuss Voigt Hill
#
# Bulk Modulus (GPa) = 39.90256 40.38915 40.14585
# Shear Modulus (GPa) = 18.79827 21.48909 20.14368
#
# Velocity S-wave (km/s) = 3.49982 3.74193 3.62289
# Velocity P-wave (km/s) = 6.50627 6.70719 6.60750
#
# Compressibility (1/GPa) = 0.02506105
#
# Stress axis : x y z
#
# Youngs Moduli (GPa) = 43.84331 39.40585 77.87621
#
# Poissons Ratio (x) = 0.49237 0.18689
# Poissons Ratio (y) = 0.54781 0.24048
# Poissons Ratio (z) = 0.10522 0.12168
#
# Static dielectric constant tensor:
#      x y z
#    x 1.574960 0.000000 0.016060 
#    y 0.000000 1.536690 -0.000010 
#    z 0.016060 -0.000010 1.565460 
# 
# From -- ./inp_files/349956.got.cif
#   From: 2010.05.17/outbox.cif.g08.bks.cpg/sg12_175_cif.got.tgz:349956.got - 2010.06.03 13:09:07.
