data_PCOD9177416
_publ_section_title
;
Structure prediction by ZEFSAII (Michael W. Deem and Ramdas Pophale) SiO2 
 PCOD9177416
Probable space group: C 2/M
;
_chemical_formula_sum "Si O2"
_cell_formula_units_Z 56
_cell_length_a 5.304581
_cell_length_b 26.804883
_cell_length_c 23.099723
_cell_angle_alpha 90.000000
_cell_angle_beta 107.906928
_cell_angle_gamma 90.000000
_cell_volume 3125.407773
_symmetry_space_group_name_H-M "C 2/M"
_symmetry_group_IT_number 12
_symmetry_cell_setting 'monoclinic'
loop_
_space_group_symop_operation_xyz
x,y,z
-x,y,-z
-x,-y,-z
x,-y,z
1/2+x,1/2+y,z
1/2-x,1/2+y,-z
1/2-x,1/2-y,-z
1/2+x,1/2-y,z
loop_
_atom_site_type_symbol
_atom_site_label
_atom_site_fract_x
_atom_site_fract_y
_atom_site_fract_z
Si Si1 0.333640 0.883772 0.771332
Si Si2 0.666601 0.557348 0.228706
Si Si3 0.029043 0.383685 0.918197
Si Si4 0.975126 0.782465 0.436736
Si Si5 0.271423 0.783552 0.698434
Si Si6 0.466476 0.231109 0.931829
Si Si7 0.531139 0.442579 0.919556
O O1 0.552782 0.915095 0.752010
O O2 0.432708 0.882337 0.844655
O O3 0.312460 0.828325 0.745530
O O4 0.053129 0.911811 0.752144
O O5 0.684346 0.500000 0.248851
O O6 0.567803 0.556435 0.154573
O O7 0.298169 0.415110 0.937592
O O8 0.053097 0.326142 0.937251
O O9 0.798669 0.410864 0.937442
O O10 0.762960 0.738444 0.438136
O O11 0.841432 0.805512 0.370472
O O12 0.000000 0.810630 0.500000
O O13 0.544567 0.754416 0.704839
O O14 0.652486 0.261636 0.901295
O O15 0.500000 0.251316 0.000000
O O16 0.572524 0.500000 0.939675
#
# Coordination Sequence:
#
# PCOD9177416 Si02
#       7
#     8   8   8   8   8   8   8
#     4  10  19  29  44  68  92 116 146 176 218 268
#     4   9  17  30  46  64  88 116 148 185 217 251
#     4  10  19  31  49  69  90 117 146 180 218 259
#     4   8  14  25  40  56  77 111 150 179 206 245
#     4  10  19  29  41  61  93 124 144 173 215 258
#     4  10  21  36  52  68  87 116 154 189 215 244
#     4   9  17  30  49  71  92 115 142 174 219 269
#
# _framework density 17.917662
#
# number of rings (size 3 to 8) (size 9 to 14) (size 15 to 20)
#    0.000    2.571    0.000    2.571    0.000    4.571 
#    0.000    0.000    0.000    2.571    0.000    0.000 
#    0.000    3.429    0.000    0.000    0.000    0.000 
#
# Total GULP energy -156189.385551 kJ/mol
# GULP energy per Si atom -5578.192341 kJ/mol
# Density = 1.787688 g / cm^3
# Si number density = 17.917662 Si / 1000 Ang^3
#
#
#
# Elastic Constant Matrix: (Units=GPa)
#
#
# Indices 1 2 3 4 5 6 
#
# 1 141.8246 46.3242 16.9492 0.0000 -9.7296 0.0000
# 2 46.3242 97.7911 15.3560 0.0000 -7.6274 0.0000
# 3 16.9492 15.3560 46.4696 0.0000 -4.0509 0.0000
# 4 0.0000 0.0000 0.0000 -13.6751 0.0000 4.1529
# 5 -9.7296 -7.6274 -4.0509 0.0000 11.0635 0.0000
# 6 0.0000 0.0000 0.0000 4.1529 0.0000 29.6813
#
#
#
# Elastic Compliance Matrix: (Units=1/GPa)
#
#
# Indices 1 2 3 4 5 6 
#
# 1 0.008709 -0.003510 -0.001611 0.000000 0.004649 0.000000
# 2 -0.003510 0.012647 -0.002488 0.000000 0.004722 0.000000
# 3 -0.001611 -0.002488 0.023403 0.000000 0.005437 0.000000
# 4 0.000000 0.000000 0.000000 -0.070145 0.000000 0.009814
# 5 0.004649 0.004722 0.005437 0.000000 0.099722 0.000000
# 6 0.000000 0.000000 0.000000 0.009814 0.000000 0.032318
#
#
# Mechanical properties :
#
#
# Convention : Reuss Voigt Hill
#
# Bulk Modulus (GPa) = 33.85019 49.26046 41.55532
# Shear Modulus (GPa) = 37.95968 19.24435 28.60201
#
# Velocity S-wave (km/s) = 4.60778 3.28082 3.99971
# Velocity P-wave (km/s) = 6.87327 6.47333 6.67630
#
# Compressibility (1/GPa) = 0.02954193
#
# Stress axis : x y z
#
# Youngs Moduli (GPa) = 114.82516 79.06760 42.72928
#
# Poissons Ratio (x) = 0.27751 0.06885
# Poissons Ratio (y) = 0.40301 0.10629
# Poissons Ratio (z) = 0.18503 0.19669
#
# Static dielectric constant tensor:
#      x y z
#    x 1.659660 0.000000 0.007430 
#    y 0.000000 1.571200 0.000000 
#    z 0.007430 0.000000 1.658560 
# 
# From -- ./inp_files/298010.got.cif
#   From: 2010.05.17/outbox.cif.g08.bks.cpg/sg12_150_cif.got.tgz:298010.got - 2010.06.03 13:09:07.
