data_PCOD9177197
_publ_section_title
;
Structure prediction by ZEFSAII (Michael W. Deem and Ramdas Pophale) SiO2 
 PCOD9177197
Probable space group: C 2/M
;
_chemical_formula_sum "Si O2"
_cell_formula_units_Z 52
_cell_length_a 20.625489
_cell_length_b 20.357123
_cell_length_c 11.973306
_cell_angle_alpha 90.000000
_cell_angle_beta 32.332279
_cell_angle_gamma 90.000000
_cell_volume 2688.742729
_symmetry_space_group_name_H-M "C 2/M"
_symmetry_group_IT_number 12
_symmetry_cell_setting 'monoclinic'
loop_
_space_group_symop_operation_xyz
x,y,z
-x,y,-z
-x,-y,-z
x,-y,z
1/2+x,1/2+y,z
1/2-x,1/2+y,-z
1/2-x,1/2-y,-z
1/2+x,1/2-y,z
loop_
_atom_site_type_symbol
_atom_site_label
_atom_site_fract_x
_atom_site_fract_y
_atom_site_fract_z
Si Si1 0.500000 0.193383 0.000000
Si Si2 0.317974 0.500000 0.359654
Si Si3 0.602921 0.500000 0.003176
Si Si4 0.620320 0.211293 0.392197
Si Si5 0.954946 0.229103 0.284186
Si Si6 0.859131 0.866541 0.682716
Si Si7 0.830281 0.132893 0.969299
Si Si8 0.254289 0.377693 0.598604
O O1 0.491491 0.239930 0.904661
O O2 0.620469 0.150307 0.811535
O O3 0.317776 0.500000 0.225784
O O4 0.260869 0.436385 0.501250
O O5 0.460975 0.500000 0.180600
O O6 0.628849 0.565391 0.034966
O O7 0.500000 0.193545 0.500000
O O8 0.590495 0.213952 0.566589
O O9 0.649305 0.287782 0.323191
O O10 0.727424 0.165985 0.194024
O O11 0.842214 0.180670 0.427063
O O12 0.057797 0.184755 0.194201
O O13 0.791936 0.879709 0.897132
O O14 0.807991 0.897150 0.642999
O O15 0.000000 0.884733 0.500000
#
# Coordination Sequence:
#
# PCOD9177197 Si02
#       8
#     4   4   4   8   8   8   8   8
#     4  12  28  37  64  95 134 166 206 258 326 378
#     4  11  24  46  65  81 129 168 221 249 306 384
#     4  11  26  41  64  93 117 175 209 263 304 377
#     4  10  21  35  62  97 129 163 194 259 323 379
#     4  11  22  40  64  95 127 162 207 263 315 367
#     4  10  18  39  65  97 123 153 208 264 317 358
#     4  12  22  39  66  93 127 162 213 257 316 370
#     4  11  24  42  63  94 126 169 208 260 312 376
#
# _framework density 19.339894000000001
#
# number of rings (size 3 to 8) (size 9 to 14) (size 15 to 20)
#    0.000    1.077    6.154    2.769    6.462    0.923 
#    0.000    1.923    0.000    0.000    0.000    0.000 
#    0.000    0.000    0.000    0.000    0.000    0.000 
#
# Total GULP energy -145297.275781 kJ/mol
# GULP energy per Si atom -5588.356761 kJ/mol
# Density = 1.929588 g / cm^3
# Si number density = 19.339894 Si / 1000 Ang^3
#
#
#
# Elastic Constant Matrix: (Units=GPa)
#
#
# Indices 1 2 3 4 5 6 
#
# 1 45.5533 7.2992 10.4528 -0.0001 26.4227 0.0000
# 2 7.2992 38.1697 34.8176 -0.0002 12.0164 -0.0001
# 3 10.4528 34.8176 97.4125 -0.0002 16.9206 0.0001
# 4 -0.0001 -0.0002 -0.0002 -57.2864 0.0000 -61.4328
# 5 26.4227 12.0164 16.9206 0.0000 46.7161 -0.0001
# 6 0.0000 -0.0001 0.0001 -61.4328 -0.0001 -42.2940
#
#
#
# Elastic Compliance Matrix: (Units=1/GPa)
#
#
# Indices 1 2 3 4 5 6 
#
# 1 0.032681 -0.000273 -0.000225 0.000000 -0.018333 0.000000
# 2 -0.000273 0.040145 -0.013395 0.000000 -0.005320 0.000000
# 3 -0.000225 -0.013395 0.015428 0.000000 -0.002015 0.000000
# 4 0.000000 0.000000 0.000000 0.031303 0.000000 -0.045468
# 5 -0.018333 -0.005320 -0.002015 0.000000 0.033873 0.000000
# 6 0.000000 0.000000 0.000000 -0.045468 0.000000 0.042399
#
#
# Mechanical properties :
#
#
# Convention : Reuss Voigt Hill
#
# Bulk Modulus (GPa) = 16.53783 31.80829 24.17306
# Shear Modulus (GPa) = 20.51103 -2.00179 9.25462
#
# Velocity S-wave (km/s) = 3.26015 -1.01848 2.18989
# Velocity P-wave (km/s) = 4.76877 3.88582 4.34976
#
# Compressibility (1/GPa) = 0.06046742
#
# Stress axis : x y z
#
# Youngs Moduli (GPa) = 30.59835 24.90988 64.81893
#
# Poissons Ratio (x) = 0.00680 0.01457
# Poissons Ratio (y) = 0.00835 0.86827
# Poissons Ratio (z) = 0.00688 0.33368
#
# Static dielectric constant tensor:
#      x y z
#    x 1.702420 0.000000 0.018250 
#    y 0.000000 1.637300 0.000000 
#    z 0.018250 0.000000 1.684320 
# 
# From -- ./inp_files/169852.got.cif
#   From: 2010.05.17/outbox.cif.g08.bks.cpg/sg12_85_cif.got.tgz:169852.got - 2010.06.03 13:09:07.
