data_PCOD9177824
_publ_section_title
;
Structure prediction by ZEFSAII (Michael W. Deem and Ramdas Pophale) SiO2 
 PCOD9177824
Probable space group: C 2/M
;
_chemical_formula_sum "Si O2"
_cell_formula_units_Z 64
_cell_length_a 25.469269
_cell_length_b 8.353635
_cell_length_c 22.260301
_cell_angle_alpha 90.000000
_cell_angle_beta 46.757931
_cell_angle_gamma 90.000000
_cell_volume 3450.103947
_symmetry_space_group_name_H-M "C 2/M"
_symmetry_group_IT_number 12
_symmetry_cell_setting 'monoclinic'
loop_
_space_group_symop_operation_xyz
x,y,z
-x,y,-z
-x,-y,-z
x,-y,z
1/2+x,1/2+y,z
1/2-x,1/2+y,-z
1/2-x,1/2-y,-z
1/2+x,1/2-y,z
loop_
_atom_site_type_symbol
_atom_site_label
_atom_site_fract_x
_atom_site_fract_y
_atom_site_fract_z
Si Si1 0.861803 0.814879 0.979728
Si Si2 0.585128 0.678226 0.926036
Si Si3 0.438650 0.807022 0.731050
Si Si4 0.860353 0.316280 0.232344
Si Si5 0.278712 0.306324 0.719224
Si Si6 0.939309 0.306172 0.594179
Si Si7 0.996655 0.306992 0.199375
Si Si8 0.778195 0.809178 0.858628
O O1 0.928290 0.737622 0.892100
O O2 0.857643 0.000000 0.964865
O O3 0.884052 0.802323 0.032167
O O4 0.781648 0.743546 0.046371
O O5 0.605399 0.500000 0.887257
O O6 0.608488 0.808081 0.859698
O O7 0.500000 0.682830 0.000000
O O8 0.454146 0.751751 0.651103
O O9 0.493535 0.753035 0.739562
O O10 0.357836 0.753106 0.811062
O O11 0.439225 0.000000 0.730168
O O12 0.850662 0.500000 0.259572
O O13 0.780764 0.246125 0.282039
O O14 0.924203 0.244108 0.223395
O O15 0.275124 0.500000 0.722314
O O16 0.359325 0.252727 0.641163
O O17 0.263730 0.252662 0.800421
O O18 0.938644 0.500000 0.594548
O O19 0.000000 0.251766 0.500000
O O20 0.992169 0.500000 0.201015
O O21 0.779004 0.000000 0.856284
#
# Coordination Sequence:
#
# PCOD9177824 Si02
#       8
#     8   8   8   8   8   8   8   8
#     4  11  21  31  46  68  97 133 173 214 252 287
#     4  10  19  30  43  65  95 129 170 213 252 282
#     4   9  19  36  53  72  98 127 162 202 245 296
#     4  10  19  31  48  70  97 130 167 204 243 286
#     4   9  18  31  49  76 104 126 155 198 245 290
#     4   9  18  34  58  83 101 120 151 194 244 296
#     4  10  21  34  49  68  95 135 174 205 242 288
#     4  10  19  32  50  71  96 129 169 213 254 288
#
# _framework density 18.550165
#
# number of rings (size 3 to 8) (size 9 to 14) (size 15 to 20)
#    0.000    2.250    2.500    0.750    0.000    3.000 
#    0.000    0.000    0.000    0.750    0.000    0.000 
#    0.000    0.000    0.000    0.000    0.000    0.000 
#
# Total GULP energy -178306.315437 kJ/mol
# GULP energy per Si atom -5572.072357 kJ/mol
# Density = 1.850794 g / cm^3
# Si number density = 18.550165 Si / 1000 Ang^3
#
#
#
# Elastic Constant Matrix: (Units=GPa)
#
#
# Indices 1 2 3 4 5 6 
#
# 1 128.0766 18.7314 66.2541 0.0024 -4.9681 0.0056
# 2 18.7314 6.6142 11.1843 -0.0049 3.3074 0.0038
# 3 66.2541 11.1843 90.3620 -0.0009 -18.8949 -0.0027
# 4 0.0024 -0.0049 -0.0009 10.3394 -0.0002 -4.8479
# 5 -4.9681 3.3074 -18.8949 -0.0002 11.8279 -0.0017
# 6 0.0056 0.0038 -0.0027 -4.8479 -0.0017 16.6349
#
#
#
# Elastic Compliance Matrix: (Units=1/GPa)
#
#
# Indices 1 2 3 4 5 6 
#
# 1 0.018237 -0.064163 -0.000115 -0.000033 0.025418 0.000002
# 2 -0.064163 1.071078 -0.230923 0.000383 -0.695348 -0.000224
# 3 -0.000115 -0.230923 0.079922 -0.000067 0.192198 0.000067
# 4 -0.000033 0.000383 -0.000067 0.112025 -0.000221 0.032647
# 5 0.025418 -0.695348 0.192198 -0.000221 0.596694 0.000181
# 6 0.000002 -0.000224 0.000067 0.032647 0.000181 0.069629
#
#
# Mechanical properties :
#
#
# Convention : Reuss Voigt Hill
#
# Bulk Modulus (GPa) = 1.72761 46.37694 24.05228
# Shear Modulus (GPa) = 1.83088 16.35265 9.09176
#
# Velocity S-wave (km/s) = 0.99455 2.97229 2.21626
# Velocity P-wave (km/s) = 1.50073 6.06914 4.42078
#
# Compressibility (1/GPa) = 0.57883391
#
# Stress axis : x y z
#
# Youngs Moduli (GPa) = 54.83225 0.93364 12.51220
#
# Poissons Ratio (x) = 0.05991 0.00144
# Poissons Ratio (y) = 3.51820 2.88936
# Poissons Ratio (z) = 0.00633 0.21560
#
# Static dielectric constant tensor:
#      x y z
#    x 1.714990 0.000000 0.001690 
#    y 0.000000 1.673040 0.000000 
#    z 0.001690 0.000000 1.620350 
# 
# From -- ./inp_files/324209.got.cif
#   From: 2010.05.17/outbox.cif.g08.bks.cpg/sg12_163_cif.got.tgz:324209.got - 2010.06.03 13:09:07.
