data_PCOD9177905
_publ_section_title
;
Structure prediction by ZEFSAII (Michael W. Deem and Ramdas Pophale) SiO2 
 PCOD9177905
Probable space group: C 2/M
;
_chemical_formula_sum "Si O2"
_cell_formula_units_Z 48
_cell_length_a 14.092418
_cell_length_b 9.829765
_cell_length_c 20.034559
_cell_angle_alpha 90.000000
_cell_angle_beta 52.670011
_cell_angle_gamma 90.000000
_cell_volume 2206.789378
_symmetry_space_group_name_H-M "C 2/M"
_symmetry_group_IT_number 12
_symmetry_cell_setting 'monoclinic'
loop_
_space_group_symop_operation_xyz
x,y,z
-x,y,-z
-x,-y,-z
x,-y,z
1/2+x,1/2+y,z
1/2-x,1/2+y,-z
1/2-x,1/2-y,-z
1/2+x,1/2-y,z
loop_
_atom_site_type_symbol
_atom_site_label
_atom_site_fract_x
_atom_site_fract_y
_atom_site_fract_z
Si Si1 0.928371 0.655505 0.915739
Si Si2 0.821421 0.657133 0.745917
Si Si3 0.683243 0.343374 0.932768
Si Si4 0.824022 0.152667 0.420117
Si Si5 0.432300 0.843797 0.272309
Si Si6 0.939110 0.153435 0.593685
O O1 0.948180 0.500000 0.928793
O O2 0.805310 0.657284 0.924975
O O3 0.028908 0.693320 0.819055
O O4 0.908071 0.753710 0.986283
O O5 0.796676 0.500000 0.737637
O O6 0.723104 0.704178 0.842107
O O7 0.945811 0.654971 0.735270
O O8 0.845436 0.753482 0.672812
O O9 0.645160 0.500000 0.944110
O O10 0.750000 0.250000 0.500000
O O11 0.847080 0.234891 0.342755
O O12 0.951586 0.139766 0.401603
O O13 0.774052 0.000000 0.433467
O O14 0.388202 0.000000 0.292449
O O15 0.000000 0.209999 0.500000
O O16 0.894871 0.000000 0.597142
#
# Coordination Sequence:
#
# PCOD9177905 Si02
#       6
#     8   8   8   8   8   8
#     4   8  13  20  31  48  71 101 133 163 197 237
#     4   8  14  24  37  54  77 106 137 168 205 245
#     4   8  13  20  30  47  73 102 131 163 197 237
#     4  10  19  30  45  63  84 111 141 174 211 250
#     4   8  14  25  38  53  77 106 136 170 205 243
#     4   9  18  31  45  62  84 110 141 176 212 248
#
# _framework density 21.751055999999998
#
# number of rings (size 3 to 8) (size 9 to 14) (size 15 to 20)
#    0.000    3.500    0.000    2.500    0.000    2.333 
#    0.000    6.667    0.000    0.000    0.000    0.000 
#    0.000    1.333    0.000   15.000    0.000   21.833 
#
# Total GULP energy -133922.634391 kJ/mol
# GULP energy per Si atom -5580.109766 kJ/mol
# Density = 2.170155 g / cm^3
# Si number density = 21.751056 Si / 1000 Ang^3
#
#
#
# Elastic Constant Matrix: (Units=GPa)
#
#
# Indices 1 2 3 4 5 6 
#
# 1 68.1127 4.1781 11.7067 0.0000 7.5345 0.0000
# 2 4.1781 143.8284 149.7512 0.0000 14.7456 0.0000
# 3 11.7067 149.7512 240.4173 0.0000 23.8310 0.0000
# 4 0.0000 0.0000 0.0000 40.8869 0.0000 7.5832
# 5 7.5345 14.7456 23.8310 0.0000 18.0609 0.0000
# 6 0.0000 0.0000 0.0000 7.5832 0.0000 -2.5745
#
#
#
# Elastic Compliance Matrix: (Units=1/GPa)
#
#
# Indices 1 2 3 4 5 6 
#
# 1 0.015440 0.000939 -0.000716 0.000000 -0.006263 0.000000
# 2 0.000939 0.019839 -0.012378 0.000000 -0.000257 0.000000
# 3 -0.000716 -0.012378 0.012509 0.000000 -0.006101 0.000000
# 4 0.000000 0.000000 0.000000 0.015817 0.000000 0.046589
# 5 -0.006263 -0.000257 -0.006101 0.000000 0.066241 0.000000
# 6 0.000000 0.000000 0.000000 0.046589 0.000000 -0.251197
#
#
# Mechanical properties :
#
#
# Convention : Reuss Voigt Hill
#
# Bulk Modulus (GPa) = 42.59194 87.07003 64.83098
# Shear Modulus (GPa) = -56.04406 30.38950 -12.82728
#
# Velocity S-wave (km/s) = -5.08154 3.74190 -2.43107
# Velocity P-wave (km/s) = 3.84777 7.66722 4.68940
#
# Compressibility (1/GPa) = 0.02347862
#
# Stress axis : x y z
#
# Youngs Moduli (GPa) = 64.76769 50.40528 79.94340
#
# Poissons Ratio (x) = -0.04732 0.05722
# Poissons Ratio (y) = -0.06081 0.98951
# Poissons Ratio (z) = 0.04636 0.62390
#
# Static dielectric constant tensor:
#      x y z
#    x 1.923930 0.000000 -0.022500 
#    y 0.000000 1.772230 0.000000 
#    z -0.022500 0.000000 1.780440 
# 
# From -- ./inp_files/280041.got.cif
#   From: 2010.05.17/outbox.cif.g08.bks.cpg/sg12_141_cif.got.tgz:280041.got - 2010.06.03 13:09:07.
