data_PCOD9177234
_publ_section_title
;
Structure prediction by ZEFSAII (Michael W. Deem and Ramdas Pophale) SiO2 
 PCOD9177234
Probable space group: C 2/M
;
_chemical_formula_sum "Si O2"
_cell_formula_units_Z 40
_cell_length_a 23.939098
_cell_length_b 13.699510
_cell_length_c 16.611661
_cell_angle_alpha 90.000000
_cell_angle_beta 22.735824
_cell_angle_gamma 90.000000
_cell_volume 2105.503780
_symmetry_space_group_name_H-M "C 2/M"
_symmetry_group_IT_number 12
_symmetry_cell_setting 'monoclinic'
loop_
_space_group_symop_operation_xyz
x,y,z
-x,y,-z
-x,-y,-z
x,-y,z
1/2+x,1/2+y,z
1/2-x,1/2+y,-z
1/2-x,1/2-y,-z
1/2+x,1/2-y,z
loop_
_atom_site_type_symbol
_atom_site_label
_atom_site_fract_x
_atom_site_fract_y
_atom_site_fract_z
Si Si1 0.794103 0.500000 0.555567
Si Si2 0.566629 0.500000 0.321284
Si Si3 0.408051 0.341681 0.262234
Si Si4 0.604398 0.000000 0.074875
Si Si5 0.898639 0.000000 0.053024
Si Si6 0.846293 0.885205 0.523406
Si Si7 0.924459 0.657086 0.024158
O O1 0.716994 0.404884 0.616468
O O2 0.755194 0.500000 0.701544
O O3 0.963431 0.500000 0.316956
O O4 0.500000 0.500000 0.500000
O O5 0.738318 0.500000 0.094745
O O6 0.497749 0.406861 0.366625
O O7 0.362872 0.334519 0.415088
O O8 0.551134 0.408891 0.065249
O O9 0.465891 0.244777 0.142842
O O10 0.591942 0.907887 0.032202
O O11 0.000000 0.000000 0.000000
O O12 0.737176 0.827541 0.726481
O O13 0.795523 0.000000 0.577949
O O14 0.000000 0.606963 0.000000
#
# Coordination Sequence:
#
# PCOD9177234 Si02
#       7
#     4   4   8   4   4   8   8
#     4  10  19  34  56  83 126 161 189 237 303 371
#     4  10  18  42  67  82 106 163 211 258 288 339
#     4  10  20  37  58  89 124 156 195 237 307 365
#     4  12  23  36  61  87 120 159 210 250 294 338
#     4   8  15  32  55  76 116 167 186 222 289 368
#     4  10  20  39  65  82 115 158 201 249 297 340
#     4  12  23  33  58  94 124 155 193 245 300 368
#
# _framework density 18.997828999999999
#
# number of rings (size 3 to 8) (size 9 to 14) (size 15 to 20)
#    0.600    1.200    5.000    3.300    0.000    4.800 
#    0.000    1.000    0.000    2.400    0.000    0.000 
#    0.000    0.000    0.000    0.000    0.000    0.000 
#
# Total GULP energy -111356.094028 kJ/mol
# GULP energy per Si atom -5567.804701 kJ/mol
# Density = 1.895459 g / cm^3
# Si number density = 18.997829 Si / 1000 Ang^3
#
#
#
# Elastic Constant Matrix: (Units=GPa)
#
#
# Indices 1 2 3 4 5 6 
#
# 1 27.9156 15.4034 43.2125 0.0000 -13.1571 0.0000
# 2 15.4034 75.6804 41.5980 0.0000 -2.2713 0.0000
# 3 43.2125 41.5980 196.4851 0.0000 2.7757 0.0000
# 4 0.0000 0.0000 0.0000 23.1267 0.0000 6.0788
# 5 -13.1571 -2.2713 2.7757 0.0000 42.7131 0.0000
# 6 0.0000 0.0000 0.0000 6.0788 0.0000 7.0873
#
#
#
# Elastic Compliance Matrix: (Units=1/GPa)
#
#
# Indices 1 2 3 4 5 6 
#
# 1 0.073834 -0.005904 -0.015319 0.000000 0.023425 0.000000
# 2 -0.005904 0.015469 -0.001964 0.000000 -0.000869 0.000000
# 3 -0.015319 -0.001964 0.008951 0.000000 -0.005405 0.000000
# 4 0.000000 0.000000 0.000000 0.055826 0.000000 -0.047881
# 5 0.023425 -0.000869 -0.005405 0.000000 0.030933 0.000000
# 6 0.000000 0.000000 0.000000 -0.047881 0.000000 0.182165
#
#
# Mechanical properties :
#
#
# Convention : Reuss Voigt Hill
#
# Bulk Modulus (GPa) = 19.27580 55.61211 37.44396
# Shear Modulus (GPa) = 11.60509 27.90988 19.75749
#
# Velocity S-wave (km/s) = 2.47425 3.83705 3.22838
# Velocity P-wave (km/s) = 4.28146 6.99765 5.80077
#
# Compressibility (1/GPa) = 0.05187852
#
# Stress axis : x y z
#
# Youngs Moduli (GPa) = 13.54383 64.64670 111.72294
#
# Poissons Ratio (x) = 0.38170 1.71150
# Poissons Ratio (y) = 0.07997 0.21943
# Poissons Ratio (z) = 0.20748 0.12697
#
# Static dielectric constant tensor:
#      x y z
#    x 1.644470 0.000000 -0.001970 
#    y 0.000000 1.733190 0.000000 
#    z -0.001970 0.000000 1.732480 
# 
# From -- ./inp_files/293461.got.cif
#   From: 2010.05.17/outbox.cif.g08.bks.cpg/sg12_147_cif.got.tgz:293461.got - 2010.06.03 13:09:07.
