data_PCOD9177762
_publ_section_title
;
Structure prediction by ZEFSAII (Michael W. Deem and Ramdas Pophale) SiO2 
 PCOD9177762
Probable space group: C 2/M
;
_chemical_formula_sum "Si O2"
_cell_formula_units_Z 60
_cell_length_a 27.103979
_cell_length_b 20.895314
_cell_length_c 10.878880
_cell_angle_alpha 90.000000
_cell_angle_beta 31.991210
_cell_angle_gamma 90.000000
_cell_volume 3264.143207
_symmetry_space_group_name_H-M "C 2/M"
_symmetry_group_IT_number 12
_symmetry_cell_setting 'monoclinic'
loop_
_space_group_symop_operation_xyz
x,y,z
-x,y,-z
-x,-y,-z
x,-y,z
1/2+x,1/2+y,z
1/2-x,1/2+y,-z
1/2-x,1/2-y,-z
1/2+x,1/2-y,z
loop_
_atom_site_type_symbol
_atom_site_label
_atom_site_fract_x
_atom_site_fract_y
_atom_site_fract_z
Si Si1 0.809790 0.570501 0.661866
Si Si2 0.815359 0.813085 0.362087
Si Si3 0.586064 0.240709 0.654123
Si Si4 0.686016 0.929240 0.644834
Si Si5 0.980224 0.571446 0.687346
Si Si6 0.500000 0.869689 0.000000
Si Si7 0.213622 0.804846 0.855048
Si Si8 0.056494 0.713006 0.253572
O O1 0.782583 0.500000 0.764168
O O2 0.806730 0.570122 0.519813
O O3 0.917525 0.580494 0.469389
O O4 0.743919 0.627215 0.847880
O O5 0.750000 0.750000 0.500000
O O6 0.898971 0.796436 0.277278
O O7 0.754906 0.872675 0.537638
O O8 0.834316 0.820109 0.176676
O O9 0.557260 0.178033 0.792389
O O10 0.686946 0.228352 0.381685
O O11 0.509408 0.244504 0.711028
O O12 0.710025 0.000000 0.638818
O O13 0.578295 0.912331 0.899834
O O14 0.944284 0.500000 0.798673
O O15 0.000000 0.568327 0.500000
O O16 0.925271 0.638379 0.821586
O O17 0.147991 0.756511 0.066130
O O18 0.000000 0.712369 0.500000
#
# Coordination Sequence:
#
# PCOD9177762 Si02
#       8
#     8   8   8   8   8   4   8   8
#     4   9  16  32  53  76 108 144 178 218 269 322
#     4   9  17  34  52  75 108 147 178 207 262 329
#     4  11  21  34  54  79 109 146 181 217 265 324
#     4  10  19  29  49  82 117 141 168 218 273 331
#     4   9  17  32  51  76 108 137 174 217 270 331
#     4  12  17  30  54  82 115 142 174 212 269 332
#     4  10  19  35  54  78 112 138 185 222 263 323
#     4  11  23  36  55  81 107 146 183 229 272 308
#
# _framework density 18.381547000000001
#
# number of rings (size 3 to 8) (size 9 to 14) (size 15 to 20)
#    0.000    2.000    5.333    1.000    1.867    0.533 
#    0.000    0.667    0.000    1.200    0.000    4.200 
#    0.000    0.000    0.000    0.000    0.000    0.000 
#
# Total GULP energy -167213.475842 kJ/mol
# GULP energy per Si atom -5573.782528 kJ/mol
# Density = 1.833971 g / cm^3
# Si number density = 18.381547 Si / 1000 Ang^3
#
#
#
# Elastic Constant Matrix: (Units=GPa)
#
#
# Indices 1 2 3 4 5 6 
#
# 1 21.7005 8.7397 -5.2522 0.0000 -6.6452 0.0000
# 2 8.7397 160.2644 54.3348 0.0000 -18.2884 0.0000
# 3 -5.2522 54.3348 77.1280 0.0000 -9.5723 0.0000
# 4 0.0000 0.0000 0.0000 20.0875 0.0000 -1.2490
# 5 -6.6452 -18.2884 -9.5723 0.0000 14.1460 0.0000
# 6 0.0000 0.0000 0.0000 -1.2490 0.0000 21.5376
#
#
#
# Elastic Compliance Matrix: (Units=1/GPa)
#
#
# Indices 1 2 3 4 5 6 
#
# 1 0.059109 -0.003142 0.010022 0.000000 0.030486 0.000000
# 2 -0.003142 0.009120 -0.005850 0.000000 0.006356 0.000000
# 3 0.010022 -0.005850 0.019011 0.000000 0.010010 0.000000
# 4 0.000000 0.000000 0.000000 0.049962 0.000000 0.002897
# 5 0.030486 0.006356 0.010010 0.000000 0.100003 0.000000
# 6 0.000000 0.000000 0.000000 0.002897 0.000000 0.046598
#
#
# Mechanical properties :
#
#
# Convention : Reuss Voigt Hill
#
# Bulk Modulus (GPa) = 11.19819 41.63752 26.41785
# Shear Modulus (GPa) = 16.05090 24.57225 20.31158
#
# Velocity S-wave (km/s) = 2.95821 3.66018 3.32776
# Velocity P-wave (km/s) = 4.21584 6.36895 5.40078
#
# Compressibility (1/GPa) = 0.08930017
#
# Stress axis : x y z
#
# Youngs Moduli (GPa) = 16.91799 109.65454 52.60037
#
# Poissons Ratio (x) = 0.34458 -0.52719
# Poissons Ratio (y) = 0.05316 0.30770
# Poissons Ratio (z) = -0.16956 0.64145
#
# Static dielectric constant tensor:
#      x y z
#    x 1.695370 0.000000 0.034390 
#    y 0.000000 1.683590 0.000000 
#    z 0.034390 0.000000 1.645060 
# 
# From -- ./inp_files/190215.got.cif
#   From: 2010.05.17/outbox.cif.g08.bks.cpg/sg12_96_cif.got.tgz:190215.got - 2010.06.03 13:09:07.
