data_PCOD9177194
_publ_section_title
;
Structure prediction by ZEFSAII (Michael W. Deem and Ramdas Pophale) SiO2 
 PCOD9177194
Probable space group: C 2/M
;
_chemical_formula_sum "Si O2"
_cell_formula_units_Z 56
_cell_length_a 19.415884
_cell_length_b 31.026456
_cell_length_c 9.026657
_cell_angle_alpha 90.000000
_cell_angle_beta 32.178454
_cell_angle_gamma 90.000000
_cell_volume 2895.897702
_symmetry_space_group_name_H-M "C 2/M"
_symmetry_group_IT_number 12
_symmetry_cell_setting 'monoclinic'
loop_
_space_group_symop_operation_xyz
x,y,z
-x,y,-z
-x,-y,-z
x,-y,z
1/2+x,1/2+y,z
1/2-x,1/2+y,-z
1/2-x,1/2-y,-z
1/2+x,1/2-y,z
loop_
_atom_site_type_symbol
_atom_site_label
_atom_site_fract_x
_atom_site_fract_y
_atom_site_fract_z
Si Si1 0.865060 0.910456 0.159463
Si Si2 0.410248 0.724577 0.015880
Si Si3 0.486322 0.639620 0.700220
Si Si4 0.154706 0.548356 0.743806
Si Si5 0.715267 0.863631 0.781288
Si Si6 0.035223 0.310683 0.267344
Si Si7 0.803365 0.326598 0.486322
O O1 0.749796 0.941288 0.429398
O O2 0.805119 0.863747 0.307200
O O3 0.907343 0.901065 0.912823
O O4 0.000000 0.919288 0.000000
O O5 0.432701 0.684592 0.862705
O O6 0.434273 0.766953 0.876551
O O7 0.500000 0.723159 0.000000
O O8 0.265316 0.717569 0.341801
O O9 0.500000 0.638762 0.500000
O O10 0.631775 0.638549 0.496011
O O11 0.186216 0.500000 0.737572
O O12 0.180201 0.587230 0.810631
O O13 0.000000 0.549929 0.000000
O O14 0.657127 0.833268 0.755491
O O15 0.655547 0.843321 0.037144
O O16 0.000000 0.301481 0.500000
O O17 0.917732 0.333608 0.393379
#
# Coordination Sequence:
#
# PCOD9177194 Si02
#       7
#     8   8   8   8   8   8   8
#     4  10  18  39  65  94 121 159 209 254 308 371
#     4  11  22  40  62  82 118 161 219 267 307 361
#     4  11  22  37  62  93 126 169 204 260 313 367
#     4  10  21  39  70 102 124 155 207 265 310 367
#     4  11  21  42  63  88 122 163 211 254 319 378
#     4  12  28  37  54  90 123 169 211 263 320 375
#     4  10  20  39  61  81 115 160 210 258 305 369
#
# _framework density 19.337700000000002
#
# number of rings (size 3 to 8) (size 9 to 14) (size 15 to 20)
#    0.000    1.286    4.286    4.286    6.000    2.000 
#    0.000    0.000    0.000    2.143    0.000    0.000 
#    0.000    0.000    0.000    0.000    0.000    0.000 
#
# Total GULP energy -156004.003196 kJ/mol
# GULP energy per Si atom -5571.571543 kJ/mol
# Density = 1.929369 g / cm^3
# Si number density = 19.337700 Si / 1000 Ang^3
#
#
#
# Elastic Constant Matrix: (Units=GPa)
#
#
# Indices 1 2 3 4 5 6 
#
# 1 47.5076 14.8369 20.4651 0.0000 13.1468 0.0000
# 2 14.8369 88.8276 44.0147 0.0000 18.5504 0.0000
# 3 20.4651 44.0147 101.3863 0.0000 6.8963 0.0000
# 4 0.0000 0.0000 0.0000 18.4332 0.0000 15.7827
# 5 13.1468 18.5504 6.8963 0.0000 39.5204 0.0000
# 6 0.0000 0.0000 0.0000 15.7827 0.0000 -130.2361
#
#
#
# Elastic Compliance Matrix: (Units=1/GPa)
#
#
# Indices 1 2 3 4 5 6 
#
# 1 0.025117 -0.000502 -0.004351 0.000000 -0.007361 0.000000
# 2 -0.000502 0.015753 -0.006321 0.000000 -0.006124 0.000000
# 3 -0.004351 -0.006321 0.013344 0.000000 0.002086 0.000000
# 4 0.000000 0.000000 0.000000 0.049150 0.000000 0.005956
# 5 -0.007361 -0.006124 0.002086 0.000000 0.030263 0.000000
# 6 0.000000 0.000000 0.000000 0.005956 0.000000 -0.006957
#
#
# Mechanical properties :
#
#
# Convention : Reuss Voigt Hill
#
# Bulk Modulus (GPa) = 31.38210 44.03943 37.71077
# Shear Modulus (GPa) = 31.32052 -3.89616 13.71218
#
# Velocity S-wave (km/s) = 4.02887 -1.42098 2.66576
# Velocity P-wave (km/s) = 6.15679 4.48677 5.38689
#
# Compressibility (1/GPa) = 0.03186530
#
# Stress axis : x y z
#
# Youngs Moduli (GPa) = 39.81304 63.48196 74.94161
#
# Poissons Ratio (x) = 0.03187 0.32610
# Poissons Ratio (y) = 0.01999 0.47368
# Poissons Ratio (z) = 0.17324 0.40125
#
# Static dielectric constant tensor:
#      x y z
#    x 1.689920 0.000000 0.008610 
#    y 0.000000 1.680070 0.000000 
#    z 0.008610 0.000000 1.787310 
# 
# From -- ./inp_files/80434.got.cif
#   From: 2010.05.17/outbox.cif.g08.bks.cpg/sg12_41_cif.got.tgz:80434.got - 2010.06.03 13:09:07.
