data_PCOD9177287
_publ_section_title
;
Structure prediction by ZEFSAII (Michael W. Deem and Ramdas Pophale) SiO2 
 PCOD9177287
Probable space group: C 2/M
;
_chemical_formula_sum "Si O2"
_cell_formula_units_Z 56
_cell_length_a 24.067043
_cell_length_b 7.381358
_cell_length_c 20.063653
_cell_angle_alpha 90.000000
_cell_angle_beta 48.408365
_cell_angle_gamma 90.000000
_cell_volume 2665.690039
_symmetry_space_group_name_H-M "C 2/M"
_symmetry_group_IT_number 12
_symmetry_cell_setting 'monoclinic'
loop_
_space_group_symop_operation_xyz
x,y,z
-x,y,-z
-x,-y,-z
x,-y,z
1/2+x,1/2+y,z
1/2-x,1/2+y,-z
1/2-x,1/2-y,-z
1/2+x,1/2-y,z
loop_
_atom_site_type_symbol
_atom_site_label
_atom_site_fract_x
_atom_site_fract_y
_atom_site_fract_z
Si Si1 0.169162 0.721903 0.331326
Si Si2 0.991266 0.705710 0.079618
Si Si3 0.655627 0.783447 0.627802
Si Si4 0.016789 0.719355 0.200684
Si Si5 0.053513 0.720906 0.312123
Si Si6 0.884196 0.720803 0.480811
Si Si7 0.325513 0.292211 0.241856
O O1 0.169120 0.500000 0.331775
O O2 0.115184 0.781192 0.315324
O O3 0.140132 0.780233 0.426957
O O4 0.254720 0.779437 0.258631
O O5 0.020471 0.500000 0.050493
O O6 0.028564 0.787879 0.116294
O O7 0.903618 0.697862 0.166765
O O8 0.000000 0.791219 0.000000
O O9 0.568648 0.740553 0.711734
O O10 0.665182 0.719392 0.543893
O O11 0.694823 0.711250 0.662884
O O12 0.664349 0.000000 0.622085
O O13 0.021558 0.500000 0.193606
O O14 0.063868 0.779069 0.227055
O O15 0.054118 0.500000 0.312008
O O16 0.970265 0.772987 0.400844
O O17 0.882238 0.500000 0.481042
O O18 0.338109 0.500000 0.213268
#
# Coordination Sequence:
#
# PCOD9177287 Si02
#       7
#     8   8   8   8   8   8   8
#     4   9  16  23  33  56  89 118 141 171 211 246
#     4   9  17  31  51  69  82 100 132 173 210 249
#     4   8  14  26  42  58  80 111 146 180 206 234
#     4   7  11  21  39  62  80  97 130 172 208 238
#     4   8  12  20  36  57  83 112 141 176 210 234
#     4   8  13  22  38  58  79 109 152 190 208 225
#     4  10  19  28  39  61  92 116 133 161 209 264
#
# _framework density 21.007693
#
# number of rings (size 3 to 8) (size 9 to 14) (size 15 to 20)
#    0.000    3.571    0.000    3.429    0.000    2.571 
#    0.000    0.000    0.000    1.714    0.000   18.000 
#    0.000   14.857    0.000    0.000    0.000    0.143 
#
# Total GULP energy -156034.543980 kJ/mol
# GULP energy per Si atom -5572.662285 kJ/mol
# Density = 2.095988 g / cm^3
# Si number density = 21.007693 Si / 1000 Ang^3
#
#
#
# Elastic Constant Matrix: (Units=GPa)
#
#
# Indices 1 2 3 4 5 6 
#
# 1 141.7883 -1.7662 46.7411 -0.0039 34.0722 0.0070
# 2 -1.7662 70.1082 -1.7320 -0.0446 2.7721 -0.0266
# 3 46.7411 -1.7320 103.6288 0.0046 41.5831 0.0016
# 4 -0.0039 -0.0446 0.0046 -2.6248 -0.0004 -0.4679
# 5 34.0722 2.7721 41.5831 -0.0004 32.4078 -0.0079
# 6 0.0070 -0.0266 0.0016 -0.4679 -0.0079 4.7323
#
#
#
# Elastic Compliance Matrix: (Units=1/GPa)
#
#
# Indices 1 2 3 4 5 6 
#
# 1 0.009478 0.000597 -0.000507 -0.000019 -0.009365 -0.000028
# 2 0.000597 0.014464 0.001486 -0.000252 -0.003771 0.000049
# 3 -0.000507 0.001486 0.020078 0.000022 -0.025357 -0.000038
# 4 -0.000019 -0.000252 0.000022 -0.374377 -0.000001 -0.037019
# 5 -0.009365 -0.003771 -0.025357 -0.000001 0.073561 0.000124
# 6 -0.000028 0.000049 -0.000038 -0.037019 0.000124 0.207653
#
#
# Mechanical properties :
#
#
# Convention : Reuss Voigt Hill
#
# Bulk Modulus (GPa) = 21.19936 44.66789 32.93363
# Shear Modulus (GPa) = -136.72581 25.05522 -55.83529
#
# Velocity S-wave (km/s) = -8.07620 3.45725 -5.16103
# Velocity P-wave (km/s) = 8.76661 6.10291 4.45016
#
# Compressibility (1/GPa) = 0.04717123
#
# Stress axis : x y z
#
# Youngs Moduli (GPa) = 105.50995 69.13539 49.80486
#
# Poissons Ratio (x) = -0.04124 0.02525
# Poissons Ratio (y) = -0.06294 -0.07400
# Poissons Ratio (z) = 0.05350 -0.10273
#
# Static dielectric constant tensor:
#      x y z
#    x 1.767500 0.000000 0.043170 
#    y 0.000000 1.789930 0.000000 
#    z 0.043170 0.000000 1.766120 
# 
# From -- ./inp_files/282517.got.cif
#   From: 2010.05.17/outbox.cif.g08.bks.cpg/sg12_142_cif.got.tgz:282517.got - 2010.06.03 13:09:07.
