data_PCOD9177353
_publ_section_title
;
Structure prediction by ZEFSAII (Michael W. Deem and Ramdas Pophale) SiO2 
 PCOD9177353
Probable space group: C 2/M
;
_chemical_formula_sum "Si O2"
_cell_formula_units_Z 56
_cell_length_a 22.190178
_cell_length_b 17.755530
_cell_length_c 21.972188
_cell_angle_alpha 90.000000
_cell_angle_beta 154.908279
_cell_angle_gamma 90.000000
_cell_volume 3671.164253
_symmetry_space_group_name_H-M "C 2/M"
_symmetry_group_IT_number 12
_symmetry_cell_setting 'monoclinic'
loop_
_space_group_symop_operation_xyz
x,y,z
-x,y,-z
-x,-y,-z
x,-y,z
1/2+x,1/2+y,z
1/2-x,1/2+y,-z
1/2-x,1/2-y,-z
1/2+x,1/2-y,z
loop_
_atom_site_type_symbol
_atom_site_label
_atom_site_fract_x
_atom_site_fract_y
_atom_site_fract_z
Si Si1 0.938277 0.286470 0.124155
Si Si2 0.869444 0.622784 0.229166
Si Si3 0.432318 0.586373 0.652961
Si Si4 0.044919 0.122709 0.890109
Si Si5 0.127645 0.216039 0.802163
Si Si6 0.419636 0.500000 0.863216
Si Si7 0.098404 0.412929 0.334146
Si Si8 0.128545 0.500000 0.663605
O O1 0.989785 0.211555 0.136649
O O2 0.906007 0.253497 0.162422
O O3 0.043340 0.355055 0.232632
O O4 0.789957 0.311094 0.958015
O O5 0.883548 0.712593 0.252736
O O6 0.869970 0.571592 0.289463
O O7 0.995734 0.598085 0.298977
O O8 0.715109 0.613403 0.055238
O O9 0.451652 0.500000 0.650385
O O10 0.496867 0.594771 0.779804
O O11 0.518097 0.648407 0.692802
O O12 0.263544 0.602452 0.500343
O O13 0.965491 0.072258 0.866436
O O14 0.259483 0.500000 0.737508
O O15 0.500000 0.500000 0.000000
O O16 0.086533 0.500000 0.304431
O O17 0.000000 0.500000 0.500000
#
# Coordination Sequence:
#
# PCOD9177353 Si02
#       8
#     8   8   8   8   8   4   8   4
#     4   8  16  29  44  66  89 119 152 190 234 285
#     4  10  19  34  47  63  91 126 156 199 237 271
#     4  10  19  28  44  70  94 122 157 190 229 289
#     4  10  19  32  49  65  89 122 164 197 230 273
#     4   8  16  29  46  64  87 119 158 188 229 284
#     4  12  22  36  52  70  90 130 168 204 232 268
#     4  10  19  28  44  68  98 124 151 186 240 286
#     4  12  26  36  48  70  98 126 168 204 234 272
#
# _framework density 15.254016
#
# number of rings (size 3 to 8) (size 9 to 14) (size 15 to 20)
#    0.000    2.286    2.857    2.571    2.000    6.857 
#    0.000    0.000    0.000    0.000    0.000    0.000 
#    0.000    2.286    0.000    0.143    0.000    0.000 
#
# Total GULP energy -155906.946909 kJ/mol
# GULP energy per Si atom -5568.105247 kJ/mol
# Density = 1.521930 g / cm^3
# Si number density = 15.254016 Si / 1000 Ang^3
#
#
#
# Elastic Constant Matrix: (Units=GPa)
#
#
# Indices 1 2 3 4 5 6 
#
# 1 44.9348 42.6627 26.0254 -0.0003 8.9484 -0.0001
# 2 42.6627 120.3548 75.5627 -0.0006 11.4133 -0.0002
# 3 26.0254 75.5627 113.1283 0.0003 13.1040 -0.0002
# 4 -0.0003 -0.0006 0.0003 24.1329 0.0000 0.6992
# 5 8.9484 11.4133 13.1040 0.0000 20.8955 -0.0001
# 6 -0.0001 -0.0002 -0.0002 0.6992 -0.0001 15.0228
#
#
#
# Elastic Compliance Matrix: (Units=1/GPa)
#
#
# Indices 1 2 3 4 5 6 
#
# 1 0.035062 -0.012339 0.001223 0.000000 -0.009042 0.000000
# 2 -0.012339 0.018727 -0.009810 0.000000 0.001207 0.000000
# 3 0.001223 -0.009810 0.015690 0.000000 -0.005005 0.000000
# 4 0.000000 0.000000 0.000000 0.041493 0.000000 -0.001931
# 5 -0.009042 0.001207 -0.005005 0.000000 0.054209 0.000000
# 6 0.000000 0.000000 0.000000 -0.001931 0.000000 0.066655
#
#
# Mechanical properties :
#
#
# Convention : Reuss Voigt Hill
#
# Bulk Modulus (GPa) = 36.19539 62.99103 49.59321
# Shear Modulus (GPa) = 17.67428 20.95471 19.31449
#
# Velocity S-wave (km/s) = 3.40761 3.71039 3.56222
# Velocity P-wave (km/s) = 6.26597 7.72919 7.03572
#
# Compressibility (1/GPa) = 0.02762783
#
# Stress axis : x y z
#
# Youngs Moduli (GPa) = 28.52110 53.39912 63.73404
#
# Poissons Ratio (x) = 0.65888 -0.07794
# Poissons Ratio (y) = 0.35192 0.62521
# Poissons Ratio (z) = -0.03488 0.52383
#
# Static dielectric constant tensor:
#      x y z
#    x 1.474870 0.000000 0.006520 
#    y 0.000000 1.548040 0.000000 
#    z 0.006520 0.000000 1.504820 
# 
# From -- ./inp_files/349971.got.cif
#   From: 2010.05.17/outbox.cif.g08.bks.cpg/sg12_175_cif.got.tgz:349971.got - 2010.06.03 13:09:07.
