data_PCOD9177265
_publ_section_title
;
Structure prediction by ZEFSAII (Michael W. Deem and Ramdas Pophale) SiO2 
 PCOD9177265
Probable space group: C 2/M
;
_chemical_formula_sum "Si O2"
_cell_formula_units_Z 56
_cell_length_a 7.226429
_cell_length_b 25.081946
_cell_length_c 12.806693
_cell_angle_alpha 90.000000
_cell_angle_beta 87.665650
_cell_angle_gamma 90.000000
_cell_volume 2319.323994
_symmetry_space_group_name_H-M "C 2/M"
_symmetry_group_IT_number 12
_symmetry_cell_setting 'monoclinic'
loop_
_space_group_symop_operation_xyz
x,y,z
-x,y,-z
-x,-y,-z
x,-y,z
1/2+x,1/2+y,z
1/2-x,1/2+y,-z
1/2-x,1/2-y,-z
1/2+x,1/2-y,z
loop_
_atom_site_type_symbol
_atom_site_label
_atom_site_fract_x
_atom_site_fract_y
_atom_site_fract_z
Si Si1 0.784040 0.920424 0.966474
Si Si2 0.336286 0.059148 0.800688
Si Si3 0.886223 0.836552 0.606068
Si Si4 0.095220 0.941335 0.261462
Si Si5 0.782645 0.810809 0.017372
Si Si6 0.950433 0.327074 0.770736
Si Si7 0.324752 0.252754 0.323922
O O1 0.792694 0.943273 0.850611
O O2 0.674667 0.940244 0.071503
O O3 0.711296 0.860028 0.950661
O O4 0.000000 0.924495 0.000000
O O5 0.452207 0.109488 0.755424
O O6 0.122948 0.066030 0.765541
O O7 0.398516 0.000000 0.766815
O O8 0.850269 0.890721 0.669501
O O9 0.718595 0.794367 0.590760
O O10 0.000000 0.849256 0.500000
O O11 0.016003 0.796940 0.669725
O O12 0.112461 0.000000 0.311180
O O13 0.692095 0.821887 0.130686
O O14 0.750000 0.750000 0.000000
O O15 0.000000 0.817494 0.000000
O O16 0.846076 0.293760 0.682848
O O17 0.128569 0.287672 0.774715
#
# Coordination Sequence:
#
# PCOD9177265 Si02
#       7
#     8   8   8   8   8   8   8
#     4   8  16  28  46  76 109 142 183 220 261 307
#     4   9  16  30  53  80 112 148 187 222 257 313
#     4  11  23  40  61  84 106 140 182 233 289 341
#     4  10  19  33  55  82 112 147 186 229 272 326
#     4  10  19  27  45  75 114 146 179 218 259 313
#     4  10  19  34  53  84 110 147 180 222 272 324
#     4  10  22  37  60  79 113 139 180 228 285 340
#
# _framework density 24.144966
#
# number of rings (size 3 to 8) (size 9 to 14) (size 15 to 20)
#    0.000    2.286    1.429    2.571    4.000    2.000 
#    0.000    0.714    0.000    0.000    0.000    5.000 
#    0.000    0.000    0.000    0.000    0.000    0.000 
#
# Total GULP energy -155982.029408 kJ/mol
# GULP energy per Si atom -5570.786765 kJ/mol
# Density = 2.409001 g / cm^3
# Si number density = 24.144966 Si / 1000 Ang^3
#
#
#
# Elastic Constant Matrix: (Units=GPa)
#
#
# Indices 1 2 3 4 5 6 
#
# 1 73.7529 28.5297 14.0005 0.0000 -20.4583 0.0000
# 2 28.5297 264.2335 59.6499 0.0000 -7.2727 0.0000
# 3 14.0005 59.6499 79.0013 0.0000 -25.2302 0.0000
# 4 0.0000 0.0000 0.0000 13.4509 0.0000 0.2790
# 5 -20.4583 -7.2727 -25.2302 0.0000 22.2138 0.0000
# 6 0.0000 0.0000 0.0000 0.2790 0.0000 13.0884
#
#
#
# Elastic Compliance Matrix: (Units=1/GPa)
#
#
# Indices 1 2 3 4 5 6 
#
# 1 0.020597 -0.003075 0.006917 0.000000 0.025819 0.000000
# 2 -0.003075 0.005235 -0.005907 0.000000 -0.007827 0.000000
# 3 0.006917 -0.005907 0.027162 0.000000 0.035286 0.000000
# 4 0.000000 0.000000 0.000000 0.074377 0.000000 -0.001585
# 5 0.025819 -0.007827 0.035286 0.000000 0.106310 0.000000
# 6 0.000000 0.000000 0.000000 -0.001585 0.000000 0.076437
#
#
# Mechanical properties :
#
#
# Convention : Reuss Voigt Hill
#
# Bulk Modulus (GPa) = 20.46526 69.03866 44.75196
# Shear Modulus (GPa) = 15.12695 30.73781 22.93238
#
# Velocity S-wave (km/s) = 2.50572 3.57186 3.08519
# Velocity P-wave (km/s) = 4.10682 6.75769 5.59161
#
# Compressibility (1/GPa) = 0.04886330
#
# Stress axis : x y z
#
# Youngs Moduli (GPa) = 48.55070 191.03546 36.81664
#
# Poissons Ratio (x) = 0.58739 -0.25466
# Poissons Ratio (y) = 0.14928 0.21749
# Poissons Ratio (z) = -0.33583 1.12850
#
# Static dielectric constant tensor:
#      x y z
#    x 2.229670 0.000000 -0.020870 
#    y 0.000000 1.872630 0.000000 
#    z -0.020870 0.000000 1.949650 
# 
# From -- ./inp_files/198388.got.cif
#   From: 2010.05.17/outbox.cif.g08.bks.cpg/sg12_100_cif.got.tgz:198388.got - 2010.06.03 13:09:07.
