data_PCOD9177142
_publ_section_title
;
Structure prediction by ZEFSAII (Michael W. Deem and Ramdas Pophale) SiO2 
 PCOD9177142
Probable space group: C 2/M
;
_chemical_formula_sum "Si O2"
_cell_formula_units_Z 56
_cell_length_a 5.779025
_cell_length_b 27.109785
_cell_length_c 17.160450
_cell_angle_alpha 90.000000
_cell_angle_beta 83.954400
_cell_angle_gamma 90.000000
_cell_volume 2673.543165
_symmetry_space_group_name_H-M "C 2/M"
_symmetry_group_IT_number 12
_symmetry_cell_setting 'monoclinic'
loop_
_space_group_symop_operation_xyz
x,y,z
-x,y,-z
-x,-y,-z
x,-y,z
1/2+x,1/2+y,z
1/2-x,1/2+y,-z
1/2-x,1/2-y,-z
1/2+x,1/2-y,z
loop_
_atom_site_type_symbol
_atom_site_label
_atom_site_fract_x
_atom_site_fract_y
_atom_site_fract_z
Si Si1 0.758241 0.807206 0.971032
Si Si2 0.527737 0.554066 0.614081
Si Si3 0.558428 0.652514 0.191271
Si Si4 0.387101 0.898751 0.300167
Si Si5 0.344853 0.276921 0.313195
Si Si6 0.801808 0.055245 0.211188
Si Si7 0.817841 0.354192 0.574218
O O1 0.801394 0.817810 0.878704
O O2 0.500000 0.827610 0.000000
O O3 0.750000 0.750000 0.000000
O O4 0.000000 0.827459 0.000000
O O5 0.573343 0.500000 0.580536
O O6 0.258038 0.566190 0.636734
O O7 0.615495 0.554196 0.701135
O O8 0.659544 0.597733 0.565650
O O9 0.720204 0.636545 0.257509
O O10 0.369381 0.688048 0.236439
O O11 0.439478 0.600969 0.168078
O O12 0.533190 0.929853 0.232074
O O13 0.544778 0.867053 0.351425
O O14 0.594505 0.249322 0.310715
O O15 0.332265 0.307816 0.394249
O O16 0.833930 0.000000 0.178037
O O17 0.000000 0.345040 0.500000
#
# Coordination Sequence:
#
# PCOD9177142 Si02
#       7
#     8   8   8   8   8   8   8
#     4  10  25  43  65 104 139 176 209 265 341 397
#     4   9  18  35  59  92 125 167 221 279 346 410
#     4  11  23  41  71  95 139 168 225 273 328 409
#     4  10  18  38  62  95 125 177 221 276 338 393
#     4  12  27  43  67  95 123 175 230 278 333 386
#     4   9  18  34  64  99 130 167 221 276 328 394
#     4  11  24  42  59  87 133 174 227 290 342 398
#
# _framework density 20.945986999999999
#
# number of rings (size 3 to 8) (size 9 to 14) (size 15 to 20)
#    0.000    1.714    4.286    1.286    6.000    2.571 
#    0.000    0.714    0.000    0.857    0.000    0.000 
#    0.000    0.000    0.000    0.000    0.000    0.000 
#
# Total GULP energy -156105.674451 kJ/mol
# GULP energy per Si atom -5575.202659 kJ/mol
# Density = 2.089831 g / cm^3
# Si number density = 20.945987 Si / 1000 Ang^3
#
#
#
# Elastic Constant Matrix: (Units=GPa)
#
#
# Indices 1 2 3 4 5 6 
#
# 1 107.9307 38.0209 14.1730 0.0000 -21.9497 0.0000
# 2 38.0209 121.4360 41.5929 0.0000 -24.8935 0.0000
# 3 14.1730 41.5929 79.9979 0.0000 -32.8049 0.0000
# 4 0.0000 0.0000 0.0000 -39.9681 0.0000 -25.0076
# 5 -21.9497 -24.8935 -32.8049 0.0000 36.8433 0.0000
# 6 0.0000 0.0000 0.0000 -25.0076 0.0000 21.1520
#
#
#
# Elastic Compliance Matrix: (Units=1/GPa)
#
#
# Indices 1 2 3 4 5 6 
#
# 1 0.011399 -0.002961 0.002338 0.000000 0.006872 0.000000
# 2 -0.002961 0.011059 -0.004543 0.000000 0.001663 0.000000
# 3 0.002338 -0.004543 0.021675 0.000000 0.017622 0.000000
# 4 0.000000 0.000000 0.000000 -0.014381 0.000000 -0.017003
# 5 0.006872 0.001663 0.017622 0.000000 0.048050 0.000000
# 6 0.000000 0.000000 0.000000 -0.017003 0.000000 0.027175
#
#
# Mechanical properties :
#
#
# Convention : Reuss Voigt Hill
#
# Bulk Modulus (GPa) = 29.58612 55.21533 42.40072
# Shear Modulus (GPa) = 39.50241 17.97729 28.73985
#
# Velocity S-wave (km/s) = 4.34743 2.93280 3.70820
# Velocity P-wave (km/s) = 6.27342 6.15520 6.21459
#
# Compressibility (1/GPa) = 0.03379964
#
# Stress axis : x y z
#
# Youngs Moduli (GPa) = 87.72847 90.42552 46.13691
#
# Poissons Ratio (x) = 0.26775 -0.10787
# Poissons Ratio (y) = 0.25976 0.20962
# Poissons Ratio (z) = -0.20511 0.41084
#
# Static dielectric constant tensor:
#      x y z
#    x 1.961940 0.000000 -0.016020 
#    y 0.000000 1.822600 0.000000 
#    z -0.016020 0.000000 1.750340 
# 
# From -- ./inp_files/253589.got.cif
#   From: 2010.05.17/outbox.cif.g08.bks.cpg/sg12_127_cif.got.tgz:253589.got - 2010.06.03 13:09:07.
