data_PCOD9177292
_publ_section_title
;
Structure prediction by ZEFSAII (Michael W. Deem and Ramdas Pophale) SiO2 
 PCOD9177292
Probable space group: C 2/M
;
_chemical_formula_sum "Si O2"
_cell_formula_units_Z 56
_cell_length_a 17.489519
_cell_length_b 11.519001
_cell_length_c 14.088755
_cell_angle_alpha 90.000000
_cell_angle_beta 114.365248
_cell_angle_gamma 90.000000
_cell_volume 2585.545813
_symmetry_space_group_name_H-M "C 2/M"
_symmetry_group_IT_number 12
_symmetry_cell_setting 'monoclinic'
loop_
_space_group_symop_operation_xyz
x,y,z
-x,y,-z
-x,-y,-z
x,-y,z
1/2+x,1/2+y,z
1/2-x,1/2+y,-z
1/2-x,1/2-y,-z
1/2+x,1/2-y,z
loop_
_atom_site_type_symbol
_atom_site_label
_atom_site_fract_x
_atom_site_fract_y
_atom_site_fract_z
Si Si1 0.897214 0.365163 0.731672
Si Si2 0.298662 0.875010 0.935290
Si Si3 0.678997 0.626151 0.059421
Si Si4 0.578277 0.371182 0.727116
Si Si5 0.442327 0.765013 0.556206
Si Si6 0.550852 0.240333 0.899551
Si Si7 0.703136 0.365585 0.619631
O O1 0.905098 0.500000 0.760143
O O2 0.930917 0.345461 0.641819
O O3 0.799844 0.331908 0.678109
O O4 0.954736 0.293214 0.834832
O O5 0.290770 0.748987 0.881207
O O6 0.390974 0.862627 0.030607
O O7 0.292497 0.000000 0.882113
O O8 0.232004 0.877517 0.987668
O O9 0.689027 0.500000 0.110983
O O10 0.582751 0.653292 0.980866
O O11 0.573407 0.500000 0.766303
O O12 0.496385 0.344496 0.622132
O O13 0.581429 0.276331 0.810406
O O14 0.656090 0.365257 0.696487
O O15 0.500000 0.814043 0.500000
O O16 0.353232 0.719425 0.473149
O O17 0.700111 0.500000 0.583126
#
# Coordination Sequence:
#
# PCOD9177292 Si02
#       7
#     8   8   8   8   8   8   8
#     4  10  19  28  40  60  85 115 144 174 217 266
#     4   8  14  24  39  62  91 116 139 174 218 259
#     4   8  14  24  40  63  88 113 143 180 215 250
#     4   9  16  26  42  63  83 107 140 183 225 253
#     4   9  17  29  44  60  79 106 142 183 220 258
#     4   9  16  25  40  62  88 112 138 175 213 259
#     4   9  17  29  43  59  82 110 143 181 220 262
#
# _framework density 21.658868999999999
#
# number of rings (size 3 to 8) (size 9 to 14) (size 15 to 20)
#    0.857    2.286    0.000    1.714    0.000    2.000 
#    0.000    0.000    0.000    0.857    0.000    4.000 
#    0.000   18.286    0.000    0.000    0.000    0.000 
#
# Total GULP energy -155953.000083 kJ/mol
# GULP energy per Si atom -5569.750003 kJ/mol
# Density = 2.160957 g / cm^3
# Si number density = 21.658869 Si / 1000 Ang^3
#
#
#
# Elastic Constant Matrix: (Units=GPa)
#
#
# Indices 1 2 3 4 5 6 
#
# 1 87.2816 11.4197 25.7614 0.0000 12.4807 0.0000
# 2 11.4197 120.3309 26.6818 0.0000 1.4116 0.0000
# 3 25.7614 26.6818 77.1413 0.0000 28.7686 0.0000
# 4 0.0000 0.0000 0.0000 23.1968 0.0000 6.6478
# 5 12.4807 1.4116 28.7686 0.0000 43.4963 0.0000
# 6 0.0000 0.0000 0.0000 6.6478 0.0000 5.5358
#
#
#
# Elastic Compliance Matrix: (Units=1/GPa)
#
#
# Indices 1 2 3 4 5 6 
#
# 1 0.012767 -0.000382 -0.003677 0.000000 -0.001219 0.000000
# 2 -0.000382 0.009196 -0.003959 0.000000 0.002430 0.000000
# 3 -0.003677 -0.003959 0.020070 0.000000 -0.012091 0.000000
# 4 0.000000 0.000000 0.000000 0.065730 0.000000 -0.078933
# 5 -0.001219 0.002430 -0.012091 0.000000 0.031258 0.000000
# 6 0.000000 0.000000 0.000000 -0.078933 0.000000 0.275429
#
#
# Mechanical properties :
#
#
# Convention : Reuss Voigt Hill
#
# Bulk Modulus (GPa) = 38.46731 45.83108 42.14920
# Shear Modulus (GPa) = 11.38560 29.17183 20.27872
#
# Velocity S-wave (km/s) = 2.29526 3.67396 3.06319
# Velocity P-wave (km/s) = 4.98230 6.26129 5.65805
#
# Compressibility (1/GPa) = 0.02599610
#
# Stress axis : x y z
#
# Youngs Moduli (GPa) = 78.32912 108.74165 49.82676
#
# Poissons Ratio (x) = 0.04154 0.18320
# Poissons Ratio (y) = 0.02992 0.19728
# Poissons Ratio (z) = 0.28799 0.43055
#
# Static dielectric constant tensor:
#      x y z
#    x 1.814320 0.000000 0.015180 
#    y 0.000000 1.782660 0.000000 
#    z 0.015180 0.000000 1.790900 
# 
# From -- ./inp_files/342889.got.cif
#   From: 2010.05.17/outbox.cif.g08.bks.cpg/sg12_172_cif.got.tgz:342889.got - 2010.06.03 13:09:07.
