data_PCOD9177930
_publ_section_title
;
Structure prediction by ZEFSAII (Michael W. Deem and Ramdas Pophale) SiO2 
 PCOD9177930
Probable space group: C 2/M
;
_chemical_formula_sum "Si O2"
_cell_formula_units_Z 56
_cell_length_a 19.855028
_cell_length_b 7.485965
_cell_length_c 17.055612
_cell_angle_alpha 90.000000
_cell_angle_beta 60.283887
_cell_angle_gamma 90.000000
_cell_volume 2201.666318
_symmetry_space_group_name_H-M "C 2/M"
_symmetry_group_IT_number 12
_symmetry_cell_setting 'monoclinic'
loop_
_space_group_symop_operation_xyz
x,y,z
-x,y,-z
-x,-y,-z
x,-y,z
1/2+x,1/2+y,z
1/2-x,1/2+y,-z
1/2-x,1/2-y,-z
1/2+x,1/2-y,z
loop_
_atom_site_type_symbol
_atom_site_label
_atom_site_fract_x
_atom_site_fract_y
_atom_site_fract_z
Si Si1 0.813520 0.213054 0.895788
Si Si2 0.079628 0.217324 0.031431
Si Si3 0.421074 0.284496 0.596679
Si Si4 0.524985 0.281655 0.669414
Si Si5 0.070823 0.789582 0.811376
Si Si6 0.707756 0.200789 0.829255
Si Si7 0.321786 0.287756 0.517100
O O1 0.890639 0.263095 0.897402
O O2 0.779516 0.287817 0.834139
O O3 0.818630 0.000000 0.881252
O O4 0.750000 0.250000 0.000000
O O5 0.990107 0.273063 0.087555
O O6 0.085388 0.000000 0.015839
O O7 0.140543 0.297804 0.935464
O O8 0.500000 0.252358 0.500000
O O9 0.413750 0.500000 0.606611
O O10 0.447979 0.221415 0.667497
O O11 0.345447 0.218977 0.591640
O O12 0.520163 0.500000 0.675735
O O13 0.546692 0.212730 0.742329
O O14 0.600982 0.238900 0.575135
O O15 0.160279 0.771190 0.782896
O O16 0.056252 0.000000 0.816129
O O17 0.729971 0.000000 0.795752
O O18 0.318744 0.500000 0.528178
O O19 0.250000 0.250000 0.500000
#
# Coordination Sequence:
#
# PCOD9177930 Si02
#       7
#     8   8   8   8   8   8   8
#     4   8  15  28  44  61  81 107 141 182 225 265
#     4   9  17  30  47  65  84 111 155 199 225 257
#     4   7  11  23  45  68  86 110 147 183 210 246
#     4   8  15  29  47  66  89 119 154 186 218 259
#     4  10  19  30  46  66  88 117 152 191 228 260
#     4  10  19  30  45  65  91 121 149 182 229 278
#     4   9  16  28  49  74  96 117 145 182 220 262
#
# _framework density 25.435281
#
# number of rings (size 3 to 8) (size 9 to 14) (size 15 to 20)
#    0.000    3.286    0.000    2.571    0.000    2.857 
#    0.000    2.143    0.000    8.143    0.000    0.000 
#    0.000    0.000    0.000    0.000    0.000    0.000 
#
# Total GULP energy -155965.469173 kJ/mol
# GULP energy per Si atom -5570.195328 kJ/mol
# Density = 2.537739 g / cm^3
# Si number density = 25.435281 Si / 1000 Ang^3
#
#
#
# Elastic Constant Matrix: (Units=GPa)
#
#
# Indices 1 2 3 4 5 6 
#
# 1 195.6037 -4.6005 53.1949 0.0001 41.5995 0.0003
# 2 -4.6005 57.7766 1.0598 0.0000 -1.1618 0.0008
# 3 53.1949 1.0598 58.8786 0.0000 45.0507 0.0003
# 4 0.0001 0.0000 0.0000 10.2661 0.0000 8.9080
# 5 41.5995 -1.1618 45.0507 0.0000 50.1317 -0.0002
# 6 0.0003 0.0008 0.0003 8.9080 -0.0002 15.8719
#
#
#
# Elastic Compliance Matrix: (Units=1/GPa)
#
#
# Indices 1 2 3 4 5 6 
#
# 1 0.006804 0.000644 -0.005922 0.000000 -0.000309 0.000000
# 2 0.000644 0.017450 -0.002550 0.000001 0.002161 -0.000002
# 3 -0.005922 -0.002550 0.059748 0.000002 -0.048837 -0.000003
# 4 0.000000 0.000001 0.000002 0.189876 -0.000002 -0.106566
# 5 -0.000309 0.002161 -0.048837 -0.000002 0.064141 0.000003
# 6 0.000000 -0.000002 -0.000003 -0.106566 0.000003 0.122814
#
#
# Mechanical properties :
#
#
# Convention : Reuss Voigt Hill
#
# Bulk Modulus (GPa) = 14.63138 45.72969 30.18054
# Shear Modulus (GPa) = 10.01463 32.76093 21.38778
#
# Velocity S-wave (km/s) = 1.98641 3.59278 2.90292
# Velocity P-wave (km/s) = 3.32054 5.93537 4.80909
#
# Compressibility (1/GPa) = 0.06834625
#
# Stress axis : x y z
#
# Youngs Moduli (GPa) = 146.97689 57.30805 16.73691
#
# Poissons Ratio (x) = -0.03692 0.09912
# Poissons Ratio (y) = -0.09468 0.04267
# Poissons Ratio (z) = 0.87044 0.14611
#
# Static dielectric constant tensor:
#      x y z
#    x 2.087990 0.000000 0.040560 
#    y 0.000000 1.921370 0.000000 
#    z 0.040560 0.000000 2.109880 
# 
# From -- ./inp_files/280236.got.cif
#   From: 2010.05.17/outbox.cif.g08.bks.cpg/sg12_141_cif.got.tgz:280236.got - 2010.06.03 13:09:07.
