data_PCOD9177031
_publ_section_title
;
Structure prediction by ZEFSAII (Michael W. Deem and Ramdas Pophale) SiO2 
 PCOD9177031
Probable space group: C 2/M
;
_chemical_formula_sum "Si O2"
_cell_formula_units_Z 48
_cell_length_a 17.782658
_cell_length_b 15.006205
_cell_length_c 19.606377
_cell_angle_alpha 90.000000
_cell_angle_beta 30.621173
_cell_angle_gamma 90.000000
_cell_volume 2664.951290
_symmetry_space_group_name_H-M "C 2/M"
_symmetry_group_IT_number 12
_symmetry_cell_setting 'monoclinic'
loop_
_space_group_symop_operation_xyz
x,y,z
-x,y,-z
-x,-y,-z
x,-y,z
1/2+x,1/2+y,z
1/2-x,1/2+y,-z
1/2-x,1/2-y,-z
1/2+x,1/2-y,z
loop_
_atom_site_type_symbol
_atom_site_label
_atom_site_fract_x
_atom_site_fract_y
_atom_site_fract_z
Si Si1 0.696851 0.500000 0.558366
Si Si2 0.895266 0.807942 0.889114
Si Si3 0.397406 0.304496 0.401981
Si Si4 0.123546 0.000000 0.777554
Si Si5 0.425276 0.811848 0.631424
Si Si6 0.892972 0.180682 0.148207
Si Si7 0.045077 0.500000 0.311160
Si Si8 0.693361 0.500000 0.999019
O O1 0.640369 0.409602 0.567180
O O2 0.644654 0.500000 0.679419
O O3 0.874260 0.500000 0.422365
O O4 0.992081 0.792468 0.747364
O O5 0.001100 0.789672 0.872032
O O6 0.835662 0.909440 0.937954
O O7 0.750000 0.750000 0.000000
O O8 0.250000 0.250000 0.500000
O O9 0.474148 0.259058 0.406537
O O10 0.180409 0.089848 0.765114
O O11 0.951865 0.000000 0.935580
O O12 0.500000 0.825645 0.500000
O O13 0.258567 0.771888 0.755614
O O14 0.428028 0.907017 0.669394
O O15 0.000000 0.169708 0.000000
O O16 0.158006 0.500000 0.159585
#
# Coordination Sequence:
#
# PCOD9177031 Si02
#       8
#     4   8   8   4   8   8   4   4
#     4  12  22  41  63  88 121 168 211 265 299 365
#     4  11  22  39  62  88 126 166 206 251 301 374
#     4  12  23  42  63  88 123 167 217 257 303 371
#     4  10  18  37  58  85 125 157 191 245 319 372
#     4  12  24  39  60  93 129 163 203 260 319 372
#     4  11  20  34  56  91 127 156 195 246 313 374
#     4  12  22  37  62  97 129 159 200 254 320 381
#     4  10  20  37  58  94 122 154 202 244 314 360
#
# _framework density 18.011586999999999
#
# number of rings (size 3 to 8) (size 9 to 14) (size 15 to 20)
#    0.000    0.667    5.000    7.000    0.000    0.000 
#    0.000    0.417    0.000    1.000    0.000    3.500 
#    0.000    0.000    0.000    0.000    0.000    0.000 
#
# Total GULP energy -133874.476815 kJ/mol
# GULP energy per Si atom -5578.103201 kJ/mol
# Density = 1.797059 g / cm^3
# Si number density = 18.011587 Si / 1000 Ang^3
#
#
#
# Elastic Constant Matrix: (Units=GPa)
#
#
# Indices 1 2 3 4 5 6 
#
# 1 72.8604 23.4904 31.2828 -0.0002 -27.7079 -0.0007
# 2 23.4904 75.2934 31.2711 -0.0001 -19.8486 -0.0004
# 3 31.2828 31.2711 146.6340 -0.0007 -12.0212 -0.0002
# 4 -0.0002 -0.0001 -0.0007 22.4056 0.0003 -7.8744
# 5 -27.7079 -19.8486 -12.0212 0.0003 38.9580 -0.0001
# 6 -0.0007 -0.0004 -0.0002 -7.8744 -0.0001 -13.9050
#
#
#
# Elastic Compliance Matrix: (Units=1/GPa)
#
#
# Indices 1 2 3 4 5 6 
#
# 1 0.020382 -0.001803 -0.002925 0.000000 0.012675 -0.000001
# 2 -0.001803 0.016619 -0.002637 0.000000 0.006371 0.000000
# 3 -0.002925 -0.002637 0.007926 0.000000 -0.000978 0.000000
# 4 0.000000 0.000000 0.000000 0.037223 -0.000001 -0.021079
# 5 0.012675 0.006371 -0.000978 -0.000001 0.037628 -0.000001
# 6 -0.000001 0.000000 0.000000 -0.021079 -0.000001 -0.059979
#
#
# Mechanical properties :
#
#
# Convention : Reuss Voigt Hill
#
# Bulk Modulus (GPa) = 33.11564 51.87514 42.49539
# Shear Modulus (GPa) = 59.10620 23.40795 41.25708
#
# Velocity S-wave (km/s) = 5.73471 3.60891 4.79120
# Velocity P-wave (km/s) = 7.89144 6.79921 7.36560
#
# Compressibility (1/GPa) = 0.03019721
#
# Stress axis : x y z
#
# Youngs Moduli (GPa) = 49.06273 60.17357 126.16900
#
# Poissons Ratio (x) = 0.10848 0.36901
# Poissons Ratio (y) = 0.08845 0.33273
# Poissons Ratio (z) = 0.14349 0.15869
#
# Static dielectric constant tensor:
#      x y z
#    x 1.647830 0.000000 -0.020070 
#    y 0.000000 1.722780 0.000000 
#    z -0.020070 0.000000 1.609290 
# 
# From -- ./inp_files/278090.got.cif
#   From: 2010.05.17/outbox.cif.g08.bks.cpg/sg12_140_cif.got.tgz:278090.got - 2010.06.03 13:09:07.
