data_PCOD9177168
_publ_section_title
;
Structure prediction by ZEFSAII (Michael W. Deem and Ramdas Pophale) SiO2 
 PCOD9177168
Probable space group: C 2/M
;
_chemical_formula_sum "Si O2"
_cell_formula_units_Z 42
_cell_length_a 15.282661
_cell_length_b 17.200491
_cell_length_c 19.316123
_cell_angle_alpha 90.000000
_cell_angle_beta 19.485007
_cell_angle_gamma 90.000000
_cell_volume 1693.690243
_symmetry_space_group_name_H-M "C 2/M"
_symmetry_group_IT_number 12
_symmetry_cell_setting 'monoclinic'
loop_
_space_group_symop_operation_xyz
x,y,z
-x,y,-z
-x,-y,-z
x,-y,z
1/2+x,1/2+y,z
1/2-x,1/2+y,-z
1/2-x,1/2-y,-z
1/2+x,1/2-y,z
loop_
_atom_site_type_symbol
_atom_site_label
_atom_site_fract_x
_atom_site_fract_y
_atom_site_fract_z
Si Si1 0.503148 0.644237 0.290794
Si Si2 0.500000 0.000000 0.500000
Si Si3 0.395151 0.823062 0.749126
Si Si4 0.284222 0.245804 0.256309
Si Si5 0.784218 0.915770 0.722131
Si Si6 0.493121 0.612546 0.857184
O O1 0.576901 0.736171 0.239432
O O2 0.579590 0.604571 0.306392
O O3 0.600084 0.597447 0.151066
O O4 0.185156 0.644099 0.522379
O O5 0.739174 0.933494 0.325930
O O6 0.256952 0.800118 0.779899
O O7 0.229341 0.885376 0.917670
O O8 0.391520 0.160473 0.160393
O O9 0.440097 0.295666 0.194356
O O10 0.000000 0.233780 0.500000
O O11 0.000000 0.919596 0.500000
O O12 0.655336 0.000000 0.819858
#
# Coordination Sequence:
#
# PCOD9177168 Si02
#       6
#     8   2   8   8   8   8
#     4  10  21  40  67  99 132 177 230 297 339 419
#     4  12  28  44  66 104 154 186 230 308 374 420
#     4  10  21  38  66 100 129 180 234 278 354 418
#     4  10  18  38  66  91 139 180 228 285 341 427
#     4   9  20  38  66  99 132 178 225 283 362 413
#     4  12  23  42  65  99 139 186 232 287 357 431
#
# _framework density 24.797923000000001
#
# number of rings (size 3 to 8) (size 9 to 14) (size 15 to 20)
#    0.000    1.714    2.857    1.143    4.000    0.000 
#    1.714    4.762    0.000    9.143    0.000    0.000 
#    0.000    0.000    0.000    0.000    0.000    0.000 
#
# Total GULP energy -117042.709824 kJ/mol
# GULP energy per Si atom -5573.462373 kJ/mol
# Density = 2.474148 g / cm^3
# Si number density = 24.797923 Si / 1000 Ang^3
#
#
#
# Elastic Constant Matrix: (Units=GPa)
#
#
# Indices 1 2 3 4 5 6 
#
# 1 130.1690 46.3303 40.8657 -0.0227 28.2040 -0.0615
# 2 46.3303 130.7710 24.1680 -0.0181 6.8858 0.1661
# 3 40.8657 24.1680 131.0970 -0.0982 19.2446 0.0687
# 4 -0.0227 -0.0181 -0.0982 4.4717 0.0701 0.5732
# 5 28.2040 6.8858 19.2446 0.0701 36.4469 0.0049
# 6 -0.0615 0.1661 0.0687 0.5732 0.0049 5.4967
#
#
#
# Elastic Compliance Matrix: (Units=1/GPa)
#
#
# Indices 1 2 3 4 5 6 
#
# 1 0.010854 -0.003153 -0.001796 0.000080 -0.006855 0.000237
# 2 -0.003153 0.008854 -0.000826 0.000021 0.001203 -0.000296
# 3 -0.001796 -0.000826 0.008795 0.000246 -0.003099 -0.000128
# 4 0.000080 0.000021 0.000246 0.226672 -0.000628 -0.023640
# 5 -0.006855 0.001203 -0.003099 -0.000628 0.034152 -0.000039
# 6 0.000237 -0.000296 -0.000128 -0.023640 -0.000039 0.184405
#
#
# Mechanical properties :
#
#
# Convention : Reuss Voigt Hill
#
# Bulk Modulus (GPa) = 58.98460 68.30723 63.64591
# Shear Modulus (GPa) = 10.18471 27.99461 19.08966
#
# Velocity S-wave (km/s) = 2.02879 3.36357 2.77755
# Velocity P-wave (km/s) = 5.41532 6.53377 6.00066
#
# Compressibility (1/GPa) = 0.01695358
#
# Stress axis : x y z
#
# Youngs Moduli (GPa) = 92.13409 112.94861 113.69940
#
# Poissons Ratio (x) = 0.35610 0.20419
# Poissons Ratio (y) = 0.29048 0.09390
# Poissons Ratio (z) = 0.16546 0.09328
#
# Static dielectric constant tensor:
#      x y z
#    x 1.909160 -0.000340 0.023380 
#    y -0.000340 1.958790 0.000060 
#    z 0.023380 0.000060 2.008810 
# 
# From -- ./inp_files/317281.got.cif
#   From: 2010.05.17/outbox.cif.g08.bks.cpg/sg12_159_cif.got.tgz:317281.got - 2010.06.03 13:09:07.
