data_PCOD9177232
_publ_section_title
;
Structure prediction by ZEFSAII (Michael W. Deem and Ramdas Pophale) SiO2 
 PCOD9177232
Probable space group: C 2/M
;
_chemical_formula_sum "Si O2"
_cell_formula_units_Z 44
_cell_length_a 11.911966
_cell_length_b 16.862449
_cell_length_c 9.209879
_cell_angle_alpha 90.000000
_cell_angle_beta 108.220497
_cell_angle_gamma 90.000000
_cell_volume 1757.186003
_symmetry_space_group_name_H-M "C 2/M"
_symmetry_group_IT_number 12
_symmetry_cell_setting 'monoclinic'
loop_
_space_group_symop_operation_xyz
x,y,z
-x,y,-z
-x,-y,-z
x,-y,z
1/2+x,1/2+y,z
1/2-x,1/2+y,-z
1/2-x,1/2-y,-z
1/2+x,1/2-y,z
loop_
_atom_site_type_symbol
_atom_site_label
_atom_site_fract_x
_atom_site_fract_y
_atom_site_fract_z
Si Si1 0.931416 0.217948 0.332817
Si Si2 0.750330 0.840362 0.057165
Si Si3 0.611254 0.592375 0.133102
Si Si4 0.578405 0.144920 0.241066
Si Si5 0.571268 0.000000 0.698088
Si Si6 0.788686 0.639736 0.416585
O O1 0.861422 0.154410 0.210866
O O2 0.838096 0.279716 0.367012
O O3 0.000000 0.186474 0.500000
O O4 0.008621 0.275462 0.259586
O O5 0.634395 0.853520 0.104630
O O6 0.750000 0.750000 0.000000
O O7 0.777964 0.896982 0.933141
O O8 0.589115 0.500000 0.148668
O O9 0.656965 0.628613 0.301517
O O10 0.500000 0.626801 0.000000
O O11 0.495815 0.070148 0.236791
O O12 0.684918 0.139403 0.402744
O O13 0.632374 0.068462 0.616240
#
# Coordination Sequence:
#
# PCOD9177232 Si02
#       6
#     8   8   8   8   4   8
#     4   9  21  40  65  97 127 168 220 272 333 391
#     4  12  26  42  63  96 139 175 221 277 334 399
#     4  11  26  45  64  89 133 184 220 265 337 405
#     4  10  23  38  70 102 127 167 224 275 344 399
#     4  10  19  40  72 104 131 164 213 290 341 398
#     4  10  18  41  69  96 129 166 216 274 336 398
#
# _framework density 25.040037999999999
#
# number of rings (size 3 to 8) (size 9 to 14) (size 15 to 20)
#    0.000    1.636    2.727    2.727    3.818    4.364 
#    0.000    0.909    0.000    2.727    0.000    0.000 
#    0.000    0.000    0.000    0.000    0.000    0.000 
#
# Total GULP energy -122764.511234 kJ/mol
# GULP energy per Si atom -5580.205056 kJ/mol
# Density = 2.498305 g / cm^3
# Si number density = 25.040038 Si / 1000 Ang^3
#
#
#
# Elastic Constant Matrix: (Units=GPa)
#
#
# Indices 1 2 3 4 5 6 
#
# 1 102.3644 14.5588 41.6771 0.0000 -6.6698 0.0000
# 2 14.5588 69.9843 4.3124 0.0000 -14.4126 0.0000
# 3 41.6771 4.3124 100.0482 0.0000 9.4795 0.0000
# 4 0.0000 0.0000 0.0000 8.4675 0.0000 -14.8628
# 5 -6.6698 -14.4126 9.4795 0.0000 64.0674 0.0000
# 6 0.0000 0.0000 0.0000 -14.8628 0.0000 41.9142
#
#
#
# Elastic Compliance Matrix: (Units=1/GPa)
#
#
# Indices 1 2 3 4 5 6 
#
# 1 0.012251 -0.001897 -0.005174 0.000000 0.001614 0.000000
# 2 -0.001897 0.015372 -0.000184 0.000000 0.003288 0.000000
# 3 -0.005174 -0.000184 0.012387 0.000000 -0.002413 0.000000
# 4 0.000000 0.000000 0.000000 0.312778 0.000000 0.110911
# 5 0.001614 0.003288 -0.002413 0.000000 0.016873 0.000000
# 6 0.000000 0.000000 0.000000 0.110911 0.000000 0.063187
#
#
# Mechanical properties :
#
#
# Convention : Reuss Voigt Hill
#
# Bulk Modulus (GPa) = 39.21709 43.72150 41.46930
# Shear Modulus (GPa) = 10.96830 37.01306 23.99068
#
# Velocity S-wave (km/s) = 2.09519 3.84885 3.09867
# Velocity P-wave (km/s) = 4.64207 6.10328 5.42213
#
# Compressibility (1/GPa) = 0.02549909
#
# Stress axis : x y z
#
# Youngs Moduli (GPa) = 81.62727 65.05329 80.72808
#
# Poissons Ratio (x) = 0.12342 0.41773
# Poissons Ratio (y) = 0.15487 0.01483
# Poissons Ratio (z) = 0.42238 0.01195
#
# Static dielectric constant tensor:
#      x y z
#    x 2.102310 0.000000 0.104750 
#    y 0.000000 1.881290 0.000000 
#    z 0.104750 0.000000 2.056190 
# 
# From -- ./inp_files/49370.got.cif
#   From: 2010.05.17/outbox.cif.g08.bks.cpg/sg12_25_cif.got.tgz:49370.got - 2010.06.03 13:09:07.
