data_PCOD9177738
_publ_section_title
;
Structure prediction by ZEFSAII (Michael W. Deem and Ramdas Pophale) SiO2 
 PCOD9177738
Probable space group: C 2/M
;
_chemical_formula_sum "Si O2"
_cell_formula_units_Z 56
_cell_length_a 27.614974
_cell_length_b 10.879231
_cell_length_c 29.635383
_cell_angle_alpha 90.000000
_cell_angle_beta 21.173490
_cell_angle_gamma 90.000000
_cell_volume 3215.828617
_symmetry_space_group_name_H-M "C 2/M"
_symmetry_group_IT_number 12
_symmetry_cell_setting 'monoclinic'
loop_
_space_group_symop_operation_xyz
x,y,z
-x,y,-z
-x,-y,-z
x,-y,z
1/2+x,1/2+y,z
1/2-x,1/2+y,-z
1/2-x,1/2-y,-z
1/2+x,1/2-y,z
loop_
_atom_site_type_symbol
_atom_site_label
_atom_site_fract_x
_atom_site_fract_y
_atom_site_fract_z
Si Si1 0.151030 0.148386 0.373918
Si Si2 0.232105 0.148272 0.126757
Si Si3 0.927374 0.641329 0.876019
Si Si4 0.485457 0.740097 0.288589
Si Si5 0.225364 0.367344 0.474968
Si Si6 0.243205 0.640509 0.618031
Si Si7 0.653172 0.849904 0.875921
O O1 0.204899 0.170092 0.377209
O O2 0.250761 0.192124 0.248150
O O3 0.000000 0.195594 0.500000
O O4 0.146123 0.000000 0.373163
O O5 0.287845 0.189151 0.126892
O O6 0.086003 0.195991 0.239747
O O7 0.227606 0.000000 0.131582
O O8 0.334072 0.183837 0.998019
O O9 0.890159 0.500000 0.897393
O O10 0.929128 0.722552 0.829531
O O11 0.081766 0.640765 0.758142
O O12 0.369842 0.645123 0.373728
O O13 0.393934 0.853128 0.385223
O O14 0.217175 0.500000 0.459294
O O15 0.213175 0.248074 0.453720
O O16 0.286284 0.500000 0.568476
O O17 0.652501 0.000000 0.876706
O O18 0.500000 0.811437 0.000000
#
# Coordination Sequence:
#
# PCOD9177738 Si02
#       7
#     8   8   8   8   8   8   8
#     4   9  17  28  45  72 103 130 163 210 260 307
#     4  10  19  29  48  75 103 130 165 213 259 306
#     4   9  17  31  48  70 100 133 166 206 257 308
#     4  10  20  32  49  70 100 136 177 213 251 304
#     4  10  21  35  51  73 104 141 177 214 257 307
#     4   9  18  32  53  76 103 137 170 208 260 315
#     4   9  17  29  45  69 102 134 163 204 262 316
#
# _framework density 17.413864
#
# number of rings (size 3 to 8) (size 9 to 14) (size 15 to 20)
#    0.000    2.571    0.000    2.143    2.000    7.429 
#    0.000    0.000    0.000    1.286    0.000    0.000 
#    0.000    7.429    0.000    0.000    0.000    0.000 
#
# Total GULP energy -156013.339744 kJ/mol
# GULP energy per Si atom -5571.904991 kJ/mol
# Density = 1.737423 g / cm^3
# Si number density = 17.413864 Si / 1000 Ang^3
#
#
#
# Elastic Constant Matrix: (Units=GPa)
#
#
# Indices 1 2 3 4 5 6 
#
# 1 132.4255 36.0280 55.9353 0.0003 -11.7940 -0.0001
# 2 36.0280 57.0697 22.9873 0.0004 6.4880 0.0000
# 3 55.9353 22.9873 84.4930 0.0033 4.0266 -0.0007
# 4 0.0003 0.0004 0.0033 3.5392 0.0009 1.7736
# 5 -11.7940 6.4880 4.0266 0.0009 23.2062 -0.0003
# 6 -0.0001 0.0000 -0.0007 1.7736 -0.0003 16.9743
#
#
#
# Elastic Compliance Matrix: (Units=1/GPa)
#
#
# Indices 1 2 3 4 5 6 
#
# 1 0.013424 -0.006555 -0.007578 0.000005 0.009970 -0.000001
# 2 -0.006555 0.023382 -0.001564 0.000002 -0.009597 0.000000
# 3 -0.007578 -0.001564 0.017586 -0.000015 -0.006466 0.000002
# 4 0.000005 0.000002 -0.000015 0.298161 -0.000007 -0.031154
# 5 0.009970 -0.009597 -0.006466 -0.000007 0.051964 0.000002
# 6 -0.000001 0.000000 0.000002 -0.031154 0.000002 0.062168
#
#
# Mechanical properties :
#
#
# Convention : Reuss Voigt Hill
#
# Bulk Modulus (GPa) = 43.48628 55.98771 49.73699
# Shear Modulus (GPa) = 9.88638 19.34644 14.61641
#
# Velocity S-wave (km/s) = 2.38529 3.33675 2.90031
# Velocity P-wave (km/s) = 5.71074 6.86048 6.31185
#
# Compressibility (1/GPa) = 0.02299576
#
# Stress axis : x y z
#
# Youngs Moduli (GPa) = 74.49412 42.76807 56.86343
#
# Poissons Ratio (x) = 0.28036 0.43094
# Poissons Ratio (y) = 0.48834 0.08895
# Poissons Ratio (z) = 0.56455 0.06690
#
# Static dielectric constant tensor:
#      x y z
#    x 1.598620 0.000000 0.011170 
#    y 0.000000 1.586970 0.000000 
#    z 0.011170 0.000000 1.604440 
# 
# From -- ./inp_files/369411.got.cif
#   From: 2010.05.17/outbox.cif.g08.bks.cpg/sg12_185_cif.got.tgz:369411.got - 2010.06.03 13:09:07.
