data_PCOD9177334
_publ_section_title
;
Structure prediction by ZEFSAII (Michael W. Deem and Ramdas Pophale) SiO2 
 PCOD9177334
Probable space group: C 2/M
;
_chemical_formula_sum "Si O2"
_cell_formula_units_Z 64
_cell_length_a 15.886654
_cell_length_b 9.498502
_cell_length_c 24.548555
_cell_angle_alpha 90.000000
_cell_angle_beta 50.916421
_cell_angle_gamma 90.000000
_cell_volume 2875.426726
_symmetry_space_group_name_H-M "C 2/M"
_symmetry_group_IT_number 12
_symmetry_cell_setting 'monoclinic'
loop_
_space_group_symop_operation_xyz
x,y,z
-x,y,-z
-x,-y,-z
x,-y,z
1/2+x,1/2+y,z
1/2-x,1/2+y,-z
1/2-x,1/2-y,-z
1/2+x,1/2-y,z
loop_
_atom_site_type_symbol
_atom_site_label
_atom_site_fract_x
_atom_site_fract_y
_atom_site_fract_z
Si Si1 0.326251 0.333602 0.225272
Si Si2 0.961125 0.665979 0.736830
Si Si3 0.390892 0.836383 0.487319
Si Si4 0.115292 0.662590 0.024678
Si Si5 0.582447 0.334855 0.143129
Si Si6 0.854821 0.661891 0.108843
Si Si7 0.884389 0.332975 0.643106
Si Si8 0.194779 0.337571 0.603348
O O1 0.306430 0.500000 0.226966
O O2 0.451943 0.318267 0.188645
O O3 0.308999 0.258706 0.174676
O O4 0.238699 0.278203 0.304864
O O5 0.956192 0.500000 0.753230
O O6 0.866628 0.761821 0.930973
O O7 0.088378 0.707732 0.680182
O O8 0.917665 0.681148 0.693254
O O9 0.899832 0.756772 0.807004
O O10 0.513466 0.777145 0.432912
O O11 0.346759 0.834974 0.442928
O O12 0.393832 0.000000 0.502383
O O13 0.144918 0.500000 0.024289
O O14 0.985234 0.663132 0.066102
O O15 0.164085 0.704985 0.946118
O O16 0.607792 0.500000 0.134774
O O17 0.197052 0.255071 0.441020
O O18 0.819523 0.500000 0.129449
O O19 0.882320 0.500000 0.631868
O O20 0.219018 0.500000 0.606985
#
# Coordination Sequence:
#
# PCOD9177334 Si02
#       8
#     8   8   8   8   8   8   8   8
#     4   9  17  29  45  65  90 116 140 173 216 257
#     4   9  17  30  47  63  84 117 149 175 207 254
#     4   8  13  23  41  62  82 105 136 175 212 247
#     4   8  14  26  43  61  84 114 144 174 209 252
#     4  10  19  28  42  67  93 113 138 177 219 254
#     4   8  14  25  42  64  86 109 142 179 211 248
#     4   8  15  29  47  65  85 114 149 175 205 256
#     4   8  14  24  39  61  84 105 135 175 215 249
#
# _framework density 22.257565
#
# number of rings (size 3 to 8) (size 9 to 14) (size 15 to 20)
#    0.000    3.500    0.000    2.625    0.000    1.500 
#    0.000    5.625    0.000    1.500    0.000    5.250 
#    0.000    0.000    0.000    0.000    0.000    0.000 
#
# Total GULP energy -178641.524249 kJ/mol
# GULP energy per Si atom -5582.547633 kJ/mol
# Density = 2.220691 g / cm^3
# Si number density = 22.257565 Si / 1000 Ang^3
#
#
#
# Elastic Constant Matrix: (Units=GPa)
#
#
# Indices 1 2 3 4 5 6 
#
# 1 86.0368 13.6236 21.4346 0.0000 -6.6018 0.0000
# 2 13.6236 30.3244 47.7149 0.0000 6.5531 0.0000
# 3 21.4346 47.7149 156.9251 0.0000 1.9783 0.0000
# 4 0.0000 0.0000 0.0000 30.2866 0.0000 -3.8172
# 5 -6.6018 6.5531 1.9783 0.0000 47.0679 0.0000
# 6 0.0000 0.0000 0.0000 -3.8172 0.0000 1.9282
#
#
#
# Elastic Compliance Matrix: (Units=1/GPa)
#
#
# Indices 1 2 3 4 5 6 
#
# 1 0.012840 -0.006798 0.000279 0.000000 0.002736 0.000000
# 2 -0.006798 0.069987 -0.020227 0.000000 -0.009847 -0.000002
# 3 0.000279 -0.020227 0.012455 0.000000 0.002332 0.000001
# 4 0.000000 0.000000 0.000000 0.043996 0.000000 0.087099
# 5 0.002736 -0.009847 0.002332 0.000000 0.022903 0.000000
# 6 0.000000 -0.000002 0.000001 0.087099 0.000000 0.691060
#
#
# Mechanical properties :
#
#
# Convention : Reuss Voigt Hill
#
# Bulk Modulus (GPa) = 23.93048 48.75918 36.34483
# Shear Modulus (GPa) = 5.43087 28.55741 16.99414
#
# Velocity S-wave (km/s) = 1.56375 3.58584 2.76619
# Velocity P-wave (km/s) = 3.74638 6.25290 5.15432
#
# Compressibility (1/GPa) = 0.04178771
#
# Stress axis : x y z
#
# Youngs Moduli (GPa) = 77.88223 14.28845 80.28654
#
# Poissons Ratio (x) = 0.09714 -0.02239
# Poissons Ratio (y) = 0.52948 1.62400
# Poissons Ratio (z) = -0.02172 0.28902
#
# Static dielectric constant tensor:
#      x y z
#    x 1.927640 0.000000 -0.023650 
#    y 0.000000 1.742540 0.000000 
#    z -0.023650 0.000000 1.808990 
# 
# From -- ./inp_files/349034.got.cif
#   From: 2010.05.17/outbox.cif.g08.bks.cpg/sg12_175_cif.got.tgz:349034.got - 2010.06.03 13:09:07.
