data_PCOD9177007
_publ_section_title
;
Structure prediction by ZEFSAII (Michael W. Deem and Ramdas Pophale) SiO2 
 PCOD9177007
Probable space group: C 2/M
;
_chemical_formula_sum "Si O2"
_cell_formula_units_Z 50
_cell_length_a 9.001817
_cell_length_b 33.638403
_cell_length_c 10.433249
_cell_angle_alpha 90.000000
_cell_angle_beta 42.036739
_cell_angle_gamma 90.000000
_cell_volume 2115.461360
_symmetry_space_group_name_H-M "C 2/M"
_symmetry_group_IT_number 12
_symmetry_cell_setting 'monoclinic'
loop_
_space_group_symop_operation_xyz
x,y,z
-x,y,-z
-x,-y,-z
x,-y,z
1/2+x,1/2+y,z
1/2-x,1/2+y,-z
1/2-x,1/2-y,-z
1/2+x,1/2-y,z
loop_
_atom_site_type_symbol
_atom_site_label
_atom_site_fract_x
_atom_site_fract_y
_atom_site_fract_z
Si Si1 0.329640 0.941559 0.893041
Si Si2 0.471041 0.295458 0.709572
Si Si3 0.392702 0.779629 0.246309
Si Si4 0.681687 0.630808 0.651224
Si Si5 0.318619 0.543306 0.290132
Si Si6 0.878709 0.353334 0.790062
Si Si7 0.500000 0.000000 0.000000
O O1 0.339464 0.951555 0.733705
O O2 0.357258 0.893946 0.884854
O O3 0.476117 0.965458 0.900787
O O4 0.077289 0.955009 0.083797
O O5 0.524450 0.265125 0.789034
O O6 0.678659 0.286378 0.479755
O O7 0.234002 0.285170 0.804578
O O8 0.483455 0.342320 0.727957
O O9 0.580197 0.812165 0.162430
O O10 0.689277 0.583772 0.625895
O O11 0.896620 0.644512 0.437339
O O12 0.700854 0.641741 0.789272
O O13 0.280134 0.500000 0.373727
#
# Coordination Sequence:
#
# PCOD9177007 Si02
#       7
#     8   8   8   8   8   8   2
#     4  10  20  34  55  71  99 128 175 209 254 296
#     4   9  16  27  46  74 101 145 165 208 241 310
#     4   9  16  27  46  71 108 134 176 199 251 293
#     4   9  18  31  53  76 106 130 172 206 268 296
#     4  10  18  37  54  75  96 136 172 215 249 317
#     4   9  18  33  48  79 103 134 161 221 250 307
#     4  12  20  34  52  76  92 128 172 218 244 308
#
# _framework density 23.635504000000001
#
# number of rings (size 3 to 8) (size 9 to 14) (size 15 to 20)
#    0.000    2.560    1.600    1.440    0.000    5.120 
#    1.440    1.600    0.000    1.920    0.000    2.240 
#    0.000    0.000    0.000    0.000    0.000    0.000 
#
# Total GULP energy -139207.079906 kJ/mol
# GULP energy per Si atom -5568.283196 kJ/mol
# Density = 2.358171 g / cm^3
# Si number density = 23.635504 Si / 1000 Ang^3
#
#
#
# Elastic Constant Matrix: (Units=GPa)
#
#
# Indices 1 2 3 4 5 6 
#
# 1 70.9937 52.6517 1.9576 0.0000 3.3717 0.0000
# 2 52.6517 155.8282 18.5464 0.0000 3.4222 0.0000
# 3 1.9576 18.5464 61.5784 0.0000 -5.5125 0.0000
# 4 0.0000 0.0000 0.0000 42.2592 0.0000 10.1246
# 5 3.3717 3.4222 -5.5125 0.0000 21.9663 0.0000
# 6 0.0000 0.0000 0.0000 10.1246 0.0000 44.8089
#
#
#
# Elastic Compliance Matrix: (Units=1/GPa)
#
#
# Indices 1 2 3 4 5 6 
#
# 1 0.018961 -0.006516 0.001218 0.000000 -0.001590 0.000000
# 2 -0.006516 0.008949 -0.002581 0.000000 -0.001042 0.000000
# 3 0.001218 -0.002581 0.017388 0.000000 0.004579 0.000000
# 4 0.000000 0.000000 0.000000 0.025018 0.000000 -0.005653
# 5 -0.001590 -0.001042 0.004579 0.000000 0.047080 0.000000
# 6 0.000000 0.000000 0.000000 -0.005653 0.000000 0.023594
#
#
# Mechanical properties :
#
#
# Convention : Reuss Voigt Hill
#
# Bulk Modulus (GPa) = 33.85556 48.30133 41.07844
# Shear Modulus (GPa) = 30.01273 36.15651 33.08462
#
# Velocity S-wave (km/s) = 3.56731 3.91545 3.74543
# Velocity P-wave (km/s) = 5.59667 6.39697 6.01016
#
# Compressibility (1/GPa) = 0.02953725
#
# Stress axis : x y z
#
# Youngs Moduli (GPa) = 52.74111 111.74121 57.51048
#
# Poissons Ratio (x) = 0.72816 -0.07002
# Poissons Ratio (y) = 0.34369 0.14846
# Poissons Ratio (z) = -0.06422 0.28846
#
# Static dielectric constant tensor:
#      x y z
#    x 1.902590 0.000000 0.039500 
#    y 0.000000 1.887350 0.000000 
#    z 0.039500 0.000000 2.043580 
# 
# From -- ./inp_files/200507.got.cif
#   From: 2010.05.17/outbox.cif.g08.bks.cpg/sg12_101_cif.got.tgz:200507.got - 2010.06.03 13:09:07.
