data_PCOD9177062
_publ_section_title
;
Structure prediction by ZEFSAII (Michael W. Deem and Ramdas Pophale) SiO2 
 PCOD9177062
Probable space group: C 2/M
;
_chemical_formula_sum "Si O2"
_cell_formula_units_Z 44
_cell_length_a 22.806731
_cell_length_b 12.837288
_cell_length_c 8.285194
_cell_angle_alpha 90.000000
_cell_angle_beta 114.020475
_cell_angle_gamma 90.000000
_cell_volume 2215.644288
_symmetry_space_group_name_H-M "C 2/M"
_symmetry_group_IT_number 12
_symmetry_cell_setting 'monoclinic'
loop_
_space_group_symop_operation_xyz
x,y,z
-x,y,-z
-x,-y,-z
x,-y,z
1/2+x,1/2+y,z
1/2-x,1/2+y,-z
1/2-x,1/2-y,-z
1/2+x,1/2-y,z
loop_
_atom_site_type_symbol
_atom_site_label
_atom_site_fract_x
_atom_site_fract_y
_atom_site_fract_z
Si Si1 0.157828 0.000000 0.208114
Si Si2 0.946934 0.775038 0.075652
Si Si3 0.827332 0.769191 0.400112
Si Si4 0.564022 0.500000 0.801094
Si Si5 0.430204 0.120051 0.339765
Si Si6 0.809876 0.776815 0.747617
Si Si7 0.615967 0.500000 0.508161
O O1 0.201171 0.100048 0.281659
O O2 0.105410 0.000000 0.298886
O O3 0.125823 0.000000 0.994355
O O4 0.963187 0.885709 0.181918
O O5 0.944960 0.677234 0.189685
O O6 0.875914 0.774872 0.919059
O O7 0.000000 0.762443 0.000000
O O8 0.877892 0.694204 0.368856
O O9 0.821578 0.733737 0.580927
O O10 0.754957 0.767768 0.249951
O O11 0.849510 0.889101 0.426344
O O12 0.570390 0.500000 0.614811
O O13 0.500000 0.119818 0.500000
O O14 0.408006 0.000000 0.302772
#
# Coordination Sequence:
#
# PCOD9177062 Si02
#       7
#     4   8   8   4   8   8   4
#     4   8  18  33  57  88 131 157 198 250 306 374
#     4  11  22  41  63  88 125 162 205 259 313 369
#     4  10  20  40  63  91 124 160 206 256 313 371
#     4  10  19  38  61  96 122 158 199 256 311 375
#     4  11  25  43  62  88 122 164 211 256 306 375
#     4   9  20  37  62  92 121 165 205 252 313 372
#     4  10  18  37  62  92 128 155 201 256 314 375
#
# _framework density 19.858784
#
# number of rings (size 3 to 8) (size 9 to 14) (size 15 to 20)
#    0.000    2.000    1.818    1.364    1.273    1.091 
#    3.273    3.636    0.000    0.000    0.000    0.000 
#    0.000    0.000    0.000    0.000    0.000    0.000 
#
# Total GULP energy -122472.337794 kJ/mol
# GULP energy per Si atom -5566.924445 kJ/mol
# Density = 1.981358 g / cm^3
# Si number density = 19.858784 Si / 1000 Ang^3
#
#
#
# Elastic Constant Matrix: (Units=GPa)
#
#
# Indices 1 2 3 4 5 6 
#
# 1 105.7402 52.7556 21.4068 0.0000 -2.9923 0.0000
# 2 52.7556 125.7952 13.9084 0.0000 1.7027 0.0000
# 3 21.4068 13.9084 28.3327 0.0000 0.6913 0.0000
# 4 0.0000 0.0000 0.0000 -3.6983 0.0000 -33.0760
# 5 -2.9923 1.7027 0.6913 0.0000 25.0078 0.0000
# 6 0.0000 0.0000 0.0000 -33.0760 0.0000 -10.3280
#
#
#
# Elastic Compliance Matrix: (Units=1/GPa)
#
#
# Indices 1 2 3 4 5 6 
#
# 1 0.013527 -0.004829 -0.007903 0.000000 0.002166 0.000000
# 2 -0.004829 0.010134 -0.001297 0.000000 -0.001232 0.000000
# 3 -0.007903 -0.001297 0.041952 0.000000 -0.002017 0.000000
# 4 0.000000 0.000000 0.000000 0.009782 0.000000 -0.031327
# 5 0.002166 -0.001232 -0.002017 0.000000 0.040386 0.000000
# 6 0.000000 0.000000 0.000000 -0.031327 0.000000 0.003503
#
#
# Mechanical properties :
#
#
# Convention : Reuss Voigt Hill
#
# Bulk Modulus (GPa) = 26.62625 48.44553 37.53589
# Shear Modulus (GPa) = 31.27721 13.64945 22.46333
#
# Velocity S-wave (km/s) = 3.97291 2.62453 3.36691
# Velocity P-wave (km/s) = 5.87216 5.79933 5.83586
#
# Compressibility (1/GPa) = 0.03755692
#
# Stress axis : x y z
#
# Youngs Moduli (GPa) = 73.92352 98.67306 23.83685
#
# Poissons Ratio (x) = 0.47646 0.18839
# Poissons Ratio (y) = 0.35695 0.03091
# Poissons Ratio (z) = 0.58423 0.12794
#
# Static dielectric constant tensor:
#      x y z
#    x 1.759410 0.000000 0.022570 
#    y 0.000000 1.700100 0.000000 
#    z 0.022570 0.000000 1.765590 
# 
# From -- ./inp_files/84120.got.cif
#   From: 2010.05.17/outbox.cif.g08.bks.cpg/sg12_43_cif.got.tgz:84120.got - 2010.06.03 13:09:07.
