data_PCOD9177621
_publ_section_title
;
Structure prediction by ZEFSAII (Michael W. Deem and Ramdas Pophale) SiO2 
 PCOD9177621
Probable space group: C 2/M
;
_chemical_formula_sum "Si O2"
_cell_formula_units_Z 48
_cell_length_a 24.534655
_cell_length_b 9.500380
_cell_length_c 14.254300
_cell_angle_alpha 90.000000
_cell_angle_beta 70.535711
_cell_angle_gamma 90.000000
_cell_volume 3132.630256
_symmetry_space_group_name_H-M "C 2/M"
_symmetry_group_IT_number 12
_symmetry_cell_setting 'monoclinic'
loop_
_space_group_symop_operation_xyz
x,y,z
-x,y,-z
-x,-y,-z
x,-y,z
1/2+x,1/2+y,z
1/2-x,1/2+y,-z
1/2-x,1/2-y,-z
1/2+x,1/2-y,z
loop_
_atom_site_type_symbol
_atom_site_label
_atom_site_fract_x
_atom_site_fract_y
_atom_site_fract_z
Si Si1 0.123813 0.335489 0.854905
Si Si2 0.210972 0.333453 0.650180
Si Si3 0.014225 0.664914 0.778847
Si Si4 0.444371 0.661848 0.961805
Si Si5 0.835654 0.833327 0.502344
Si Si6 0.050096 0.332827 0.546777
O O1 0.124642 0.500000 0.881503
O O2 0.182566 0.299328 0.766414
O O3 0.073009 0.319487 0.805958
O O4 0.105985 0.241107 0.952922
O O5 0.198430 0.500000 0.639425
O O6 0.181555 0.240488 0.586107
O O7 0.279611 0.313993 0.600860
O O8 0.998270 0.500000 0.791887
O O9 0.027530 0.703074 0.664140
O O10 0.965598 0.757125 0.857314
O O11 0.430285 0.500000 0.951185
O O12 0.500000 0.665301 0.000000
O O13 0.892903 0.757285 0.505682
O O14 0.844605 0.000000 0.484162
O O15 0.064180 0.500000 0.538979
O O16 0.000000 0.308667 0.500000
#
# Coordination Sequence:
#
# PCOD9177621 Si02
#       6
#     8   8   8   8   8   8
#     4   9  15  26  44  63  87 119 151 179 214 270
#     4   9  17  30  46  66  93 125 154 182 224 277
#     4   9  16  28  44  61  84 118 154 184 218 265
#     4   9  17  26  38  61  91 116 142 180 226 272
#     4  10  19  29  45  68  94 121 152 191 231 269
#     4  10  20  34  50  66  89 124 162 194 224 266
#
# _framework density 15.322588
#
# number of rings (size 3 to 8) (size 9 to 14) (size 15 to 20)
#    0.000    2.667    1.667    1.000    0.000    4.333 
#    0.000    0.000    0.000    0.000    0.000    1.167 
#    0.000    0.000    0.000    0.000    0.000    0.000 
#
# Total GULP energy -133718.928462 kJ/mol
# GULP energy per Si atom -5571.622019 kJ/mol
# Density = 1.528771 g / cm^3
# Si number density = 15.322588 Si / 1000 Ang^3
#
#
#
# Elastic Constant Matrix: (Units=GPa)
#
#
# Indices 1 2 3 4 5 6 
#
# 1 63.6933 48.1747 38.7785 0.0000 -16.4566 0.0000
# 2 48.1747 76.3049 60.8948 0.0000 -23.1317 0.0000
# 3 38.7785 60.8948 90.6176 0.0000 -30.8041 0.0000
# 4 0.0000 0.0000 0.0000 20.2802 0.0000 -7.1721
# 5 -16.4566 -23.1317 -30.8041 0.0000 24.2529 0.0000
# 6 0.0000 0.0000 0.0000 -7.1721 0.0000 19.9463
#
#
#
# Elastic Compliance Matrix: (Units=1/GPa)
#
#
# Indices 1 2 3 4 5 6 
#
# 1 0.030257 -0.018644 0.000906 0.000000 0.003900 0.000000
# 2 -0.018644 0.040096 -0.018067 0.000000 0.002644 0.000000
# 3 0.000906 -0.018067 0.030163 0.000000 0.021694 0.000000
# 4 0.000000 0.000000 0.000000 0.056493 0.000000 0.020313
# 5 0.003900 0.002644 0.021694 0.000000 0.073954 0.000000
# 6 0.000000 0.000000 0.000000 0.020313 0.000000 0.057439
#
#
# Mechanical properties :
#
#
# Convention : Reuss Voigt Hill
#
# Bulk Modulus (GPa) = 34.59390 58.47909 46.53650
# Shear Modulus (GPa) = 13.52641 18.41375 15.97008
#
# Velocity S-wave (km/s) = 2.97438 3.47037 3.23190
# Velocity P-wave (km/s) = 5.86702 7.36927 6.66063
#
# Compressibility (1/GPa) = 0.02890683
#
# Stress axis : x y z
#
# Youngs Moduli (GPa) = 33.04971 24.94022 33.15292
#
# Poissons Ratio (x) = 0.46497 -0.03003
# Poissons Ratio (y) = 0.61616 0.59898
# Poissons Ratio (z) = -0.02994 0.45060
#
# Static dielectric constant tensor:
#      x y z
#    x 1.491100 0.000000 -0.023720 
#    y 0.000000 1.512150 0.000000 
#    z -0.023720 0.000000 1.505660 
# 
# From -- ./inp_files/172097.got.cif
#   From: 2010.05.17/outbox.cif.g08.bks.cpg/sg12_87_cif.got.tgz:172097.got - 2010.06.03 13:09:07.
