data_PCOD9177374
_publ_section_title
;
Structure prediction by ZEFSAII (Michael W. Deem and Ramdas Pophale) SiO2 
 PCOD9177374
Probable space group: C 2/M
;
_chemical_formula_sum "Si O2"
_cell_formula_units_Z 36
_cell_length_a 7.952371
_cell_length_b 20.494172
_cell_length_c 11.169356
_cell_angle_alpha 90.000000
_cell_angle_beta 107.132940
_cell_angle_gamma 90.000000
_cell_volume 1739.570783
_symmetry_space_group_name_H-M "C 2/M"
_symmetry_group_IT_number 12
_symmetry_cell_setting 'monoclinic'
loop_
_space_group_symop_operation_xyz
x,y,z
-x,y,-z
-x,-y,-z
x,-y,z
1/2+x,1/2+y,z
1/2-x,1/2+y,-z
1/2-x,1/2-y,-z
1/2+x,1/2-y,z
loop_
_atom_site_type_symbol
_atom_site_label
_atom_site_fract_x
_atom_site_fract_y
_atom_site_fract_z
Si Si1 0.676241 0.702302 0.588187
Si Si2 0.208030 0.072582 0.908536
Si Si3 0.688000 0.426972 0.193726
Si Si4 0.500000 0.176146 0.000000
Si Si5 0.050419 0.309332 0.747867
O O1 0.500000 0.667781 0.500000
O O2 0.750000 0.750000 0.500000
O O3 0.854290 0.668043 0.668953
O O4 0.609926 0.747941 0.682331
O O5 0.348398 0.128358 0.919489
O O6 0.015148 0.086149 0.815540
O O7 0.266098 0.000000 0.881422
O O8 0.190888 0.070203 0.049364
O O9 0.736137 0.500000 0.246493
O O10 0.817046 0.368504 0.251914
O O11 0.559397 0.211023 0.890616
#
# Coordination Sequence:
#
# PCOD9177374 Si02
#       5
#     8   8   8   4   8
#     4   9  20  39  58  71  92 140 194 227 252 304
#     4   8  14  26  44  71 112 154 178 191 237 330
#     4   8  15  29  50  76 108 143 175 212 259 313
#     4  10  19  28  48  84 118 138 161 218 282 322
#     4  10  20  34  55  81 108 138 177 222 269 318
#
# _framework density 20.694759999999999
#
# number of rings (size 3 to 8) (size 9 to 14) (size 15 to 20)
#    0.000    3.111    0.000    1.667    0.000    5.333 
#    0.000    2.222    0.000    6.667    0.000    0.000 
#    0.000    0.000    0.000    0.000    0.000    0.222 
#
# Total GULP energy -100300.378967 kJ/mol
# GULP energy per Si atom -5572.243276 kJ/mol
# Density = 2.064766 g / cm^3
# Si number density = 20.694760 Si / 1000 Ang^3
#
#
#
# Elastic Constant Matrix: (Units=GPa)
#
#
# Indices 1 2 3 4 5 6 
#
# 1 73.4910 26.3253 29.9155 0.0000 18.4955 0.0000
# 2 26.3253 41.2091 25.1578 0.0000 13.9773 0.0000
# 3 29.9155 25.1578 72.4382 0.0000 0.8555 0.0000
# 4 0.0000 0.0000 0.0000 8.1935 0.0000 11.3609
# 5 18.4955 13.9773 0.8555 0.0000 47.8131 0.0000
# 6 0.0000 0.0000 0.0000 11.3609 0.0000 12.6403
#
#
#
# Elastic Compliance Matrix: (Units=1/GPa)
#
#
# Indices 1 2 3 4 5 6 
#
# 1 0.019917 -0.007493 -0.005559 0.000000 -0.005414 0.000000
# 2 -0.007493 0.037837 -0.009952 0.000000 -0.007984 0.000000
# 3 -0.005559 -0.009952 0.019501 0.000000 0.004711 0.000000
# 4 0.000000 0.000000 0.000000 -0.495679 0.000000 0.445508
# 5 -0.005414 -0.007984 0.004711 0.000000 0.025259 0.000000
# 6 0.000000 0.000000 0.000000 0.445508 0.000000 -0.321304
#
#
# Mechanical properties :
#
#
# Convention : Reuss Voigt Hill
#
# Bulk Modulus (GPa) = 32.00312 38.88172 35.44242
# Shear Modulus (GPa) = -7.59826 20.77870 6.59022
#
# Velocity S-wave (km/s) = -1.91822 3.17212 1.78645
# Velocity P-wave (km/s) = 3.25451 5.67851 4.62803
#
# Compressibility (1/GPa) = 0.03124696
#
# Stress axis : x y z
#
# Youngs Moduli (GPa) = 50.20920 26.42918 51.27866
#
# Poissons Ratio (x) = 0.19804 0.28505
# Poissons Ratio (y) = 0.37622 0.51033
# Poissons Ratio (z) = 0.27911 0.26302
#
# Static dielectric constant tensor:
#      x y z
#    x 1.812610 0.000000 0.012760 
#    y 0.000000 1.774400 0.000000 
#    z 0.012760 0.000000 1.764200 
# 
# From -- ./inp_files/119236.got.cif
#   From: 2010.05.17/outbox.cif.g08.bks.cpg/sg12_60_cif.got.tgz:119236.got - 2010.06.03 13:09:07.
