data_PCOD9177328
_publ_section_title
;
Structure prediction by ZEFSAII (Michael W. Deem and Ramdas Pophale) SiO2 
 PCOD9177328
Probable space group: C 2/M
;
_chemical_formula_sum "Si O2"
_cell_formula_units_Z 48
_cell_length_a 23.512881
_cell_length_b 8.522307
_cell_length_c 18.041929
_cell_angle_alpha 90.000000
_cell_angle_beta 50.163698
_cell_angle_gamma 90.000000
_cell_volume 2776.119160
_symmetry_space_group_name_H-M "C 2/M"
_symmetry_group_IT_number 12
_symmetry_cell_setting 'monoclinic'
loop_
_space_group_symop_operation_xyz
x,y,z
-x,y,-z
-x,-y,-z
x,-y,z
1/2+x,1/2+y,z
1/2-x,1/2+y,-z
1/2-x,1/2-y,-z
1/2+x,1/2-y,z
loop_
_atom_site_type_symbol
_atom_site_label
_atom_site_fract_x
_atom_site_fract_y
_atom_site_fract_z
Si Si1 0.980392 0.813634 0.903472
Si Si2 0.615939 0.189132 0.888078
Si Si3 0.215798 0.677613 0.100965
Si Si4 0.539402 0.176929 0.240890
Si Si5 0.055788 0.810138 0.388314
Si Si6 0.222616 0.817755 0.250802
O O1 0.051867 0.745243 0.886176
O O2 0.983316 0.765978 0.814908
O O3 0.979458 0.000000 0.911202
O O4 0.909684 0.748227 0.008937
O O5 0.696916 0.246614 0.792617
O O6 0.617384 0.000000 0.889452
O O7 0.242901 0.500000 0.094372
O O8 0.128196 0.668435 0.162692
O O9 0.229078 0.795226 0.157249
O O10 0.250000 0.750000 0.000000
O O11 0.527216 0.253199 0.331884
O O12 0.508988 0.000000 0.264883
O O13 0.140103 0.751091 0.334997
O O14 0.000000 0.763647 0.500000
O O15 0.059543 0.000000 0.382321
O O16 0.220402 0.000000 0.274605
#
# Coordination Sequence:
#
# PCOD9177328 Si02
#       6
#     8   8   8   8   8   8
#     4  11  21  32  48  71  99 132 169 203 237 278
#     4  10  19  32  49  70 100 135 167 197 233 281
#     4  10  19  28  42  65  94 126 156 191 233 280
#     4  10  20  33  48  69  97 128 162 198 240 288
#     4   9  18  34  55  77  99 123 155 199 249 295
#     4   9  18  31  48  70  95 125 158 192 235 287
#
# _framework density 17.290323000000001
#
# number of rings (size 3 to 8) (size 9 to 14) (size 15 to 20)
#    0.000    2.167    0.000    5.000    0.000    7.667 
#    0.000    0.000    0.000    1.000    0.000    0.000 
#    0.000    0.000    0.000    0.000    0.000    0.000 
#
# Total GULP energy -133662.354829 kJ/mol
# GULP energy per Si atom -5569.264785 kJ/mol
# Density = 1.725097 g / cm^3
# Si number density = 17.290323 Si / 1000 Ang^3
#
#
#
# Elastic Constant Matrix: (Units=GPa)
#
#
# Indices 1 2 3 4 5 6 
#
# 1 72.4187 14.1825 45.6859 0.0001 -4.6207 0.0001
# 2 14.1825 52.5888 23.8522 -0.0001 2.2930 0.0010
# 3 45.6859 23.8522 124.9406 0.0001 -0.2488 0.0000
# 4 0.0001 -0.0001 0.0001 15.3319 -0.0001 10.9128
# 5 -4.6207 2.2930 -0.2488 -0.0001 25.2702 -0.0001
# 6 0.0001 0.0010 0.0000 10.9128 -0.0001 13.3051
#
#
#
# Elastic Compliance Matrix: (Units=1/GPa)
#
#
# Indices 1 2 3 4 5 6 
#
# 1 0.018458 -0.002270 -0.006309 0.000000 0.003519 0.000000
# 2 -0.002270 0.021192 -0.003220 0.000003 -0.002370 -0.000004
# 3 -0.006309 -0.003220 0.010924 -0.000001 -0.000754 0.000001
# 4 0.000000 0.000003 -0.000001 0.156707 0.000000 -0.128530
# 5 0.003519 -0.002370 -0.000754 0.000000 0.040423 0.000001
# 6 0.000000 -0.000004 0.000001 -0.128530 0.000001 0.180578
#
#
# Mechanical properties :
#
#
# Convention : Reuss Voigt Hill
#
# Bulk Modulus (GPa) = 37.07124 46.37659 41.72392
# Shear Modulus (GPa) = 10.84902 21.86329 16.35615
#
# Velocity S-wave (km/s) = 2.50764 3.55981 3.07900
# Velocity P-wave (km/s) = 5.46547 6.61641 6.06829
#
# Compressibility (1/GPa) = 0.02697509
#
# Stress axis : x y z
#
# Youngs Moduli (GPa) = 54.17814 47.18863 91.54138
#
# Poissons Ratio (x) = 0.10711 0.57753
# Poissons Ratio (y) = 0.12297 0.29480
# Poissons Ratio (z) = 0.34180 0.15197
#
# Static dielectric constant tensor:
#      x y z
#    x 1.606800 0.000000 -0.051160 
#    y 0.000000 1.623780 0.000000 
#    z -0.051160 0.000000 1.553680 
# 
# From -- ./inp_files/280795.got.cif
#   From: 2010.05.17/outbox.cif.g08.bks.cpg/sg12_141_cif.got.tgz:280795.got - 2010.06.03 13:09:07.
