data_PCOD9177994
_publ_section_title
;
Structure prediction by ZEFSAII (Michael W. Deem and Ramdas Pophale) SiO2 
 PCOD9177994
Probable space group: C 2/M
;
_chemical_formula_sum "Si O2"
_cell_formula_units_Z 44
_cell_length_a 5.182719
_cell_length_b 25.414759
_cell_length_c 18.950297
_cell_angle_alpha 90.000000
_cell_angle_beta 64.317533
_cell_angle_gamma 90.000000
_cell_volume 2249.497570
_symmetry_space_group_name_H-M "C 2/M"
_symmetry_group_IT_number 12
_symmetry_cell_setting 'monoclinic'
loop_
_space_group_symop_operation_xyz
x,y,z
-x,y,-z
-x,-y,-z
x,-y,z
1/2+x,1/2+y,z
1/2-x,1/2+y,-z
1/2-x,1/2-y,-z
1/2+x,1/2-y,z
loop_
_atom_site_type_symbol
_atom_site_label
_atom_site_fract_x
_atom_site_fract_y
_atom_site_fract_z
Si Si1 0.271440 0.212288 0.326231
Si Si2 0.381053 0.273315 0.913294
Si Si3 0.841178 0.109412 0.885882
Si Si4 0.495016 0.111388 0.217175
Si Si5 0.379572 0.000000 0.214319
Si Si6 0.547452 0.500000 0.107404
Si Si7 0.000000 0.786698 0.500000
O O1 0.530760 0.250974 0.318340
O O2 0.372963 0.163472 0.267129
O O3 0.134934 0.187321 0.414456
O O4 0.703671 0.253469 0.872081
O O5 0.337780 0.335061 0.924589
O O6 0.250000 0.250000 0.000000
O O7 0.599193 0.111638 0.854327
O O8 0.830747 0.055920 0.932709
O O9 0.162155 0.108908 0.814654
O O10 0.366522 0.055085 0.257081
O O11 0.149879 0.000000 0.177874
O O12 0.703626 0.000000 0.142775
O O13 0.750000 0.750000 0.500000
#
# Coordination Sequence:
#
# PCOD9177994 Si02
#       7
#     8   8   8   8   4   4   4
#     4  10  19  30  45  68  96 124 158 193 232 275
#     4  10  21  35  50  67  94 127 153 179 224 286
#     4  10  19  32  50  71  94 121 152 191 235 273
#     4  10  19  30  48  72  97 121 152 194 234 278
#     4   8  16  30  44  65  95 124 148 182 237 278
#     4   8  16  30  48  68  89 117 154 188 225 274
#     4   8  16  30  44  59  88 129 160 188 224 270
#
# _framework density 19.559922
#
# number of rings (size 3 to 8) (size 9 to 14) (size 15 to 20)
#    0.000    2.545    0.000    2.182    0.000    4.364 
#    0.000    0.000    0.000    4.909    0.000    0.000 
#    0.000   17.455    0.000    0.000    0.000    2.909 
#
# Total GULP energy -122616.157848 kJ/mol
# GULP energy per Si atom -5573.461720 kJ/mol
# Density = 1.951540 g / cm^3
# Si number density = 19.559922 Si / 1000 Ang^3
#
#
#
# Elastic Constant Matrix: (Units=GPa)
#
#
# Indices 1 2 3 4 5 6 
#
# 1 137.7499 14.7407 5.2281 0.0000 8.1213 0.0000
# 2 14.7407 182.1776 29.2294 0.0000 2.0491 0.0000
# 3 5.2281 29.2294 37.2866 0.0000 -3.8879 0.0000
# 4 0.0000 0.0000 0.0000 85.1550 0.0000 14.6712
# 5 8.1213 2.0491 -3.8879 0.0000 13.1257 0.0000
# 6 0.0000 0.0000 0.0000 14.6712 0.0000 28.9633
#
#
#
# Elastic Compliance Matrix: (Units=1/GPa)
#
#
# Indices 1 2 3 4 5 6 
#
# 1 0.007646 -0.000349 -0.001327 0.000000 -0.005070 0.000000
# 2 -0.000349 0.006376 -0.005191 0.000000 -0.002317 0.000000
# 3 -0.001327 -0.005191 0.032241 0.000000 0.011182 0.000000
# 4 0.000000 0.000000 0.000000 0.012866 0.000000 -0.006517
# 5 -0.005070 -0.002317 0.011182 0.000000 0.082997 0.000000
# 6 0.000000 0.000000 0.000000 -0.006517 0.000000 0.037828
#
#
# Mechanical properties :
#
#
# Convention : Reuss Voigt Hill
#
# Bulk Modulus (GPa) = 30.74213 50.62341 40.68277
# Shear Modulus (GPa) = 24.44613 45.98319 35.21466
#
# Velocity S-wave (km/s) = 3.53910 4.85386 4.24765
# Velocity P-wave (km/s) = 5.69660 7.57302 6.70082
#
# Compressibility (1/GPa) = 0.03252865
#
# Stress axis : x y z
#
# Youngs Moduli (GPa) = 130.78545 156.83000 31.01663
#
# Poissons Ratio (x) = 0.05468 0.04117
# Poissons Ratio (y) = 0.04560 0.16101
# Poissons Ratio (z) = 0.17360 0.81414
#
# Static dielectric constant tensor:
#      x y z
#    x 0.791870 0.000000 1.071970 
#    y 0.000000 1.751770 0.000000 
#    z 1.071970 0.000000 0.405080 
# 
# From -- ./inp_files/253128.got.cif
#   From: 2010.05.17/outbox.cif.g08.bks.cpg/sg12_127_cif.got.tgz:253128.got - 2010.06.03 13:09:07.
