data_PCOD9177054
_publ_section_title
;
Structure prediction by ZEFSAII (Michael W. Deem and Ramdas Pophale) SiO2 
 PCOD9177054
Probable space group: C 2/M
;
_chemical_formula_sum "Si O2"
_cell_formula_units_Z 56
_cell_length_a 8.621688
_cell_length_b 32.076070
_cell_length_c 11.918928
_cell_angle_alpha 90.000000
_cell_angle_beta 124.458743
_cell_angle_gamma 90.000000
_cell_volume 2717.810231
_symmetry_space_group_name_H-M "C 2/M"
_symmetry_group_IT_number 12
_symmetry_cell_setting 'monoclinic'
loop_
_space_group_symop_operation_xyz
x,y,z
-x,y,-z
-x,-y,-z
x,-y,z
1/2+x,1/2+y,z
1/2-x,1/2+y,-z
1/2-x,1/2-y,-z
1/2+x,1/2-y,z
loop_
_atom_site_type_symbol
_atom_site_label
_atom_site_fract_x
_atom_site_fract_y
_atom_site_fract_z
Si Si1 0.389256 0.278893 0.213307
Si Si2 0.720370 0.305808 0.053783
Si Si3 0.183648 0.050695 0.642392
Si Si4 0.717906 0.605618 0.111115
Si Si5 0.699930 0.233625 0.601766
Si Si6 0.055645 0.548880 0.652488
Si Si7 0.221451 0.546529 0.072899
O O1 0.278322 0.308306 0.081717
O O2 0.333107 0.270558 0.319690
O O3 0.609275 0.290085 0.288655
O O4 0.346454 0.232950 0.144377
O O5 0.500000 0.297792 0.000000
O O6 0.799914 0.348039 0.139326
O O7 0.375430 0.060917 0.655069
O O8 0.191278 0.063503 0.775511
O O9 0.000000 0.065297 0.500000
O O10 0.177738 0.000000 0.642561
O O11 0.776623 0.579413 0.243612
O O12 0.500000 0.613309 0.000000
O O13 0.766643 0.576496 0.026788
O O14 0.500000 0.211207 0.500000
O O15 0.750000 0.250000 0.500000
O O16 0.101183 0.500000 0.693838
O O17 0.000000 0.552148 0.500000
O O18 0.300998 0.500000 0.082278
O O19 0.000000 0.541690 0.000000
#
# Coordination Sequence:
#
# PCOD9177054 Si02
#       7
#     8   8   8   8   8   8   8
#     4  10  18  37  61  85 114 149 199 238 294 352
#     4  10  21  37  60  83 115 154 189 251 295 349
#     4   9  18  33  56  81 108 147 191 235 288 344
#     4  11  24  39  57  86 122 156 201 246 301 357
#     4   9  18  32  58  90 117 146 189 241 288 351
#     4  10  21  38  59  86 119 156 200 245 296 364
#     4  10  19  36  59  82 113 150 191 245 296 344
#
# _framework density 20.604824000000001
#
# number of rings (size 3 to 8) (size 9 to 14) (size 15 to 20)
#    0.000    2.143    2.857    0.429    2.000    1.143 
#    2.571    2.143    0.000    3.429    0.000    0.000 
#    0.000    0.000    0.000    0.000    0.000    0.000 
#
# Total GULP energy -155978.778970 kJ/mol
# GULP energy per Si atom -5570.670677 kJ/mol
# Density = 2.055793 g / cm^3
# Si number density = 20.604824 Si / 1000 Ang^3
#
#
#
# Elastic Constant Matrix: (Units=GPa)
#
#
# Indices 1 2 3 4 5 6 
#
# 1 33.8021 -3.8277 5.2094 0.0000 -4.8939 0.0000
# 2 -3.8277 56.8523 19.2733 0.0000 3.9660 0.0000
# 3 5.2094 19.2733 116.9720 0.0000 -2.7688 0.0000
# 4 0.0000 0.0000 0.0000 12.7653 0.0000 4.7390
# 5 -4.8939 3.9660 -2.7688 0.0000 35.5649 0.0000
# 6 0.0000 0.0000 0.0000 4.7390 0.0000 2.2185
#
#
#
# Elastic Compliance Matrix: (Units=1/GPa)
#
#
# Indices 1 2 3 4 5 6 
#
# 1 0.030662 0.002362 -0.001664 0.000000 0.003826 0.000000
# 2 0.002362 0.019005 -0.003285 0.000000 -0.002050 0.000000
# 3 -0.001664 -0.003285 0.009185 0.000000 0.000852 0.000000
# 4 0.000000 0.000000 0.000000 0.378448 0.000000 -0.808404
# 5 0.003826 -0.002050 0.000852 0.000000 0.028939 0.000000
# 6 0.000000 0.000000 0.000000 -0.808404 0.000000 2.177583
#
#
# Mechanical properties :
#
#
# Convention : Reuss Voigt Hill
#
# Bulk Modulus (GPa) = 18.63019 27.65961 23.14490
# Shear Modulus (GPa) = 1.87484 22.57451 12.22467
#
# Velocity S-wave (km/s) = 0.95492 3.31357 2.43840
# Velocity P-wave (km/s) = 3.20580 5.30025 4.38005
#
# Compressibility (1/GPa) = 0.05367632
#
# Stress axis : x y z
#
# Youngs Moduli (GPa) = 32.61384 52.61738 108.87754
#
# Poissons Ratio (x) = -0.12426 0.18118
# Poissons Ratio (y) = -0.07702 0.35768
# Poissons Ratio (z) = 0.05427 0.17286
#
# Static dielectric constant tensor:
#      x y z
#    x 1.783440 0.000000 0.011070 
#    y 0.000000 1.740150 0.000000 
#    z 0.011070 0.000000 1.807580 
# 
# From -- ./inp_files/125847.got.cif
#   From: 2010.05.17/outbox.cif.g08.bks.cpg/sg12_63_cif.got.tgz:125847.got - 2010.06.03 13:09:07.
