data_PCOD9177964
_publ_section_title
;
Structure prediction by ZEFSAII (Michael W. Deem and Ramdas Pophale) SiO2 
 PCOD9177964
Probable space group: C 2/M
;
_chemical_formula_sum "Si O2"
_cell_formula_units_Z 48
_cell_length_a 30.541953
_cell_length_b 9.460112
_cell_length_c 12.048834
_cell_angle_alpha 90.000000
_cell_angle_beta 60.253381
_cell_angle_gamma 90.000000
_cell_volume 3022.539175
_symmetry_space_group_name_H-M "C 2/M"
_symmetry_group_IT_number 12
_symmetry_cell_setting 'monoclinic'
loop_
_space_group_symop_operation_xyz
x,y,z
-x,y,-z
-x,-y,-z
x,-y,z
1/2+x,1/2+y,z
1/2-x,1/2+y,-z
1/2-x,1/2-y,-z
1/2+x,1/2-y,z
loop_
_atom_site_type_symbol
_atom_site_label
_atom_site_fract_x
_atom_site_fract_y
_atom_site_fract_z
Si Si1 0.372437 0.335777 0.869555
Si Si2 0.199607 0.330738 0.602341
Si Si3 0.175115 0.666312 0.883797
Si Si4 0.940767 0.169664 0.578212
Si Si5 0.360847 0.832455 0.538523
Si Si6 0.290055 0.662360 0.786423
O O1 0.380670 0.500000 0.885885
O O2 0.415761 0.289944 0.728189
O O3 0.321218 0.325388 0.860630
O O4 0.364559 0.248069 0.990629
O O5 0.210240 0.500000 0.592105
O O6 0.250000 0.250000 0.500000
O O7 0.181997 0.287304 0.747491
O O8 0.155793 0.306969 0.567032
O O9 0.163215 0.500000 0.898716
O O10 0.230656 0.684262 0.867846
O O11 0.909601 0.250214 0.522417
O O12 0.000000 0.199176 0.500000
O O13 0.933150 0.000000 0.575876
O O14 0.315016 0.771074 0.669973
O O15 0.366477 0.000000 0.548596
O O16 0.297871 0.500000 0.736108
#
# Coordination Sequence:
#
# PCOD9177964 Si02
#       6
#     8   8   8   8   8   8
#     4   9  18  30  46  71  96 120 158 203 246 291
#     4  10  20  32  47  69 100 137 172 201 231 278
#     4  10  19  30  45  66  98 137 167 194 235 284
#     4   9  19  37  58  75  94 123 158 202 255 303
#     4  10  19  30  48  76 102 125 162 208 244 281
#     4   9  17  30  46  65  96 135 167 196 234 286
#
# _framework density 15.880687999999999
#
# number of rings (size 3 to 8) (size 9 to 14) (size 15 to 20)
#    0.000    2.500    1.667    2.000    0.000    5.000 
#    0.000    0.000    0.000    1.000    0.000    7.000 
#    0.000    0.000    0.000    0.000    0.000    0.000 
#
# Total GULP energy -133731.455799 kJ/mol
# GULP energy per Si atom -5572.143992 kJ/mol
# Density = 1.584454 g / cm^3
# Si number density = 15.880688 Si / 1000 Ang^3
#
#
#
# Elastic Constant Matrix: (Units=GPa)
#
#
# Indices 1 2 3 4 5 6 
#
# 1 74.8675 43.8585 57.8527 0.0000 -8.2843 0.0000
# 2 43.8585 47.6425 57.5279 0.0000 -1.1982 0.0000
# 3 57.8527 57.5279 127.1106 0.0000 2.4097 0.0000
# 4 0.0000 0.0000 0.0000 27.7545 0.0000 -0.7247
# 5 -8.2843 -1.1982 2.4097 0.0000 9.8465 0.0000
# 6 0.0000 0.0000 0.0000 -0.7247 0.0000 16.7793
#
#
#
# Elastic Compliance Matrix: (Units=1/GPa)
#
#
# Indices 1 2 3 4 5 6 
#
# 1 0.035488 -0.026079 -0.004878 0.000000 0.027878 0.000000
# 2 -0.026079 0.066620 -0.018104 0.000000 -0.009404 0.000000
# 3 -0.004878 -0.018104 0.018486 0.000000 -0.010831 0.000000
# 4 0.000000 0.000000 0.000000 0.036071 0.000000 0.001558
# 5 0.027878 -0.009404 -0.010831 0.000000 0.126521 0.000000
# 6 0.000000 0.000000 0.000000 0.001558 0.000000 0.059665
#
#
# Mechanical properties :
#
#
# Convention : Reuss Voigt Hill
#
# Bulk Modulus (GPa) = 44.49465 63.12209 53.80837
# Shear Modulus (GPa) = 11.14921 16.90148 14.02534
#
# Velocity S-wave (km/s) = 2.65252 3.26587 2.97504
# Velocity P-wave (km/s) = 6.12046 7.35222 6.76444
#
# Compressibility (1/GPa) = 0.02247461
#
# Stress axis : x y z
#
# Youngs Moduli (GPa) = 28.17834 15.01044 54.09521
#
# Poissons Ratio (x) = 0.39145 0.26387
# Poissons Ratio (y) = 0.73485 0.97932
# Poissons Ratio (z) = 0.13745 0.27174
#
# Static dielectric constant tensor:
#      x y z
#    x 1.524400 0.000000 0.013050 
#    y 0.000000 1.537600 0.000000 
#    z 0.013050 0.000000 1.531150 
# 
# From -- ./inp_files/179189.got.cif
#   From: 2010.05.17/outbox.cif.g08.bks.cpg/sg12_90_cif.got.tgz:179189.got - 2010.06.03 13:09:07.
