data_PCOD9177152
_publ_section_title
;
Structure prediction by ZEFSAII (Michael W. Deem and Ramdas Pophale) SiO2 
 PCOD9177152
Probable space group: C 2/M
;
_chemical_formula_sum "Si O2"
_cell_formula_units_Z 46
_cell_length_a 22.020935
_cell_length_b 21.796657
_cell_length_c 6.920078
_cell_angle_alpha 90.000000
_cell_angle_beta 40.621185
_cell_angle_gamma 90.000000
_cell_volume 2162.490730
_symmetry_space_group_name_H-M "C 2/M"
_symmetry_group_IT_number 12
_symmetry_cell_setting 'monoclinic'
loop_
_space_group_symop_operation_xyz
x,y,z
-x,y,-z
-x,-y,-z
x,-y,z
1/2+x,1/2+y,z
1/2-x,1/2+y,-z
1/2-x,1/2-y,-z
1/2+x,1/2-y,z
loop_
_atom_site_type_symbol
_atom_site_label
_atom_site_fract_x
_atom_site_fract_y
_atom_site_fract_z
Si Si1 0.425114 0.623524 0.546765
Si Si2 0.156389 0.167364 0.643532
Si Si3 0.369669 0.795672 0.127259
Si Si4 0.000000 0.356135 0.500000
Si Si5 0.087874 0.400332 0.670224
Si Si6 0.799061 0.069240 0.155894
Si Si7 0.000000 0.000000 0.500000
O O1 0.500000 0.658085 0.500000
O O2 0.402092 0.656162 0.405903
O O3 0.470200 0.555909 0.419180
O O4 0.331416 0.609578 0.895484
O O5 0.262544 0.187526 0.339548
O O6 0.119183 0.224449 0.855414
O O7 0.162398 0.105124 0.752509
O O8 0.394847 0.835346 0.259173
O O9 0.432000 0.817205 0.799430
O O10 0.058650 0.393883 0.517778
O O11 0.187711 0.432702 0.441951
O O12 0.000000 0.427762 0.000000
O O13 0.839095 0.000000 0.031815
#
# Coordination Sequence:
#
# PCOD9177152 Si02
#       7
#     8   8   8   4   8   8   2
#     4  10  21  41  57  85 122 159 206 251 295 355
#     4  10  22  39  63  87 123 160 204 252 309 357
#     4   9  20  40  60  92 121 156 201 251 305 375
#     4  10  18  38  64  84 123 155 188 252 312 356
#     4   9  20  38  59  91 124 154 199 248 306 371
#     4  11  22  38  62  87 119 164 206 250 302 356
#     4   8  20  40  56  80 126 150 210 256 276 360
#
# _framework density 21.271768000000002
#
# number of rings (size 3 to 8) (size 9 to 14) (size 15 to 20)
#    0.522    1.739    0.870    1.043    1.217    2.435 
#   12.522    7.391    0.000    0.000    0.000    0.000 
#    0.000    0.000    0.000    0.000    0.000    0.000 
#
# Total GULP energy -128182.538821 kJ/mol
# GULP energy per Si atom -5573.153862 kJ/mol
# Density = 2.122335 g / cm^3
# Si number density = 21.271768 Si / 1000 Ang^3
#
#
#
# Elastic Constant Matrix: (Units=GPa)
#
#
# Indices 1 2 3 4 5 6 
#
# 1 131.5334 44.1863 20.6997 0.0000 26.1644 0.0000
# 2 44.1863 77.2863 18.1381 0.0000 15.0964 0.0000
# 3 20.6997 18.1381 74.6057 0.0000 7.8154 0.0000
# 4 0.0000 0.0000 0.0000 11.4505 0.0000 -4.2759
# 5 26.1644 15.0964 7.8154 0.0000 36.9202 0.0000
# 6 0.0000 0.0000 0.0000 -4.2759 0.0000 6.3951
#
#
#
# Elastic Compliance Matrix: (Units=1/GPa)
#
#
# Indices 1 2 3 4 5 6 
#
# 1 0.010387 -0.004637 -0.001209 0.000000 -0.005209 0.000000
# 2 -0.004637 0.016765 -0.002470 0.000000 -0.003046 0.000000
# 3 -0.001209 -0.002470 0.014465 0.000000 -0.001195 0.000000
# 4 0.000000 0.000000 0.000000 0.116394 0.000000 0.077824
# 5 -0.005209 -0.003046 -0.001195 0.000000 0.032275 0.000000
# 6 0.000000 0.000000 0.000000 0.077824 0.000000 0.208406
#
#
# Mechanical properties :
#
#
# Convention : Reuss Voigt Hill
#
# Bulk Modulus (GPa) = 40.02539 49.94151 44.98345
# Shear Modulus (GPa) = 11.80214 24.31324 18.05769
#
# Velocity S-wave (km/s) = 2.35803 3.38447 2.91676
# Velocity P-wave (km/s) = 5.12550 6.22910 5.70405
#
# Compressibility (1/GPa) = 0.02498414
#
# Stress axis : x y z
#
# Youngs Moduli (GPa) = 96.27615 59.64893 69.13258
#
# Poissons Ratio (x) = 0.27660 0.08357
# Poissons Ratio (y) = 0.44645 0.17077
# Poissons Ratio (z) = 0.11638 0.14734
#
# Static dielectric constant tensor:
#      x y z
#    x 1.753430 0.000000 -0.004070 
#    y 0.000000 1.803680 0.000000 
#    z -0.004070 0.000000 1.692510 
# 
# From -- ./inp_files/21801.got.cif
#   From: 2010.05.17/outbox.cif.g08.bks.cpg/sg12_11_cif.got.tgz:21801.got - 2010.06.03 13:09:07.
