data_PCOD9177298
_publ_section_title
;
Structure prediction by ZEFSAII (Michael W. Deem and Ramdas Pophale) SiO2 
 PCOD9177298
Probable space group: C 2/M
;
_chemical_formula_sum "Si O2"
_cell_formula_units_Z 64
_cell_length_a 28.278749
_cell_length_b 9.228952
_cell_length_c 20.989869
_cell_angle_alpha 90.000000
_cell_angle_beta 127.956845
_cell_angle_gamma 90.000000
_cell_volume 4319.264701
_symmetry_space_group_name_H-M "C 2/M"
_symmetry_group_IT_number 12
_symmetry_cell_setting 'monoclinic'
loop_
_space_group_symop_operation_xyz
x,y,z
-x,y,-z
-x,-y,-z
x,-y,z
1/2+x,1/2+y,z
1/2-x,1/2+y,-z
1/2-x,1/2-y,-z
1/2+x,1/2-y,z
loop_
_atom_site_type_symbol
_atom_site_label
_atom_site_fract_x
_atom_site_fract_y
_atom_site_fract_z
Si Si1 0.890735 0.671860 0.761114
Si Si2 0.241284 0.827762 0.150722
Si Si3 0.873738 0.827652 0.032828
Si Si4 0.306638 0.827380 0.080101
Si Si5 0.502424 0.672925 0.076714
Si Si6 0.341175 0.332941 0.601189
Si Si7 0.208490 0.332918 0.555846
Si Si8 0.260509 0.171764 0.716614
O O1 0.898087 0.500000 0.758994
O O2 0.945525 0.740872 0.844681
O O3 0.881969 0.749125 0.685757
O O4 0.828922 0.695820 0.749127
O O5 0.295477 0.801079 0.145718
O O6 0.246295 0.738509 0.219229
O O7 0.239328 0.000000 0.163059
O O8 0.179471 0.791930 0.061605
O O9 0.862222 0.740650 0.088439
O O10 0.937956 0.798330 0.055063
O O11 0.868480 0.000000 0.041026
O O12 0.303940 0.000000 0.067970
O O13 0.250000 0.750000 0.000000
O O14 0.514303 0.500000 0.091319
O O15 0.500000 0.710037 0.000000
O O16 0.359340 0.500000 0.608513
O O17 0.274324 0.332952 0.576891
O O18 0.334524 0.250892 0.528712
O O19 0.190790 0.500000 0.549822
O O20 0.218063 0.250855 0.630204
O O21 0.249678 0.000000 0.707300
#
# Coordination Sequence:
#
# PCOD9177298 Si02
#       8
#     8   8   8   8   8   8   8   8
#     4  10  20  31  42  60  86 115 149 184 216 252
#     4   9  17  29  44  62  84 111 142 175 215 262
#     4   9  18  31  46  63  83 110 146 184 219 257
#     4   9  17  29  45  63  83 108 139 176 218 262
#     4  10  20  33  47  62  84 116 151 184 218 255
#     4   9  16  27  43  60  80 109 144 178 212 252
#     4   9  16  26  41  60  83 111 140 173 213 255
#     4  10  19  28  40  61  88 116 145 177 213 255
#
# _framework density 14.817337
#
# number of rings (size 3 to 8) (size 9 to 14) (size 15 to 20)
#    0.000    2.625    0.000    3.375    0.000    8.750 
#    0.000    0.000    0.000    0.000    0.000    0.000 
#    0.000    1.000    0.000   10.500    0.000    6.250 
#
# Total GULP energy -178315.096943 kJ/mol
# GULP energy per Si atom -5572.346779 kJ/mol
# Density = 1.478361 g / cm^3
# Si number density = 14.817337 Si / 1000 Ang^3
#
#
#
# Elastic Constant Matrix: (Units=GPa)
#
#
# Indices 1 2 3 4 5 6 
#
# 1 74.4526 63.8296 55.3863 0.0000 -18.2915 0.0000
# 2 63.8296 98.3425 78.4517 0.0000 -21.6557 0.0000
# 3 55.3863 78.4517 121.6209 0.0000 -22.8306 0.0000
# 4 0.0000 0.0000 0.0000 29.3127 0.0000 -5.0517
# 5 -18.2915 -21.6557 -22.8306 0.0000 20.1785 0.0000
# 6 0.0000 0.0000 0.0000 -5.0517 0.0000 22.8589
#
#
#
# Elastic Compliance Matrix: (Units=1/GPa)
#
#
# Indices 1 2 3 4 5 6 
#
# 1 0.031538 -0.017393 -0.001626 0.000000 0.008083 0.000000
# 2 -0.017393 0.031955 -0.011699 0.000000 0.005292 0.000000
# 3 -0.001626 -0.011699 0.017617 0.000000 0.005904 0.000000
# 4 0.000000 0.000000 0.000000 0.035466 0.000000 0.007838
# 5 0.008083 0.005292 0.005904 0.000000 0.069244 0.000000
# 6 0.000000 0.000000 0.000000 0.007838 0.000000 0.045479
#
#
# Mechanical properties :
#
#
# Convention : Reuss Voigt Hill
#
# Bulk Modulus (GPa) = 50.82416 76.63901 63.73159
# Shear Modulus (GPa) = 16.70611 20.91992 18.81301
#
# Velocity S-wave (km/s) = 3.36143 3.76154 3.56710
# Velocity P-wave (km/s) = 7.03139 8.40835 7.75051
#
# Compressibility (1/GPa) = 0.01967568
#
# Stress axis : x y z
#
# Youngs Moduli (GPa) = 31.70794 31.29367 56.76310
#
# Poissons Ratio (x) = 0.54429 0.09228
# Poissons Ratio (y) = 0.55150 0.66405
# Poissons Ratio (z) = 0.05155 0.36609
#
# Static dielectric constant tensor:
#      x y z
#    x 1.492470 0.000000 -0.006870 
#    y 0.000000 1.495090 0.000000 
#    z -0.006870 0.000000 1.469670 
# 
# From -- ./inp_files/326923.got.cif
#   From: 2010.05.17/outbox.cif.g08.bks.cpg/sg12_164_cif.got.tgz:326923.got - 2010.06.03 13:09:07.
