data_PCOD9177624
_publ_section_title
;
Structure prediction by ZEFSAII (Michael W. Deem and Ramdas Pophale) SiO2 
 PCOD9177624
Probable space group: C 2/M
;
_chemical_formula_sum "Si O2"
_cell_formula_units_Z 48
_cell_length_a 24.883386
_cell_length_b 7.904644
_cell_length_c 21.619450
_cell_angle_alpha 90.000000
_cell_angle_beta 141.137428
_cell_angle_gamma 90.000000
_cell_volume 2668.201974
_symmetry_space_group_name_H-M "C 2/M"
_symmetry_group_IT_number 12
_symmetry_cell_setting 'monoclinic'
loop_
_space_group_symop_operation_xyz
x,y,z
-x,y,-z
-x,-y,-z
x,-y,z
1/2+x,1/2+y,z
1/2-x,1/2+y,-z
1/2-x,1/2-y,-z
1/2+x,1/2-y,z
loop_
_atom_site_type_symbol
_atom_site_label
_atom_site_fract_x
_atom_site_fract_y
_atom_site_fract_z
Si Si1 0.012425 0.196176 0.768550
Si Si2 0.204098 0.293615 0.139503
Si Si3 0.331501 0.206273 0.761078
Si Si4 0.973609 0.295533 0.079029
Si Si5 0.806819 0.794927 0.111205
Si Si6 0.320220 0.198235 0.612576
O O1 0.917299 0.269673 0.676836
O O2 0.034992 0.216420 0.861066
O O3 0.095607 0.268789 0.808540
O O4 0.005320 0.000000 0.745697
O O5 0.208302 0.500000 0.143321
O O6 0.219578 0.236189 0.223858
O O7 0.263687 0.235577 0.136462
O O8 0.106947 0.247176 0.034205
O O9 0.432081 0.247307 0.860506
O O10 0.308875 0.271927 0.672085
O O11 0.325999 0.000000 0.755188
O O12 0.971522 0.500000 0.084382
O O13 0.809432 0.000000 0.114896
O O14 0.750000 0.750000 0.000000
O O15 0.250000 0.250000 0.500000
O O16 0.311482 0.000000 0.612687
#
# Coordination Sequence:
#
# PCOD9177624 Si02
#       6
#     8   8   8   8   8   8
#     4  10  19  30  45  70 101 129 161 196 231 277
#     4   9  15  25  43  67  96 128 161 196 231 270
#     4   8  15  26  44  71  94 116 154 199 241 282
#     4   9  15  25  44  67  93 127 162 195 233 274
#     4  10  19  29  45  68  98 135 168 196 225 267
#     4  10  20  35  56  76  92 116 152 200 252 294
#
# _framework density 17.989642
#
# number of rings (size 3 to 8) (size 9 to 14) (size 15 to 20)
#    0.000    2.667    1.667    2.500    0.000    2.667 
#    0.000    0.000    0.000   15.000    0.000    7.000 
#    0.000    0.000    0.000    0.000    0.000    0.000 
#
# Total GULP energy -133677.893483 kJ/mol
# GULP energy per Si atom -5569.912228 kJ/mol
# Density = 1.794870 g / cm^3
# Si number density = 17.989642 Si / 1000 Ang^3
#
#
#
# Elastic Constant Matrix: (Units=GPa)
#
#
# Indices 1 2 3 4 5 6 
#
# 1 166.2242 7.8926 79.6708 0.0000 -17.6694 0.0000
# 2 7.8926 14.5086 8.5260 0.0000 -1.2275 0.0000
# 3 79.6708 8.5260 119.2505 0.0000 -5.6134 0.0000
# 4 0.0000 0.0000 0.0000 18.6018 0.0000 0.5297
# 5 -17.6694 -1.2275 -5.6134 0.0000 9.7636 0.0000
# 6 0.0000 0.0000 0.0000 0.5297 0.0000 13.6146
#
#
#
# Elastic Compliance Matrix: (Units=1/GPa)
#
#
# Indices 1 2 3 4 5 6 
#
# 1 0.010807 -0.000771 -0.006423 0.000000 0.015768 0.000000
# 2 -0.000771 0.072376 -0.004417 0.000000 0.005165 0.000000
# 3 -0.006423 -0.004417 0.012765 0.000000 -0.004840 0.000000
# 4 0.000000 0.000000 0.000000 0.053818 0.000000 -0.002094
# 5 0.015768 0.005165 -0.004840 0.000000 0.128824 0.000000
# 6 0.000000 0.000000 0.000000 -0.002094 0.000000 0.073532
#
#
# Mechanical properties :
#
#
# Convention : Reuss Voigt Hill
#
# Bulk Modulus (GPa) = 13.74989 54.68466 34.21728
# Shear Modulus (GPa) = 12.51299 21.98894 17.25097
#
# Velocity S-wave (km/s) = 2.64022 3.49995 3.10003
# Velocity P-wave (km/s) = 4.11754 6.84081 5.64583
#
# Compressibility (1/GPa) = 0.07272787
#
# Stress axis : x y z
#
# Youngs Moduli (GPa) = 92.53103 13.81670 78.34066
#
# Poissons Ratio (x) = 0.01065 0.50317
# Poissons Ratio (y) = 0.07130 0.34601
# Poissons Ratio (z) = 0.59432 0.06102
#
# Static dielectric constant tensor:
#      x y z
#    x 1.668390 0.000000 -0.019120 
#    y 0.000000 1.659470 0.000000 
#    z -0.019120 0.000000 1.676240 
# 
# From -- ./inp_files/236618.got.cif
#   From: 2010.05.17/outbox.cif.g08.bks.cpg/sg12_119_cif.got.tgz:236618.got - 2010.06.03 13:09:07.
