data_PCOD9177275
_publ_section_title
;
Structure prediction by ZEFSAII (Michael W. Deem and Ramdas Pophale) SiO2 
 PCOD9177275
Probable space group: C 2/M
;
_chemical_formula_sum "Si O2"
_cell_formula_units_Z 64
_cell_length_a 33.508241
_cell_length_b 8.992433
_cell_length_c 14.414131
_cell_angle_alpha 90.000000
_cell_angle_beta 93.908926
_cell_angle_gamma 90.000000
_cell_volume 4333.170889
_symmetry_space_group_name_H-M "C 2/M"
_symmetry_group_IT_number 12
_symmetry_cell_setting 'monoclinic'
loop_
_space_group_symop_operation_xyz
x,y,z
-x,y,-z
-x,-y,-z
x,-y,z
1/2+x,1/2+y,z
1/2-x,1/2+y,-z
1/2-x,1/2-y,-z
1/2+x,1/2-y,z
loop_
_atom_site_type_symbol
_atom_site_label
_atom_site_fract_x
_atom_site_fract_y
_atom_site_fract_z
Si Si1 0.454458 0.828206 0.032064
Si Si2 0.036904 0.320522 0.573088
Si Si3 0.641510 0.322390 0.304560
Si Si4 0.381745 0.322568 0.486464
Si Si5 0.575435 0.819150 0.164825
Si Si6 0.698506 0.828727 0.577645
Si Si7 0.222498 0.328633 0.362719
Si Si8 0.987714 0.681449 0.224282
O O1 0.459466 0.762681 0.135636
O O2 0.441773 0.000000 0.041252
O O3 0.500000 0.830794 0.000000
O O4 0.428541 0.766359 0.942955
O O5 0.041287 0.500000 0.572400
O O6 0.077433 0.247627 0.543438
O O7 0.026269 0.273651 0.676250
O O8 0.000000 0.282360 0.500000
O O9 0.642322 0.500000 0.295012
O O10 0.624644 0.287153 0.405256
O O11 0.612410 0.248876 0.225149
O O12 0.686310 0.257457 0.308065
O O13 0.382193 0.500000 0.477282
O O14 0.343537 0.255957 0.426639
O O15 0.533653 0.777522 0.209139
O O16 0.577551 0.000000 0.165465
O O17 0.734526 0.749603 0.637626
O O18 0.711448 0.827155 0.470907
O O19 0.694135 0.000000 0.605050
O O20 0.224196 0.500000 0.333539
O O21 0.986884 0.500000 0.220634
#
# Coordination Sequence:
#
# PCOD9177275 Si02
#       8
#     8   8   8   8   8   8   8   8
#     4   7  11  21  39  61  79  98 129 168 208 249
#     4  10  19  29  42  60  82 109 142 178 211 241
#     4  10  19  28  38  56  84 113 138 167 205 245
#     4  10  20  31  41  55  79 112 146 175 203 239
#     4   9  15  25  43  62  79 103 136 171 207 249
#     4   9  16  27  43  60  79 104 135 170 205 240
#     4   9  16  26  41  60  81 106 135 165 199 242
#     4   8  14  25  41  60  81 105 136 174 211 246
#
# _framework density 14.769785000000001
#
# number of rings (size 3 to 8) (size 9 to 14) (size 15 to 20)
#    0.000    3.000    0.000    3.750    0.000    5.750 
#    0.000    0.625    0.000    4.125    0.000    0.000 
#    0.000    1.000    0.000    2.750    0.000    4.000 
#
# Total GULP energy -178142.622518 kJ/mol
# GULP energy per Si atom -5566.956954 kJ/mol
# Density = 1.473617 g / cm^3
# Si number density = 14.769785 Si / 1000 Ang^3
#
#
#
# Elastic Constant Matrix: (Units=GPa)
#
#
# Indices 1 2 3 4 5 6 
#
# 1 125.0794 44.5673 63.4378 0.0000 26.7524 0.0000
# 2 44.5673 40.0396 35.4186 0.0000 12.0497 0.0000
# 3 63.4378 35.4186 96.8231 0.0000 22.2514 0.0000
# 4 0.0000 0.0000 0.0000 9.0565 0.0000 2.2054
# 5 26.7524 12.0497 22.2514 0.0000 22.9484 0.0000
# 6 0.0000 0.0000 0.0000 2.2054 0.0000 25.3825
#
#
#
# Elastic Compliance Matrix: (Units=1/GPa)
#
#
# Indices 1 2 3 4 5 6 
#
# 1 0.016159 -0.011518 -0.004420 0.000000 -0.008505 0.000000
# 2 -0.011518 0.046339 -0.008877 0.000000 -0.002298 0.000000
# 3 -0.004420 -0.008877 0.018292 0.000000 -0.007923 0.000000
# 4 0.000000 0.000000 0.000000 0.112804 0.000000 -0.009801
# 5 -0.008505 -0.002298 -0.007923 0.000000 0.062380 0.000000
# 6 0.000000 0.000000 0.000000 -0.009801 0.000000 0.040249
#
#
# Mechanical properties :
#
#
# Convention : Reuss Voigt Hill
#
# Bulk Modulus (GPa) = 32.09031 60.97660 46.53345
# Shear Modulus (GPa) = 14.03551 19.37870 16.70711
#
# Velocity S-wave (km/s) = 3.08601 3.62615 3.36693
# Velocity P-wave (km/s) = 5.87130 7.67504 6.83295
#
# Compressibility (1/GPa) = 0.03116206
#
# Stress axis : x y z
#
# Youngs Moduli (GPa) = 61.88323 21.57998 54.66877
#
# Poissons Ratio (x) = 0.24855 0.24162
# Poissons Ratio (y) = 0.71275 0.48529
# Poissons Ratio (z) = 0.27351 0.19156
#
# Static dielectric constant tensor:
#      x y z
#    x 1.468080 0.000000 0.013520 
#    y 0.000000 1.494780 0.000000 
#    z 0.013520 0.000000 1.498580 
# 
# From -- ./inp_files/248376.got.cif
#   From: 2010.05.17/outbox.cif.g08.bks.cpg/sg12_125_cif.got.tgz:248376.got - 2010.06.03 13:09:07.
