data_PCOD9177719
_publ_section_title
;
Structure prediction by ZEFSAII (Michael W. Deem and Ramdas Pophale) SiO2 
 PCOD9177719
Probable space group: C 2/M
;
_chemical_formula_sum "Si O2"
_cell_formula_units_Z 64
_cell_length_a 23.254943
_cell_length_b 9.489256
_cell_length_c 30.238794
_cell_angle_alpha 90.000000
_cell_angle_beta 33.643225
_cell_angle_gamma 90.000000
_cell_volume 3696.895427
_symmetry_space_group_name_H-M "C 2/M"
_symmetry_group_IT_number 12
_symmetry_cell_setting 'monoclinic'
loop_
_space_group_symop_operation_xyz
x,y,z
-x,y,-z
-x,-y,-z
x,-y,z
1/2+x,1/2+y,z
1/2-x,1/2+y,-z
1/2-x,1/2-y,-z
1/2+x,1/2-y,z
loop_
_atom_site_type_symbol
_atom_site_label
_atom_site_fract_x
_atom_site_fract_y
_atom_site_fract_z
Si Si1 0.818647 0.838120 0.319888
Si Si2 0.070860 0.336631 0.073376
Si Si3 0.220872 0.336942 0.217582
Si Si4 0.928672 0.838165 0.841399
Si Si5 0.405127 0.662969 0.029321
Si Si6 0.181148 0.336470 0.764959
Si Si7 0.439393 0.668603 0.734749
Si Si8 0.685306 0.332142 0.577774
O O1 0.785974 0.732254 0.302566
O O2 0.784070 0.796835 0.391261
O O3 0.944933 0.839161 0.239473
O O4 0.786880 0.000000 0.331126
O O5 0.101558 0.500000 0.053265
O O6 0.105205 0.260604 0.096697
O O7 0.944616 0.329440 0.152562
O O8 0.107369 0.255363 0.006349
O O9 0.200063 0.500000 0.241927
O O10 0.304524 0.334257 0.124382
O O11 0.270903 0.255299 0.226588
O O12 0.121580 0.255587 0.262654
O O13 0.901343 0.793432 0.808932
O O14 0.894872 0.000000 0.870074
O O15 0.428435 0.500000 0.001718
O O16 0.500000 0.712585 0.000000
O O17 0.210729 0.500000 0.749591
O O18 0.423688 0.500000 0.740109
O O19 0.562236 0.696381 0.652835
O O20 0.699182 0.500000 0.563763
O O21 0.750000 0.250000 0.500000
#
# Coordination Sequence:
#
# PCOD9177719 Si02
#       8
#     8   8   8   8   8   8   8   8
#     4   8  15  29  49  74 102 131 166 203 240 291
#     4  10  19  29  47  74  99 124 164 218 263 296
#     4  11  22  34  51  73  98 135 175 211 254 303
#     4   8  15  30  51  69  93 131 167 202 249 301
#     4  10  20  34  49  67  96 133 173 214 257 306
#     4  10  19  30  47  73 102 132 167 210 256 298
#     4   9  19  36  54  75 104 136 168 204 249 300
#     4   9  18  33  56  84 110 136 164 199 246 296
#
# _framework density 17.311823
#
# number of rings (size 3 to 8) (size 9 to 14) (size 15 to 20)
#    0.000    2.625    1.250    2.625    0.000    3.750 
#    0.000    3.125    0.000    0.750    0.000    5.250 
#    0.000    0.000    0.000    0.000    0.000    0.000 
#
# Total GULP energy -178469.292916 kJ/mol
# GULP energy per Si atom -5577.165404 kJ/mol
# Density = 1.727242 g / cm^3
# Si number density = 17.311823 Si / 1000 Ang^3
#
#
#
# Elastic Constant Matrix: (Units=GPa)
#
#
# Indices 1 2 3 4 5 6 
#
# 1 65.5973 54.3804 28.3340 -0.0032 14.1563 0.0087
# 2 54.3804 86.7691 37.0188 -0.0134 16.8503 -0.0042
# 3 28.3340 37.0188 51.7524 0.0007 21.7617 0.0008
# 4 -0.0032 -0.0134 0.0007 25.1163 0.0036 7.1591
# 5 14.1563 16.8503 21.7617 0.0036 24.3969 -0.0150
# 6 0.0087 -0.0042 0.0008 7.1591 -0.0150 30.5391
#
#
#
# Elastic Compliance Matrix: (Units=1/GPa)
#
#
# Indices 1 2 3 4 5 6 
#
# 1 0.032646 -0.018402 -0.003343 -0.000001 -0.003251 -0.000013
# 2 -0.018402 0.026990 -0.009413 0.000010 0.000433 0.000007
# 3 -0.003343 -0.009413 0.038943 0.000001 -0.026296 -0.000015
# 4 -0.000001 0.000010 0.000001 0.042666 -0.000020 -0.010002
# 5 -0.003251 0.000433 -0.026296 -0.000020 0.066032 0.000039
# 6 -0.000013 0.000007 -0.000015 -0.010002 0.000039 0.035090
#
#
# Mechanical properties :
#
#
# Convention : Reuss Voigt Hill
#
# Bulk Modulus (GPa) = 27.57670 49.28725 38.43198
# Shear Modulus (GPa) = 15.78431 21.63616 18.71023
#
# Velocity S-wave (km/s) = 3.02282 3.53907 3.29109
# Velocity P-wave (km/s) = 5.30540 6.72548 6.05720
#
# Compressibility (1/GPa) = 0.03626249
#
# Stress axis : x y z
#
# Youngs Moduli (GPa) = 30.63191 37.05095 25.67824
#
# Poissons Ratio (x) = 0.68182 0.08584
# Poissons Ratio (y) = 0.56370 0.24171
# Poissons Ratio (z) = 0.10240 0.34876
#
# Static dielectric constant tensor:
#      x y z
#    x 1.586180 0.000000 -0.008290 
#    y 0.000000 1.579940 0.000000 
#    z -0.008290 0.000000 1.574870 
# 
# From -- ./inp_files/281332.got.cif
#   From: 2010.05.17/outbox.cif.g08.bks.cpg/sg12_141_cif.got.tgz:281332.got - 2010.06.03 13:09:07.
