data_PCOD9177300
_publ_section_title
;
Structure prediction by ZEFSAII (Michael W. Deem and Ramdas Pophale) SiO2 
 PCOD9177300
Probable space group: C 2/M
;
_chemical_formula_sum "Si O2"
_cell_formula_units_Z 48
_cell_length_a 22.986270
_cell_length_b 7.490708
_cell_length_c 16.679773
_cell_angle_alpha 90.000000
_cell_angle_beta 121.193941
_cell_angle_gamma 90.000000
_cell_volume 2456.746909
_symmetry_space_group_name_H-M "C 2/M"
_symmetry_group_IT_number 12
_symmetry_cell_setting 'monoclinic'
loop_
_space_group_symop_operation_xyz
x,y,z
-x,y,-z
-x,-y,-z
x,-y,z
1/2+x,1/2+y,z
1/2-x,1/2+y,-z
1/2-x,1/2-y,-z
1/2+x,1/2-y,z
loop_
_atom_site_type_symbol
_atom_site_label
_atom_site_fract_x
_atom_site_fract_y
_atom_site_fract_z
Si Si1 0.386770 0.791261 0.278180
Si Si2 0.977662 0.781711 0.856765
Si Si3 0.575255 0.284229 0.525254
Si Si4 0.893414 0.217700 0.951465
Si Si5 0.462509 0.705641 0.668494
Si Si6 0.747716 0.213867 0.904145
O O1 0.377513 0.772728 0.367609
O O2 0.458268 0.706134 0.302576
O O3 0.321664 0.717396 0.185062
O O4 0.394313 0.000000 0.264725
O O5 0.924790 0.729033 0.888323
O O6 0.960184 0.715206 0.755651
O O7 0.978481 0.000000 0.854986
O O8 0.052420 0.727498 0.941540
O O9 0.500000 0.226785 0.500000
O O10 0.576187 0.500000 0.523997
O O11 0.580120 0.218535 0.437175
O O12 0.817637 0.281204 0.914920
O O13 0.892801 0.000000 0.951797
O O14 0.440693 0.500000 0.660765
O O15 0.746931 0.000000 0.891757
O O16 0.750000 0.250000 0.000000
#
# Coordination Sequence:
#
# PCOD9177300 Si02
#       6
#     8   8   8   8   8   8
#     4  10  19  28  40  62  90 117 141 167 208 258
#     4   8  13  23  43  66  83 103 136 178 216 245
#     4   8  15  27  42  61  84 110 142 178 213 247
#     4   8  14  25  41  63  87 108 135 173 213 248
#     4   9  16  27  45  67  86 107 141 181 216 248
#     4  10  20  31  44  64  89 115 142 171 206 252
#
# _framework density 19.538032999999999
#
# number of rings (size 3 to 8) (size 9 to 14) (size 15 to 20)
#    0.000    3.167    0.000    3.500    0.000    5.667 
#    0.000    0.000    0.000    2.000    0.000    4.667 
#    0.000    0.000    0.000    0.000    0.000    1.667 
#
# Total GULP energy -133727.603665 kJ/mol
# GULP energy per Si atom -5571.983486 kJ/mol
# Density = 1.949356 g / cm^3
# Si number density = 19.538033 Si / 1000 Ang^3
#
#
#
# Elastic Constant Matrix: (Units=GPa)
#
#
# Indices 1 2 3 4 5 6 
#
# 1 50.4937 -9.7623 38.6418 0.0000 -6.9829 0.0000
# 2 -9.7623 52.9922 -8.2968 0.0000 -0.2941 0.0000
# 3 38.6418 -8.2968 155.5612 0.0000 -24.3173 0.0000
# 4 0.0000 0.0000 0.0000 9.6512 0.0000 -0.6712
# 5 -6.9829 -0.2941 -24.3173 0.0000 33.4225 0.0000
# 6 0.0000 0.0000 0.0000 -0.6712 0.0000 2.9468
#
#
#
# Elastic Compliance Matrix: (Units=1/GPa)
#
#
# Indices 1 2 3 4 5 6 
#
# 1 0.025177 0.003720 -0.005899 0.000000 0.001001 0.000000
# 2 0.003720 0.019610 0.000305 0.000000 0.001172 0.000000
# 3 -0.005899 0.000305 0.008708 0.000000 0.005106 0.000000
# 4 0.000000 0.000000 0.000000 0.105282 0.000000 0.023979
# 5 0.001001 0.001172 0.005106 0.000000 0.033854 0.000000
# 6 0.000000 0.000000 0.000000 0.023979 0.000000 0.344813
#
#
# Mechanical properties :
#
#
# Convention : Reuss Voigt Hill
#
# Bulk Modulus (GPa) = 20.10180 33.35694 26.72937
# Shear Modulus (GPa) = 8.96421 25.10172 17.03296
#
# Velocity S-wave (km/s) = 2.14430 3.58825 2.95580
# Velocity P-wave (km/s) = 4.05482 5.85468 5.03581
#
# Compressibility (1/GPa) = 0.04974680
#
# Stress axis : x y z
#
# Youngs Moduli (GPa) = 39.71956 50.99369 114.83538
#
# Poissons Ratio (x) = -0.18970 0.67742
# Poissons Ratio (y) = -0.14776 -0.03503
# Poissons Ratio (z) = 0.23431 -0.01555
#
# Static dielectric constant tensor:
#      x y z
#    x 1.657600 0.000000 -0.022600 
#    y 0.000000 1.729260 0.000000 
#    z -0.022600 0.000000 1.727250 
# 
# From -- ./inp_files/287952.got.cif
#   From: 2010.05.17/outbox.cif.g08.bks.cpg/sg12_144_cif.got.tgz:287952.got - 2010.06.03 13:09:07.
