data_PCOD9177464
_publ_section_title
;
Structure prediction by ZEFSAII (Michael W. Deem and Ramdas Pophale) SiO2 
 PCOD9177464
Probable space group: C 2/M
;
_chemical_formula_sum "Si O2"
_cell_formula_units_Z 56
_cell_length_a 22.523761
_cell_length_b 9.128046
_cell_length_c 20.689584
_cell_angle_alpha 90.000000
_cell_angle_beta 143.137622
_cell_angle_gamma 90.000000
_cell_volume 2551.794703
_symmetry_space_group_name_H-M "C 2/M"
_symmetry_group_IT_number 12
_symmetry_cell_setting 'monoclinic'
loop_
_space_group_symop_operation_xyz
x,y,z
-x,y,-z
-x,-y,-z
x,-y,z
1/2+x,1/2+y,z
1/2-x,1/2+y,-z
1/2-x,1/2-y,-z
1/2+x,1/2-y,z
loop_
_atom_site_type_symbol
_atom_site_label
_atom_site_fract_x
_atom_site_fract_y
_atom_site_fract_z
Si Si1 0.623863 0.831025 0.667174
Si Si2 0.070170 0.823986 0.349056
Si Si3 0.847640 0.172111 0.980951
Si Si4 0.845096 0.828196 0.176987
Si Si5 0.424332 0.675279 0.789115
Si Si6 0.612778 0.834121 0.514486
Si Si7 0.116684 0.665130 0.117918
O O1 0.652605 0.712307 0.745095
O O2 0.652258 0.785675 0.619089
O O3 0.505108 0.839576 0.573463
O O4 0.658744 0.000000 0.708769
O O5 0.953586 0.777242 0.247908
O O6 0.111178 0.786157 0.313912
O O7 0.122849 0.756856 0.457688
O O8 0.070471 0.000000 0.355062
O O9 0.755103 0.251354 0.933281
O O10 0.848430 0.223888 0.907052
O O11 0.833319 0.000000 0.973612
O O12 0.957011 0.204751 0.103427
O O13 0.838311 0.000000 0.158874
O O14 0.411773 0.500000 0.788528
O O15 0.376157 0.766476 0.804765
O O16 0.648255 0.000000 0.534226
O O17 0.158002 0.500000 0.148807
O O18 0.000000 0.653205 0.000000
#
# Coordination Sequence:
#
# PCOD9177464 Si02
#       7
#     8   8   8   8   8   8   8
#     4   8  14  26  42  60  84 114 147 182 219 259
#     4   9  18  30  43  63  93 123 149 180 218 261
#     4  10  19  31  47  64  86 119 153 184 220 262
#     4  10  19  29  42  64  93 121 150 184 220 259
#     4   9  18  32  47  64  88 119 152 182 217 263
#     4   8  14  25  42  62  84 112 147 184 218 256
#     4   9  17  30  48  68  86 106 141 190 232 260
#
# _framework density 21.945340999999999
#
# number of rings (size 3 to 8) (size 9 to 14) (size 15 to 20)
#    0.000    3.000    0.000    2.143    0.000    4.571 
#    0.000    2.857    0.000    0.000    0.000    1.000 
#    0.000    0.000    0.000    0.000    0.000    0.000 
#
# Total GULP energy -156156.346233 kJ/mol
# GULP energy per Si atom -5577.012365 kJ/mol
# Density = 2.189539 g / cm^3
# Si number density = 21.945341 Si / 1000 Ang^3
#
#
#
# Elastic Constant Matrix: (Units=GPa)
#
#
# Indices 1 2 3 4 5 6 
#
# 1 55.2093 27.6558 55.7847 0.0000 -34.0857 0.0000
# 2 27.6558 42.9991 14.3169 0.0000 -17.6826 0.0000
# 3 55.7847 14.3169 42.9772 0.0000 -28.3552 0.0000
# 4 0.0000 0.0000 0.0000 20.5593 0.0000 -2.3959
# 5 -34.0857 -17.6826 -28.3552 0.0000 58.9028 0.0000
# 6 0.0000 0.0000 0.0000 -2.3959 0.0000 14.7270
#
#
#
# Elastic Compliance Matrix: (Units=1/GPa)
#
#
# Indices 1 2 3 4 5 6 
#
# 1 -0.050198 0.013228 0.064780 0.000000 0.006107 0.000000
# 2 0.013228 0.023880 -0.022487 0.000000 0.003998 0.000000
# 3 0.064780 -0.022487 -0.048427 0.000000 0.007423 0.000000
# 4 0.000000 0.000000 0.000000 0.049580 0.000000 0.008066
# 5 0.006107 0.003998 0.007423 0.000000 0.025285 0.000000
# 6 0.000000 0.000000 0.000000 0.008066 0.000000 0.069215
#
#
# Mechanical properties :
#
#
# Convention : Reuss Voigt Hill
#
# Bulk Modulus (GPa) = 27.55140 37.41117 32.48129
# Shear Modulus (GPa) = -168.86917 21.73304 -73.56807
#
# Velocity S-wave (km/s) = -8.78163 3.15036 -5.79621
# Velocity P-wave (km/s) = 9.49952 5.50613 5.47373
#
# Compressibility (1/GPa) = 0.03629579
#
# Stress axis : x y z
#
# Youngs Moduli (GPa) = -19.92113 41.87627 -20.64947
#
# Poissons Ratio (x) = -0.55395 1.33767
# Poissons Ratio (y) = 0.26352 -0.46435
# Poissons Ratio (z) = 1.29049 0.94169
#
# Static dielectric constant tensor:
#      x y z
#    x 1.833360 0.000000 0.042130 
#    y 0.000000 1.745920 0.000000 
#    z 0.042130 0.000000 1.884050 
# 
# From -- ./inp_files/291843.got.cif
#   From: 2010.05.17/outbox.cif.g08.bks.cpg/sg12_146_cif.got.tgz:291843.got - 2010.06.03 13:09:07.
