data_PCOD9177820
_publ_section_title
;
Structure prediction by ZEFSAII (Michael W. Deem and Ramdas Pophale) SiO2 
 PCOD9177820
Probable space group: C 2/M
;
_chemical_formula_sum "Si O2"
_cell_formula_units_Z 64
_cell_length_a 24.122624
_cell_length_b 8.939663
_cell_length_c 22.181828
_cell_angle_alpha 90.000000
_cell_angle_beta 122.820210
_cell_angle_gamma 90.000000
_cell_volume 4019.910625
_symmetry_space_group_name_H-M "C 2/M"
_symmetry_group_IT_number 12
_symmetry_cell_setting 'monoclinic'
loop_
_space_group_symop_operation_xyz
x,y,z
-x,y,-z
-x,-y,-z
x,-y,z
1/2+x,1/2+y,z
1/2-x,1/2+y,-z
1/2-x,1/2-y,-z
1/2+x,1/2-y,z
loop_
_atom_site_type_symbol
_atom_site_label
_atom_site_fract_x
_atom_site_fract_y
_atom_site_fract_z
Si Si1 0.789253 0.318830 0.079761
Si Si2 0.198827 0.819893 0.137889
Si Si3 0.700083 0.321014 0.277034
Si Si4 0.424770 0.818014 0.728887
Si Si5 0.064409 0.681634 0.864914
Si Si6 0.067468 0.319597 0.006471
Si Si7 0.279371 0.329242 0.425388
Si Si8 0.646850 0.171869 0.429978
O O1 0.786866 0.500000 0.072991
O O2 0.753711 0.275436 0.121084
O O3 0.865826 0.271896 0.122250
O O4 0.750000 0.250000 0.000000
O O5 0.212000 0.776503 0.214776
O O6 0.129959 0.751495 0.075679
O O7 0.194256 0.000000 0.133651
O O8 0.694154 0.500000 0.277225
O O9 0.632311 0.248145 0.261964
O O10 0.758462 0.266679 0.355374
O O11 0.497213 0.769971 0.792793
O O12 0.407701 0.773986 0.649925
O O13 0.420039 0.000000 0.728789
O O14 0.063109 0.500000 0.863041
O O15 0.064446 0.727283 0.934924
O O16 0.073669 0.500000 0.011946
O O17 0.000000 0.278356 0.000000
O O18 0.291705 0.500000 0.415358
O O19 0.337495 0.265242 0.501281
O O20 0.213995 0.327282 0.429463
O O21 0.633289 0.000000 0.438480
#
# Coordination Sequence:
#
# PCOD9177820 Si02
#       8
#     8   8   8   8   8   8   8   8
#     4  10  19  34  52  68  87 116 156 198 236 274
#     4  10  21  33  46  66  92 121 153 191 235 276
#     4  10  19  30  43  64  95 125 151 185 229 272
#     4   9  17  30  47  68  93 121 153 187 225 273
#     4   9  17  30  48  68  89 116 151 192 232 266
#     4  10  19  30  47  69  91 119 154 187 224 275
#     4   9  16  26  42  64  90 122 155 183 216 265
#     4   8  14  24  40  63  91 120 147 179 222 269
#
# _framework density 15.920752999999999
#
# number of rings (size 3 to 8) (size 9 to 14) (size 15 to 20)
#    0.000    2.625    1.250    2.250    0.000    5.250 
#    0.000    1.250    0.000    0.000    0.000    0.875 
#    0.000    7.000    0.000    0.000    0.000    0.000 
#
# Total GULP energy -178293.894397 kJ/mol
# GULP energy per Si atom -5571.684200 kJ/mol
# Density = 1.588452 g / cm^3
# Si number density = 15.920753 Si / 1000 Ang^3
#
#
#
# Elastic Constant Matrix: (Units=GPa)
#
#
# Indices 1 2 3 4 5 6 
#
# 1 99.0758 24.4429 68.0383 0.0000 -10.1809 0.0000
# 2 24.4429 21.2692 37.5562 0.0000 -0.9363 0.0000
# 3 68.0383 37.5562 157.7570 0.0000 -4.6966 0.0000
# 4 0.0000 0.0000 0.0000 26.5197 0.0000 1.9261
# 5 -10.1809 -0.9363 -4.6966 0.0000 3.9535 0.0000
# 6 0.0000 0.0000 0.0000 1.9261 0.0000 4.9640
#
#
#
# Elastic Compliance Matrix: (Units=1/GPa)
#
#
# Indices 1 2 3 4 5 6 
#
# 1 0.021626 -0.015156 -0.004320 0.000000 0.046969 0.000000
# 2 -0.015156 0.091793 -0.016411 0.000000 -0.036787 0.000000
# 3 -0.004320 -0.016411 0.012090 0.000000 -0.000650 0.000000
# 4 0.000000 0.000000 0.000000 0.038801 0.000000 -0.015055
# 5 0.046969 -0.036787 -0.000650 0.000000 0.364411 0.000000
# 6 0.000000 0.000000 0.000000 -0.015055 0.000000 0.207291
#
#
# Mechanical properties :
#
#
# Convention : Reuss Voigt Hill
#
# Bulk Modulus (GPa) = 18.61059 59.79742 39.20400
# Shear Modulus (GPa) = 6.05548 16.95841 11.50695
#
# Velocity S-wave (km/s) = 1.95238 3.26724 2.69134
# Velocity P-wave (km/s) = 4.09845 7.20237 5.85967
#
# Compressibility (1/GPa) = 0.05373285
#
# Stress axis : x y z
#
# Youngs Moduli (GPa) = 46.24085 10.89410 82.71476
#
# Poissons Ratio (x) = 0.16511 0.35737
# Poissons Ratio (y) = 0.70084 1.35744
# Poissons Ratio (z) = 0.19978 0.17878
#
# Static dielectric constant tensor:
#      x y z
#    x 1.513570 0.000000 -0.000920 
#    y 0.000000 1.539790 0.000000 
#    z -0.000920 0.000000 1.537670 
# 
# From -- ./inp_files/323763.got.cif
#   From: 2010.05.17/outbox.cif.g08.bks.cpg/sg12_162_cif.got.tgz:323763.got - 2010.06.03 13:09:07.
