data_PCOD9177077
_publ_section_title
;
Structure prediction by ZEFSAII (Michael W. Deem and Ramdas Pophale) SiO2 
 PCOD9177077
Probable space group: C 2/M
;
_chemical_formula_sum "Si O2"
_cell_formula_units_Z 50
_cell_length_a 17.706956
_cell_length_b 17.099607
_cell_length_c 8.291489
_cell_angle_alpha 90.000000
_cell_angle_beta 101.945816
_cell_angle_gamma 90.000000
_cell_volume 2456.145304
_symmetry_space_group_name_H-M "C 2/M"
_symmetry_group_IT_number 12
_symmetry_cell_setting 'monoclinic'
loop_
_space_group_symop_operation_xyz
x,y,z
-x,y,-z
-x,-y,-z
x,-y,z
1/2+x,1/2+y,z
1/2-x,1/2+y,-z
1/2-x,1/2-y,-z
1/2+x,1/2-y,z
loop_
_atom_site_type_symbol
_atom_site_label
_atom_site_fract_x
_atom_site_fract_y
_atom_site_fract_z
Si Si1 0.231798 0.910422 0.600273
Si Si2 0.624985 0.138004 0.552179
Si Si3 0.002686 0.907868 0.696964
Si Si4 0.624474 0.710834 0.367012
Si Si5 0.000000 0.500000 0.500000
Si Si6 0.255139 0.702060 0.837297
Si Si7 0.667821 0.409668 0.908282
O O1 0.311893 0.899041 0.543294
O O2 0.173214 0.846901 0.503644
O O3 0.230184 0.899891 0.792053
O O4 0.203628 0.000000 0.559828
O O5 0.591391 0.214459 0.446232
O O6 0.564841 0.070128 0.565256
O O7 0.675415 0.174341 0.721807
O O8 0.086069 0.882310 0.800890
O O9 0.000000 0.903168 0.500000
O O10 0.940948 0.845432 0.732969
O O11 0.988639 0.000000 0.731363
O O12 0.688983 0.740863 0.269795
O O13 0.250000 0.750000 0.000000
O O14 0.302513 0.626813 0.915494
O O15 0.657044 0.500000 0.931159
#
# Coordination Sequence:
#
# PCOD9177077 Si02
#       7
#     8   8   8   8   2   8   8
#     4  10  18  37  64  96 128 169 224 270 322 394
#     4  11  25  43  67  92 125 172 237 283 321 384
#     4  10  20  36  60  98 135 165 203 256 327 408
#     4  11  22  37  67  95 126 176 223 271 324 390
#     4  12  28  48  68  98 126 180 238 292 324 380
#     4  11  24  41  64  96 133 165 218 276 337 390
#     4  10  21  35  62  94 133 169 196 252 331 399
#
# _framework density 20.357102000000001
#
# number of rings (size 3 to 8) (size 9 to 14) (size 15 to 20)
#    0.000    1.440    2.400    4.320    2.240    1.920 
#    0.000    1.600    0.000    6.720    0.000    0.000 
#    0.000    0.000    0.000    0.000    0.000    0.000 
#
# Total GULP energy -139260.889545 kJ/mol
# GULP energy per Si atom -5570.435582 kJ/mol
# Density = 2.031077 g / cm^3
# Si number density = 20.357102 Si / 1000 Ang^3
#
#
#
# Elastic Constant Matrix: (Units=GPa)
#
#
# Indices 1 2 3 4 5 6 
#
# 1 74.0881 38.6345 26.6828 0.0000 14.8133 0.0000
# 2 38.6345 106.6766 26.7462 0.0000 -3.5519 0.0000
# 3 26.6828 26.7462 60.2554 0.0000 6.0238 0.0000
# 4 0.0000 0.0000 0.0000 31.5494 0.0000 -2.9878
# 5 14.8133 -3.5519 6.0238 0.0000 19.9958 0.0000
# 6 0.0000 0.0000 0.0000 -2.9878 0.0000 30.3846
#
#
#
# Elastic Compliance Matrix: (Units=1/GPa)
#
#
# Indices 1 2 3 4 5 6 
#
# 1 0.022463 -0.007428 -0.005005 0.000000 -0.016453 0.000000
# 2 -0.007428 0.013232 -0.003474 0.000000 0.008900 0.000000
# 3 -0.005005 -0.003474 0.020668 0.000000 -0.003135 0.000000
# 4 0.000000 0.000000 0.000000 0.031994 0.000000 0.003146
# 5 -0.016453 0.008900 -0.003135 0.000000 0.064725 0.000000
# 6 0.000000 0.000000 0.000000 0.003146 0.000000 0.033221
#
#
# Mechanical properties :
#
#
# Convention : Reuss Voigt Hill
#
# Bulk Modulus (GPa) = 40.73572 47.23855 43.98714
# Shear Modulus (GPa) = 22.09462 26.31640 24.20551
#
# Velocity S-wave (km/s) = 3.29804 3.59937 3.45199
# Velocity P-wave (km/s) = 5.87850 6.36626 6.12724
#
# Compressibility (1/GPa) = 0.02454848
#
# Stress axis : x y z
#
# Youngs Moduli (GPa) = 44.51694 75.57656 48.38452
#
# Poissons Ratio (x) = 0.56141 0.24218
# Poissons Ratio (y) = 0.33069 0.16806
# Poissons Ratio (z) = 0.22282 0.26252
#
# Static dielectric constant tensor:
#      x y z
#    x 1.775630 0.000000 0.013880 
#    y 0.000000 1.796980 0.000000 
#    z 0.013880 0.000000 1.776280 
# 
# From -- ./inp_files/75399.got.cif
#   From: 2010.05.17/outbox.cif.g08.bks.cpg/sg12_38_cif.got.tgz:75399.got - 2010.06.03 13:09:07.
