data_PCOD9177289
_publ_section_title
;
Structure prediction by ZEFSAII (Michael W. Deem and Ramdas Pophale) SiO2 
 PCOD9177289
Probable space group: C 2/M
;
_chemical_formula_sum "Si O2"
_cell_formula_units_Z 64
_cell_length_a 12.831909
_cell_length_b 29.503563
_cell_length_c 11.680115
_cell_angle_alpha 90.000000
_cell_angle_beta 141.602289
_cell_angle_gamma 90.000000
_cell_volume 2746.539837
_symmetry_space_group_name_H-M "C 2/M"
_symmetry_group_IT_number 12
_symmetry_cell_setting 'monoclinic'
loop_
_space_group_symop_operation_xyz
x,y,z
-x,y,-z
-x,-y,-z
x,-y,z
1/2+x,1/2+y,z
1/2-x,1/2+y,-z
1/2-x,1/2-y,-z
1/2+x,1/2-y,z
loop_
_atom_site_type_symbol
_atom_site_label
_atom_site_fract_x
_atom_site_fract_y
_atom_site_fract_z
Si Si1 0.068578 0.218298 0.441531
Si Si2 0.456572 0.350412 0.158666
Si Si3 0.418711 0.948646 0.120669
Si Si4 0.795790 0.949642 0.436519
Si Si5 0.238467 0.383262 0.185861
Si Si6 0.168660 0.709612 0.856580
Si Si7 0.461737 0.551730 0.139279
Si Si8 0.912361 0.703772 0.821506
O O1 0.260643 0.229483 0.632274
O O2 0.000000 0.194540 0.500000
O O3 0.063492 0.187807 0.320562
O O4 0.947878 0.262072 0.328761
O O5 0.360292 0.368362 0.189065
O O6 0.521065 0.396917 0.154411
O O7 0.319020 0.324774 0.960934
O O8 0.608567 0.942284 0.331917
O O9 0.414510 0.000000 0.072822
O O10 0.392846 0.913681 0.997170
O O11 0.243038 0.945253 0.040247
O O12 0.812299 0.913323 0.351274
O O13 0.944836 0.949448 0.656643
O O14 0.793355 0.000000 0.382649
O O15 0.164704 0.338862 0.180243
O O16 0.039853 0.687128 0.834968
O O17 0.250000 0.750000 0.000000
O O18 0.501578 0.500000 0.128285
O O19 0.000000 0.731236 0.000000
#
# Coordination Sequence:
#
# PCOD9177289 Si02
#       8
#     8   8   8   8   8   8   8   8
#     4  11  21  37  54  74  96 130 172 219 267 313
#     4  10  20  34  50  70 103 131 171 213 250 298
#     4   9  18  28  38  58  92 132 170 206 234 265
#     4  10  19  28  39  61  97 136 175 209 231 268
#     4  11  19  28  46  68  93 128 178 204 242 292
#     4  10  22  38  50  71  98 129 169 222 263 303
#     4   9  19  31  44  66  98 137 173 205 240 284
#     4  12  20  32  52  76  96 129 167 209 259 314
#
# _framework density 23.302047999999999
#
# number of rings (size 3 to 8) (size 9 to 14) (size 15 to 20)
#    0.000    1.750    2.500    3.375    1.750    3.000 
#    0.000    5.625    0.000    0.000    0.000    0.000 
#    0.000    0.500    0.000    0.000    0.000   41.750 
#
# Total GULP energy -178162.221745 kJ/mol
# GULP energy per Si atom -5567.569430 kJ/mol
# Density = 2.324901 g / cm^3
# Si number density = 23.302048 Si / 1000 Ang^3
#
#
#
# Elastic Constant Matrix: (Units=GPa)
#
#
# Indices 1 2 3 4 5 6 
#
# 1 18.6534 1.8482 10.8864 0.0000 -0.8894 0.0000
# 2 1.8482 125.1411 38.3517 0.0000 -5.5783 0.0000
# 3 10.8864 38.3517 134.4337 0.0000 13.1110 0.0000
# 4 0.0000 0.0000 0.0000 32.5627 0.0000 -0.8945
# 5 -0.8894 -5.5783 13.1110 0.0000 24.5662 0.0000
# 6 0.0000 0.0000 0.0000 -0.8945 0.0000 0.6770
#
#
#
# Elastic Compliance Matrix: (Units=1/GPa)
#
#
# Indices 1 2 3 4 5 6 
#
# 1 0.056913 0.001050 -0.005414 0.000000 0.005189 0.000000
# 2 0.001050 0.009072 -0.003036 0.000000 0.003718 0.000000
# 3 -0.005414 -0.003036 0.009314 0.000000 -0.005856 0.000000
# 4 0.000000 0.000000 0.000000 0.031867 0.000000 0.042106
# 5 0.005189 0.003718 -0.005856 0.000000 0.044864 0.000000
# 6 0.000000 0.000000 0.000000 0.042106 0.000000 1.532719
#
#
# Mechanical properties :
#
#
# Convention : Reuss Voigt Hill
#
# Bulk Modulus (GPa) = 16.52929 42.26677 29.39803
# Shear Modulus (GPa) = 2.90746 26.70397 14.80571
#
# Velocity S-wave (km/s) = 1.11823 3.38892 2.52341
# Velocity P-wave (km/s) = 2.96245 5.78715 4.59713
#
# Compressibility (1/GPa) = 0.06049868
#
# Stress axis : x y z
#
# Youngs Moduli (GPa) = 17.57075 110.23513 107.36269
#
# Poissons Ratio (x) = -0.11575 0.58130
# Poissons Ratio (y) = -0.01845 0.32591
# Poissons Ratio (z) = 0.09513 0.33463
#
# Static dielectric constant tensor:
#      x y z
#    x 1.967670 0.000000 0.070310 
#    y 0.000000 1.966620 0.000000 
#    z 0.070310 0.000000 1.981780 
# 
# From -- ./inp_files/228510.got.cif
#   From: 2010.05.17/outbox.cif.g08.bks.cpg/sg12_115_cif.got.tgz:228510.got - 2010.06.03 13:09:07.
