data_PCOD9177383
_publ_section_title
;
Structure prediction by ZEFSAII (Michael W. Deem and Ramdas Pophale) SiO2 
 PCOD9177383
Probable space group: C 2/M
;
_chemical_formula_sum "Si O2"
_cell_formula_units_Z 48
_cell_length_a 12.688266
_cell_length_b 16.567526
_cell_length_c 12.593189
_cell_angle_alpha 90.000000
_cell_angle_beta 42.839791
_cell_angle_gamma 90.000000
_cell_volume 1800.002402
_symmetry_space_group_name_H-M "C 2/M"
_symmetry_group_IT_number 12
_symmetry_cell_setting 'monoclinic'
loop_
_space_group_symop_operation_xyz
x,y,z
-x,y,-z
-x,-y,-z
x,-y,z
1/2+x,1/2+y,z
1/2-x,1/2+y,-z
1/2-x,1/2-y,-z
1/2+x,1/2-y,z
loop_
_atom_site_type_symbol
_atom_site_label
_atom_site_fract_x
_atom_site_fract_y
_atom_site_fract_z
Si Si1 0.437064 0.000000 0.770664
Si Si2 0.774045 0.127120 0.680619
Si Si3 0.007173 0.823169 0.119818
Si Si4 0.020299 0.000000 0.115371
Si Si5 0.654467 0.197124 0.427972
Si Si6 0.010868 0.671114 0.241035
Si Si7 0.823571 0.500000 0.090157
Si Si8 0.685912 0.500000 0.521088
O O1 0.402485 0.904961 0.768953
O O2 0.624964 0.000000 0.611857
O O3 0.351111 0.000000 0.946788
O O4 0.838218 0.216760 0.637530
O O5 0.594475 0.135113 0.776092
O O6 0.766834 0.075861 0.792596
O O7 0.852292 0.076478 0.526770
O O8 0.825517 0.836185 0.284920
O O9 0.078295 0.751453 0.137994
O O10 0.084471 0.909462 0.081159
O O11 0.000000 0.801926 0.000000
O O12 0.891526 0.000000 0.306785
O O13 0.000000 0.000000 0.000000
O O14 0.500000 0.153408 0.500000
O O15 0.612816 0.202869 0.581902
O O16 0.000000 0.500000 0.000000
#
# Coordination Sequence:
#
# PCOD9177383 Si02
#       8
#     4   8   8   4   8   8   4   4
#     4  10  19  28  58  91 120 142 194 261 296 343
#     4   9  18  30  57  84 114 144 192 247 294 359
#     4  10  21  36  62  86 111 153 200 251 295 349
#     4  10  19  33  54  86 116 145 201 255 293 342
#     4  11  23  38  54  83 120 161 200 239 291 358
#     4  10  19  34  57  87 116 151 198 242 296 351
#     4  11  16  30  56  98 117 138 190 258 313 342
#     4   9  14  28  51  82 109 146 186 242 299 339
#
# _framework density 26.666630999999999
#
# number of rings (size 3 to 8) (size 9 to 14) (size 15 to 20)
#    0.000    2.000    3.333    5.000    4.667    0.000 
#    0.000    4.167    0.000    0.000    4.333    0.000 
#    0.000    0.000    0.000    0.000    0.000    0.000 
#
# Total GULP energy -133777.914909 kJ/mol
# GULP energy per Si atom -5574.079788 kJ/mol
# Density = 2.660594 g / cm^3
# Si number density = 26.666631 Si / 1000 Ang^3
#
#
#
# Elastic Constant Matrix: (Units=GPa)
#
#
# Indices 1 2 3 4 5 6 
#
# 1 56.5348 18.4685 56.0533 0.0000 -6.6414 -0.0001
# 2 18.4685 182.9719 45.9362 -0.0001 17.9133 0.0001
# 3 56.0533 45.9362 208.7923 0.0001 22.3864 -0.0001
# 4 0.0000 -0.0001 0.0001 30.5496 0.0000 1.8349
# 5 -6.6414 17.9133 22.3864 0.0000 60.0918 0.0000
# 6 -0.0001 0.0001 -0.0001 1.8349 0.0000 -19.6272
#
#
#
# Elastic Compliance Matrix: (Units=1/GPa)
#
#
# Indices 1 2 3 4 5 6 
#
# 1 0.026153 -0.001383 -0.007365 0.000000 0.006046 0.000000
# 2 -0.001383 0.005957 -0.000763 0.000000 -0.001644 0.000000
# 3 -0.007365 -0.000763 0.007289 0.000000 -0.003302 0.000000
# 4 0.000000 0.000000 0.000000 0.032551 0.000000 0.003043
# 5 0.006046 -0.001644 -0.003302 0.000000 0.019030 0.000000
# 6 0.000000 0.000000 0.000000 0.003043 0.000000 -0.050665
#
#
# Mechanical properties :
#
#
# Convention : Reuss Voigt Hill
#
# Bulk Modulus (GPa) = 49.07548 76.57944 62.82746
# Shear Modulus (GPa) = 75.61076 36.05890 55.83483
#
# Velocity S-wave (km/s) = 5.33063 3.68123 4.58078
# Velocity P-wave (km/s) = 7.50538 6.84458 7.18259
#
# Compressibility (1/GPa) = 0.02037678
#
# Stress axis : x y z
#
# Youngs Moduli (GPa) = 38.23715 167.85633 137.19963
#
# Poissons Ratio (x) = 0.23208 1.01049
# Poissons Ratio (y) = 0.05287 0.10471
# Poissons Ratio (z) = 0.28162 0.12811
#
# Static dielectric constant tensor:
#      x y z
#    x 2.180480 0.000000 -0.040700 
#    y 0.000000 2.119080 0.000000 
#    z -0.040700 0.000000 2.046610 
# 
# From -- ./inp_files/226805.got.cif
#   From: 2010.05.17/outbox.cif.g08.bks.cpg/sg12_114_cif.got.tgz:226805.got - 2010.06.03 13:09:07.
