data_PCOD9177802
_publ_section_title
;
Structure prediction by ZEFSAII (Michael W. Deem and Ramdas Pophale) SiO2 
 PCOD9177802
Probable space group: C 2/M
;
_chemical_formula_sum "Si O2"
_cell_formula_units_Z 64
_cell_length_a 22.259845
_cell_length_b 8.753326
_cell_length_c 16.230315
_cell_angle_alpha 90.000000
_cell_angle_beta 117.643417
_cell_angle_gamma 90.000000
_cell_volume 2801.453912
_symmetry_space_group_name_H-M "C 2/M"
_symmetry_group_IT_number 12
_symmetry_cell_setting 'monoclinic'
loop_
_space_group_symop_operation_xyz
x,y,z
-x,y,-z
-x,-y,-z
x,-y,z
1/2+x,1/2+y,z
1/2-x,1/2+y,-z
1/2-x,1/2-y,-z
1/2+x,1/2-y,z
loop_
_atom_site_type_symbol
_atom_site_label
_atom_site_fract_x
_atom_site_fract_y
_atom_site_fract_z
Si Si1 0.270835 0.825394 0.203115
Si Si2 0.853539 0.678313 0.488134
Si Si3 0.822336 0.813932 0.078536
Si Si4 0.771271 0.677098 0.661520
Si Si5 0.581370 0.184119 0.189568
Si Si6 0.021145 0.315316 0.316826
Si Si7 0.065497 0.829048 0.600891
Si Si8 0.613818 0.326626 0.041699
O O1 0.322788 0.762356 0.168412
O O2 0.264263 0.708429 0.273475
O O3 0.193686 0.830345 0.118659
O O4 0.286928 0.000000 0.237910
O O5 0.844561 0.500000 0.492917
O O6 0.779981 0.753137 0.436653
O O7 0.907786 0.728133 0.591855
O O8 0.888234 0.715543 0.422261
O O9 0.820959 0.000000 0.081364
O O10 0.750000 0.750000 0.000000
O O11 0.879047 0.765941 0.047356
O O12 0.778775 0.500000 0.648182
O O13 0.846693 0.740166 0.725945
O O14 0.527078 0.227212 0.224648
O O15 0.576416 0.242735 0.092939
O O16 0.583844 0.000000 0.187362
O O17 0.014847 0.500000 0.319627
O O18 0.962617 0.234725 0.331382
O O19 0.000000 0.841147 0.500000
O O20 0.094608 0.000000 0.627013
O O21 0.588646 0.500000 0.022137
#
# Coordination Sequence:
#
# PCOD9177802 Si02
#       8
#     8   8   8   8   8   8   8   8
#     4   9  16  26  39  56  79 109 144 178 214 256
#     4  10  19  31  47  64  85 114 145 180 221 262
#     4   9  15  23  36  55  78 106 141 178 214 252
#     4  10  19  30  43  61  88 119 149 181 215 254
#     4   9  18  30  43  60  86 119 150 179 213 255
#     4   9  18  32  47  64  86 113 145 180 220 262
#     4   9  17  30  48  68  85 103 135 180 225 264
#     4   8  15  25  37  55  80 109 141 176 212 251
#
# _framework density 22.845279000000001
#
# number of rings (size 3 to 8) (size 9 to 14) (size 15 to 20)
#    0.000    2.875    0.000    2.625    0.000    7.000 
#    0.000    0.000    0.000    0.000    0.000    0.000 
#    0.000    1.000    0.000   10.500    0.000    8.250 
#
# Total GULP energy -178502.389491 kJ/mol
# GULP energy per Si atom -5578.199672 kJ/mol
# Density = 2.279328 g / cm^3
# Si number density = 22.845279 Si / 1000 Ang^3
#
#
#
# Elastic Constant Matrix: (Units=GPa)
#
#
# Indices 1 2 3 4 5 6 
#
# 1 55.8822 16.9015 81.4737 0.0000 -31.2053 0.0000
# 2 16.9015 36.0483 12.7066 0.0000 -13.0858 0.0000
# 3 81.4737 12.7066 55.1355 0.0000 -36.8553 0.0000
# 4 0.0000 0.0000 0.0000 20.8731 0.0000 -2.8267
# 5 -31.2053 -13.0858 -36.8553 0.0000 69.9582 0.0000
# 6 0.0000 0.0000 0.0000 -2.8267 0.0000 8.4518
#
#
#
# Elastic Compliance Matrix: (Units=1/GPa)
#
#
# Indices 1 2 3 4 5 6 
#
# 1 -0.013080 0.000193 0.023784 0.000000 0.006731 0.000000
# 2 0.000193 0.030621 -0.005334 0.000000 0.003004 0.000000
# 3 0.023784 -0.005334 -0.014439 0.000000 0.002004 0.000000
# 4 0.000000 0.000000 0.000000 0.050181 0.000000 0.016783
# 5 0.006731 0.003004 0.002004 0.000000 0.018915 0.000000
# 6 0.000000 0.000000 0.000000 0.016783 0.000000 0.123931
#
#
# Mechanical properties :
#
#
# Convention : Reuss Voigt Hill
#
# Bulk Modulus (GPa) = 24.76069 41.02550 32.89309
# Shear Modulus (GPa) = 29.01806 22.25556 25.63681
#
# Velocity S-wave (km/s) = 3.56785 3.12458 3.35355
# Velocity P-wave (km/s) = 5.27586 5.56905 5.42444
#
# Compressibility (1/GPa) = 0.04038660
#
# Stress axis : x y z
#
# Youngs Moduli (GPa) = -76.45182 32.65765 -69.25809
#
# Poissons Ratio (x) = -0.00629 1.64721
# Poissons Ratio (y) = 0.01474 -0.36942
# Poissons Ratio (z) = 1.81830 0.17419
#
# Static dielectric constant tensor:
#      x y z
#    x 1.894550 0.000000 0.047960 
#    y 0.000000 1.783730 0.000000 
#    z 0.047960 0.000000 1.984890 
# 
# From -- ./inp_files/287741.got.cif
#   From: 2010.05.17/outbox.cif.g08.bks.cpg/sg12_144_cif.got.tgz:287741.got - 2010.06.03 13:09:07.
