data_PCOD9177578
_publ_section_title
;
Structure prediction by ZEFSAII (Michael W. Deem and Ramdas Pophale) SiO2 
 PCOD9177578
Probable space group: C 2/M
;
_chemical_formula_sum "Si O2"
_cell_formula_units_Z 48
_cell_length_a 23.341202
_cell_length_b 8.654141
_cell_length_c 27.110968
_cell_angle_alpha 90.000000
_cell_angle_beta 30.570802
_cell_angle_gamma 90.000000
_cell_volume 2785.292964
_symmetry_space_group_name_H-M "C 2/M"
_symmetry_group_IT_number 12
_symmetry_cell_setting 'monoclinic'
loop_
_space_group_symop_operation_xyz
x,y,z
-x,y,-z
-x,-y,-z
x,-y,z
1/2+x,1/2+y,z
1/2-x,1/2+y,-z
1/2-x,1/2-y,-z
1/2+x,1/2-y,z
loop_
_atom_site_type_symbol
_atom_site_label
_atom_site_fract_x
_atom_site_fract_y
_atom_site_fract_z
Si Si1 0.327872 0.313684 0.612038
Si Si2 0.417963 0.674789 0.739853
Si Si3 0.833486 0.174605 0.400208
Si Si4 0.407773 0.819804 0.247238
Si Si5 0.972537 0.683809 0.595359
Si Si6 0.858066 0.185489 0.892006
O O1 0.331706 0.500000 0.607244
O O2 0.195925 0.266239 0.710405
O O3 0.391225 0.252932 0.613531
O O4 0.403128 0.250526 0.510405
O O5 0.375525 0.500000 0.761380
O O6 0.546527 0.662420 0.662359
O O7 0.424562 0.768662 0.684319
O O8 0.359844 0.738909 0.832998
O O9 0.750000 0.250000 0.500000
O O10 0.850507 0.289906 0.342512
O O11 0.800809 0.000000 0.408643
O O12 0.527578 0.735402 0.164201
O O13 0.429503 0.000000 0.222083
O O14 0.977736 0.500000 0.587221
O O15 0.856775 0.000000 0.891179
O O16 0.750000 0.250000 0.000000
#
# Coordination Sequence:
#
# PCOD9177578 Si02
#       6
#     8   8   8   8   8   8
#     4  10  20  34  51  71 103 144 176 206 247 299
#     4   9  19  34  49  69  99 134 167 200 248 305
#     4  10  19  29  44  68  99 133 165 202 249 299
#     4  10  20  33  51  74  99 131 170 208 251 303
#     4  11  21  31  49  76 104 137 176 215 248 287
#     4  10  21  37  58  80 103 131 164 209 261 311
#
# _framework density 17.233374999999999
#
# number of rings (size 3 to 8) (size 9 to 14) (size 15 to 20)
#    0.000    2.000    0.000    6.500    0.000   10.667 
#    0.000    0.000    0.000    1.000    0.000    7.000 
#    0.000    0.000    0.000    0.000    0.000    0.000 
#
# Total GULP energy -133724.113403 kJ/mol
# GULP energy per Si atom -5571.838058 kJ/mol
# Density = 1.719415 g / cm^3
# Si number density = 17.233375 Si / 1000 Ang^3
#
#
#
# Elastic Constant Matrix: (Units=GPa)
#
#
# Indices 1 2 3 4 5 6 
#
# 1 71.1103 23.7732 43.5672 0.0002 -2.9625 -0.0001
# 2 23.7732 59.5573 28.2968 0.0007 0.9961 -0.0004
# 3 43.5672 28.2968 122.2755 0.0003 1.9257 -0.0002
# 4 0.0002 0.0007 0.0003 20.6913 -0.0002 2.5590
# 5 -2.9625 0.9961 1.9257 -0.0002 24.4302 0.0001
# 6 -0.0001 -0.0004 -0.0002 2.5590 0.0001 22.2386
#
#
#
# Elastic Compliance Matrix: (Units=1/GPa)
#
#
# Indices 1 2 3 4 5 6 
#
# 1 0.019432 -0.005050 -0.005802 0.000000 0.003020 0.000000
# 2 -0.005050 0.020182 -0.002852 -0.000001 -0.001210 0.000000
# 3 -0.005802 -0.002852 0.010929 0.000000 -0.001449 0.000000
# 4 0.000000 -0.000001 0.000000 0.049027 0.000001 -0.005641
# 5 0.003020 -0.001210 -0.001449 0.000001 0.041463 0.000000
# 6 0.000000 0.000000 0.000000 -0.005641 0.000000 0.045616
#
#
# Mechanical properties :
#
#
# Convention : Reuss Voigt Hill
#
# Bulk Modulus (GPa) = 43.22865 49.35752 46.29308
# Shear Modulus (GPa) = 22.54607 23.95906 23.25256
#
# Velocity S-wave (km/s) = 3.62094 3.73268 3.67723
# Velocity P-wave (km/s) = 6.52842 6.87605 6.70449
#
# Compressibility (1/GPa) = 0.02313281
#
# Stress axis : x y z
#
# Youngs Moduli (GPa) = 51.46197 49.54990 91.50372
#
# Poissons Ratio (x) = 0.25023 0.53095
# Poissons Ratio (y) = 0.25989 0.26097
# Poissons Ratio (z) = 0.29861 0.14131
#
# Static dielectric constant tensor:
#      x y z
#    x 1.607140 0.000000 -0.023000 
#    y 0.000000 1.604720 0.000000 
#    z -0.023000 0.000000 1.549590 
# 
# From -- ./inp_files/367109.got.cif
#   From: 2010.05.17/outbox.cif.g08.bks.cpg/sg12_184_cif.got.tgz:367109.got - 2010.06.03 13:09:07.
