data_PCOD9177898
_publ_section_title
;
Structure prediction by ZEFSAII (Michael W. Deem and Ramdas Pophale) SiO2 
 PCOD9177898
Probable space group: C 2/M
;
_chemical_formula_sum "Si O2"
_cell_formula_units_Z 40
_cell_length_a 24.430190
_cell_length_b 7.452114
_cell_length_c 7.976885
_cell_angle_alpha 90.000000
_cell_angle_beta 98.101024
_cell_angle_gamma 90.000000
_cell_volume 1437.752507
_symmetry_space_group_name_H-M "C 2/M"
_symmetry_group_IT_number 12
_symmetry_cell_setting 'monoclinic'
loop_
_space_group_symop_operation_xyz
x,y,z
-x,y,-z
-x,-y,-z
x,-y,z
1/2+x,1/2+y,z
1/2-x,1/2+y,-z
1/2-x,1/2-y,-z
1/2+x,1/2-y,z
loop_
_atom_site_type_symbol
_atom_site_label
_atom_site_fract_x
_atom_site_fract_y
_atom_site_fract_z
Si Si1 0.213776 0.214025 0.817103
Si Si2 0.984133 0.715081 0.229009
Si Si3 0.414448 0.219731 0.523740
Si Si4 0.689492 0.793596 0.357002
Si Si5 0.380246 0.712167 0.998778
O O1 0.252523 0.286134 0.683069
O O2 0.154119 0.282806 0.852745
O O3 0.210852 0.000000 0.793363
O O4 0.250000 0.250000 0.000000
O O5 0.987886 0.500000 0.232288
O O6 0.946212 0.775248 0.370446
O O7 0.945263 0.758790 0.055041
O O8 0.045047 0.779540 0.306901
O O9 0.352053 0.287509 0.523190
O O10 0.412483 0.000000 0.522763
O O11 0.699180 0.000000 0.401297
O O12 0.649135 0.793553 0.175648
O O13 0.370715 0.500000 0.983597
#
# Coordination Sequence:
#
# PCOD9177898 Si02
#       5
#     8   8   8   8   8
#     4   8  15  27  44  64  89 117 146 179 219 261
#     4   9  17  32  50  67  88 118 151 185 223 265
#     4   8  16  31  51  69  86 112 153 194 223 255
#     4   9  16  30  51  70  86 114 153 190 222 257
#     4  10  19  30  44  68  97 121 145 180 222 268
#
# _framework density 27.821199
#
# number of rings (size 3 to 8) (size 9 to 14) (size 15 to 20)
#    0.000    3.200    0.000    1.800    0.000    1.600 
#    0.000    9.000    0.000    0.000    0.000    0.000 
#    0.000    0.000    0.000    0.000    0.000    0.000 
#
# Total GULP energy -111833.107330 kJ/mol
# GULP energy per Si atom -5591.655367 kJ/mol
# Density = 2.775788 g / cm^3
# Si number density = 27.821199 Si / 1000 Ang^3
#
#
#
# Elastic Constant Matrix: (Units=GPa)
#
#
# Indices 1 2 3 4 5 6 
#
# 1 207.9577 10.7786 12.0888 0.0000 8.3952 0.0000
# 2 10.7786 120.1871 16.6808 0.0000 7.1453 0.0000
# 3 12.0888 16.6808 82.0730 0.0000 8.2733 0.0000
# 4 0.0000 0.0000 0.0000 16.1581 0.0000 4.4311
# 5 8.3952 7.1453 8.2733 0.0000 62.1548 0.0000
# 6 0.0000 0.0000 0.0000 4.4311 0.0000 1.4842
#
#
#
# Elastic Compliance Matrix: (Units=1/GPa)
#
#
# Indices 1 2 3 4 5 6 
#
# 1 0.004882 -0.000322 -0.000599 0.000000 -0.000543 0.000000
# 2 -0.000322 0.008619 -0.001631 0.000000 -0.000730 0.000000
# 3 -0.000599 -0.001631 0.012748 0.000000 -0.001428 0.000000
# 4 0.000000 0.000000 0.000000 0.341372 0.000000 -1.019149
# 5 -0.000543 -0.000730 -0.001428 0.000000 0.016436 0.000000
# 6 0.000000 0.000000 0.000000 -1.019149 0.000000 3.716374
#
#
# Mechanical properties :
#
#
# Convention : Reuss Voigt Hill
#
# Bulk Modulus (GPa) = 47.29236 54.36825 50.83031
# Shear Modulus (GPa) = 1.21578 40.67071 20.94325
#
# Velocity S-wave (km/s) = 0.66178 3.82758 2.74666
# Velocity P-wave (km/s) = 4.19756 6.25446 5.32624
#
# Compressibility (1/GPa) = 0.02114506
#
# Stress axis : x y z
#
# Youngs Moduli (GPa) = 204.82974 116.02254 78.44423
#
# Poissons Ratio (x) = 0.03741 0.04698
# Poissons Ratio (y) = 0.06605 0.12792
# Poissons Ratio (z) = 0.12267 0.18919
#
# Static dielectric constant tensor:
#      x y z
#    x 2.188140 0.000000 -0.045400 
#    y 0.000000 2.000940 0.000000 
#    z -0.045400 0.000000 2.323610 
# 
# From -- ./inp_files/92933.got.cif
#   From: 2010.05.17/outbox.cif.g08.bks.cpg/sg12_47_cif.got.tgz:92933.got - 2010.06.03 13:09:07.
