data_PCOD9177676
_publ_section_title
;
Structure prediction by ZEFSAII (Michael W. Deem and Ramdas Pophale) SiO2 
 PCOD9177676
Probable space group: C 2/M
;
_chemical_formula_sum "Si O2"
_cell_formula_units_Z 56
_cell_length_a 14.535553
_cell_length_b 28.136520
_cell_length_c 7.408340
_cell_angle_alpha 90.000000
_cell_angle_beta 115.620915
_cell_angle_gamma 90.000000
_cell_volume 2731.950018
_symmetry_space_group_name_H-M "C 2/M"
_symmetry_group_IT_number 12
_symmetry_cell_setting 'monoclinic'
loop_
_space_group_symop_operation_xyz
x,y,z
-x,y,-z
-x,-y,-z
x,-y,z
1/2+x,1/2+y,z
1/2-x,1/2+y,-z
1/2-x,1/2-y,-z
1/2+x,1/2-y,z
loop_
_atom_site_type_symbol
_atom_site_label
_atom_site_fract_x
_atom_site_fract_y
_atom_site_fract_z
Si Si1 0.283796 0.304927 0.627333
Si Si2 0.887737 0.200817 0.368977
Si Si3 0.733111 0.053776 0.287032
Si Si4 0.873336 0.909091 0.719236
Si Si5 0.819493 0.345208 0.778669
Si Si6 0.394412 0.752438 0.003241
Si Si7 0.085758 0.945696 0.848965
O O1 0.345572 0.277158 0.520713
O O2 0.343827 0.354142 0.712499
O O3 0.185291 0.324528 0.431865
O O4 0.301204 0.274322 0.821145
O O5 0.799628 0.161950 0.260419
O O6 0.000000 0.181644 0.500000
O O7 0.895460 0.236511 0.209746
O O8 0.791509 0.064953 0.523547
O O9 0.658757 0.099049 0.195586
O O10 0.821318 0.056617 0.210193
O O11 0.691380 0.000000 0.250393
O O12 0.985695 0.914383 0.728984
O O13 0.877394 0.932041 0.919980
O O14 0.880672 0.308381 0.953240
O O15 0.500000 0.736830 0.000000
O O16 0.047764 0.000000 0.815460
#
# Coordination Sequence:
#
# PCOD9177676 Si02
#       7
#     8   8   8   8   8   8   8
#     4   9  22  31  50  76 106 136 173 200 247 303
#     4  10  21  35  50  78 108 138 169 201 243 313
#     4  10  20  34  49  67  98 132 166 212 258 293
#     4  10  19  29  46  70 101 136 169 204 239 291
#     4   9  22  37  51  78 104 132 177 212 250 313
#     4  12  21  36  57  73 103 139 169 219 261 293
#     4  10  20  29  45  69  98 136 179 206 237 291
#
# _framework density 20.498180000000001
#
# number of rings (size 3 to 8) (size 9 to 14) (size 15 to 20)
#    0.857    1.143    1.429    3.000    6.000    1.143 
#    0.000    0.000    0.000    0.429    0.000    0.000 
#    0.000    0.571    0.000    0.143    0.000    0.000 
#
# Total GULP energy -156080.495533 kJ/mol
# GULP energy per Si atom -5574.303412 kJ/mol
# Density = 2.045152 g / cm^3
# Si number density = 20.498180 Si / 1000 Ang^3
#
#
#
# Elastic Constant Matrix: (Units=GPa)
#
#
# Indices 1 2 3 4 5 6 
#
# 1 29.6547 -2.8962 1.3010 0.0000 -2.6143 0.0000
# 2 -2.8962 149.2349 25.3992 0.0000 -8.5676 0.0000
# 3 1.3010 25.3992 46.5527 0.0000 -5.1930 0.0000
# 4 0.0000 0.0000 0.0000 22.0938 0.0000 -7.1123
# 5 -2.6143 -8.5676 -5.1930 0.0000 11.8564 0.0000
# 6 0.0000 0.0000 0.0000 -7.1123 0.0000 12.4671
#
#
#
# Elastic Compliance Matrix: (Units=1/GPa)
#
#
# Indices 1 2 3 4 5 6 
#
# 1 0.034603 0.001270 -0.000743 0.000000 0.008222 0.000000
# 2 0.001270 0.007596 -0.003718 0.000000 0.004141 0.000000
# 3 -0.000743 -0.003718 0.024405 0.000000 0.007839 0.000000
# 4 0.000000 0.000000 0.000000 0.055444 0.000000 0.031630
# 5 0.008222 0.004141 0.007839 0.000000 0.092581 0.000000
# 6 0.000000 0.000000 0.000000 0.031630 0.000000 0.098255
#
#
# Mechanical properties :
#
#
# Convention : Reuss Voigt Hill
#
# Bulk Modulus (GPa) = 16.60516 30.33891 23.47204
# Shear Modulus (GPa) = 14.73451 22.72601 18.73026
#
# Velocity S-wave (km/s) = 2.68399 3.33330 3.02611
# Velocity P-wave (km/s) = 4.20992 5.44495 4.86677
#
# Compressibility (1/GPa) = 0.06022224
#
# Stress axis : x y z
#
# Youngs Moduli (GPa) = 28.89928 131.64836 40.97560
#
# Poissons Ratio (x) = -0.16719 0.03043
# Poissons Ratio (y) = -0.03670 0.15235
# Poissons Ratio (z) = 0.02146 0.48947
#
# Static dielectric constant tensor:
#      x y z
#    x 1.751500 0.000000 0.009050 
#    y 0.000000 1.805690 0.000000 
#    z 0.009050 0.000000 1.759170 
# 
# From -- ./inp_files/78862.got.cif
#   From: 2010.05.17/outbox.cif.g08.bks.cpg/sg12_40_cif.got.tgz:78862.got - 2010.06.03 13:09:07.
