data_PCOD9177120
_publ_section_title
;
Structure prediction by ZEFSAII (Michael W. Deem and Ramdas Pophale) SiO2 
 PCOD9177120
Probable space group: C 2/M
;
_chemical_formula_sum "Si O2"
_cell_formula_units_Z 50
_cell_length_a 16.257744
_cell_length_b 15.741155
_cell_length_c 10.559308
_cell_angle_alpha 90.000000
_cell_angle_beta 65.911866
_cell_angle_gamma 90.000000
_cell_volume 2466.973294
_symmetry_space_group_name_H-M "C 2/M"
_symmetry_group_IT_number 12
_symmetry_cell_setting 'monoclinic'
loop_
_space_group_symop_operation_xyz
x,y,z
-x,y,-z
-x,-y,-z
x,-y,z
1/2+x,1/2+y,z
1/2-x,1/2+y,-z
1/2-x,1/2-y,-z
1/2+x,1/2-y,z
loop_
_atom_site_type_symbol
_atom_site_label
_atom_site_fract_x
_atom_site_fract_y
_atom_site_fract_z
Si Si1 0.867358 0.707702 0.694229
Si Si2 0.381272 0.595340 0.012871
Si Si3 0.356680 0.239070 0.420750
Si Si4 0.991536 0.857801 0.708003
Si Si5 0.162238 0.728564 0.841667
Si Si6 0.000000 0.000000 0.500000
Si Si7 0.676591 0.096248 0.052603
O O1 0.886915 0.695746 0.532890
O O2 0.938418 0.771325 0.711619
O O3 0.769627 0.753729 0.765509
O O4 0.859911 0.625602 0.787458
O O5 0.384452 0.500000 0.067867
O O6 0.461030 0.607305 0.862277
O O7 0.378811 0.678853 0.101407
O O8 0.285640 0.600205 0.997698
O O9 0.250000 0.250000 0.500000
O O10 0.404930 0.330730 0.377643
O O11 0.372482 0.197269 0.273275
O O12 0.966767 0.926472 0.619900
O O13 0.146493 0.663347 0.965332
O O14 0.651249 0.000000 0.037994
#
# Coordination Sequence:
#
# PCOD9177120 Si02
#       7
#     8   8   8   8   8   2   8
#     4  10  18  38  60  81 115 160 201 242 293 362
#     4  10  19  33  58  92 122 151 195 242 303 367
#     4  10  23  37  56  80 120 165 196 234 305 365
#     4  12  20  36  60  90 120 159 197 248 294 370
#     4  10  19  37  55  87 122 158 193 243 303 365
#     4  12  24  32  60 106 122 148 212 250 306 368
#     4  10  19  34  63  90 112 153 205 253 295 353
#
# _framework density 20.267751000000001
#
# number of rings (size 3 to 8) (size 9 to 14) (size 15 to 20)
#    0.000    1.600    5.600    0.960    0.000    0.640 
#    1.440    1.600    1.760    3.840    0.000    0.000 
#    0.000    0.000    0.000    0.000    0.000    0.000 
#
# Total GULP energy -139208.672653 kJ/mol
# GULP energy per Si atom -5568.346906 kJ/mol
# Density = 2.022162 g / cm^3
# Si number density = 20.267751 Si / 1000 Ang^3
#
#
#
# Elastic Constant Matrix: (Units=GPa)
#
#
# Indices 1 2 3 4 5 6 
#
# 1 38.7657 36.0099 16.2399 0.0000 3.3362 0.0000
# 2 36.0099 118.3038 57.6173 0.0000 9.0525 0.0000
# 3 16.2399 57.6173 122.0926 0.0000 20.6633 0.0000
# 4 0.0000 0.0000 0.0000 -21.0325 0.0000 -45.9564
# 5 3.3362 9.0525 20.6633 0.0000 38.6428 0.0000
# 6 0.0000 0.0000 0.0000 -45.9564 0.0000 -46.3705
#
#
#
# Elastic Compliance Matrix: (Units=1/GPa)
#
#
# Indices 1 2 3 4 5 6 
#
# 1 0.036012 -0.011210 0.000640 0.000000 -0.000825 0.000000
# 2 -0.011210 0.014466 -0.005416 0.000000 0.000475 0.000000
# 3 0.000640 -0.005416 0.011496 0.000000 -0.004934 0.000000
# 4 0.000000 0.000000 0.000000 0.040794 0.000000 -0.040430
# 5 -0.000825 0.000475 -0.004934 0.000000 0.028476 0.000000
# 6 0.000000 0.000000 0.000000 -0.040430 0.000000 0.018503
#
#
# Mechanical properties :
#
#
# Convention : Reuss Voigt Hill
#
# Bulk Modulus (GPa) = 33.33114 55.43291 44.38202
# Shear Modulus (GPa) = 26.07941 5.53429 15.80685
#
# Velocity S-wave (km/s) = 3.59101 1.65424 2.79570
# Velocity P-wave (km/s) = 5.80301 5.57300 5.68917
#
# Compressibility (1/GPa) = 0.03000197
#
# Stress axis : x y z
#
# Youngs Moduli (GPa) = 27.76843 69.12523 86.98324
#
# Poissons Ratio (x) = 0.77489 -0.05564
# Poissons Ratio (y) = 0.31128 0.47113
# Poissons Ratio (z) = -0.01776 0.37440
#
# Static dielectric constant tensor:
#      x y z
#    x 1.787760 0.000000 0.007370 
#    y 0.000000 1.661890 0.000000 
#    z 0.007370 0.000000 1.748110 
# 
# From -- ./inp_files/155925.got.cif
#   From: 2010.05.17/outbox.cif.g08.bks.cpg/sg12_78_cif.got.tgz:155925.got - 2010.06.03 13:09:07.
