data_PCOD9177162
_publ_section_title
;
Structure prediction by ZEFSAII (Michael W. Deem and Ramdas Pophale) SiO2 
 PCOD9177162
Probable space group: C 2/M
;
_chemical_formula_sum "Si O2"
_cell_formula_units_Z 56
_cell_length_a 9.711255
_cell_length_b 31.841032
_cell_length_c 11.533767
_cell_angle_alpha 90.000000
_cell_angle_beta 51.127274
_cell_angle_gamma 90.000000
_cell_volume 2776.615249
_symmetry_space_group_name_H-M "C 2/M"
_symmetry_group_IT_number 12
_symmetry_cell_setting 'monoclinic'
loop_
_space_group_symop_operation_xyz
x,y,z
-x,y,-z
-x,-y,-z
x,-y,z
1/2+x,1/2+y,z
1/2-x,1/2+y,-z
1/2-x,1/2-y,-z
1/2+x,1/2-y,z
loop_
_atom_site_type_symbol
_atom_site_label
_atom_site_fract_x
_atom_site_fract_y
_atom_site_fract_z
Si Si1 0.490390 0.277321 0.697157
Si Si2 0.492106 0.354829 0.866186
Si Si3 0.777537 0.000000 0.986051
Si Si4 0.295424 0.611094 0.613360
Si Si5 0.798584 0.588743 0.591710
Si Si6 0.288619 0.203367 0.347128
Si Si7 0.801615 0.413372 0.090386
Si Si8 0.297036 0.500000 0.249087
O O1 0.481023 0.310722 0.805348
O O2 0.540904 0.231283 0.716057
O O3 0.316520 0.279433 0.709396
O O4 0.653328 0.291097 0.527026
O O5 0.662712 0.380260 0.728321
O O6 0.323988 0.382488 0.915290
O O7 0.500000 0.350869 0.000000
O O8 0.699116 0.958219 0.971242
O O9 0.989527 0.000000 0.853652
O O10 0.750145 0.000000 0.138161
O O11 0.500000 0.624956 0.500000
O O12 0.247397 0.588746 0.519868
O O13 0.183296 0.653896 0.683247
O O14 0.273955 0.583754 0.739456
O O15 0.775132 0.542300 0.655457
O O16 0.000000 0.603074 0.500000
O O17 0.000000 0.397343 0.000000
#
# Coordination Sequence:
#
# PCOD9177162 Si02
#       8
#     8   8   4   8   8   8   8   4
#     4  10  20  38  64  96 128 173 222 276 338 406
#     4  12  24  46  68  97 141 185 227 278 347 415
#     4  11  23  45  71  96 137 189 230 266 348 424
#     4  12  21  45  70  95 139 172 225 293 344 401
#     4  12  26  42  68 104 134 177 229 282 344 403
#     4  10  18  38  65  93 129 166 221 281 338 398
#     4  12  26  44  70 101 132 182 232 283 340 407
#     4  11  23  45  67  96 143 181 220 286 336 406
#
# _framework density 20.168441000000001
#
# number of rings (size 3 to 8) (size 9 to 14) (size 15 to 20)
#    0.000    0.714    7.143    1.286    4.000    1.714 
#    0.000    2.857    0.000    0.000    0.000    0.000 
#    0.000    0.000    0.000    0.000    0.000    0.000 
#
# Total GULP energy -156611.025177 kJ/mol
# GULP energy per Si atom -5593.250899 kJ/mol
# Density = 2.012254 g / cm^3
# Si number density = 20.168441 Si / 1000 Ang^3
#
#
#
# Elastic Constant Matrix: (Units=GPa)
#
#
# Indices 1 2 3 4 5 6 
#
# 1 108.7153 35.3972 73.8616 0.0000 21.9160 0.0000
# 2 35.3972 74.9339 32.5173 0.0000 8.3585 0.0000
# 3 73.8616 32.5173 79.3618 0.0000 29.0962 0.0000
# 4 0.0000 0.0000 0.0000 -7.2301 0.0000 9.4076
# 5 21.9160 8.3585 29.0962 0.0000 42.7053 0.0000
# 6 0.0000 0.0000 0.0000 9.4076 0.0000 -0.0891
#
#
#
# Elastic Compliance Matrix: (Units=1/GPa)
#
#
# Indices 1 2 3 4 5 6 
#
# 1 0.025773 -0.001920 -0.024645 0.000000 0.003940 0.000000
# 2 -0.001920 0.016479 -0.005524 0.000000 0.001523 0.000000
# 3 -0.024645 -0.005524 0.043678 0.000000 -0.016030 0.000000
# 4 0.000000 0.000000 0.000000 0.001014 0.000000 0.107077
# 5 0.003940 0.001523 -0.016030 0.000000 0.032018 0.000000
# 6 0.000000 0.000000 0.000000 0.107077 0.000000 0.082293
#
#
# Mechanical properties :
#
#
# Convention : Reuss Voigt Hill
#
# Bulk Modulus (GPa) = 45.97098 60.72926 53.35012
# Shear Modulus (GPa) = 18.33641 15.15955 16.74798
#
# Velocity S-wave (km/s) = 3.01851 2.74459 2.88480
# Velocity P-wave (km/s) = 5.91536 6.34193 6.13236
#
# Compressibility (1/GPa) = 0.02175285
#
# Stress axis : x y z
#
# Youngs Moduli (GPa) = 38.80083 60.68304 22.89498
#
# Poissons Ratio (x) = 0.11648 0.56424
# Poissons Ratio (y) = 0.07448 0.12647
# Poissons Ratio (z) = 0.95623 0.33522
#
# Static dielectric constant tensor:
#      x y z
#    x 1.710170 0.000000 -0.016640 
#    y 0.000000 1.690950 0.000000 
#    z -0.016640 0.000000 1.739930 
# 
# From -- ./inp_files/125686.got.cif
#   From: 2010.05.17/outbox.cif.g08.bks.cpg/sg12_63_cif.got.tgz:125686.got - 2010.06.03 13:09:07.
