data_PCOD9177946
_publ_section_title
;
Structure prediction by ZEFSAII (Michael W. Deem and Ramdas Pophale) SiO2 
 PCOD9177946
Probable space group: C 2/M
;
_chemical_formula_sum "Si O2"
_cell_formula_units_Z 40
_cell_length_a 23.911381
_cell_length_b 7.551427
_cell_length_c 29.926845
_cell_angle_alpha 90.000000
_cell_angle_beta 157.848663
_cell_angle_gamma 90.000000
_cell_volume 2037.504134
_symmetry_space_group_name_H-M "C 2/M"
_symmetry_group_IT_number 12
_symmetry_cell_setting 'monoclinic'
loop_
_space_group_symop_operation_xyz
x,y,z
-x,y,-z
-x,-y,-z
x,-y,z
1/2+x,1/2+y,z
1/2-x,1/2+y,-z
1/2-x,1/2-y,-z
1/2+x,1/2-y,z
loop_
_atom_site_type_symbol
_atom_site_label
_atom_site_fract_x
_atom_site_fract_y
_atom_site_fract_z
Si Si1 0.797931 0.286571 0.388057
Si Si2 0.746111 0.295113 0.072109
Si Si3 0.031987 0.707860 0.837462
Si Si4 0.666746 0.282704 0.111253
Si Si5 0.621798 0.783995 0.652113
O O1 0.799133 0.500000 0.388707
O O2 0.643332 0.230026 0.294734
O O3 0.809943 0.228693 0.345117
O O4 0.949514 0.228249 0.524301
O O5 0.786203 0.500000 0.109514
O O6 0.876406 0.218718 0.137132
O O7 0.714366 0.219284 0.097338
O O8 0.599532 0.288878 0.932698
O O9 0.066811 0.500000 0.866213
O O10 0.665738 0.500000 0.109964
O O11 0.781086 0.225888 0.234208
O O12 0.500000 0.227827 0.000000
O O13 0.622845 0.000000 0.652987
#
# Coordination Sequence:
#
# PCOD9177946 Si02
#       5
#     8   8   8   8   8
#     4   9  16  29  49  69  90 117 150 185 220 261
#     4   9  18  31  47  67  90 117 150 186 222 264
#     4  10  19  30  45  66  92 120 150 184 222 264
#     4   9  15  25  46  72  91 109 142 189 230 259
#     4   8  15  27  46  72  93 112 147 190 223 257
#
# _framework density 19.631861000000001
#
# number of rings (size 3 to 8) (size 9 to 14) (size 15 to 20)
#    0.000    3.000    0.000    3.000    0.000    4.000 
#    0.000    3.000    0.000    6.600    0.000    0.000 
#    0.000    0.000    0.000    0.000    0.000    0.000 
#
# Total GULP energy -111542.540597 kJ/mol
# GULP energy per Si atom -5577.127030 kJ/mol
# Density = 1.958718 g / cm^3
# Si number density = 19.631861 Si / 1000 Ang^3
#
#
#
# Elastic Constant Matrix: (Units=GPa)
#
#
# Indices 1 2 3 4 5 6 
#
# 1 143.8720 7.3295 109.7919 -0.0002 -12.2638 0.0007
# 2 7.3295 45.1608 -1.0179 0.0018 -0.8670 0.0047
# 3 109.7919 -1.0179 163.3825 -0.0001 1.9817 0.0001
# 4 -0.0002 0.0018 -0.0001 12.4988 -0.0004 5.2610
# 5 -12.2638 -0.8670 1.9817 -0.0004 33.0161 0.0000
# 6 0.0007 0.0047 0.0001 5.2610 0.0000 5.5355
#
#
#
# Elastic Compliance Matrix: (Units=1/GPa)
#
#
# Indices 1 2 3 4 5 6 
#
# 1 0.015825 -0.002686 -0.010730 0.000001 0.006452 0.000000
# 2 -0.002686 0.022613 0.001952 0.000008 -0.000521 -0.000027
# 3 -0.010730 0.001952 0.013400 0.000000 -0.004739 0.000000
# 4 0.000001 0.000008 0.000000 0.133357 0.000002 -0.126746
# 5 0.006452 -0.000521 -0.004739 0.000002 0.032956 -0.000002
# 6 0.000000 -0.000027 0.000000 -0.126746 -0.000002 0.301114
#
#
# Mechanical properties :
#
#
# Convention : Reuss Voigt Hill
#
# Bulk Modulus (GPa) = 34.58780 64.95803 49.77292
# Shear Modulus (GPa) = 9.06076 25.96420 17.51248
#
# Velocity S-wave (km/s) = 2.15066 3.64064 2.98995
# Velocity P-wave (km/s) = 4.88094 7.12967 6.10966
#
# Compressibility (1/GPa) = 0.02891193
#
# Stress axis : x y z
#
# Youngs Moduli (GPa) = 63.18960 44.22214 74.62447
#
# Poissons Ratio (x) = 0.11880 0.80069
# Poissons Ratio (y) = 0.16975 -0.14570
# Poissons Ratio (z) = 0.67800 -0.08634
#
# Static dielectric constant tensor:
#      x y z
#    x 1.684020 0.000000 0.009870 
#    y 0.000000 1.759490 0.000000 
#    z 0.009870 0.000000 1.655380 
# 
# From -- ./inp_files/162359.got.cif
#   From: 2010.05.17/outbox.cif.g08.bks.cpg/sg12_82_cif.got.tgz:162359.got - 2010.06.03 13:09:07.
