data_PCOD9177280
_publ_section_title
;
Structure prediction by ZEFSAII (Michael W. Deem and Ramdas Pophale) SiO2 
 PCOD9177280
Probable space group: C 2/M
;
_chemical_formula_sum "Si O2"
_cell_formula_units_Z 64
_cell_length_a 36.290740
_cell_length_b 13.870757
_cell_length_c 9.260070
_cell_angle_alpha 90.000000
_cell_angle_beta 104.783261
_cell_angle_gamma 90.000000
_cell_volume 4507.034767
_symmetry_space_group_name_H-M "C 2/M"
_symmetry_group_IT_number 12
_symmetry_cell_setting 'monoclinic'
loop_
_space_group_symop_operation_xyz
x,y,z
-x,y,-z
-x,-y,-z
x,-y,z
1/2+x,1/2+y,z
1/2-x,1/2+y,-z
1/2-x,1/2-y,-z
1/2+x,1/2-y,z
loop_
_atom_site_type_symbol
_atom_site_label
_atom_site_fract_x
_atom_site_fract_y
_atom_site_fract_z
Si Si1 0.957526 0.616961 0.289724
Si Si2 0.763910 0.109481 0.092948
Si Si3 0.881207 0.384252 0.052047
Si Si4 0.236090 0.109481 0.565128
Si Si5 0.808010 0.301510 0.136135
Si Si6 0.191990 0.301510 0.520116
Si Si7 0.881207 0.615748 0.710367
Si Si8 0.042474 0.383039 0.374672
O O1 0.958072 0.500000 0.286309
O O2 0.922044 0.647058 0.157031
O O3 0.951719 0.644252 0.451719
O O4 1.000000 0.649238 0.286944
O O5 0.754275 0.117074 0.254275
O O6 0.795543 0.190790 0.095240
O O7 0.776117 0.000000 0.076469
O O8 0.726537 0.135656 0.964084
O O9 0.877370 0.500000 0.071943
O O10 0.846899 0.331749 0.098889
O O11 0.879414 0.367310 0.879414
O O12 0.204457 0.190790 0.504153
O O13 0.273463 0.135656 0.511010
O O14 0.223883 0.000000 0.524234
O O15 0.810678 0.315773 0.310678
O O16 0.153100 0.331749 0.405090
O O17 0.877370 0.500000 0.682798
O O18 0.922044 0.647058 0.687057
O O19 0.041928 0.500000 0.370164
#
# Coordination Sequence:
#
# PCOD9177280 Si02
#       8
#     8   8   8   8   8   8   8   8
#     4   8  14  25  40  57  78 105 136 168 200 234
#     4   9  18  32  46  59  79 106 134 167 207 245
#     4  10  19  28  39  57  83 113 140 167 199 235
#     4   9  18  32  46  59  79 106 134 167 207 245
#     4  10  19  29  43  62  81 104 136 170 202 239
#     4  10  19  29  43  62  81 104 136 170 202 239
#     4  10  19  28  39  57  83 113 140 167 199 235
#     4   8  14  25  40  57  78 105 136 168 200 234
#
# _framework density 14.200024000000001
#
# number of rings (size 3 to 8) (size 9 to 14) (size 15 to 20)
#    0.000    2.750    0.000    3.000    0.000    6.500 
#    0.000    2.500    0.000    0.000    0.000    0.000 
#    0.000    1.000    0.000   11.500    0.000    3.750 
#
# Total GULP energy -178264.016033 kJ/mol
# GULP energy per Si atom -5570.750501 kJ/mol
# Density = 1.416770 g / cm^3
# Si number density = 14.200024 Si / 1000 Ang^3
#
#
#
# Elastic Constant Matrix: (Units=GPa)
#
#
# Indices 1 2 3 4 5 6 
#
# 1 141.8606 43.9539 80.4615 0.0000 0.7353 0.0000
# 2 43.9539 60.6965 42.7875 0.0000 0.1670 0.0000
# 3 80.4615 42.7875 76.6968 0.0000 8.5974 0.0000
# 4 0.0000 0.0000 0.0000 15.9249 0.0000 0.3196
# 5 0.7353 0.1670 8.5974 0.0000 27.0065 0.0000
# 6 0.0000 0.0000 0.0000 0.3196 0.0000 18.1564
#
#
#
# Elastic Compliance Matrix: (Units=1/GPa)
#
#
# Indices 1 2 3 4 5 6 
#
# 1 0.018297 0.001223 -0.020554 0.000000 0.006038 0.000000
# 2 0.001223 0.027857 -0.017422 0.000000 0.005341 0.000000
# 3 -0.020554 -0.017422 0.045884 0.000000 -0.013939 0.000000
# 4 0.000000 0.000000 0.000000 0.062817 0.000000 -0.001106
# 5 0.006038 0.005341 -0.013939 0.000000 0.041268 0.000000
# 6 0.000000 0.000000 0.000000 -0.001106 0.000000 0.055097
#
#
# Mechanical properties :
#
#
# Convention : Reuss Voigt Hill
#
# Bulk Modulus (GPa) = 53.96597 68.18441 61.07519
# Shear Modulus (GPa) = 15.11015 19.68763 17.39889
#
# Velocity S-wave (km/s) = 3.26558 3.72755 3.50419
# Velocity P-wave (km/s) = 7.23224 8.16379 7.71210
#
# Compressibility (1/GPa) = 0.01853019
#
# Stress axis : x y z
#
# Youngs Moduli (GPa) = 54.65371 35.89771 21.79429
#
# Poissons Ratio (x) = -0.04390 0.44796
# Poissons Ratio (y) = -0.06684 0.37971
# Poissons Ratio (z) = 1.12336 0.62543
#
# Static dielectric constant tensor:
#      x y z
#    x 1.460010 0.000000 -0.001730 
#    y 0.000000 1.457180 0.000000 
#    z -0.001730 0.000000 1.472100 
# 
# From -- ./inp_files/111229.got.cif
#   From: 2010.05.17/outbox.cif.g08.bks.cpg/sg12_56_cif.got.tgz:111229.got - 2010.06.03 13:09:07.
