data_PCOD9177841
_publ_section_title
;
Structure prediction by ZEFSAII (Michael W. Deem and Ramdas Pophale) SiO2 
 PCOD9177841
Probable space group: C 2/M
;
_chemical_formula_sum "Si O2"
_cell_formula_units_Z 64
_cell_length_a 20.945146
_cell_length_b 22.558657
_cell_length_c 5.469891
_cell_angle_alpha 90.000000
_cell_angle_beta 99.051938
_cell_angle_gamma 90.000000
_cell_volume 2552.305732
_symmetry_space_group_name_H-M "C 2/M"
_symmetry_group_IT_number 12
_symmetry_cell_setting 'monoclinic'
loop_
_space_group_symop_operation_xyz
x,y,z
-x,y,-z
-x,-y,-z
x,-y,z
1/2+x,1/2+y,z
1/2-x,1/2+y,-z
1/2-x,1/2-y,-z
1/2+x,1/2-y,z
loop_
_atom_site_type_symbol
_atom_site_label
_atom_site_fract_x
_atom_site_fract_y
_atom_site_fract_z
Si Si1 0.934248 0.213188 0.339429
Si Si2 0.123344 0.934222 0.496861
Si Si3 0.572782 0.571938 0.964133
Si Si4 0.396783 0.877141 0.795981
Si Si5 0.634931 0.264402 0.202090
Si Si6 0.754904 0.606198 0.718696
Si Si7 0.582086 0.846059 0.698663
Si Si8 0.737415 0.175315 0.779623
O O1 0.883805 0.211773 0.538177
O O2 0.952173 0.283176 0.307804
O O3 0.000000 0.187605 0.500000
O O4 0.904313 0.204147 0.046313
O O5 0.116801 0.909655 0.220216
O O6 0.196620 0.937689 0.630158
O O7 0.093975 0.000000 0.455678
O O8 0.087905 0.903129 0.703428
O O9 0.580178 0.500000 0.942211
O O10 0.500000 0.584813 0.000000
O O11 0.381054 0.805573 0.796178
O O12 0.329448 0.912954 0.760808
O O13 0.429417 0.881749 0.555454
O O14 0.430889 0.885369 0.072937
O O15 0.711311 0.270848 0.190260
O O16 0.750147 0.648367 0.480245
O O17 0.743167 0.636040 0.973961
O O18 0.659143 0.825762 0.746103
#
# Coordination Sequence:
#
# PCOD9177841 Si02
#       8
#     8   8   8   8   8   8   8   8
#     4  10  19  30  44  62  85 114 147 177 211 254
#     4  10  19  31  48  68  87 108 135 167 213 268
#     4   9  17  30  49  68  82 102 139 183 216 248
#     4   8  16  27  42  64  85 104 133 168 207 241
#     4  10  19  31  48  65  82 110 148 183 211 247
#     4  10  19  30  45  66  88 107 131 170 217 254
#     4   8  16  27  42  63  83 105 139 178 212 240
#     4  10  19  31  48  67  85 108 144 183 215 245
#
# _framework density 25.075367
#
# number of rings (size 3 to 8) (size 9 to 14) (size 15 to 20)
#    0.000    2.625    0.000    2.250    0.000   10.500 
#    0.000    0.000    0.000   15.000    0.000    0.000 
#    0.000    0.000    0.000    0.000    0.000  303.750 
#
# Total GULP energy -178577.496281 kJ/mol
# GULP energy per Si atom -5580.546759 kJ/mol
# Density = 2.501829 g / cm^3
# Si number density = 25.075367 Si / 1000 Ang^3
#
#
#
# Elastic Constant Matrix: (Units=GPa)
#
#
# Indices 1 2 3 4 5 6 
#
# 1 94.3231 8.6130 49.2955 0.0000 3.5188 0.0000
# 2 8.6130 17.4397 25.5103 0.0000 7.4876 0.0000
# 3 49.2955 25.5103 262.8870 0.0000 -6.3851 0.0000
# 4 0.0000 0.0000 0.0000 20.3230 0.0000 10.6834
# 5 3.5188 7.4876 -6.3851 0.0000 45.8030 0.0000
# 6 0.0000 0.0000 0.0000 10.6834 0.0000 15.2506
#
#
#
# Elastic Compliance Matrix: (Units=1/GPa)
#
#
# Indices 1 2 3 4 5 6 
#
# 1 0.011915 -0.002636 -0.001997 0.000000 -0.000763 0.000000
# 2 -0.002636 0.074524 -0.007052 0.000000 -0.012963 0.000000
# 3 -0.001997 -0.007052 0.004911 0.000000 0.001991 0.000000
# 4 0.000000 0.000000 0.000000 0.077887 0.000000 -0.054562
# 5 -0.000763 -0.012963 0.001991 0.000000 0.024288 0.000000
# 6 0.000000 0.000000 0.000000 -0.054562 0.000000 0.103793
#
#
# Mechanical properties :
#
#
# Convention : Reuss Voigt Hill
#
# Bulk Modulus (GPa) = 14.71032 60.16524 37.43778
# Shear Modulus (GPa) = 14.56252 35.69072 25.12662
#
# Velocity S-wave (km/s) = 2.41249 3.77681 3.16894
# Velocity P-wave (km/s) = 3.69315 6.56238 5.32467
#
# Compressibility (1/GPa) = 0.06797951
#
# Stress axis : x y z
#
# Youngs Moduli (GPa) = 83.93030 13.41853 203.62119
#
# Poissons Ratio (x) = 0.03537 0.40662
# Poissons Ratio (y) = 0.22122 1.43600
# Poissons Ratio (z) = 0.16760 0.09463
#
# Static dielectric constant tensor:
#      x y z
#    x 2.060020 0.000000 0.019640 
#    y 0.000000 2.035030 0.000000 
#    z 0.019640 0.000000 2.054590 
# 
# From -- ./inp_files/26080.got.cif
#   From: 2010.05.17/outbox.cif.g08.bks.cpg/sg12_14_cif.got.tgz:26080.got - 2010.06.03 13:09:07.
