data_PCOD9177233
_publ_section_title
;
Structure prediction by ZEFSAII (Michael W. Deem and Ramdas Pophale) SiO2 
 PCOD9177233
Probable space group: C 2/M
;
_chemical_formula_sum "Si O2"
_cell_formula_units_Z 44
_cell_length_a 12.062342
_cell_length_b 18.356032
_cell_length_c 8.805704
_cell_angle_alpha 90.000000
_cell_angle_beta 76.401739
_cell_angle_gamma 90.000000
_cell_volume 1895.075665
_symmetry_space_group_name_H-M "C 2/M"
_symmetry_group_IT_number 12
_symmetry_cell_setting 'monoclinic'
loop_
_space_group_symop_operation_xyz
x,y,z
-x,y,-z
-x,-y,-z
x,-y,z
1/2+x,1/2+y,z
1/2-x,1/2+y,-z
1/2-x,1/2-y,-z
1/2+x,1/2-y,z
loop_
_atom_site_type_symbol
_atom_site_label
_atom_site_fract_x
_atom_site_fract_y
_atom_site_fract_z
Si Si1 0.995550 0.417060 0.680498
Si Si2 0.808672 0.676654 0.234513
Si Si3 0.072504 0.918758 0.615369
Si Si4 0.000000 0.738728 0.000000
Si Si5 0.750896 0.844946 0.239378
Si Si6 0.393459 0.633345 0.881447
O O1 0.999604 0.500000 0.746276
O O2 0.874964 0.376411 0.748560
O O3 0.000000 0.425176 0.500000
O O4 0.103509 0.366146 0.687910
O O5 0.759810 0.758536 0.274148
O O6 0.702433 0.630411 0.215246
O O7 0.890720 0.691258 0.064724
O O8 0.989581 0.920542 0.790017
O O9 0.000000 0.883963 0.500000
O O10 0.186692 0.880716 0.635856
O O11 0.102203 0.000000 0.556601
O O12 0.965928 0.791104 0.871181
O O13 0.827296 0.865241 0.064311
#
# Coordination Sequence:
#
# PCOD9177233 Si02
#       6
#     8   8   8   4   8   8
#     4  11  27  47  65  96 144 187 223 278 349 409
#     4  11  22  39  71  98 131 172 227 278 334 401
#     4  11  25  42  64  97 138 177 219 274 337 401
#     4  10  18  42  62 102 134 168 216 288 346 390
#     4  11  23  44  72  98 132 175 228 280 333 399
#     4  11  21  40  67 101 132 169 218 280 336 395
#
# _framework density 23.218071999999999
#
# number of rings (size 3 to 8) (size 9 to 14) (size 15 to 20)
#    0.000    1.091    3.636    4.909    2.545    4.364 
#    0.000    3.182    0.000    0.000    0.000    0.000 
#    0.000    0.000    0.000    0.000    0.000    0.000 
#
# Total GULP energy -122641.146482 kJ/mol
# GULP energy per Si atom -5574.597567 kJ/mol
# Density = 2.316523 g / cm^3
# Si number density = 23.218072 Si / 1000 Ang^3
#
#
#
# Elastic Constant Matrix: (Units=GPa)
#
#
# Indices 1 2 3 4 5 6 
#
# 1 157.2706 49.5580 30.8289 0.0000 24.9453 0.0000
# 2 49.5580 102.0083 27.9315 0.0000 15.5913 0.0000
# 3 30.8289 27.9315 71.3784 0.0000 21.9128 0.0000
# 4 0.0000 0.0000 0.0000 27.2898 0.0000 14.6851
# 5 24.9453 15.5913 21.9128 0.0000 51.8902 0.0000
# 6 0.0000 0.0000 0.0000 14.6851 0.0000 48.8116
#
#
#
# Elastic Compliance Matrix: (Units=1/GPa)
#
#
# Indices 1 2 3 4 5 6 
#
# 1 0.008002 -0.003120 -0.001542 0.000000 -0.002258 0.000000
# 2 -0.003120 0.012329 -0.003217 0.000000 -0.000846 0.000000
# 3 -0.001542 -0.003217 0.017706 0.000000 -0.005769 0.000000
# 4 0.000000 0.000000 0.000000 0.043722 0.000000 -0.013154
# 5 -0.002258 -0.000846 -0.005769 0.000000 0.023047 0.000000
# 6 0.000000 0.000000 0.000000 -0.013154 0.000000 0.024444
#
#
# Mechanical properties :
#
#
# Convention : Reuss Voigt Hill
#
# Bulk Modulus (GPa) = 44.88666 60.81045 52.84855
# Shear Modulus (GPa) = 32.80060 40.42089 36.61075
#
# Velocity S-wave (km/s) = 3.76269 4.17696 3.97523
# Velocity P-wave (km/s) = 6.18480 7.03637 6.62429
#
# Compressibility (1/GPa) = 0.02227834
#
# Stress axis : x y z
#
# Youngs Moduli (GPa) = 124.96649 81.10788 56.47842
#
# Poissons Ratio (x) = 0.25308 0.08708
# Poissons Ratio (y) = 0.38993 0.18171
# Poissons Ratio (z) = 0.19269 0.26095
#
# Static dielectric constant tensor:
#      x y z
#    x 1.919010 0.000000 0.011620 
#    y 0.000000 1.914180 0.000000 
#    z 0.011620 0.000000 1.941560 
# 
# From -- ./inp_files/49367.got.cif
#   From: 2010.05.17/outbox.cif.g08.bks.cpg/sg12_25_cif.got.tgz:49367.got - 2010.06.03 13:09:07.
