data_PCOD9177460
_publ_section_title
;
Structure prediction by ZEFSAII (Michael W. Deem and Ramdas Pophale) SiO2 
 PCOD9177460
Probable space group: C 2/M
;
_chemical_formula_sum "Si O2"
_cell_formula_units_Z 48
_cell_length_a 20.041029
_cell_length_b 7.462197
_cell_length_c 16.949961
_cell_angle_alpha 90.000000
_cell_angle_beta 109.820165
_cell_angle_gamma 90.000000
_cell_volume 2384.706650
_symmetry_space_group_name_H-M "C 2/M"
_symmetry_group_IT_number 12
_symmetry_cell_setting 'monoclinic'
loop_
_space_group_symop_operation_xyz
x,y,z
-x,y,-z
-x,-y,-z
x,-y,z
1/2+x,1/2+y,z
1/2-x,1/2+y,-z
1/2-x,1/2-y,-z
1/2+x,1/2-y,z
loop_
_atom_site_type_symbol
_atom_site_label
_atom_site_fract_x
_atom_site_fract_y
_atom_site_fract_z
Si Si1 0.523661 0.718938 0.595577
Si Si2 0.050087 0.784413 0.275127
Si Si3 0.666595 0.718676 0.736304
Si Si4 0.092766 0.216050 0.866600
Si Si5 0.175362 0.711258 0.215309
Si Si6 0.420699 0.790796 0.963709
O O1 0.500000 0.779825 0.500000
O O2 0.523229 0.500000 0.594562
O O3 0.471378 0.774644 0.645715
O O4 0.602634 0.775406 0.653346
O O5 0.125697 0.730186 0.271579
O O6 0.986471 0.724012 0.191210
O O7 0.047899 0.000000 0.274158
O O8 0.665240 0.500000 0.733908
O O9 0.644613 0.771247 0.816532
O O10 0.744988 0.782836 0.746277
O O11 0.092422 0.000000 0.868262
O O12 0.110543 0.279361 0.961036
O O13 0.184474 0.500000 0.203426
O O14 0.130211 0.787546 0.123655
O O15 0.429798 0.000000 0.946523
O O16 0.500000 0.710852 0.000000
#
# Coordination Sequence:
#
# PCOD9177460 Si02
#       6
#     8   8   8   8   8   8
#     4   8  14  28  51  73  90 113 148 187 223 266
#     4   9  17  29  47  70  92 115 149 189 226 264
#     4   8  16  30  46  66  91 119 151 184 225 271
#     4   9  17  30  47  65  87 118 156 195 225 255
#     4  10  19  31  46  64  93 127 151 181 225 270
#     4  10  19  29  42  64  92 122 158 188 216 264
#
# _framework density 20.128261999999999
#
# number of rings (size 3 to 8) (size 9 to 14) (size 15 to 20)
#    0.000    3.000    1.667    2.000    0.000    1.667 
#    0.000    1.667    0.000    1.500    0.000    0.000 
#    0.000    0.000    0.000    0.000    0.000    0.000 
#
# Total GULP energy -133866.339399 kJ/mol
# GULP energy per Si atom -5577.764142 kJ/mol
# Density = 2.008245 g / cm^3
# Si number density = 20.128262 Si / 1000 Ang^3
#
#
#
# Elastic Constant Matrix: (Units=GPa)
#
#
# Indices 1 2 3 4 5 6 
#
# 1 185.1316 -2.3685 94.0035 0.0000 12.5108 0.0000
# 2 -2.3685 55.4937 0.6133 0.0000 5.5864 0.0000
# 3 94.0035 0.6133 156.9638 0.0000 -6.7949 0.0000
# 4 0.0000 0.0000 0.0000 30.6606 0.0000 -10.6837
# 5 12.5108 5.5864 -6.7949 0.0000 19.5231 0.0000
# 6 0.0000 0.0000 0.0000 -10.6837 0.0000 15.2560
#
#
#
# Elastic Compliance Matrix: (Units=1/GPa)
#
#
# Indices 1 2 3 4 5 6 
#
# 1 0.008813 0.001240 -0.005627 0.000000 -0.007961 0.000000
# 2 0.001240 0.018743 -0.001099 0.000000 -0.006540 0.000000
# 3 -0.005627 -0.001099 0.010067 0.000000 0.007424 0.000000
# 4 0.000000 0.000000 0.000000 0.043143 0.000000 0.030213
# 5 -0.007961 -0.006540 0.007424 0.000000 0.060778 0.000000
# 6 0.000000 0.000000 0.000000 0.030213 0.000000 0.086706
#
#
# Mechanical properties :
#
#
# Convention : Reuss Voigt Hill
#
# Bulk Modulus (GPa) = 37.52327 64.67621 51.09974
# Shear Modulus (GPa) = 20.15271 33.44399 26.79835
#
# Velocity S-wave (km/s) = 3.16763 4.08063 3.65277
# Velocity P-wave (km/s) = 5.66225 7.37589 6.57514
#
# Compressibility (1/GPa) = 0.02665013
#
# Stress axis : x y z
#
# Youngs Moduli (GPa) = 113.47225 53.35186 99.33760
#
# Poissons Ratio (x) = -0.06614 0.55900
# Poissons Ratio (y) = -0.14067 0.10915
# Poissons Ratio (z) = 0.63854 0.05862
#
# Static dielectric constant tensor:
#      x y z
#    x 1.716110 0.000000 0.007160 
#    y 0.000000 1.762570 0.000000 
#    z 0.007160 0.000000 1.690630 
# 
# From -- ./inp_files/212771.got.cif
#   From: 2010.05.17/outbox.cif.g08.bks.cpg/sg12_107_cif.got.tgz:212771.got - 2010.06.03 13:09:07.
