data_PCOD9177900
_publ_section_title
;
Structure prediction by ZEFSAII (Michael W. Deem and Ramdas Pophale) SiO2 
 PCOD9177900
Probable space group: C 2/M
;
_chemical_formula_sum "Si O2"
_cell_formula_units_Z 56
_cell_length_a 13.899490
_cell_length_b 9.340022
_cell_length_c 23.181132
_cell_angle_alpha 90.000000
_cell_angle_beta 55.624890
_cell_angle_gamma 90.000000
_cell_volume 2483.843430
_symmetry_space_group_name_H-M "C 2/M"
_symmetry_group_IT_number 12
_symmetry_cell_setting 'monoclinic'
loop_
_space_group_symop_operation_xyz
x,y,z
-x,y,-z
-x,-y,-z
x,-y,z
1/2+x,1/2+y,z
1/2-x,1/2+y,-z
1/2-x,1/2-y,-z
1/2+x,1/2-y,z
loop_
_atom_site_type_symbol
_atom_site_label
_atom_site_fract_x
_atom_site_fract_y
_atom_site_fract_z
Si Si1 0.820017 0.843660 0.931800
Si Si2 0.633174 0.325981 0.514738
Si Si3 0.331136 0.833523 0.215850
Si Si4 0.918414 0.664186 0.802424
Si Si5 0.969616 0.667255 0.350323
Si Si6 0.557634 0.660830 0.921313
Si Si7 0.280092 0.332926 0.632544
O O1 0.835063 0.763228 0.867117
O O2 0.947207 0.855547 0.916664
O O3 0.767215 0.000000 0.942988
O O4 0.750000 0.750000 0.000000
O O5 0.639903 0.500000 0.515238
O O6 0.750000 0.250000 0.500000
O O7 0.536787 0.266631 0.591564
O O8 0.632199 0.282664 0.447512
O O9 0.457056 0.836505 0.206143
O O10 0.352991 0.747164 0.149553
O O11 0.245921 0.771002 0.295088
O O12 0.301149 0.000000 0.213923
O O13 0.879206 0.500000 0.814333
O O14 0.941582 0.713503 0.729580
O O15 0.844479 0.671828 0.359359
O O16 0.192324 0.000000 0.367076
O O17 0.600958 0.500000 0.921552
O O18 0.500000 0.723241 0.000000
O O19 0.011028 0.500000 0.641001
#
# Coordination Sequence:
#
# PCOD9177900 Si02
#       7
#     8   8   8   8   8   8   8
#     4  10  19  30  45  63  83 108 138 171 206 245
#     4   9  14  19  27  40  61  90 123 157 192 229
#     4   8  13  23  38  53  70  96 131 165 196 235
#     4   8  14  25  39  53  73 100 129 163 201 240
#     4   8  13  21  31  44  64  91 122 156 193 230
#     4   9  18  31  44  60  83 108 134 167 208 249
#     4   7  11  19  29  42  63  91 121 154 191 227
#
# _framework density 22.545704000000001
#
# number of rings (size 3 to 8) (size 9 to 14) (size 15 to 20)
#    0.000    3.571    0.000    3.429    0.000    1.429 
#    0.000    7.857    0.000    0.000    0.000    0.000 
#    0.000    0.000    0.000    1.286    0.000   27.429 
#
# Total GULP energy -156079.655270 kJ/mol
# GULP energy per Si atom -5574.273403 kJ/mol
# Density = 2.249439 g / cm^3
# Si number density = 22.545704 Si / 1000 Ang^3
#
#
#
# Elastic Constant Matrix: (Units=GPa)
#
#
# Indices 1 2 3 4 5 6 
#
# 1 62.1687 3.6105 24.0123 0.0000 16.6713 0.0000
# 2 3.6105 91.3715 115.8153 0.0000 -0.4516 0.0000
# 3 24.0123 115.8153 294.2788 0.0000 -0.5900 0.0000
# 4 0.0000 0.0000 0.0000 43.0808 0.0000 0.9278
# 5 16.6713 -0.4516 -0.5900 0.0000 29.3710 0.0000
# 6 0.0000 0.0000 0.0000 0.9278 0.0000 -2.4818
#
#
#
# Elastic Compliance Matrix: (Units=1/GPa)
#
#
# Indices 1 2 3 4 5 6 
#
# 1 0.020009 0.002497 -0.002638 0.000000 -0.011372 0.000000
# 2 0.002497 0.022151 -0.008924 0.000000 -0.001256 0.000000
# 3 -0.002638 -0.008924 0.007128 0.000000 0.001503 0.000000
# 4 0.000000 0.000000 0.000000 0.023027 0.000000 0.008609
# 5 -0.011372 -0.001256 0.001503 0.000000 0.040513 0.000000
# 6 0.000000 0.000000 0.000000 0.008609 0.000000 -0.399714
#
#
# Mechanical properties :
#
#
# Convention : Reuss Voigt Hill
#
# Bulk Modulus (GPa) = 32.09445 81.63279 56.86362
# Shear Modulus (GPa) = -19.35203 34.28606 7.46702
#
# Velocity S-wave (km/s) = -2.93293 3.90389 1.82185
# Velocity P-wave (km/s) = 1.67234 7.52375 5.44993
#
# Compressibility (1/GPa) = 0.03115804
#
# Stress axis : x y z
#
# Youngs Moduli (GPa) = 49.97827 45.14567 140.28335
#
# Poissons Ratio (x) = -0.11274 0.37010
# Poissons Ratio (y) = -0.12481 1.25186
# Poissons Ratio (z) = 0.13185 0.40287
#
# Static dielectric constant tensor:
#      x y z
#    x 1.834210 0.000000 -0.030670 
#    y 0.000000 1.800340 0.000000 
#    z -0.030670 0.000000 1.865450 
# 
# From -- ./inp_files/348314.got.cif
#   From: 2010.05.17/outbox.cif.g08.bks.cpg/sg12_175_cif.got.tgz:348314.got - 2010.06.03 13:09:07.
