data_PCOD9177384
_publ_section_title
;
Structure prediction by ZEFSAII (Michael W. Deem and Ramdas Pophale) SiO2 
 PCOD9177384
Probable space group: C 2/M
;
_chemical_formula_sum "Si O2"
_cell_formula_units_Z 64
_cell_length_a 29.353436
_cell_length_b 7.387229
_cell_length_c 15.295445
_cell_angle_alpha 90.000000
_cell_angle_beta 90.538602
_cell_angle_gamma 90.000000
_cell_volume 3316.526221
_symmetry_space_group_name_H-M "C 2/M"
_symmetry_group_IT_number 12
_symmetry_cell_setting 'monoclinic'
loop_
_space_group_symop_operation_xyz
x,y,z
-x,y,-z
-x,-y,-z
x,-y,z
1/2+x,1/2+y,z
1/2-x,1/2+y,-z
1/2-x,1/2-y,-z
1/2+x,1/2-y,z
loop_
_atom_site_type_symbol
_atom_site_label
_atom_site_fract_x
_atom_site_fract_y
_atom_site_fract_z
Si Si1 0.306312 0.277109 0.754202
Si Si2 0.915131 0.281219 0.167121
Si Si3 0.651638 0.220010 0.993660
Si Si4 0.895792 0.205104 0.827569
Si Si5 0.260664 0.783670 0.399785
Si Si6 0.988241 0.210946 0.903754
Si Si7 0.769532 0.287136 0.120648
Si Si8 0.160601 0.286773 0.713485
O O1 0.306410 0.500000 0.756857
O O2 0.358417 0.214953 0.761052
O O3 0.278820 0.220638 0.667399
O O4 0.276738 0.213380 0.838027
O O5 0.915264 0.500000 0.169225
O O6 0.885097 0.230058 0.081791
O O7 0.966507 0.220909 0.153292
O O8 0.887334 0.214413 0.251507
O O9 0.701496 0.283022 0.961208
O O10 0.652358 0.000000 0.998898
O O11 0.632830 0.297055 0.082774
O O12 0.944084 0.290380 0.854500
O O13 0.905025 0.000000 0.797432
O O14 0.250000 0.750000 0.500000
O O15 0.309523 0.712631 0.365900
O O16 0.262396 0.000000 0.387751
O O17 0.976367 0.000000 0.919383
O O18 0.000000 0.289059 0.000000
O O19 0.762775 0.500000 0.105227
O O20 0.805294 0.273629 0.202532
O O21 0.152995 0.500000 0.696476
#
# Coordination Sequence:
#
# PCOD9177384 Si02
#       8
#     8   8   8   8   8   8   8   8
#     4   8  15  28  44  60  81 113 144 166 195 252
#     4   9  16  27  44  61  79 109 150 184 210 246
#     4   9  16  25  39  59  80 105 140 182 215 237
#     4  10  19  29  40  55  80 115 150 175 205 250
#     4   9  16  29  50  72  92 110 132 164 207 258
#     4  10  19  29  39  56  84 115 147 188 227 244
#     4   7  11  22  39  57  78 105 139 172 201 237
#     4   7  12  24  42  64  86 108 134 168 207 250
#
# _framework density 19.297301000000001
#
# number of rings (size 3 to 8) (size 9 to 14) (size 15 to 20)
#    0.000    3.375    1.250    3.000    0.000    1.250 
#    0.000    1.250    0.000    4.500    0.000    0.875 
#    0.000    7.000    0.000    0.000    0.000    0.000 
#
# Total GULP energy -178298.634294 kJ/mol
# GULP energy per Si atom -5571.832322 kJ/mol
# Density = 1.925338 g / cm^3
# Si number density = 19.297301 Si / 1000 Ang^3
#
#
#
# Elastic Constant Matrix: (Units=GPa)
#
#
# Indices 1 2 3 4 5 6 
#
# 1 166.5432 1.4252 48.8349 0.0000 -2.5391 0.0000
# 2 1.4252 66.5914 -3.1778 0.0000 1.6309 0.0000
# 3 48.8349 -3.1778 84.3646 0.0000 -14.4635 0.0000
# 4 0.0000 0.0000 0.0000 13.1791 0.0000 -6.3566
# 5 -2.5391 1.6309 -14.4635 0.0000 21.8696 0.0000
# 6 0.0000 0.0000 0.0000 -6.3566 0.0000 -6.6465
#
#
#
# Elastic Compliance Matrix: (Units=1/GPa)
#
#
# Indices 1 2 3 4 5 6 
#
# 1 0.007332 -0.000324 -0.004631 0.000000 -0.002188 0.000000
# 2 -0.000324 0.015072 0.000627 0.000000 -0.000747 0.000000
# 3 -0.004631 0.000627 0.016306 0.000000 0.010200 0.000000
# 4 0.000000 0.000000 0.000000 0.051925 0.000000 -0.049660
# 5 -0.002188 -0.000747 0.010200 0.000000 0.052273 0.000000
# 6 0.000000 0.000000 0.000000 -0.049660 0.000000 -0.102961
#
#
# Mechanical properties :
#
#
# Convention : Reuss Voigt Hill
#
# Bulk Modulus (GPa) = 33.27335 45.74040 39.50688
# Shear Modulus (GPa) = 85.29228 23.70825 54.50027
#
# Velocity S-wave (km/s) = 6.65545 3.50891 5.32013
# Velocity P-wave (km/s) = 8.73727 6.33807 7.63253
#
# Compressibility (1/GPa) = 0.03005408
#
# Stress axis : x y z
#
# Youngs Moduli (GPa) = 136.39015 66.34763 61.32524
#
# Poissons Ratio (x) = 0.02152 0.28402
# Poissons Ratio (y) = 0.04424 -0.03848
# Poissons Ratio (z) = 0.63167 -0.04163
#
# Static dielectric constant tensor:
#      x y z
#    x 1.726410 0.000000 0.001240 
#    y 0.000000 1.677770 0.000000 
#    z 0.001240 0.000000 1.669120 
# 
# From -- ./inp_files/248408.got.cif
#   From: 2010.05.17/outbox.cif.g08.bks.cpg/sg12_125_cif.got.tgz:248408.got - 2010.06.03 13:09:07.
