data_PCOD9177386
_publ_section_title
;
Structure prediction by ZEFSAII (Michael W. Deem and Ramdas Pophale) SiO2 
 PCOD9177386
Probable space group: C 2/M
;
_chemical_formula_sum "Si O2"
_cell_formula_units_Z 48
_cell_length_a 20.449495
_cell_length_b 17.248067
_cell_length_c 7.133082
_cell_angle_alpha 90.000000
_cell_angle_beta 42.711142
_cell_angle_gamma 90.000000
_cell_volume 1706.568395
_symmetry_space_group_name_H-M "C 2/M"
_symmetry_group_IT_number 12
_symmetry_cell_setting 'monoclinic'
loop_
_space_group_symop_operation_xyz
x,y,z
-x,y,-z
-x,-y,-z
x,-y,z
1/2+x,1/2+y,z
1/2-x,1/2+y,-z
1/2-x,1/2-y,-z
1/2+x,1/2-y,z
loop_
_atom_site_type_symbol
_atom_site_label
_atom_site_fract_x
_atom_site_fract_y
_atom_site_fract_z
Si Si1 0.717269 0.000000 0.384958
Si Si2 0.212508 0.333317 0.369966
Si Si3 0.988973 0.333695 0.749416
Si Si4 0.505736 0.000000 0.258674
Si Si5 0.213309 0.000000 0.323648
Si Si6 0.510033 0.668399 0.257744
Si Si7 0.713647 0.333441 0.360929
Si Si8 0.989987 0.000000 0.802120
O O1 0.742454 0.081795 0.235985
O O2 0.600063 0.000000 0.613536
O O3 0.764231 0.000000 0.496150
O O4 0.096963 0.332141 0.601239
O O5 0.248524 0.332950 0.507320
O O6 0.241277 0.250608 0.220853
O O7 0.947306 0.417496 0.893576
O O8 0.945174 0.250567 0.900732
O O9 0.000000 0.335458 0.500000
O O10 0.500000 0.000000 0.500000
O O11 0.247818 0.913768 0.194974
O O12 0.100536 0.000000 0.497119
O O13 0.500000 0.677595 0.500000
O O14 0.403317 0.662333 0.392723
O O15 0.555488 0.583498 0.142425
O O16 0.000000 0.000000 0.000000
#
# Coordination Sequence:
#
# PCOD9177386 Si02
#       8
#     4   8   8   4   4   8   8   4
#     4   8  12  18  29  45  70 100 119 140 177 222
#     4   8  12  18  28  45  71  98 121 144 176 218
#     4   8  13  20  32  52  80 107 124 146 186 232
#     4   8  12  18  30  53  85 106 119 144 185 230
#     4   8  14  23  33  46  66  93 124 153 182 222
#     4   9  16  26  39  55  76 101 128 161 199 235
#     4   8  13  20  31  47  69  94 120 150 182 219
#     4  10  19  29  40  54  73  99 134 173 203 230
#
# _framework density 28.126619999999999
#
# number of rings (size 3 to 8) (size 9 to 14) (size 15 to 20)
#    0.000    3.667    0.000    0.250    0.000    0.000 
#    0.000    0.000    0.000    0.000    0.000    0.583 
#    0.000  300.000    0.000    0.000    0.000    0.000 
#
# Total GULP energy -133933.191115 kJ/mol
# GULP energy per Si atom -5580.549630 kJ/mol
# Density = 2.806260 g / cm^3
# Si number density = 28.126620 Si / 1000 Ang^3
#
#
#
# Elastic Constant Matrix: (Units=GPa)
#
#
# Indices 1 2 3 4 5 6 
#
# 1 -682.6574 242.8569 73.7628 0.0000 -56.0334 0.0000
# 2 242.8569 392.4892 24.9488 0.0000 18.7164 0.0000
# 3 73.7628 24.9488 52.3992 0.0000 4.5844 0.0000
# 4 0.0000 0.0000 0.0000 -34.8121 0.0000 16.2705
# 5 -56.0334 18.7164 4.5844 0.0000 74.1978 0.0000
# 6 0.0000 0.0000 0.0000 16.2705 0.0000 23.3426
#
#
#
# Elastic Compliance Matrix: (Units=1/GPa)
#
#
# Indices 1 2 3 4 5 6 
#
# 1 -0.001031 0.000607 0.001251 0.000000 -0.001009 0.000000
# 2 0.000607 0.002296 -0.001947 0.000000 -0.000001 0.000000
# 3 0.001251 -0.001947 0.018223 0.000000 0.000310 0.000000
# 4 0.000000 0.000000 0.000000 -0.021667 0.000000 0.015103
# 5 -0.001009 -0.000001 0.000310 0.000000 0.012697 0.000000
# 6 0.000000 0.000000 0.000000 0.015103 0.000000 0.032313
#
#
# Mechanical properties :
#
#
# Convention : Reuss Voigt Hill
#
# Bulk Modulus (GPa) = 51.78870 49.48534 50.63702
# Shear Modulus (GPa) = 101.11836 -26.07684 37.52076
#
# Velocity S-wave (km/s) = 6.00243 -3.04817 3.65635
# Velocity P-wave (km/s) = 8.15424 2.28987 5.98895
#
# Compressibility (1/GPa) = 0.01930923
#
# Stress axis : x y z
#
# Youngs Moduli (GPa) = -969.85299 435.47961 54.87476
#
# Poissons Ratio (x) = -0.26416 -0.06864
# Poissons Ratio (y) = 0.58831 0.10685
# Poissons Ratio (z) = 1.21321 0.84796
#
# Static dielectric constant tensor:
#      x y z
#    x 2.126280 0.000000 -0.459450 
#    y 0.000000 2.345460 0.000000 
#    z -0.459450 0.000000 5.711220 
# 
# From -- ./inp_files/25009.got.cif
#   From: 2010.05.17/outbox.cif.g08.bks.cpg/sg12_13_cif.got.tgz:25009.got - 2010.06.03 13:09:07.
