data_PCOD9177565
_publ_section_title
;
Structure prediction by ZEFSAII (Michael W. Deem and Ramdas Pophale) SiO2 
 PCOD9177565
Probable space group: C 2/M
;
_chemical_formula_sum "Si O2"
_cell_formula_units_Z 64
_cell_length_a 32.311851
_cell_length_b 9.017361
_cell_length_c 18.998216
_cell_angle_alpha 90.000000
_cell_angle_beta 139.486926
_cell_angle_gamma 90.000000
_cell_volume 3595.957370
_symmetry_space_group_name_H-M "C 2/M"
_symmetry_group_IT_number 12
_symmetry_cell_setting 'monoclinic'
loop_
_space_group_symop_operation_xyz
x,y,z
-x,y,-z
-x,-y,-z
x,-y,z
1/2+x,1/2+y,z
1/2-x,1/2+y,-z
1/2-x,1/2-y,-z
1/2+x,1/2-y,z
loop_
_atom_site_type_symbol
_atom_site_label
_atom_site_fract_x
_atom_site_fract_y
_atom_site_fract_z
Si Si1 0.263641 0.321425 0.234490
Si Si2 0.915511 0.174361 0.090242
Si Si3 0.945112 0.177553 0.686386
Si Si4 0.724591 0.322526 0.038240
Si Si5 0.350946 0.179107 0.454587
Si Si6 0.756222 0.165509 0.579198
Si Si7 0.905805 0.168160 0.794033
Si Si8 0.879898 0.323443 0.901120
O O1 0.267115 0.500000 0.238499
O O2 0.255971 0.254682 0.146694
O O3 0.327502 0.252788 0.351757
O O4 0.195624 0.280449 0.185440
O O5 0.979301 0.202440 0.216425
O O6 0.915465 0.000000 0.070702
O O7 0.851179 0.203720 0.050034
O O8 0.913519 0.265431 0.015307
O O9 0.909791 0.260201 0.576814
O O10 0.924323 0.223857 0.739535
O O11 0.931502 0.000000 0.663958
O O12 0.735282 0.500000 0.053024
O O13 0.750000 0.250000 0.000000
O O14 0.290746 0.228812 0.424339
O O15 0.354047 0.000000 0.451451
O O16 0.750000 0.250000 0.500000
O O17 0.829166 0.160892 0.694240
O O18 0.732884 0.000000 0.536398
O O19 0.915277 0.259419 0.877824
O O20 0.931718 0.000000 0.833936
O O21 0.881287 0.500000 0.899074
#
# Coordination Sequence:
#
# PCOD9177565 Si02
#       8
#     8   8   8   8   8   8   8   8
#     4  10  20  34  54  81 110 140 175 217 263 312
#     4   9  20  38  57  76 104 140 176 213 258 317
#     4  10  21  36  52  72 101 145 191 222 256 309
#     4  10  20  37  63  91 113 133 162 206 261 319
#     4  11  21  32  49  75 107 142 179 223 271 311
#     4  10  19  29  44  67  97 136 182 231 271 303
#     4  10  19  31  47  68  99 140 186 229 268 309
#     4  10  20  32  50  74 102 137 180 230 275 309
#
# _framework density 17.797763
#
# number of rings (size 3 to 8) (size 9 to 14) (size 15 to 20)
#    0.000    2.000    2.500    1.500    0.000    4.000 
#    0.000    2.500    0.000    0.750    0.000    5.250 
#    0.000    0.000    0.000    0.000    0.000    0.000 
#
# Total GULP energy -178280.366887 kJ/mol
# GULP energy per Si atom -5571.261465 kJ/mol
# Density = 1.775725 g / cm^3
# Si number density = 17.797763 Si / 1000 Ang^3
#
#
#
# Elastic Constant Matrix: (Units=GPa)
#
#
# Indices 1 2 3 4 5 6 
#
# 1 73.4171 39.5787 55.8475 0.0000 -18.8491 0.0000
# 2 39.5787 48.3284 54.1870 0.0000 -9.9658 0.0000
# 3 55.8475 54.1870 120.6150 0.0000 -8.8882 0.0000
# 4 0.0000 0.0000 0.0000 29.2962 0.0000 -6.0411
# 5 -18.8491 -9.9658 -8.8882 0.0000 19.8613 0.0000
# 6 0.0000 0.0000 0.0000 -6.0411 0.0000 22.1019
#
#
#
# Elastic Compliance Matrix: (Units=1/GPa)
#
#
# Indices 1 2 3 4 5 6 
#
# 1 0.031427 -0.014071 -0.006776 0.000000 0.019732 0.000000
# 2 -0.014071 0.051493 -0.016234 0.000000 0.005219 0.000000
# 3 -0.006776 -0.016234 0.018249 0.000000 -0.006409 0.000000
# 4 0.000000 0.000000 0.000000 0.036173 0.000000 0.009887
# 5 0.019732 0.005219 -0.006409 0.000000 0.068826 0.000000
# 6 0.000000 0.000000 0.000000 0.009887 0.000000 0.047947
#
#
# Mechanical properties :
#
#
# Convention : Reuss Voigt Hill
#
# Bulk Modulus (GPa) = 37.02610 60.17631 48.60121
# Shear Modulus (GPa) = 14.82449 20.43502 17.62976
#
# Velocity S-wave (km/s) = 2.88920 3.39216 3.15073
# Velocity P-wave (km/s) = 5.65499 7.01619 6.37204
#
# Compressibility (1/GPa) = 0.02700798
#
# Stress axis : x y z
#
# Youngs Moduli (GPa) = 31.82016 19.41997 54.79727
#
# Poissons Ratio (x) = 0.27325 0.37129
# Poissons Ratio (y) = 0.44773 0.88958
# Poissons Ratio (z) = 0.21561 0.31526
#
# Static dielectric constant tensor:
#      x y z
#    x 0.470680 0.000000 0.063970 
#    y 0.000000 1.591020 0.000000 
#    z 0.063970 0.000000 1.631960 
# 
# From -- ./inp_files/295735.got.cif
#   From: 2010.05.17/outbox.cif.g08.bks.cpg/sg12_148_cif.got.tgz:295735.got - 2010.06.03 13:09:07.
