data_PCOD9177257
_publ_section_title
;
Structure prediction by ZEFSAII (Michael W. Deem and Ramdas Pophale) SiO2 
 PCOD9177257
Probable space group: C 2/M
;
_chemical_formula_sum "Si O2"
_cell_formula_units_Z 56
_cell_length_a 28.564693
_cell_length_b 7.673806
_cell_length_c 16.612698
_cell_angle_alpha 90.000000
_cell_angle_beta 65.797511
_cell_angle_gamma 90.000000
_cell_volume 3321.422331
_symmetry_space_group_name_H-M "C 2/M"
_symmetry_group_IT_number 12
_symmetry_cell_setting 'monoclinic'
loop_
_space_group_symop_operation_xyz
x,y,z
-x,y,-z
-x,-y,-z
x,-y,z
1/2+x,1/2+y,z
1/2-x,1/2+y,-z
1/2-x,1/2-y,-z
1/2+x,1/2-y,z
loop_
_atom_site_type_symbol
_atom_site_label
_atom_site_fract_x
_atom_site_fract_y
_atom_site_fract_z
Si Si1 0.946755 0.712744 0.636567
Si Si2 0.257579 0.206684 0.374571
Si Si3 0.061771 0.713179 0.543279
Si Si4 0.694230 0.706806 0.001829
Si Si5 0.665009 0.203254 0.546707
Si Si6 0.757386 0.789009 0.189640
Si Si7 0.648803 0.794368 0.195496
O O1 0.947507 0.500000 0.638041
O O2 0.933494 0.762604 0.554050
O O3 0.902919 0.776184 0.728071
O O4 0.005254 0.768378 0.612032
O O5 0.302984 0.276837 0.400334
O O6 0.204045 0.284889 0.443818
O O7 0.266723 0.238588 0.274581
O O8 0.253568 0.000000 0.391400
O O9 0.062845 0.500000 0.543641
O O10 0.110121 0.778191 0.560252
O O11 0.687804 0.500000 0.004469
O O12 0.700295 0.770912 0.905772
O O13 0.750000 0.750000 0.000000
O O14 0.654110 0.774779 0.095620
O O15 0.656184 0.000000 0.571308
O O16 0.701165 0.724325 0.199669
O O17 0.756431 0.000000 0.186202
O O18 0.649165 0.000000 0.212386
#
# Coordination Sequence:
#
# PCOD9177257 Si02
#       7
#     8   8   8   8   8   8   8
#     4   8  13  21  38  63  82 101 132 162 191 232
#     4  10  19  27  39  60  81 105 137 167 197 233
#     4   8  13  23  39  58  81 106 132 162 192 228
#     4   9  17  28  41  58  80 107 135 162 198 240
#     4   9  17  29  42  57  81 109 134 164 199 233
#     4   9  17  28  41  57  80 108 133 160 195 235
#     4   9  16  26  41  62  85 106 130 162 200 239
#
# _framework density 16.860246
#
# number of rings (size 3 to 8) (size 9 to 14) (size 15 to 20)
#    0.000    3.143    0.000    3.429    0.000    5.714 
#    0.000    0.000    0.000    0.857    0.000    4.000 
#    0.000    8.000    0.000    0.000    0.000    0.000 
#
# Total GULP energy -155898.321063 kJ/mol
# GULP energy per Si atom -5567.797181 kJ/mol
# Density = 1.682187 g / cm^3
# Si number density = 16.860246 Si / 1000 Ang^3
#
#
#
# Elastic Constant Matrix: (Units=GPa)
#
#
# Indices 1 2 3 4 5 6 
#
# 1 107.0002 5.4774 60.7481 0.0000 -11.1044 0.0000
# 2 5.4774 25.5387 -5.7959 0.0000 -2.6026 0.0000
# 3 60.7481 -5.7959 137.5796 0.0000 -13.4146 0.0000
# 4 0.0000 0.0000 0.0000 17.8686 0.0000 0.0460
# 5 -11.1044 -2.6026 -13.4146 0.0000 25.5685 0.0000
# 6 0.0000 0.0000 0.0000 0.0460 0.0000 5.9276
#
#
#
# Elastic Compliance Matrix: (Units=1/GPa)
#
#
# Indices 1 2 3 4 5 6 
#
# 1 0.013005 -0.003847 -0.005683 0.000000 0.002275 0.000000
# 2 -0.003847 0.041329 0.003886 0.000000 0.004575 0.000000
# 3 -0.005683 0.003886 0.010264 0.000000 0.003313 0.000000
# 4 0.000000 0.000000 0.000000 0.055965 0.000000 -0.000434
# 5 0.002275 0.004575 0.003313 0.000000 0.042303 0.000000
# 6 0.000000 0.000000 0.000000 -0.000434 0.000000 0.168705
#
#
# Mechanical properties :
#
#
# Convention : Reuss Voigt Hill
#
# Bulk Modulus (GPa) = 18.75776 43.44197 31.09986
# Shear Modulus (GPa) = 13.86465 23.85220 18.85842
#
# Velocity S-wave (km/s) = 2.87074 3.76533 3.34805
# Velocity P-wave (km/s) = 4.70508 6.68771 5.78201
#
# Compressibility (1/GPa) = 0.05331128
#
# Stress axis : x y z
#
# Youngs Moduli (GPa) = 76.89326 24.19582 97.42438
#
# Poissons Ratio (x) = 0.09308 0.55362
# Poissons Ratio (y) = 0.29581 -0.37858
# Poissons Ratio (z) = 0.43695 -0.09402
#
# Static dielectric constant tensor:
#      x y z
#    x 1.573670 0.000000 -0.004750 
#    y 0.000000 1.568960 0.000000 
#    z -0.004750 0.000000 1.582850 
# 
# From -- ./inp_files/247741.got.cif
#   From: 2010.05.17/outbox.cif.g08.bks.cpg/sg12_124_cif.got.tgz:247741.got - 2010.06.03 13:09:07.
