data_PCOD9177822
_publ_section_title
;
Structure prediction by ZEFSAII (Michael W. Deem and Ramdas Pophale) SiO2 
 PCOD9177822
Probable space group: C 2/M
;
_chemical_formula_sum "Si O2"
_cell_formula_units_Z 48
_cell_length_a 8.079182
_cell_length_b 13.962356
_cell_length_c 31.795824
_cell_angle_alpha 90.000000
_cell_angle_beta 148.699078
_cell_angle_gamma 90.000000
_cell_volume 1863.413365
_symmetry_space_group_name_H-M "C 2/M"
_symmetry_group_IT_number 12
_symmetry_cell_setting 'monoclinic'
loop_
_space_group_symop_operation_xyz
x,y,z
-x,y,-z
-x,-y,-z
x,-y,z
1/2+x,1/2+y,z
1/2-x,1/2+y,-z
1/2-x,1/2-y,-z
1/2+x,1/2-y,z
loop_
_atom_site_type_symbol
_atom_site_label
_atom_site_fract_x
_atom_site_fract_y
_atom_site_fract_z
Si Si1 0.740602 0.116128 0.515507
Si Si2 0.451477 0.824250 0.945213
Si Si3 0.026006 0.383702 0.308325
Si Si4 0.292449 0.117334 0.344909
Si Si5 0.148733 0.392581 0.245459
Si Si6 0.844339 0.638818 0.093723
O O1 0.500000 0.148285 0.500000
O O2 0.596455 0.144127 0.439163
O O3 0.105543 0.141629 0.602315
O O4 0.735004 0.000000 0.515097
O O5 0.177446 0.750517 0.897978
O O6 0.419991 0.878049 0.894389
O O7 0.500000 0.878821 0.000000
O O8 0.750000 0.750000 0.000000
O O9 0.989066 0.500000 0.301883
O O10 0.976384 0.353087 0.249260
O O11 0.820649 0.348825 0.303196
O O12 0.975825 0.152668 0.299751
O O13 0.279471 0.000000 0.341354
O O14 0.249156 0.500000 0.280656
O O15 0.930484 0.402783 0.157150
O O16 0.500000 0.609429 0.000000
#
# Coordination Sequence:
#
# PCOD9177822 Si02
#       6
#     8   8   8   8   8   8
#     4   9  13  21  39  56  80 121 163 198 220 252
#     4   7  13  29  51  69  82 101 144 199 237 260
#     4   9  16  26  39  58  88 126 161 189 221 264
#     4   9  16  26  38  58  88 125 162 188 222 265
#     4  10  19  30  43  65 102 132 149 179 224 284
#     4   9  17  32  51  71  89 116 152 191 237 273
#
# _framework density 25.759181999999999
#
# number of rings (size 3 to 8) (size 9 to 14) (size 15 to 20)
#    0.000    3.500    1.667    0.500    0.000    2.333 
#    9.000    0.000    0.000    0.500    0.000    0.000 
#    0.000    5.333    0.000    0.000    0.000    0.000 
#
# Total GULP energy -133909.991676 kJ/mol
# GULP energy per Si atom -5579.582986 kJ/mol
# Density = 2.570055 g / cm^3
# Si number density = 25.759182 Si / 1000 Ang^3
#
#
#
# Elastic Constant Matrix: (Units=GPa)
#
#
# Indices 1 2 3 4 5 6 
#
# 1 170.6719 20.5199 56.9372 0.0000 -60.8811 0.0000
# 2 20.5199 71.3069 2.3069 0.0000 -6.2131 0.0000
# 3 56.9372 2.3069 130.1643 0.0001 -30.4251 0.0002
# 4 0.0000 0.0000 0.0001 11.6095 0.0000 -5.2881
# 5 -60.8811 -6.2131 -30.4251 0.0000 56.0214 0.0000
# 6 0.0000 0.0000 0.0002 -5.2881 0.0000 21.1594
#
#
#
# Elastic Compliance Matrix: (Units=1/GPa)
#
#
# Indices 1 2 3 4 5 6 
#
# 1 0.010339 -0.002049 -0.002191 0.000000 0.009819 0.000000
# 2 -0.002049 0.014569 0.000567 0.000000 -0.000303 0.000000
# 3 -0.002191 0.000567 0.009265 0.000000 0.002714 0.000000
# 4 0.000000 0.000000 0.000000 0.097201 0.000000 0.024292
# 5 0.009819 -0.000303 0.002714 0.000000 0.029961 0.000000
# 6 0.000000 0.000000 0.000000 0.024292 0.000000 0.053331
#
#
# Mechanical properties :
#
#
# Convention : Reuss Voigt Hill
#
# Bulk Modulus (GPa) = 37.27516 59.07454 48.17485
# Shear Modulus (GPa) = 21.64930 37.25002 29.44966
#
# Velocity S-wave (km/s) = 2.90220 3.80687 3.38489
# Velocity P-wave (km/s) = 5.07271 6.50432 5.83261
#
# Compressibility (1/GPa) = 0.02682752
#
# Stress axis : x y z
#
# Youngs Moduli (GPa) = 96.72169 68.64005 107.92943
#
# Poissons Ratio (x) = 0.14063 0.23649
# Poissons Ratio (y) = 0.19817 -0.06122
# Poissons Ratio (z) = 0.21193 -0.03894
#
# Static dielectric constant tensor:
#      x y z
#    x 2.041230 0.000000 -0.024290 
#    y 0.000000 2.179370 0.000000 
#    z -0.024290 0.000000 2.054240 
# 
# From -- ./inp_files/373224.got.cif
#   From: 2010.05.17/outbox.cif.g08.bks.cpg/sg12_187_cif.got.tgz:373224.got - 2010.06.03 13:09:07.
