data_PCOD9177947
_publ_section_title
;
Structure prediction by ZEFSAII (Michael W. Deem and Ramdas Pophale) SiO2 
 PCOD9177947
Probable space group: C 2/M
;
_chemical_formula_sum "Si O2"
_cell_formula_units_Z 64
_cell_length_a 23.263076
_cell_length_b 9.121725
_cell_length_c 23.392353
_cell_angle_alpha 90.000000
_cell_angle_beta 143.212913
_cell_angle_gamma 90.000000
_cell_volume 2972.563133
_symmetry_space_group_name_H-M "C 2/M"
_symmetry_group_IT_number 12
_symmetry_cell_setting 'monoclinic'
loop_
_space_group_symop_operation_xyz
x,y,z
-x,y,-z
-x,-y,-z
x,-y,z
1/2+x,1/2+y,z
1/2-x,1/2+y,-z
1/2-x,1/2-y,-z
1/2+x,1/2-y,z
loop_
_atom_site_type_symbol
_atom_site_label
_atom_site_fract_x
_atom_site_fract_y
_atom_site_fract_z
Si Si1 0.454480 0.334754 0.522591
Si Si2 0.106572 0.333360 0.418671
Si Si3 0.170651 0.166973 0.360005
Si Si4 0.262441 0.163121 0.692364
Si Si5 0.679216 0.176829 0.861938
Si Si6 0.583122 0.167665 0.020495
Si Si7 0.261978 0.827914 0.208587
Si Si8 0.625634 0.174246 0.935922
O O1 0.500000 0.272899 0.500000
O O2 0.494583 0.500000 0.562592
O O3 0.456385 0.239829 0.581480
O O4 0.341492 0.349129 0.419943
O O5 0.074800 0.500000 0.383527
O O6 0.112773 0.246420 0.364305
O O7 0.217470 0.336631 0.529570
O O8 0.172500 0.250611 0.301147
O O9 0.138880 0.000000 0.327732
O O10 0.239635 0.243446 0.733327
O O11 0.301062 0.000000 0.733971
O O12 0.668296 0.224956 0.787478
O O13 0.606098 0.217890 0.854805
O O14 0.686316 0.000000 0.864233
O O15 0.779098 0.243454 0.965458
O O16 0.658593 0.289811 0.099433
O O17 0.624738 0.000000 0.055578
O O18 0.500000 0.170858 0.000000
O O19 0.552856 0.194332 0.930560
O O20 0.276030 0.000000 0.230192
O O21 0.645682 0.000000 0.949188
#
# Coordination Sequence:
#
# PCOD9177947 Si02
#       8
#     8   8   8   8   8   8   8   8
#     4   9  18  32  49  69  93 123 157 193 236 282
#     4   9  16  26  43  68  94 119 151 191 232 273
#     4   9  16  27  44  66  92 120 151 189 231 273
#     4  10  19  31  48  69  93 120 153 192 233 279
#     4   8  14  24  39  60  84 110 141 179 219 259
#     4   9  17  29  46  68  92 119 151 186 226 272
#     4  10  19  30  45  66  92 120 151 186 228 276
#     4   8  13  23  40  61  84 109 141 181 221 258
#
# _framework density 21.530239999999999
#
# number of rings (size 3 to 8) (size 9 to 14) (size 15 to 20)
#    0.000    3.000    0.000    1.500    0.000    4.500 
#    0.000    0.000    0.000    1.500    0.000    5.250 
#    0.000    0.000    0.000    0.000    0.000    0.000 
#
# Total GULP energy -178230.878272 kJ/mol
# GULP energy per Si atom -5569.714946 kJ/mol
# Density = 2.148124 g / cm^3
# Si number density = 21.530240 Si / 1000 Ang^3
#
#
#
# Elastic Constant Matrix: (Units=GPa)
#
#
# Indices 1 2 3 4 5 6 
#
# 1 161.4403 65.5053 49.7133 0.0000 -72.3737 0.0000
# 2 65.5053 99.2772 37.2871 0.0000 -41.1273 0.0000
# 3 49.7133 37.2871 56.0777 0.0000 -29.7920 0.0000
# 4 0.0000 0.0000 0.0000 13.6252 0.0000 -15.1950
# 5 -72.3737 -41.1273 -29.7920 0.0000 56.1704 0.0000
# 6 0.0000 0.0000 0.0000 -15.1950 0.0000 55.7006
#
#
#
# Elastic Compliance Matrix: (Units=1/GPa)
#
#
# Indices 1 2 3 4 5 6 
#
# 1 0.015637 -0.002019 -0.003622 0.000000 0.016749 0.000000
# 2 -0.002019 0.016079 -0.005609 0.000000 0.006196 0.000000
# 3 -0.003622 -0.005609 0.028002 0.000000 0.006078 0.000000
# 4 0.000000 0.000000 0.000000 0.105484 0.000000 0.028776
# 5 0.016749 0.006196 0.006078 0.000000 0.047144 0.000000
# 6 0.000000 0.000000 0.000000 0.028776 0.000000 0.025803
#
#
# Mechanical properties :
#
#
# Convention : Reuss Voigt Hill
#
# Bulk Modulus (GPa) = 26.86940 69.08961 47.97951
# Shear Modulus (GPa) = 18.31127 36.05187 27.18157
#
# Velocity S-wave (km/s) = 2.91948 4.09648 3.55700
# Velocity P-wave (km/s) = 4.88584 7.38472 6.26121
#
# Compressibility (1/GPa) = 0.03721705
#
# Stress axis : x y z
#
# Youngs Moduli (GPa) = 63.94954 62.19449 35.71151
#
# Poissons Ratio (x) = 0.12557 0.12935
# Poissons Ratio (y) = 0.12911 0.20032
# Poissons Ratio (z) = 0.23163 0.34887
#
# Static dielectric constant tensor:
#      x y z
#    x 1.851070 0.000000 0.003410 
#    y 0.000000 1.766930 0.000000 
#    z 0.003410 0.000000 1.839660 
# 
# From -- ./inp_files/324264.got.cif
#   From: 2010.05.17/outbox.cif.g08.bks.cpg/sg12_163_cif.got.tgz:324264.got - 2010.06.03 13:09:07.
