data_PCOD9177911
_publ_section_title
;
Structure prediction by ZEFSAII (Michael W. Deem and Ramdas Pophale) SiO2 
 PCOD9177911
Probable space group: C 2/M
;
_chemical_formula_sum "Si O2"
_cell_formula_units_Z 56
_cell_length_a 27.558791
_cell_length_b 8.898345
_cell_length_c 18.110590
_cell_angle_alpha 90.000000
_cell_angle_beta 53.844899
_cell_angle_gamma 90.000000
_cell_volume 3585.940291
_symmetry_space_group_name_H-M "C 2/M"
_symmetry_group_IT_number 12
_symmetry_cell_setting 'monoclinic'
loop_
_space_group_symop_operation_xyz
x,y,z
-x,y,-z
-x,-y,-z
x,-y,z
1/2+x,1/2+y,z
1/2-x,1/2+y,-z
1/2-x,1/2-y,-z
1/2+x,1/2-y,z
loop_
_atom_site_type_symbol
_atom_site_label
_atom_site_fract_x
_atom_site_fract_y
_atom_site_fract_z
Si Si1 0.714092 0.817625 0.464250
Si Si2 0.266958 0.177541 0.715425
Si Si3 0.229446 0.181687 0.904926
Si Si4 0.955538 0.177454 0.718871
Si Si5 0.154290 0.679469 0.099825
Si Si6 0.574846 0.819895 0.571138
Si Si7 0.410045 0.175751 0.611418
O O1 0.750000 0.750000 0.500000
O O2 0.739815 0.763276 0.361654
O O3 0.643194 0.777946 0.529988
O O4 0.717095 0.000000 0.462491
O O5 0.231946 0.237568 0.818174
O O6 0.337872 0.187324 0.670413
O O7 0.252853 0.000000 0.724422
O O8 0.293367 0.216586 0.887136
O O9 0.223675 0.000000 0.910890
O O10 0.178394 0.254007 0.001380
O O11 0.908223 0.252428 0.816994
O O12 0.933477 0.224739 0.656804
O O13 0.023049 0.240375 0.663699
O O14 0.954522 0.000000 0.728419
O O15 0.150052 0.500000 0.099966
O O16 0.566382 0.785602 0.491340
O O17 0.569626 0.000000 0.582857
O O18 0.424646 0.000000 0.613684
#
# Coordination Sequence:
#
# PCOD9177911 Si02
#       7
#     8   8   8   8   8   8   8
#     4   9  18  33  53  74  95 120 153 192 235 281
#     4   8  14  28  49  69  91 124 159 188 225 278
#     4   9  16  29  47  66  90 121 161 200 229 263
#     4  12  22  29  41  65  96 126 159 196 233 268
#     4  10  19  30  45  63  91 128 163 194 229 272
#     4   9  19  33  49  65  88 125 162 189 226 285
#     4   9  16  30  47  63  87 125 164 190 221 273
#
# _framework density 15.616547000000001
#
# number of rings (size 3 to 8) (size 9 to 14) (size 15 to 20)
#    0.000    2.571    1.429    3.857    0.000    3.429 
#    0.000    2.857    0.000    0.000    0.000    1.000 
#    0.000    8.000    0.000    0.000    0.000    0.000 
#
# Total GULP energy -156064.931601 kJ/mol
# GULP energy per Si atom -5573.747557 kJ/mol
# Density = 1.558100 g / cm^3
# Si number density = 15.616547 Si / 1000 Ang^3
#
#
#
# Elastic Constant Matrix: (Units=GPa)
#
#
# Indices 1 2 3 4 5 6 
#
# 1 66.5567 22.6416 58.0888 0.0000 10.4901 0.0000
# 2 22.6416 30.2424 48.6100 -0.0002 -1.5008 -0.0001
# 3 58.0888 48.6100 163.5198 -0.0001 -1.1545 0.0000
# 4 0.0000 -0.0002 -0.0001 24.6807 0.0000 0.5827
# 5 10.4901 -1.5008 -1.1545 0.0000 18.4824 0.0000
# 6 0.0000 -0.0001 0.0000 0.5827 0.0000 21.0012
#
#
#
# Elastic Compliance Matrix: (Units=1/GPa)
#
#
# Indices 1 2 3 4 5 6 
#
# 1 0.026913 -0.010369 -0.006595 0.000000 -0.016529 0.000000
# 2 -0.010369 0.067611 -0.016342 0.000001 0.010355 0.000000
# 3 -0.006595 -0.016342 0.013339 0.000000 0.003249 0.000000
# 4 0.000000 0.000001 0.000000 0.040544 0.000000 -0.001125
# 5 -0.016529 0.010355 0.003249 0.000000 0.064531 0.000000
# 6 0.000000 0.000000 0.000000 -0.001125 0.000000 0.047648
#
#
# Mechanical properties :
#
#
# Convention : Reuss Voigt Hill
#
# Bulk Modulus (GPa) = 24.24201 57.66664 40.95433
# Shear Modulus (GPa) = 14.66499 21.56476 18.11487
#
# Velocity S-wave (km/s) = 3.06775 3.72007 3.40954
# Velocity P-wave (km/s) = 5.30142 7.44706 6.46389
#
# Compressibility (1/GPa) = 0.04125071
#
# Stress axis : x y z
#
# Youngs Moduli (GPa) = 37.15645 14.79058 74.96659
#
# Poissons Ratio (x) = 0.15337 0.49440
# Poissons Ratio (y) = 0.38528 1.22512
# Poissons Ratio (z) = 0.24504 0.24171
#
# Static dielectric constant tensor:
#      x y z
#    x 1.503820 0.000000 0.000160 
#    y 0.000000 1.518790 0.000000 
#    z 0.000160 0.000000 1.546020 
# 
# From -- ./inp_files/244310.got.cif
#   From: 2010.05.17/outbox.cif.g08.bks.cpg/sg12_123_cif.got.tgz:244310.got - 2010.06.03 13:09:07.
