data_PCOD9177736
_publ_section_title
;
Structure prediction by ZEFSAII (Michael W. Deem and Ramdas Pophale) SiO2 
 PCOD9177736
Probable space group: C 2/M
;
_chemical_formula_sum "Si O2"
_cell_formula_units_Z 60
_cell_length_a 12.041000
_cell_length_b 32.434798
_cell_length_c 19.799382
_cell_angle_alpha 90.000000
_cell_angle_beta 28.311353
_cell_angle_gamma 90.000000
_cell_volume 3667.282154
_symmetry_space_group_name_H-M "C 2/M"
_symmetry_group_IT_number 12
_symmetry_cell_setting 'monoclinic'
loop_
_space_group_symop_operation_xyz
x,y,z
-x,y,-z
-x,-y,-z
x,-y,z
1/2+x,1/2+y,z
1/2-x,1/2+y,-z
1/2-x,1/2-y,-z
1/2+x,1/2-y,z
loop_
_atom_site_type_symbol
_atom_site_label
_atom_site_fract_x
_atom_site_fract_y
_atom_site_fract_z
Si Si1 0.394766 0.239375 0.232170
Si Si2 0.688846 0.208095 0.952861
Si Si3 0.621415 0.545629 0.734114
Si Si4 0.528668 0.630380 0.213232
Si Si5 0.125033 0.317203 0.361415
Si Si6 0.000000 0.820972 0.500000
Si Si7 0.592892 0.046350 0.560920
Si Si8 0.779456 0.867215 0.491807
O O1 0.570028 0.266388 0.184700
O O2 0.243998 0.274737 0.274544
O O3 0.216618 0.208429 0.362923
O O4 0.569699 0.215887 0.088599
O O5 0.753542 0.160398 0.910336
O O6 0.500000 0.221510 0.000000
O O7 0.519616 0.500000 0.796572
O O8 0.444818 0.583480 0.824477
O O9 0.763005 0.546662 0.587080
O O10 0.822465 0.551622 0.683039
O O11 0.323579 0.649835 0.275985
O O12 0.437539 0.632119 0.339192
O O13 0.000000 0.307390 0.500000
O O14 0.939381 0.337703 0.410780
O O15 0.082044 0.848660 0.519292
O O16 0.683748 0.086084 0.552622
O O17 0.621184 0.000000 0.574763
#
# Coordination Sequence:
#
# PCOD9177736 Si02
#       8
#     8   8   8   8   8   4   8   8
#     4  10  22  36  49  71  95 128 175 211 244 293
#     4  10  21  36  51  67  96 135 166 202 253 301
#     4   8  12  21  44  76 103 120 150 201 255 298
#     4   9  16  30  50  73  97 127 162 200 252 295
#     4   9  16  30  49  71  94 123 161 206 249 282
#     4  12  24  34  47  74 102 134 175 208 244 288
#     4   8  13  24  43  72 105 130 153 196 251 297
#     4  10  19  29  48  74 104 130 162 203 247 298
#
# _framework density 16.360890000000001
#
# number of rings (size 3 to 8) (size 9 to 14) (size 15 to 20)
#    0.000    2.667    2.000    1.600    1.867    0.533 
#    0.000    0.333    0.000    0.400    0.000    1.867 
#    0.000    2.133    0.000    0.000    0.000    0.000 
#
# Total GULP energy -167014.821919 kJ/mol
# GULP energy per Si atom -5567.160731 kJ/mol
# Density = 1.632365 g / cm^3
# Si number density = 16.360890 Si / 1000 Ang^3
#
#
#
# Elastic Constant Matrix: (Units=GPa)
#
#
# Indices 1 2 3 4 5 6 
#
# 1 61.6964 48.3167 15.8380 0.0002 -13.5348 0.0001
# 2 48.3167 147.8180 38.3309 -0.0001 -6.6131 0.0000
# 3 15.8380 38.3309 45.8857 0.0035 -8.9462 0.0024
# 4 0.0002 -0.0001 0.0035 13.7655 -0.0007 -11.5579
# 5 -13.5348 -6.6131 -8.9462 -0.0007 13.2109 -0.0004
# 6 0.0001 0.0000 0.0024 -11.5579 -0.0004 10.3368
#
#
#
# Elastic Compliance Matrix: (Units=1/GPa)
#
#
# Indices 1 2 3 4 5 6 
#
# 1 0.028094 -0.008707 0.002694 0.000004 0.026249 0.000005
# 2 -0.008707 0.011339 -0.008179 0.000052 -0.008784 0.000060
# 3 0.002694 -0.008179 0.031609 -0.000206 0.020071 -0.000237
# 4 0.000004 0.000052 -0.000206 1.187227 -0.000006 1.327473
# 5 0.026249 -0.008784 0.020071 -0.000006 0.111783 -0.000007
# 6 0.000005 0.000060 -0.000237 1.327473 -0.000007 1.581027
#
#
# Mechanical properties :
#
#
# Convention : Reuss Voigt Hill
#
# Bulk Modulus (GPa) = 23.44227 51.15237 37.29732
# Shear Modulus (GPa) = 1.67018 17.65694 9.66356
#
# Velocity S-wave (km/s) = 1.01146 3.28871 2.43297
# Velocity P-wave (km/s) = 3.96528 6.76415 5.54424
#
# Compressibility (1/GPa) = 0.04265799
#
# Stress axis : x y z
#
# Youngs Moduli (GPa) = 35.59442 88.18888 31.63628
#
# Poissons Ratio (x) = 0.76790 -0.08524
# Poissons Ratio (y) = 0.30994 0.25877
# Poissons Ratio (z) = -0.09591 0.72133
#
# Static dielectric constant tensor:
#      x y z
#    x 1.543820 0.000000 -0.005560 
#    y 0.000000 1.586590 0.000000 
#    z -0.005560 0.000000 1.546980 
# 
# From -- ./inp_files/137594.got.cif
#   From: 2010.05.17/outbox.cif.g08.bks.cpg/sg12_69_cif.got.tgz:137594.got - 2010.06.03 13:09:07.
