data_PCOD9177002
_publ_section_title
;
Structure prediction by ZEFSAII (Michael W. Deem and Ramdas Pophale) SiO2 
 PCOD9177002
Probable space group: C 2/M
;
_chemical_formula_sum "Si O2"
_cell_formula_units_Z 48
_cell_length_a 13.707471
_cell_length_b 24.239557
_cell_length_c 9.498191
_cell_angle_alpha 90.000000
_cell_angle_beta 55.579881
_cell_angle_gamma 90.000000
_cell_volume 2603.347526
_symmetry_space_group_name_H-M "C 2/M"
_symmetry_group_IT_number 12
_symmetry_cell_setting 'monoclinic'
loop_
_space_group_symop_operation_xyz
x,y,z
-x,y,-z
-x,-y,-z
x,-y,z
1/2+x,1/2+y,z
1/2-x,1/2+y,-z
1/2-x,1/2-y,-z
1/2+x,1/2-y,z
loop_
_atom_site_type_symbol
_atom_site_label
_atom_site_fract_x
_atom_site_fract_y
_atom_site_fract_z
Si Si1 0.409132 0.723324 0.452867
Si Si2 0.798560 0.647292 0.291104
Si Si3 0.778621 0.315292 0.994439
Si Si4 0.482581 0.353720 0.848766
Si Si5 0.490006 0.154647 0.359015
Si Si6 0.100372 0.937284 0.536972
O O1 0.500000 0.700966 0.500000
O O2 0.281333 0.698299 0.585561
O O3 0.457265 0.701287 0.265237
O O4 0.421100 0.788402 0.450936
O O5 0.824022 0.666568 0.111705
O O6 0.709928 0.595847 0.381207
O O7 0.911710 0.633076 0.293781
O O8 0.656195 0.347760 0.070401
O O9 0.750000 0.250000 0.000000
O O10 0.879896 0.330916 0.801784
O O11 0.546753 0.402696 0.711123
O O12 0.500000 0.358113 0.000000
O O13 0.500000 0.123312 0.500000
O O14 0.000000 0.938544 0.500000
O O15 0.130468 0.000000 0.551667
#
# Coordination Sequence:
#
# PCOD9177002 Si02
#       6
#     8   8   8   8   8   8
#     4  10  18  37  52  79 117 158 200 232 277 348
#     4  11  21  38  59  83 116 155 202 245 287 353
#     4  12  22  36  54  84 127 162 197 229 281 356
#     4  11  22  34  58  90 120 148 190 240 297 345
#     4  11  24  34  52  83 120 166 197 229 287 349
#     4  10  21  43  69  87 110 145 196 261 305 340
#
# _framework density 18.437799999999999
#
# number of rings (size 3 to 8) (size 9 to 14) (size 15 to 20)
#    0.000    1.167    5.000    3.000    7.000    0.333 
#    0.000    0.000    0.000    3.500    0.000    0.000 
#    0.000    0.000    0.000    0.000    0.000    0.000 
#
# Total GULP energy -133928.635585 kJ/mol
# GULP energy per Si atom -5580.359816 kJ/mol
# Density = 1.839583 g / cm^3
# Si number density = 18.437800 Si / 1000 Ang^3
#
#
#
# Elastic Constant Matrix: (Units=GPa)
#
#
# Indices 1 2 3 4 5 6 
#
# 1 76.2093 4.7698 40.1884 0.0000 17.1169 0.0000
# 2 4.7698 59.5931 3.1016 0.0000 8.1931 0.0000
# 3 40.1884 3.1016 115.7603 0.0000 18.9501 0.0000
# 4 0.0000 0.0000 0.0000 9.5859 0.0000 1.1448
# 5 17.1169 8.1931 18.9501 0.0000 42.4667 0.0000
# 6 0.0000 0.0000 0.0000 1.1448 0.0000 11.6698
#
#
#
# Elastic Compliance Matrix: (Units=1/GPa)
#
#
# Indices 1 2 3 4 5 6 
#
# 1 0.016838 -0.000475 -0.005110 0.000000 -0.004415 0.000000
# 2 -0.000475 0.017252 0.000233 0.000000 -0.003241 0.000000
# 3 -0.005110 0.000233 0.010871 0.000000 -0.002836 0.000000
# 4 0.000000 0.000000 0.000000 0.105556 0.000000 -0.010355
# 5 -0.004415 -0.003241 -0.002836 0.000000 0.027218 0.000000
# 6 0.000000 0.000000 0.000000 -0.010355 0.000000 0.086707
#
#
# Mechanical properties :
#
#
# Convention : Reuss Voigt Hill
#
# Bulk Modulus (GPa) = 29.19117 38.63137 33.91127
# Shear Modulus (GPa) = 17.44807 26.31133 21.87970
#
# Velocity S-wave (km/s) = 3.07957 3.78171 3.44855
# Velocity P-wave (km/s) = 5.33963 6.32978 5.85567
#
# Compressibility (1/GPa) = 0.03425694
#
# Stress axis : x y z
#
# Youngs Moduli (GPa) = 59.38993 57.96455 91.99071
#
# Poissons Ratio (x) = 0.02752 0.47009
# Poissons Ratio (y) = 0.02820 -0.02145
# Poissons Ratio (z) = 0.30349 -0.01352
#
# Static dielectric constant tensor:
#      x y z
#    x 1.724360 0.000000 0.041140 
#    y 0.000000 1.634890 0.000000 
#    z 0.041140 0.000000 1.644580 
# 
# From -- ./inp_files/52422.got.cif
#   From: 2010.05.17/outbox.cif.g08.bks.cpg/sg12_27_cif.got.tgz:52422.got - 2010.06.03 13:09:07.
