data_PCOD9177338
_publ_section_title
;
Structure prediction by ZEFSAII (Michael W. Deem and Ramdas Pophale) SiO2 
 PCOD9177338
Probable space group: C 2/M
;
_chemical_formula_sum "Si O2"
_cell_formula_units_Z 48
_cell_length_a 27.431034
_cell_length_b 8.727851
_cell_length_c 11.937003
_cell_angle_alpha 90.000000
_cell_angle_beta 90.588254
_cell_angle_gamma 90.000000
_cell_volume 2857.734744
_symmetry_space_group_name_H-M "C 2/M"
_symmetry_group_IT_number 12
_symmetry_cell_setting 'monoclinic'
loop_
_space_group_symop_operation_xyz
x,y,z
-x,y,-z
-x,-y,-z
x,-y,z
1/2+x,1/2+y,z
1/2-x,1/2+y,-z
1/2-x,1/2-y,-z
1/2+x,1/2-y,z
loop_
_atom_site_type_symbol
_atom_site_label
_atom_site_fract_x
_atom_site_fract_y
_atom_site_fract_z
Si Si1 0.443207 0.829982 0.014092
Si Si2 0.696215 0.316521 0.001470
Si Si3 0.616068 0.317050 0.176866
Si Si4 0.052393 0.182897 0.383002
Si Si5 0.948380 0.317895 0.369274
Si Si6 0.118158 0.177912 0.814305
O O1 0.426059 0.702034 0.099925
O O2 0.427046 0.000000 0.052237
O O3 0.500000 0.831742 0.000000
O O4 0.419697 0.786525 0.896523
O O5 0.698493 0.500000 0.993751
O O6 0.663574 0.265442 0.892720
O O7 0.750000 0.250000 0.000000
O O8 0.667925 0.281975 0.118108
O O9 0.608112 0.500000 0.157491
O O10 0.598879 0.288845 0.303448
O O11 0.058405 0.263314 0.502984
O O12 0.000385 0.243233 0.333349
O O13 0.047892 0.000000 0.398441
O O14 0.953483 0.500000 0.363208
O O15 0.902067 0.264602 0.294753
O O16 0.125958 0.000000 0.787788
#
# Coordination Sequence:
#
# PCOD9177338 Si02
#       6
#     8   8   8   8   8   8
#     4  10  19  28  42  68  99 127 157 197 243 287
#     4   9  19  35  54  76  98 122 157 204 255 302
#     4   9  19  33  49  70  96 128 165 200 238 292
#     4  10  19  33  52  72 100 140 175 200 235 287
#     4  11  21  32  48  74 106 135 168 208 243 281
#     4  10  20  34  50  69  96 130 167 201 240 296
#
# _framework density 16.796519
#
# number of rings (size 3 to 8) (size 9 to 14) (size 15 to 20)
#    0.000    2.167    0.000    6.000    0.000    8.667 
#    0.000    0.000    0.000    1.000    0.000    0.000 
#    0.000    0.000    0.000    0.000    0.000    0.000 
#
# Total GULP energy -133604.583199 kJ/mol
# GULP energy per Si atom -5566.857633 kJ/mol
# Density = 1.675829 g / cm^3
# Si number density = 16.796519 Si / 1000 Ang^3
#
#
#
# Elastic Constant Matrix: (Units=GPa)
#
#
# Indices 1 2 3 4 5 6 
#
# 1 116.1214 29.0016 51.1341 0.0000 -2.1608 0.0000
# 2 29.0016 43.3801 21.3063 0.0000 2.1651 0.0000
# 3 51.1341 21.3063 76.5516 0.0000 0.3298 0.0000
# 4 0.0000 0.0000 0.0000 404.6169 0.0000 158.2452
# 5 -2.1608 2.1651 0.3298 0.0000 20.7787 0.0000
# 6 0.0000 0.0000 0.0000 158.2452 0.0000 86.9762
#
#
#
# Elastic Compliance Matrix: (Units=1/GPa)
#
#
# Indices 1 2 3 4 5 6 
#
# 1 0.013220 -0.005327 -0.007356 0.000000 0.002047 0.000000
# 2 -0.005327 0.028997 -0.004497 0.000000 -0.003504 0.000000
# 3 -0.007356 -0.004497 0.019231 0.000000 -0.000602 0.000000
# 4 0.000000 0.000000 0.000000 0.008569 0.000000 -0.015590
# 5 0.002047 -0.003504 -0.000602 0.000000 0.048714 0.000000
# 6 0.000000 0.000000 0.000000 -0.015590 0.000000 0.039862
#
#
# Mechanical properties :
#
#
# Convention : Reuss Voigt Hill
#
# Bulk Modulus (GPa) = 36.91869 48.77078 42.84474
# Shear Modulus (GPa) = 24.75465 111.44845 68.10155
#
# Velocity S-wave (km/s) = 3.84317 8.15452 6.37441
# Velocity P-wave (km/s) = 6.45918 10.85177 8.92978
#
# Compressibility (1/GPa) = 0.02708655
#
# Stress axis : x y z
#
# Youngs Moduli (GPa) = 75.64532 34.48623 51.99856
#
# Poissons Ratio (x) = 0.18370 0.38253
# Poissons Ratio (y) = 0.40295 0.23386
# Poissons Ratio (z) = 0.55648 0.15510
#
# Static dielectric constant tensor:
#      x y z
#    x 1.462870 0.000000 0.231270 
#    y 0.000000 1.593480 0.000000 
#    z 0.231270 0.000000 1.125290 
# 
# From -- ./inp_files/172257.got.cif
#   From: 2010.05.17/outbox.cif.g08.bks.cpg/sg12_87_cif.got.tgz:172257.got - 2010.06.03 13:09:07.
