data_PCOD9177267
_publ_section_title
;
Structure prediction by ZEFSAII (Michael W. Deem and Ramdas Pophale) SiO2 
 PCOD9177267
Probable space group: C 2/M
;
_chemical_formula_sum "Si O2"
_cell_formula_units_Z 52
_cell_length_a 7.917695
_cell_length_b 31.069743
_cell_length_c 13.804057
_cell_angle_alpha 90.000000
_cell_angle_beta 58.775601
_cell_angle_gamma 90.000000
_cell_volume 2903.903732
_symmetry_space_group_name_H-M "C 2/M"
_symmetry_group_IT_number 12
_symmetry_cell_setting 'monoclinic'
loop_
_space_group_symop_operation_xyz
x,y,z
-x,y,-z
-x,-y,-z
x,-y,z
1/2+x,1/2+y,z
1/2-x,1/2+y,-z
1/2-x,1/2-y,-z
1/2+x,1/2-y,z
loop_
_atom_site_type_symbol
_atom_site_label
_atom_site_fract_x
_atom_site_fract_y
_atom_site_fract_z
Si Si1 0.115549 0.800170 0.057242
Si Si2 0.000000 0.405990 0.000000
Si Si3 0.201988 0.696736 0.381741
Si Si4 0.918331 0.949755 0.914741
Si Si5 0.667386 0.374064 0.781958
Si Si6 0.478663 0.842326 0.842908
Si Si7 0.994630 0.260864 0.737224
O O1 0.997905 0.843218 0.121099
O O2 0.105226 0.768618 0.151131
O O3 0.323945 0.816058 0.955924
O O4 0.000000 0.780504 0.000000
O O5 0.193019 0.432757 0.974327
O O6 0.072132 0.375947 0.889002
O O7 0.277035 0.648932 0.335566
O O8 0.368452 0.729615 0.367703
O O9 0.000000 0.696448 0.500000
O O10 0.163069 0.717572 0.287001
O O11 0.067818 0.920459 0.807655
O O12 0.924473 0.000000 0.887569
O O13 0.000000 0.944484 0.000000
O O14 0.854950 0.368974 0.798595
O O15 0.595435 0.803449 0.755470
#
# Coordination Sequence:
#
# PCOD9177267 Si02
#       7
#     8   4   8   8   8   8   8
#     4   9  16  29  46  66 104 139 172 205 249 305
#     4  12  21  30  52  78 112 142 178 190 249 314
#     4  10  21  35  51  68 100 137 184 232 262 298
#     4  11  21  36  54  77 111 140 166 207 259 326
#     4   9  17  36  49  68  99 141 175 212 266 305
#     4  10  19  27  46  72 108 137 174 207 239 310
#     4  10  21  30  46  73  99 138 179 216 255 294
#
# _framework density 17.906929000000002
#
# number of rings (size 3 to 8) (size 9 to 14) (size 15 to 20)
#    0.000    2.000    3.077    2.538    3.231    0.000 
#    0.000    0.000    0.000    0.462    0.000    0.000 
#    0.000    4.923    0.000    0.000    0.000    0.000 
#
# Total GULP energy -144978.681326 kJ/mol
# GULP energy per Si atom -5576.103128 kJ/mol
# Density = 1.786617 g / cm^3
# Si number density = 17.906929 Si / 1000 Ang^3
#
#
#
# Elastic Constant Matrix: (Units=GPa)
#
#
# Indices 1 2 3 4 5 6 
#
# 1 60.5171 33.2689 0.9784 0.0000 -2.8952 0.0000
# 2 33.2689 106.3359 18.6909 0.0000 -7.6735 0.0000
# 3 0.9784 18.6909 51.4800 0.0000 -15.9606 0.0000
# 4 0.0000 0.0000 0.0000 14.9619 0.0000 -1.2034
# 5 -2.8952 -7.6735 -15.9606 0.0000 20.1693 0.0000
# 6 0.0000 0.0000 0.0000 -1.2034 0.0000 21.6019
#
#
#
# Elastic Compliance Matrix: (Units=1/GPa)
#
#
# Indices 1 2 3 4 5 6 
#
# 1 0.020259 -0.006649 0.002844 0.000000 0.002629 0.000000
# 2 -0.006649 0.012251 -0.004204 0.000000 0.000380 0.000000
# 3 0.002844 -0.004204 0.027202 0.000000 0.020334 0.000000
# 4 0.000000 0.000000 0.000000 0.067137 0.000000 0.003740
# 5 0.002629 0.000380 0.020334 0.000000 0.066193 0.000000
# 6 0.000000 0.000000 0.000000 0.003740 0.000000 0.046501
#
#
# Mechanical properties :
#
#
# Convention : Reuss Voigt Hill
#
# Bulk Modulus (GPa) = 22.88605 36.02326 29.45465
# Shear Modulus (GPa) = 18.51003 22.37295 20.44149
#
# Velocity S-wave (km/s) = 3.21858 3.53852 3.38233
# Velocity P-wave (km/s) = 5.15952 6.07087 5.63365
#
# Compressibility (1/GPa) = 0.04369473
#
# Stress axis : x y z
#
# Youngs Moduli (GPa) = 49.36064 81.62891 36.76258
#
# Poissons Ratio (x) = 0.54271 -0.10455
# Poissons Ratio (y) = 0.32818 0.15454
# Poissons Ratio (z) = -0.14038 0.34314
#
# Static dielectric constant tensor:
#      x y z
#    x 1.703930 0.000000 0.011240 
#    y 0.000000 1.652740 0.000000 
#    z 0.011240 0.000000 1.620250 
# 
# From -- ./inp_files/200495.got.cif
#   From: 2010.05.17/outbox.cif.g08.bks.cpg/sg12_101_cif.got.tgz:200495.got - 2010.06.03 13:09:07.
