data_PCOD9177902
_publ_section_title
;
Structure prediction by ZEFSAII (Michael W. Deem and Ramdas Pophale) SiO2 
 PCOD9177902
Probable space group: C 2/M
;
_chemical_formula_sum "Si O2"
_cell_formula_units_Z 56
_cell_length_a 14.134496
_cell_length_b 9.349976
_cell_length_c 22.998147
_cell_angle_alpha 90.000000
_cell_angle_beta 123.880333
_cell_angle_gamma 90.000000
_cell_volume 2523.296733
_symmetry_space_group_name_H-M "C 2/M"
_symmetry_group_IT_number 12
_symmetry_cell_setting 'monoclinic'
loop_
_space_group_symop_operation_xyz
x,y,z
-x,y,-z
-x,-y,-z
x,-y,z
1/2+x,1/2+y,z
1/2-x,1/2+y,-z
1/2-x,1/2-y,-z
1/2+x,1/2-y,z
loop_
_atom_site_type_symbol
_atom_site_label
_atom_site_fract_x
_atom_site_fract_y
_atom_site_fract_z
Si Si1 0.946626 0.838440 0.921242
Si Si2 0.050324 0.669932 0.346811
Si Si3 0.757464 0.671541 0.355110
Si Si4 0.336924 0.165089 0.783712
Si Si5 0.180825 0.844534 0.932032
Si Si6 0.354942 0.170385 0.504674
Si Si7 0.913672 0.339875 0.194634
O O1 0.055883 0.854261 0.917060
O O2 0.860521 0.746603 0.852453
O O3 0.903409 0.000000 0.919265
O O4 0.000000 0.778905 0.000000
O O5 0.082699 0.500000 0.349028
O O6 0.144073 0.775754 0.351376
O O7 0.044727 0.692690 0.413960
O O8 0.938253 0.690496 0.270218
O O9 0.758239 0.500000 0.345600
O O10 0.745255 0.753768 0.290053
O O11 0.854433 0.710293 0.436537
O O12 0.461105 0.162965 0.793350
O O13 0.303205 0.000000 0.780774
O O14 0.164492 0.770360 0.865095
O O15 0.233463 0.000000 0.945007
O O16 0.250000 0.750000 0.000000
O O17 0.250000 0.250000 0.500000
O O18 0.333563 0.000000 0.496950
O O19 0.869273 0.500000 0.172249
#
# Coordination Sequence:
#
# PCOD9177902 Si02
#       7
#     8   8   8   8   8   8   8
#     4   9  18  32  48  65  84 107 137 173 211 248
#     4   8  13  21  31  44  65  93 125 162 200 238
#     4   9  14  19  29  45  66  94 128 163 196 234
#     4   9  16  25  37  53  74 101 132 165 201 242
#     4  10  19  30  45  63  84 109 137 170 206 246
#     4   8  13  19  27  41  62  90 124 159 195 233
#     4   8  14  24  37  52  72  99 131 165 200 239
#
# _framework density 22.193189
#
# number of rings (size 3 to 8) (size 9 to 14) (size 15 to 20)
#    0.000    3.286    0.000    2.143    0.000    4.857 
#    0.000    0.000    0.000    0.000    0.000    0.000 
#    0.000    0.000    0.000    1.286    0.000   30.857 
#
# Total GULP energy -156051.385681 kJ/mol
# GULP energy per Si atom -5573.263774 kJ/mol
# Density = 2.214268 g / cm^3
# Si number density = 22.193189 Si / 1000 Ang^3
#
#
#
# Elastic Constant Matrix: (Units=GPa)
#
#
# Indices 1 2 3 4 5 6 
#
# 1 61.8443 0.8813 6.9063 0.0000 -20.1129 0.0000
# 2 0.8813 112.0750 113.7735 0.0000 -5.8591 0.0000
# 3 6.9063 113.7735 247.2161 0.0000 -15.7392 0.0000
# 4 0.0000 0.0000 0.0000 34.4742 0.0000 -0.3233
# 5 -20.1129 -5.8591 -15.7392 0.0000 15.3540 0.0000
# 6 0.0000 0.0000 0.0000 -0.3233 0.0000 -5.5384
#
#
#
# Elastic Compliance Matrix: (Units=1/GPa)
#
#
# Indices 1 2 3 4 5 6 
#
# 1 0.028834 0.000193 0.001621 0.000000 0.039506 0.000000
# 2 0.000193 0.016785 -0.007816 0.000000 -0.001354 0.000000
# 3 0.001621 -0.007816 0.008069 0.000000 0.007412 0.000000
# 4 0.000000 0.000000 0.000000 0.028991 0.000000 -0.001693
# 5 0.039506 -0.001354 0.007412 0.000000 0.123960 0.000000
# 6 0.000000 0.000000 0.000000 -0.001693 0.000000 -0.180459
#
#
# Mechanical properties :
#
#
# Convention : Reuss Voigt Hill
#
# Bulk Modulus (GPa) = 23.99056 73.80640 48.89848
# Shear Modulus (GPa) = 96.00601 28.82958 62.41779
#
# Velocity S-wave (km/s) = 6.58431 3.60811 5.30903
# Velocity P-wave (km/s) = 8.28478 7.11945 7.72412
#
# Compressibility (1/GPa) = 0.04168306
#
# Stress axis : x y z
#
# Youngs Moduli (GPa) = 34.68145 59.57613 123.93225
#
# Poissons Ratio (x) = -0.01152 -0.20085
# Poissons Ratio (y) = -0.00671 0.96872
# Poissons Ratio (z) = -0.05621 0.46568
#
# Static dielectric constant tensor:
#      x y z
#    x 1.551620 0.000000 0.006520 
#    y 0.000000 1.789890 0.000000 
#    z 0.006520 0.000000 1.861300 
# 
# From -- ./inp_files/345658.got.cif
#   From: 2010.05.17/outbox.cif.g08.bks.cpg/sg12_173_cif.got.tgz:345658.got - 2010.06.03 13:09:07.
