data_PCOD9177042
_publ_section_title
;
Structure prediction by ZEFSAII (Michael W. Deem and Ramdas Pophale) SiO2 
 PCOD9177042
Probable space group: C 2/M
;
_chemical_formula_sum "Si O2"
_cell_formula_units_Z 64
_cell_length_a 29.277867
_cell_length_b 18.747353
_cell_length_c 8.769259
_cell_angle_alpha 90.000000
_cell_angle_beta 143.506144
_cell_angle_gamma 90.000000
_cell_volume 2862.641357
_symmetry_space_group_name_H-M "C 2/M"
_symmetry_group_IT_number 12
_symmetry_cell_setting 'monoclinic'
loop_
_space_group_symop_operation_xyz
x,y,z
-x,y,-z
-x,-y,-z
x,-y,z
1/2+x,1/2+y,z
1/2-x,1/2+y,-z
1/2-x,1/2-y,-z
1/2+x,1/2-y,z
loop_
_atom_site_type_symbol
_atom_site_label
_atom_site_fract_x
_atom_site_fract_y
_atom_site_fract_z
Si Si1 0.086498 0.795745 0.593304
Si Si2 0.081091 0.633611 0.566816
Si Si3 0.048422 0.807426 0.980022
Si Si4 0.426879 0.138730 0.978019
Si Si5 0.684091 0.080842 0.082221
Si Si6 0.167415 0.580897 0.531645
Si Si7 0.687252 0.335023 0.149639
Si Si8 0.224144 0.786461 0.770688
O O1 0.078262 0.713538 0.626240
O O2 0.134182 0.792087 0.561907
O O3 0.004509 0.821124 0.312637
O O4 0.133115 0.836163 0.851104
O O5 0.111519 0.579989 0.773265
O O6 0.147015 0.632121 0.616029
O O7 0.001148 0.616071 0.273050
O O8 0.059839 0.721626 0.024122
O O9 0.132648 0.834882 0.151992
O O10 0.000000 0.831801 0.000000
O O11 0.405265 0.093124 0.773247
O O12 0.350716 0.124476 0.871042
O O13 0.708051 0.000000 0.181444
O O14 0.745718 0.133361 0.172085
O O15 0.169828 0.500000 0.590527
O O16 0.249297 0.603105 0.683193
O O17 0.739384 0.263631 0.261978
O O18 0.250000 0.750000 0.000000
#
# Coordination Sequence:
#
# PCOD9177042 Si02
#       8
#     8   8   8   8   8   8   8   8
#     4  10  19  38  64  91 124 156 205 264 319 360
#     4  11  20  38  62  89 124 167 212 248 301 375
#     4  11  23  38  63  97 121 155 211 265 314 376
#     4  11  24  40  57  86 133 172 200 248 310 377
#     4  12  23  36  59  92 124 168 218 254 302 376
#     4  12  26  41  60  90 130 172 209 253 312 379
#     4  11  21  40  67  88 120 167 210 263 318 358
#     4  10  18  37  60  87 121 162 200 266 314 352
#
# _framework density 22.356974999999998
#
# number of rings (size 3 to 8) (size 9 to 14) (size 15 to 20)
#    0.000    1.000    5.000    4.125    0.000    6.500 
#    0.000    0.000    0.000    2.625    0.000    0.000 
#    0.000    0.000    0.000    0.000    0.000    0.000 
#
# Total GULP energy -178592.254073 kJ/mol
# GULP energy per Si atom -5581.007940 kJ/mol
# Density = 2.230609 g / cm^3
# Si number density = 22.356975 Si / 1000 Ang^3
#
#
#
# Elastic Constant Matrix: (Units=GPa)
#
#
# Indices 1 2 3 4 5 6 
#
# 1 124.8286 7.0194 -2.5207 0.0000 18.8834 0.0000
# 2 7.0194 51.3090 7.0318 0.0000 5.4882 0.0000
# 3 -2.5207 7.0318 70.5360 0.0000 8.7410 0.0000
# 4 0.0000 0.0000 0.0000 10.2731 0.0000 8.9799
# 5 18.8834 5.4882 8.7410 0.0000 30.9042 0.0000
# 6 0.0000 0.0000 0.0000 8.9799 0.0000 9.6420
#
#
#
# Elastic Compliance Matrix: (Units=1/GPa)
#
#
# Indices 1 2 3 4 5 6 
#
# 1 0.008928 -0.000769 0.001093 0.000000 -0.005628 0.000000
# 2 -0.000769 0.020109 -0.001708 0.000000 -0.002618 0.000000
# 3 0.001093 -0.001708 0.014956 0.000000 -0.004595 0.000000
# 4 0.000000 0.000000 0.000000 0.523630 0.000000 -0.487674
# 5 -0.005628 -0.002618 -0.004595 0.000000 0.037561 0.000000
# 6 0.000000 0.000000 0.000000 -0.487674 0.000000 0.557900
#
#
# Mechanical properties :
#
#
# Convention : Reuss Voigt Hill
#
# Bulk Modulus (GPa) = 24.25717 29.97050 27.11384
# Shear Modulus (GPa) = 4.23875 25.84007 15.03941
#
# Velocity S-wave (km/s) = 1.37843 3.40339 2.59645
# Velocity P-wave (km/s) = 3.66154 5.37388 4.59812
#
# Compressibility (1/GPa) = 0.04122492
#
# Stress axis : x y z
#
# Youngs Moduli (GPa) = 112.01181 49.72876 66.86345
#
# Poissons Ratio (x) = 0.03825 -0.07309
# Poissons Ratio (y) = 0.08616 0.11418
# Poissons Ratio (z) = -0.12244 0.08492
#
# Static dielectric constant tensor:
#      x y z
#    x 2.000260 0.000000 -0.030900 
#    y 0.000000 1.742340 0.000000 
#    z -0.030900 0.000000 1.894110 
# 
# From -- ./inp_files/112919.got.cif
#   From: 2010.05.17/outbox.cif.g08.bks.cpg/sg12_57_cif.got.tgz:112919.got - 2010.06.03 13:09:07.
