data_PCOD9177075
_publ_section_title
;
Structure prediction by ZEFSAII (Michael W. Deem and Ramdas Pophale) SiO2 
 PCOD9177075
Probable space group: C 2/M
;
_chemical_formula_sum "Si O2"
_cell_formula_units_Z 56
_cell_length_a 10.026917
_cell_length_b 14.955882
_cell_length_c 15.883730
_cell_angle_alpha 90.000000
_cell_angle_beta 113.343907
_cell_angle_gamma 90.000000
_cell_volume 2186.967212
_symmetry_space_group_name_H-M "C 2/M"
_symmetry_group_IT_number 12
_symmetry_cell_setting 'monoclinic'
loop_
_space_group_symop_operation_xyz
x,y,z
-x,y,-z
-x,-y,-z
x,-y,z
1/2+x,1/2+y,z
1/2-x,1/2+y,-z
1/2-x,1/2-y,-z
1/2+x,1/2-y,z
loop_
_atom_site_type_symbol
_atom_site_label
_atom_site_fract_x
_atom_site_fract_y
_atom_site_fract_z
Si Si1 0.457594 0.135964 0.366030
Si Si2 0.791077 0.592682 0.166690
Si Si3 0.344670 0.101669 0.814602
Si Si4 0.742258 0.143108 0.523077
Si Si5 0.731041 0.353539 0.971793
Si Si6 0.054024 0.795555 0.172891
Si Si7 0.962591 0.154633 0.335040
O O1 0.417149 0.095137 0.266934
O O2 0.623098 0.109287 0.427146
O O3 0.342066 0.116620 0.411334
O O4 0.444609 0.243794 0.361267
O O5 0.708993 0.500000 0.167123
O O6 0.707654 0.681964 0.172024
O O7 0.794117 0.594981 0.067001
O O8 0.301796 0.115270 0.902384
O O9 0.448404 0.187947 0.824736
O O10 0.196200 0.113280 0.722015
O O11 0.399150 0.000000 0.818383
O O12 0.750000 0.250000 0.500000
O O13 0.909784 0.113354 0.574878
O O14 0.558974 0.350716 0.911947
O O15 0.750000 0.250000 0.000000
O O16 0.034941 0.833349 0.261118
#
# Coordination Sequence:
#
# PCOD9177075 Si02
#       7
#     8   8   8   8   8   8   8
#     4  10  19  38  58  91 126 158 210 260 315 377
#     4  12  23  38  61  88 122 165 210 259 316 376
#     4  11  23  40  64  95 127 169 217 265 317 379
#     4   9  18  33  63  92 120 162 207 255 315 381
#     4  11  23  42  64  86 125 167 211 265 317 372
#     4  11  22  40  63  89 129 166 211 260 317 377
#     4  10  18  37  64  90 127 167 208 257 310 383
#
# _framework density 25.606235999999999
#
# number of rings (size 3 to 8) (size 9 to 14) (size 15 to 20)
#    0.000    1.429    4.286    1.714    0.000    3.429 
#    0.000    6.429    0.000    0.000    0.000   35.000 
#    0.000    0.000    0.000    0.000    0.000    0.000 
#
# Total GULP energy -156293.944275 kJ/mol
# GULP energy per Si atom -5581.926581 kJ/mol
# Density = 2.554796 g / cm^3
# Si number density = 25.606236 Si / 1000 Ang^3
#
#
#
# Elastic Constant Matrix: (Units=GPa)
#
#
# Indices 1 2 3 4 5 6 
#
# 1 62.2470 5.4870 57.2494 0.0000 6.9902 0.0000
# 2 5.4870 116.6303 31.7982 0.0000 1.6266 0.0000
# 3 57.2494 31.7982 165.1456 0.0000 29.5114 0.0000
# 4 0.0000 0.0000 0.0000 2.4165 0.0000 0.8818
# 5 6.9902 1.6266 29.5114 0.0000 44.6681 0.0000
# 6 0.0000 0.0000 0.0000 0.8818 0.0000 15.1348
#
#
#
# Elastic Compliance Matrix: (Units=1/GPa)
#
#
# Indices 1 2 3 4 5 6 
#
# 1 0.023911 0.001275 -0.008909 0.000000 0.002098 0.000000
# 2 0.001275 0.009151 -0.002391 0.000000 0.001047 0.000000
# 3 -0.008909 -0.002391 0.010590 0.000000 -0.005515 0.000000
# 4 0.000000 0.000000 0.000000 0.422804 0.000000 -0.024633
# 5 0.002098 0.001047 -0.005515 0.000000 0.025665 0.000000
# 6 0.000000 0.000000 0.000000 -0.024633 0.000000 0.067508
#
#
# Mechanical properties :
#
#
# Convention : Reuss Voigt Hill
#
# Bulk Modulus (GPa) = 42.37103 59.23245 50.80174
# Shear Modulus (GPa) = 8.50996 29.07645 18.79320
#
# Velocity S-wave (km/s) = 1.82500 3.37341 2.71205
# Velocity P-wave (km/s) = 4.58518 6.19318 5.44882
#
# Compressibility (1/GPa) = 0.02360103
#
# Stress axis : x y z
#
# Youngs Moduli (GPa) = 41.82148 109.27237 94.43089
#
# Poissons Ratio (x) = -0.13931 0.84132
# Poissons Ratio (y) = -0.05332 0.22580
# Poissons Ratio (z) = 0.37261 0.26129
#
# Static dielectric constant tensor:
#      x y z
#    x 2.144620 0.000000 0.111860 
#    y 0.000000 1.957360 0.000000 
#    z 0.111860 0.000000 2.127860 
# 
# From -- ./inp_files/263438.got.cif
#   From: 2010.05.17/outbox.cif.g08.bks.cpg/sg12_132_cif.got.tgz:263438.got - 2010.06.03 13:09:07.
