data_PCOD9177145
_publ_section_title
;
Structure prediction by ZEFSAII (Michael W. Deem and Ramdas Pophale) SiO2 
 PCOD9177145
Probable space group: C 2/M
;
_chemical_formula_sum "Si O2"
_cell_formula_units_Z 48
_cell_length_a 17.829931
_cell_length_b 14.353550
_cell_length_c 17.089868
_cell_angle_alpha 90.000000
_cell_angle_beta 32.919682
_cell_angle_gamma 90.000000
_cell_volume 2376.936347
_symmetry_space_group_name_H-M "C 2/M"
_symmetry_group_IT_number 12
_symmetry_cell_setting 'monoclinic'
loop_
_space_group_symop_operation_xyz
x,y,z
-x,y,-z
-x,-y,-z
x,-y,z
1/2+x,1/2+y,z
1/2-x,1/2+y,-z
1/2-x,1/2-y,-z
1/2+x,1/2-y,z
loop_
_atom_site_type_symbol
_atom_site_label
_atom_site_fract_x
_atom_site_fract_y
_atom_site_fract_z
Si Si1 0.002399 0.655200 0.610890
Si Si2 0.412054 0.638787 0.646283
Si Si3 0.656773 0.605269 0.116639
Si Si4 0.956147 0.694604 0.829446
Si Si5 0.876450 0.703373 0.166671
Si Si6 0.239063 0.600936 0.287876
O O1 0.138103 0.614453 0.451254
O O2 0.985548 0.761660 0.597697
O O3 0.999553 0.657460 0.706401
O O4 0.867036 0.607048 0.692489
O O5 0.500000 0.594371 0.500000
O O6 0.394155 0.599773 0.748889
O O7 0.260681 0.654032 0.743318
O O8 0.644502 0.500000 0.093662
O O9 0.577477 0.693700 0.146823
O O10 0.815539 0.641021 0.976278
O O11 0.073614 0.678993 0.790469
O O12 0.841784 0.813224 0.193792
O O13 0.000000 0.681760 0.000000
O O14 0.305653 0.500000 0.232147
#
# Coordination Sequence:
#
# PCOD9177145 Si02
#       6
#     8   8   8   8   8   8
#     4   9  17  35  58  82 112 159 201 230 291 363
#     4  10  18  38  63  85 110 159 204 235 294 361
#     4  10  22  39  61  89 120 156 202 249 296 360
#     4  10  22  38  61  87 121 163 197 244 305 351
#     4  11  21  38  60  85 120 157 198 247 303 355
#     4  10  20  34  57  88 119 152 197 249 293 355
#
# _framework density 20.194063
#
# number of rings (size 3 to 8) (size 9 to 14) (size 15 to 20)
#    0.000    2.000    5.000    1.000    2.333    3.333 
#    0.000    1.667    0.000    0.000    0.000    0.000 
#    0.000    0.000    0.000    0.000    0.000    0.000 
#
# Total GULP energy -133900.113761 kJ/mol
# GULP energy per Si atom -5579.171407 kJ/mol
# Density = 2.014810 g / cm^3
# Si number density = 20.194063 Si / 1000 Ang^3
#
#
#
# Elastic Constant Matrix: (Units=GPa)
#
#
# Indices 1 2 3 4 5 6 
#
# 1 65.8109 -6.4113 24.9669 0.0000 23.8089 0.0000
# 2 -6.4113 76.5886 11.9050 0.0000 10.5566 0.0000
# 3 24.9669 11.9050 74.0619 -0.0001 13.5362 0.0000
# 4 0.0000 0.0000 -0.0001 1.3297 0.0000 9.9514
# 5 23.8089 10.5566 13.5362 0.0000 27.2794 0.0000
# 6 0.0000 0.0000 0.0000 9.9514 0.0000 0.6117
#
#
#
# Elastic Compliance Matrix: (Units=1/GPa)
#
#
# Indices 1 2 3 4 5 6 
#
# 1 0.025992 0.006124 -0.005682 0.000000 -0.022235 0.000000
# 2 0.006124 0.015362 -0.002717 0.000000 -0.009941 0.000000
# 3 -0.005682 -0.002717 0.016228 0.000000 -0.002041 0.000000
# 4 0.000000 0.000000 0.000000 -0.006228 0.000000 0.101321
# 5 -0.022235 -0.009941 -0.002041 0.000000 0.060924 0.000000
# 6 0.000000 0.000000 0.000000 0.101321 0.000000 -0.013539
#
#
# Mechanical properties :
#
#
# Convention : Reuss Voigt Hill
#
# Bulk Modulus (GPa) = 18.85711 30.82029 24.83870
# Shear Modulus (GPa) = 41.33369 18.24421 29.78895
#
# Velocity S-wave (km/s) = 4.52909 3.00900 3.84491
# Velocity P-wave (km/s) = 6.05875 5.23137 5.66020
#
# Compressibility (1/GPa) = 0.05303041
#
# Stress axis : x y z
#
# Youngs Moduli (GPa) = 38.47406 65.09578 61.62330
#
# Poissons Ratio (x) = -0.39864 0.35017
# Poissons Ratio (y) = -0.23561 0.16741
# Poissons Ratio (z) = 0.21863 0.17685
#
# Static dielectric constant tensor:
#      x y z
#    x 1.695060 0.000000 0.025810 
#    y 0.000000 1.744440 0.000000 
#    z 0.025810 0.000000 1.695670 
# 
# From -- ./inp_files/278016.got.cif
#   From: 2010.05.17/outbox.cif.g08.bks.cpg/sg12_140_cif.got.tgz:278016.got - 2010.06.03 13:09:07.
