data_PCOD9177514
_publ_section_title
;
Structure prediction by ZEFSAII (Michael W. Deem and Ramdas Pophale) SiO2 
 PCOD9177514
Probable space group: C 2/M
;
_chemical_formula_sum "Si O2"
_cell_formula_units_Z 56
_cell_length_a 8.480429
_cell_length_b 31.161776
_cell_length_c 12.691080
_cell_angle_alpha 90.000000
_cell_angle_beta 72.183162
_cell_angle_gamma 90.000000
_cell_volume 3192.960749
_symmetry_space_group_name_H-M "C 2/M"
_symmetry_group_IT_number 12
_symmetry_cell_setting 'monoclinic'
loop_
_space_group_symop_operation_xyz
x,y,z
-x,y,-z
-x,-y,-z
x,-y,z
1/2+x,1/2+y,z
1/2-x,1/2+y,-z
1/2-x,1/2-y,-z
1/2+x,1/2-y,z
loop_
_atom_site_type_symbol
_atom_site_label
_atom_site_fract_x
_atom_site_fract_y
_atom_site_fract_z
Si Si1 0.166217 0.724427 0.920866
Si Si2 0.512261 0.286806 0.775289
Si Si3 0.744389 0.861162 0.616304
Si Si4 0.401825 0.223261 0.417919
Si Si5 0.619200 0.952669 0.633000
Si Si6 0.106595 0.134776 0.642063
Si Si7 0.757557 0.046269 0.369437
O O1 0.325537 0.699291 0.844093
O O2 0.098849 0.758341 0.847986
O O3 0.250000 0.750000 0.000000
O O4 0.000000 0.701915 0.000000
O O5 0.499961 0.257044 0.674003
O O6 0.625006 0.327326 0.721740
O O7 0.646955 0.816632 0.646372
O O8 0.664033 0.906021 0.670020
O O9 0.773149 0.861805 0.483324
O O10 0.923686 0.859410 0.632280
O O11 0.500000 0.207744 0.500000
O O12 0.250000 0.250000 0.500000
O O13 0.425306 0.951021 0.643106
O O14 0.723439 0.953709 0.502316
O O15 0.649524 0.000000 0.677735
O O16 0.135528 0.087436 0.680682
O O17 0.831672 0.000000 0.326563
#
# Coordination Sequence:
#
# PCOD9177514 Si02
#       7
#     8   8   8   8   8   8   8
#     4   9  20  37  54  69  87 115 159 211 254 288
#     4  11  20  33  51  70  95 129 162 201 246 287
#     4  10  20  29  40  63  97 134 167 202 228 273
#     4  12  23  32  45  68 103 138 167 190 230 288
#     4   8  15  27  42  58  80 123 179 213 231 259
#     4  10  19  29  43  65  97 127 164 198 235 283
#     4   8  15  27  43  61  86 122 164 207 241 270
#
# _framework density 17.538581000000001
#
# number of rings (size 3 to 8) (size 9 to 14) (size 15 to 20)
#    0.000    2.286    1.429    3.429    4.000    0.571 
#    0.000    2.857    0.000    0.000    0.000    0.000 
#    0.000    5.714    0.000    7.571    0.000   15.714 
#
# Total GULP energy -155879.412241 kJ/mol
# GULP energy per Si atom -5567.121866 kJ/mol
# Density = 1.749866 g / cm^3
# Si number density = 17.538581 Si / 1000 Ang^3
#
#
#
# Elastic Constant Matrix: (Units=GPa)
#
#
# Indices 1 2 3 4 5 6 
#
# 1 37.7880 19.6778 8.0107 0.0000 -1.9499 0.0000
# 2 19.6778 125.1848 9.5890 0.0000 -6.1632 0.0000
# 3 8.0107 9.5890 40.1101 0.0000 -2.8545 0.0000
# 4 0.0000 0.0000 0.0000 6.5781 0.0000 -2.9513
# 5 -1.9499 -6.1632 -2.8545 0.0000 24.4298 0.0000
# 6 0.0000 0.0000 0.0000 -2.9513 0.0000 28.9245
#
#
#
# Elastic Compliance Matrix: (Units=1/GPa)
#
#
# Indices 1 2 3 4 5 6 
#
# 1 0.029756 -0.004268 -0.004871 0.000000 0.000729 0.000000
# 2 -0.004268 0.008832 -0.001134 0.000000 0.001755 0.000000
# 3 -0.004871 -0.001134 0.026346 0.000000 0.002404 0.000000
# 4 0.000000 0.000000 0.000000 0.159313 0.000000 0.016255
# 5 0.000729 0.001755 0.002404 0.000000 0.041715 0.000000
# 6 0.000000 0.000000 0.000000 0.016255 0.000000 0.036231
#
#
# Mechanical properties :
#
#
# Convention : Reuss Voigt Hill
#
# Bulk Modulus (GPa) = 22.52823 30.84868 26.68846
# Shear Modulus (GPa) = 14.81318 23.04018 18.92668
#
# Velocity S-wave (km/s) = 2.90936 3.62841 3.28860
# Velocity P-wave (km/s) = 4.91515 5.93136 5.44701
#
# Compressibility (1/GPa) = 0.04438875
#
# Stress axis : x y z
#
# Youngs Moduli (GPa) = 33.60634 113.21922 37.95602
#
# Poissons Ratio (x) = 0.48327 0.18487
# Poissons Ratio (y) = 0.14345 0.04305
# Poissons Ratio (z) = 0.16368 0.12841
#
# Static dielectric constant tensor:
#      x y z
#    x 1.631540 0.000000 -0.012380 
#    y 0.000000 1.666300 0.000000 
#    z -0.012380 0.000000 1.608600 
# 
# From -- ./inp_files/200369.got.cif
#   From: 2010.05.17/outbox.cif.g08.bks.cpg/sg12_101_cif.got.tgz:200369.got - 2010.06.03 13:09:07.
