data_PCOD9177099
_publ_section_title
;
Structure prediction by ZEFSAII (Michael W. Deem and Ramdas Pophale) SiO2 
 PCOD9177099
Probable space group: C 2/M
;
_chemical_formula_sum "Si O2"
_cell_formula_units_Z 56
_cell_length_a 13.394109
_cell_length_b 26.576837
_cell_length_c 10.136247
_cell_angle_alpha 90.000000
_cell_angle_beta 131.156887
_cell_angle_gamma 90.000000
_cell_volume 2716.674246
_symmetry_space_group_name_H-M "C 2/M"
_symmetry_group_IT_number 12
_symmetry_cell_setting 'monoclinic'
loop_
_space_group_symop_operation_xyz
x,y,z
-x,y,-z
-x,-y,-z
x,-y,z
1/2+x,1/2+y,z
1/2-x,1/2+y,-z
1/2-x,1/2-y,-z
1/2+x,1/2-y,z
loop_
_atom_site_type_symbol
_atom_site_label
_atom_site_fract_x
_atom_site_fract_y
_atom_site_fract_z
Si Si1 0.359139 0.000000 0.959111
Si Si2 0.000664 0.500000 0.340891
Si Si3 0.645337 0.382880 0.166805
Si Si4 0.242779 0.167891 0.011458
Si Si5 0.033109 0.778459 0.168557
Si Si6 0.838478 0.608540 0.850571
Si Si7 0.012449 0.704766 0.362934
Si Si8 0.838800 0.601340 0.552979
O O1 0.376335 0.000000 0.132623
O O2 0.500000 0.000000 0.000000
O O3 0.297266 0.947437 0.860660
O O4 0.073693 0.551349 0.362818
O O5 0.000000 0.500000 0.500000
O O6 0.728683 0.377312 0.105732
O O7 0.624020 0.325777 0.205621
O O8 0.722611 0.410314 0.348916
O O9 0.500000 0.401539 0.000000
O O10 0.366514 0.199195 0.173158
O O11 0.276413 0.147903 0.897153
O O12 0.103198 0.196492 0.897493
O O13 0.086675 0.741398 0.325652
O O14 0.000000 0.751785 0.000000
O O15 0.795990 0.615373 0.663073
O O16 0.000000 0.612448 0.000000
O O17 0.078521 0.649575 0.425922
O O18 0.000000 0.724753 0.500000
#
# Coordination Sequence:
#
# PCOD9177099 Si02
#       8
#     4   4   8   8   8   8   8   8
#     4  10  18  38  52  87 138 149 181 241 314 364
#     4  12  24  36  61  97 128 158 195 246 311 368
#     4   9  22  45  60  81 123 165 204 254 294 347
#     4  10  20  39  58  86 121 161 194 248 307 356
#     4   9  23  42  58  79 120 167 204 243 296 357
#     4  11  20  34  60  90 127 157 188 247 305 373
#     4  12  22  34  58  92 120 149 202 251 301 361
#     4  12  23  38  61  92 124 157 200 247 303 363
#
# _framework density 20.613440000000001
#
# number of rings (size 3 to 8) (size 9 to 14) (size 15 to 20)
#    0.000    1.714    5.714    0.857    4.000    1.714 
#    0.000    2.500    0.000    2.571    0.000    8.500 
#    0.000    0.000    0.000    0.000    0.000    0.000 
#
# Total GULP energy -156312.381265 kJ/mol
# GULP energy per Si atom -5582.585045 kJ/mol
# Density = 2.056652 g / cm^3
# Si number density = 20.613440 Si / 1000 Ang^3
#
#
#
# Elastic Constant Matrix: (Units=GPa)
#
#
# Indices 1 2 3 4 5 6 
#
# 1 71.8728 16.5405 22.3575 0.0000 -30.8715 0.0000
# 2 16.5405 40.2401 9.4374 0.0000 -3.9188 0.0000
# 3 22.3575 9.4374 81.4223 0.0000 -34.9345 0.0000
# 4 0.0000 0.0000 0.0000 26.3482 0.0000 -11.4354
# 5 -30.8715 -3.9188 -34.9345 0.0000 41.9796 0.0000
# 6 0.0000 0.0000 0.0000 -11.4354 0.0000 4.3046
#
#
#
# Elastic Compliance Matrix: (Units=1/GPa)
#
#
# Indices 1 2 3 4 5 6 
#
# 1 0.022772 -0.008174 0.002414 0.000000 0.017992 0.000000
# 2 -0.008174 0.028480 -0.003880 0.000000 -0.006582 0.000000
# 3 0.002414 -0.003880 0.019713 0.000000 0.017818 0.000000
# 4 0.000000 0.000000 0.000000 -0.248092 0.000000 -0.659074
# 5 0.017992 -0.006582 0.017818 0.000000 0.051266 0.000000
# 6 0.000000 0.000000 0.000000 -0.659074 0.000000 -1.518562
#
#
# Mechanical properties :
#
#
# Convention : Reuss Voigt Hill
#
# Bulk Modulus (GPa) = 19.34823 32.24509 25.79666
# Shear Modulus (GPa) = -3.10962 24.20648 10.54843
#
# Velocity S-wave (km/s) = -1.22956 3.43053 2.26459
# Velocity P-wave (km/s) = 2.71861 5.60072 4.40221
#
# Compressibility (1/GPa) = 0.05168432
#
# Stress axis : x y z
#
# Youngs Moduli (GPa) = 43.91373 35.11241 50.72670
#
# Poissons Ratio (x) = 0.28702 -0.12247
# Poissons Ratio (y) = 0.35897 0.19684
# Poissons Ratio (z) = -0.10602 0.13625
#
# Static dielectric constant tensor:
#      x y z
#    x 1.761100 0.000000 0.007190 
#    y 0.000000 1.764190 0.000000 
#    z 0.007190 0.000000 1.794450 
# 
# From -- ./inp_files/54849.got.cif
#   From: 2010.05.17/outbox.cif.g08.bks.cpg/sg12_28_cif.got.tgz:54849.got - 2010.06.03 13:09:07.
