data_PCOD9177186
_publ_section_title
;
Structure prediction by ZEFSAII (Michael W. Deem and Ramdas Pophale) SiO2 
 PCOD9177186
Probable space group: C 2/M
;
_chemical_formula_sum "Si O2"
_cell_formula_units_Z 50
_cell_length_a 22.103406
_cell_length_b 13.605790
_cell_length_c 9.306761
_cell_angle_alpha 90.000000
_cell_angle_beta 129.358479
_cell_angle_gamma 90.000000
_cell_volume 2164.061674
_symmetry_space_group_name_H-M "C 2/M"
_symmetry_group_IT_number 12
_symmetry_cell_setting 'monoclinic'
loop_
_space_group_symop_operation_xyz
x,y,z
-x,y,-z
-x,-y,-z
x,-y,z
1/2+x,1/2+y,z
1/2-x,1/2+y,-z
1/2-x,1/2-y,-z
1/2+x,1/2-y,z
loop_
_atom_site_type_symbol
_atom_site_label
_atom_site_fract_x
_atom_site_fract_y
_atom_site_fract_z
Si Si1 0.203434 0.111370 0.482352
Si Si2 0.500000 0.000000 0.500000
Si Si3 0.550534 0.339450 0.703545
Si Si4 0.384105 0.889805 0.835305
Si Si5 0.672763 0.768641 0.685677
Si Si6 0.845785 0.185222 0.905446
Si Si7 0.038457 0.651786 0.339392
O O1 0.297954 0.113519 0.630592
O O2 0.179536 0.188359 0.568235
O O3 0.170765 0.143677 0.278716
O O4 0.178202 0.000000 0.477533
O O5 0.515803 0.915900 0.647383
O O6 0.500000 0.389959 0.500000
O O7 0.621258 0.280597 0.732031
O O8 0.489211 0.262274 0.677867
O O9 0.595932 0.380280 0.910553
O O10 0.381908 0.795426 0.936545
O O11 0.446201 0.875677 0.800711
O O12 0.391431 0.000000 0.908422
O O13 0.760565 0.802176 0.849424
O O14 0.622304 0.858281 0.546282
#
# Coordination Sequence:
#
# PCOD9177186 Si02
#       7
#     8   2   8   8   8   8   8
#     4  10  20  35  64  93 116 147 203 259 304 348
#     4  12  20  32  60  90 134 164 184 218 306 390
#     4  10  23  38  55  82 118 166 199 240 301 359
#     4  10  19  34  59  94 126 154 191 243 302 359
#     4  10  18  39  60  84 118 161 194 241 306 356
#     4  11  20  37  60  88 117 158 206 251 297 349
#     4  11  19  34  57  88 123 162 186 229 296 370
#
# _framework density 23.104702
#
# number of rings (size 3 to 8) (size 9 to 14) (size 15 to 20)
#    0.000    1.600    6.400    1.440    0.000    0.640 
#    1.440    1.600    0.000   14.400    0.000    0.000 
#    0.000    0.000    0.000    0.000    0.000    0.000 
#
# Total GULP energy -139257.055157 kJ/mol
# GULP energy per Si atom -5570.282206 kJ/mol
# Density = 2.305211 g / cm^3
# Si number density = 23.104702 Si / 1000 Ang^3
#
#
#
# Elastic Constant Matrix: (Units=GPa)
#
#
# Indices 1 2 3 4 5 6 
#
# 1 87.2178 -2.4245 16.0263 0.0000 2.6378 0.0000
# 2 -2.4245 71.4857 22.1795 0.0000 8.6800 0.0000
# 3 16.0263 22.1795 165.3126 0.0000 16.3383 0.0000
# 4 0.0000 0.0000 0.0000 5.2267 0.0000 9.7682
# 5 2.6378 8.6800 16.3383 0.0000 22.2127 0.0000
# 6 0.0000 0.0000 0.0000 9.7682 0.0000 -26.6585
#
#
#
# Elastic Compliance Matrix: (Units=1/GPa)
#
#
# Indices 1 2 3 4 5 6 
#
# 1 0.011730 0.000866 -0.001167 0.000000 -0.000873 0.000000
# 2 0.000866 0.015109 -0.001636 0.000000 -0.004803 0.000000
# 3 -0.001167 -0.001636 0.006799 0.000000 -0.004223 0.000000
# 4 0.000000 0.000000 0.000000 0.113560 0.000000 0.041610
# 5 -0.000873 -0.004803 -0.004223 0.000000 0.050106 0.000000
# 6 0.000000 0.000000 0.000000 0.041610 0.000000 -0.022265
#
#
# Mechanical properties :
#
#
# Convention : Reuss Voigt Hill
#
# Bulk Modulus (GPa) = 33.59791 43.95319 38.77555
# Shear Modulus (GPa) = 26.47799 19.37185 22.92492
#
# Velocity S-wave (km/s) = 3.38893 2.89872 3.15337
# Velocity P-wave (km/s) = 5.46684 5.50166 5.48428
#
# Compressibility (1/GPa) = 0.02976376
#
# Stress axis : x y z
#
# Youngs Moduli (GPa) = 85.24800 66.18518 147.07580
#
# Poissons Ratio (x) = -0.05731 0.17166
# Poissons Ratio (y) = -0.07382 0.24067
# Poissons Ratio (z) = 0.09950 0.10830
#
# Static dielectric constant tensor:
#      x y z
#    x 1.884560 0.000000 0.047690 
#    y 0.000000 1.824790 0.000000 
#    z 0.047690 0.000000 1.965510 
# 
# From -- ./inp_files/96548.got.cif
#   From: 2010.05.17/outbox.cif.g08.bks.cpg/sg12_49_cif.got.tgz:96548.got - 2010.06.03 13:09:07.
