data_PCOD9177722
_publ_section_title
;
Structure prediction by ZEFSAII (Michael W. Deem and Ramdas Pophale) SiO2 
 PCOD9177722
Probable space group: C 2/M
;
_chemical_formula_sum "Si O2"
_cell_formula_units_Z 48
_cell_length_a 16.417823
_cell_length_b 7.451146
_cell_length_c 19.352094
_cell_angle_alpha 90.000000
_cell_angle_beta 64.901354
_cell_angle_gamma 90.000000
_cell_volume 2143.842447
_symmetry_space_group_name_H-M "C 2/M"
_symmetry_group_IT_number 12
_symmetry_cell_setting 'monoclinic'
loop_
_space_group_symop_operation_xyz
x,y,z
-x,y,-z
-x,-y,-z
x,-y,z
1/2+x,1/2+y,z
1/2-x,1/2+y,-z
1/2-x,1/2-y,-z
1/2+x,1/2-y,z
loop_
_atom_site_type_symbol
_atom_site_label
_atom_site_fract_x
_atom_site_fract_y
_atom_site_fract_z
Si Si1 0.675082 0.718435 0.336740
Si Si2 0.998686 0.214589 0.821004
Si Si3 0.180317 0.285411 0.821001
Si Si4 0.654380 0.714382 0.500001
Si Si5 0.988178 0.218435 0.336737
Si Si6 0.294826 0.714998 0.910354
O O1 0.678731 0.500000 0.339023
O O2 0.765250 0.780960 0.266185
O O3 0.657691 0.784051 0.420567
O O4 0.590036 0.764615 0.319926
O O5 0.897729 0.282872 0.870821
O O6 0.074925 0.250001 0.850158
O O7 0.031435 0.280960 0.733819
O O8 0.991899 0.000000 0.818298
O O9 0.189812 0.500000 0.818294
O O10 0.231458 0.217128 0.870817
O O11 0.639831 0.500000 0.500001
O O12 0.750000 0.750000 0.500000
O O13 0.578259 0.784051 0.579436
O O14 0.982246 0.000000 0.339021
O O15 0.300118 0.500000 0.899770
O O16 0.250000 0.750000 0.000000
#
# Coordination Sequence:
#
# PCOD9177722 Si02
#       6
#     8   8   8   8   8   8
#     4   9  16  30  52  76 103 139 183 222 257 307
#     4  10  20  36  58  82 110 144 180 221 269 320
#     4  10  20  36  58  82 110 144 180 221 269 320
#     4  10  19  29  47  75 105 138 178 221 261 305
#     4   9  16  30  52  76 103 139 183 222 257 307
#     4  10  22  40  60  81 109 143 177 220 272 326
#
# _framework density 22.389706
#
# number of rings (size 3 to 8) (size 9 to 14) (size 15 to 20)
#    0.000    2.333    1.667    1.500    0.000    4.000 
#    0.000    3.333    0.000    4.000    0.000    0.000 
#    0.000    0.000    0.000    0.000    0.000    0.000 
#
# Total GULP energy -134062.440003 kJ/mol
# GULP energy per Si atom -5585.935000 kJ/mol
# Density = 2.233875 g / cm^3
# Si number density = 22.389706 Si / 1000 Ang^3
#
#
#
# Elastic Constant Matrix: (Units=GPa)
#
#
# Indices 1 2 3 4 5 6 
#
# 1 177.4123 -1.3608 84.7483 0.0000 -0.3135 0.0000
# 2 -1.3608 69.0370 6.6723 0.0000 0.0420 0.0001
# 3 84.7483 6.6723 151.9852 0.0000 0.1637 0.0000
# 4 0.0000 0.0000 0.0000 6.9644 0.0000 -0.0750
# 5 -0.3135 0.0420 0.1637 0.0000 17.3651 0.0000
# 6 0.0000 0.0001 0.0000 -0.0750 0.0000 21.1073
#
#
#
# Elastic Compliance Matrix: (Units=1/GPa)
#
#
# Indices 1 2 3 4 5 6 
#
# 1 0.007706 0.000570 -0.004322 0.000000 0.000178 0.000000
# 2 0.000570 0.014589 -0.000958 0.000000 -0.000016 0.000000
# 3 -0.004322 -0.000958 0.009032 0.000000 -0.000161 0.000000
# 4 0.000000 0.000000 0.000000 0.143592 0.000000 0.000510
# 5 0.000178 -0.000016 -0.000161 0.000000 0.057591 0.000000
# 6 0.000000 0.000000 0.000000 0.000510 0.000000 0.047379
#
#
# Mechanical properties :
#
#
# Convention : Reuss Voigt Hill
#
# Bulk Modulus (GPa) = 45.65083 64.28378 54.96731
# Shear Modulus (GPa) = 16.85704 29.64569 23.25137
#
# Velocity S-wave (km/s) = 2.74687 3.64273 3.22605
# Velocity P-wave (km/s) = 5.52212 6.81662 6.20323
#
# Compressibility (1/GPa) = 0.02190540
#
# Stress axis : x y z
#
# Youngs Moduli (GPa) = 129.77103 68.54570 110.71948
#
# Poissons Ratio (x) = -0.03904 0.47854
# Poissons Ratio (y) = -0.07390 0.10607
# Poissons Ratio (z) = 0.56088 0.06567
#
# Static dielectric constant tensor:
#      x y z
#    x 1.797890 0.000000 0.000090 
#    y 0.000000 1.892460 0.000000 
#    z 0.000090 0.000000 1.814760 
# 
# From -- ./inp_files/212908.got.cif
#   From: 2010.05.17/outbox.cif.g08.bks.cpg/sg12_107_cif.got.tgz:212908.got - 2010.06.03 13:09:07.
