data_PCOD9177597
_publ_section_title
;
Structure prediction by ZEFSAII (Michael W. Deem and Ramdas Pophale) SiO2 
 PCOD9177597
Probable space group: C 2/M
;
_chemical_formula_sum "Si O2"
_cell_formula_units_Z 64
_cell_length_a 25.307762
_cell_length_b 7.627943
_cell_length_c 15.324999
_cell_angle_alpha 90.000000
_cell_angle_beta 103.395036
_cell_angle_gamma 90.000000
_cell_volume 2877.950969
_symmetry_space_group_name_H-M "C 2/M"
_symmetry_group_IT_number 12
_symmetry_cell_setting 'monoclinic'
loop_
_space_group_symop_operation_xyz
x,y,z
-x,y,-z
-x,-y,-z
x,-y,z
1/2+x,1/2+y,z
1/2-x,1/2+y,-z
1/2-x,1/2-y,-z
1/2+x,1/2-y,z
loop_
_atom_site_type_symbol
_atom_site_label
_atom_site_fract_x
_atom_site_fract_y
_atom_site_fract_z
Si Si1 0.234921 0.291462 0.092155
Si Si2 0.659216 0.286059 0.539174
Si Si3 0.845661 0.799426 0.648537
Si Si4 0.569361 0.709982 0.629912
Si Si5 0.136467 0.204309 0.160296
Si Si6 0.817234 0.787710 0.268195
Si Si7 0.484304 0.198425 0.900990
Si Si8 0.530113 0.794418 0.294463
O O1 0.232347 0.500000 0.101482
O O2 0.176941 0.217494 0.096302
O O3 0.278849 0.220002 0.178295
O O4 0.250000 0.250000 0.000000
O O5 0.659501 0.500000 0.534867
O O6 0.673655 0.216698 0.449658
O O7 0.598072 0.235983 0.549393
O O8 0.695709 0.234231 0.636490
O O9 0.834875 0.724318 0.740388
O O10 0.911875 0.795377 0.667408
O O11 0.826424 0.000000 0.642449
O O12 0.564248 0.500000 0.624614
O O13 0.618790 0.757724 0.715105
O O14 0.512798 0.777557 0.643947
O O15 0.080915 0.302959 0.123335
O O16 0.122947 0.000000 0.170730
O O17 0.815048 0.000000 0.265664
O O18 0.495597 0.272357 0.807830
O O19 0.507078 0.000000 0.911021
O O20 0.500000 0.283276 0.000000
O O21 0.542003 0.000000 0.285971
#
# Coordination Sequence:
#
# PCOD9177597 Si02
#       8
#     8   8   8   8   8   8   8   8
#     4  11  22  38  59  80 104 134 169 212 262 311
#     4   7  13  29  53  75  96 131 176 215 247 290
#     4   9  17  32  54  74  99 136 176 211 245 297
#     4   8  15  30  50  70  95 129 172 212 247 293
#     4  10  21  36  54  81 109 134 169 212 257 308
#     4   7  15  32  53  75  98 128 171 216 251 295
#     4   9  19  36  54  72 100 138 178 216 259 307
#     4  10  19  29  44  71 105 136 167 209 260 307
#
# _framework density 22.238045
#
# number of rings (size 3 to 8) (size 9 to 14) (size 15 to 20)
#    0.750    2.375    0.000    1.125    0.000    2.750 
#    0.000    7.500    0.000    0.000    0.000    0.000 
#    0.000    0.000    0.000    0.000    0.000    0.000 
#
# Total GULP energy -178153.408811 kJ/mol
# GULP energy per Si atom -5567.294025 kJ/mol
# Density = 2.218743 g / cm^3
# Si number density = 22.238045 Si / 1000 Ang^3
#
#
#
# Elastic Constant Matrix: (Units=GPa)
#
#
# Indices 1 2 3 4 5 6 
#
# 1 28.6625 -1.1602 10.5271 0.0000 -13.4183 0.0000
# 2 -1.1602 58.9106 -4.2813 0.0000 0.1164 0.0000
# 3 10.5271 -4.2813 135.0756 0.0000 -5.8147 0.0000
# 4 0.0000 0.0000 0.0000 4.9463 0.0000 4.1627
# 5 -13.4183 0.1164 -5.8147 0.0000 28.5523 0.0000
# 6 0.0000 0.0000 0.0000 4.1627 0.0000 -4.7304
#
#
#
# Elastic Compliance Matrix: (Units=1/GPa)
#
#
# Indices 1 2 3 4 5 6 
#
# 1 0.045682 0.000667 -0.002638 0.000000 0.020929 0.000000
# 2 0.000667 0.017024 0.000503 0.000000 0.000346 0.000000
# 3 -0.002638 0.000503 0.007638 0.000000 0.000314 0.000000
# 4 0.000000 0.000000 0.000000 0.116153 0.000000 0.102213
# 5 0.020929 0.000346 0.000314 0.000000 0.044921 0.000000
# 6 0.000000 0.000000 0.000000 0.102213 0.000000 -0.121454
#
#
# Mechanical properties :
#
#
# Convention : Reuss Voigt Hill
#
# Bulk Modulus (GPa) = 14.83536 25.86888 20.35212
# Shear Modulus (GPa) = 36.93520 20.25785 28.59652
#
# Velocity S-wave (km/s) = 4.07984 3.02148 3.58987
# Velocity P-wave (km/s) = 5.37393 4.88164 5.13369
#
# Compressibility (1/GPa) = 0.06740652
#
# Stress axis : x y z
#
# Youngs Moduli (GPa) = 21.89023 58.74117 130.91924
#
# Poissons Ratio (x) = -0.03916 0.34539
# Poissons Ratio (y) = -0.01459 -0.06579
# Poissons Ratio (z) = 0.05775 -0.02952
#
# Static dielectric constant tensor:
#      x y z
#    x 1.797370 0.000000 0.018220 
#    y 0.000000 1.887390 0.000000 
#    z 0.018220 0.000000 1.886380 
# 
# From -- ./inp_files/248518.got.cif
#   From: 2010.05.17/outbox.cif.g08.bks.cpg/sg12_125_cif.got.tgz:248518.got - 2010.06.03 13:09:07.
