data_PCOD9177935
_publ_section_title
;
Structure prediction by ZEFSAII (Michael W. Deem and Ramdas Pophale) SiO2 
 PCOD9177935
Probable space group: C 2/M
;
_chemical_formula_sum "Si O2"
_cell_formula_units_Z 64
_cell_length_a 30.837717
_cell_length_b 15.330080
_cell_length_c 18.156540
_cell_angle_alpha 90.000000
_cell_angle_beta 25.092952
_cell_angle_gamma 90.000000
_cell_volume 3640.120327
_symmetry_space_group_name_H-M "C 2/M"
_symmetry_group_IT_number 12
_symmetry_cell_setting 'monoclinic'
loop_
_space_group_symop_operation_xyz
x,y,z
-x,y,-z
-x,-y,-z
x,-y,z
1/2+x,1/2+y,z
1/2-x,1/2+y,-z
1/2-x,1/2-y,-z
1/2+x,1/2-y,z
loop_
_atom_site_type_symbol
_atom_site_label
_atom_site_fract_x
_atom_site_fract_y
_atom_site_fract_z
Si Si1 0.399098 0.249515 0.931348
Si Si2 0.745904 0.595031 0.637584
Si Si3 0.749544 0.397927 0.101640
Si Si4 0.635067 0.733945 0.523957
Si Si5 0.954787 0.168939 0.993829
Si Si6 0.909565 0.900676 0.529102
Si Si7 0.337906 0.599189 0.393474
Si Si8 0.357745 0.398372 0.881163
O O1 0.517195 0.244613 0.724110
O O2 0.406152 0.266868 0.008021
O O3 0.356117 0.333883 0.953061
O O4 0.331998 0.166844 0.010384
O O5 0.789354 0.500000 0.587165
O O6 0.808214 0.675643 0.571881
O O7 0.733546 0.604855 0.568339
O O8 0.632486 0.603529 0.844962
O O9 0.780364 0.500000 0.058998
O O10 0.642438 0.390993 0.311434
O O11 0.725559 0.377046 0.053305
O O12 0.639165 0.672594 0.447031
O O13 0.682135 0.674701 0.516946
O O14 0.047061 0.118441 0.812003
O O15 0.000000 0.210090 0.000000
O O16 0.031126 0.891148 0.329838
O O17 0.885564 0.000000 0.541649
O O18 0.332677 0.500000 0.430662
O O19 0.346690 0.500000 0.919975
#
# Coordination Sequence:
#
# PCOD9177935 Si02
#       8
#     8   8   8   8   8   8   8   8
#     4  10  20  32  49  71  97 128 158 191 231 280
#     4  10  19  30  45  65  92 125 157 190 230 278
#     4  10  19  32  50  71  97 127 157 191 232 281
#     4  10  19  30  45  67  94 123 155 191 229 276
#     4   9  18  32  50  71  94 121 156 199 242 276
#     4   9  17  30  49  71  92 116 150 193 239 278
#     4   9  17  30  48  68  89 116 153 199 244 276
#     4   9  18  32  51  74  96 119 153 199 244 279
#
# _framework density 17.581835999999999
#
# number of rings (size 3 to 8) (size 9 to 14) (size 15 to 20)
#    0.000    2.500    0.000    2.625    0.000    7.000 
#    0.000    0.000    0.000    0.375    0.000    0.000 
#    0.000   14.000    0.000    0.000    0.000    0.000 
#
# Total GULP energy -178299.442619 kJ/mol
# GULP energy per Si atom -5571.857582 kJ/mol
# Density = 1.754182 g / cm^3
# Si number density = 17.581836 Si / 1000 Ang^3
#
#
#
# Elastic Constant Matrix: (Units=GPa)
#
#
# Indices 1 2 3 4 5 6 
#
# 1 101.1212 65.9838 13.4798 0.0000 2.0502 0.0000
# 2 65.9838 117.5955 15.0609 0.0000 -7.2964 0.0000
# 3 13.4798 15.0609 13.7927 0.0000 2.9811 0.0000
# 4 0.0000 0.0000 0.0000 15.0420 0.0000 -2.3409
# 5 2.0502 -7.2964 2.9811 0.0000 17.0679 0.0000
# 6 0.0000 0.0000 0.0000 -2.3409 0.0000 22.7295
#
#
#
# Elastic Compliance Matrix: (Units=1/GPa)
#
#
# Indices 1 2 3 4 5 6 
#
# 1 0.016487 -0.008859 -0.005396 0.000000 -0.004825 0.000000
# 2 -0.008859 0.015357 -0.010142 0.000000 0.009401 0.000000
# 3 -0.005396 -0.010142 0.093165 0.000000 -0.019960 0.000000
# 4 0.000000 0.000000 0.000000 0.067563 0.000000 0.006958
# 5 -0.004825 0.009401 -0.019960 0.000000 0.066674 0.000000
# 6 0.000000 0.000000 0.000000 0.006958 0.000000 0.044712
#
#
# Mechanical properties :
#
#
# Convention : Reuss Voigt Hill
#
# Bulk Modulus (GPa) = 13.12117 46.83983 29.98050
# Shear Modulus (GPa) = 13.22194 20.16687 16.69440
#
# Velocity S-wave (km/s) = 2.74528 3.39046 3.08478
# Velocity P-wave (km/s) = 4.18663 6.48273 5.45681
#
# Compressibility (1/GPa) = 0.07621269
#
# Stress axis : x y z
#
# Youngs Moduli (GPa) = 60.65288 65.11669 10.73368
#
# Poissons Ratio (x) = 0.57689 0.05792
# Poissons Ratio (y) = 0.53735 0.10887
# Poissons Ratio (z) = 0.32731 0.66044
#
# Static dielectric constant tensor:
#      x y z
#    x 1.622690 0.000000 0.006580 
#    y 0.000000 1.580010 0.000000 
#    z 0.006580 0.000000 1.598680 
# 
# From -- ./inp_files/296455.got.cif
#   From: 2010.05.17/outbox.cif.g08.bks.cpg/sg12_149_cif.got.tgz:296455.got - 2010.06.03 13:09:07.
