data_PCOD9177143
_publ_section_title
;
Structure prediction by ZEFSAII (Michael W. Deem and Ramdas Pophale) SiO2 
 PCOD9177143
Probable space group: C 2/M
;
_chemical_formula_sum "Si O2"
_cell_formula_units_Z 40
_cell_length_a 10.697612
_cell_length_b 17.331501
_cell_length_c 9.394083
_cell_angle_alpha 90.000000
_cell_angle_beta 84.632205
_cell_angle_gamma 90.000000
_cell_volume 1734.078340
_symmetry_space_group_name_H-M "C 2/M"
_symmetry_group_IT_number 12
_symmetry_cell_setting 'monoclinic'
loop_
_space_group_symop_operation_xyz
x,y,z
-x,y,-z
-x,-y,-z
x,-y,z
1/2+x,1/2+y,z
1/2-x,1/2+y,-z
1/2-x,1/2-y,-z
1/2+x,1/2-y,z
loop_
_atom_site_type_symbol
_atom_site_label
_atom_site_fract_x
_atom_site_fract_y
_atom_site_fract_z
Si Si1 0.170664 0.165357 0.131754
Si Si2 0.664849 0.089402 0.376944
Si Si3 0.545018 0.634867 0.653712
Si Si4 0.384599 0.158244 0.915040
Si Si5 0.156576 0.705065 0.616996
O O1 0.123100 0.248582 0.082106
O O2 0.269238 0.184262 0.248352
O O3 0.057674 0.117609 0.214564
O O4 0.253573 0.129390 0.997439
O O5 0.815830 0.102200 0.341207
O O6 0.603727 0.129891 0.246833
O O7 0.627839 0.129705 0.529003
O O8 0.636512 0.000000 0.381792
O O9 0.500000 0.612713 0.500000
O O10 0.554405 0.728907 0.655482
O O11 0.500000 0.132904 0.000000
O O12 0.250000 0.750000 0.500000
#
# Coordination Sequence:
#
# PCOD9177143 Si02
#       5
#     8   8   8   8   8
#     4  11  21  38  66  99 127 161 217 278 329 368
#     4  11  24  43  63  94 136 177 214 262 327 386
#     4  11  19  37  67  97 127 158 212 278 326 371
#     4  11  24  40  63  95 132 173 216 265 317 388
#     4  10  18  38  62  96 122 165 213 268 318 374
#
# _framework density 23.067008999999999
#
# number of rings (size 3 to 8) (size 9 to 14) (size 15 to 20)
#    0.000    1.200    8.000    1.200    2.800    0.800 
#    0.000    3.000    0.000   13.800    0.000    0.000 
#    0.000    0.000    0.000    0.000    0.000    0.000 
#
# Total GULP energy -111918.604849 kJ/mol
# GULP energy per Si atom -5595.930242 kJ/mol
# Density = 2.301451 g / cm^3
# Si number density = 23.067009 Si / 1000 Ang^3
#
#
#
# Elastic Constant Matrix: (Units=GPa)
#
#
# Indices 1 2 3 4 5 6 
#
# 1 85.3168 -2.3810 33.3208 0.0000 -6.1101 0.0000
# 2 -2.3810 66.4613 0.0622 0.0000 6.3758 0.0000
# 3 33.3208 0.0622 102.1464 0.0000 -1.5163 0.0000
# 4 0.0000 0.0000 0.0000 7.6022 0.0000 -0.5997
# 5 -6.1101 6.3758 -1.5163 0.0000 67.8108 0.0000
# 6 0.0000 0.0000 0.0000 -0.5997 0.0000 10.4290
#
#
#
# Elastic Compliance Matrix: (Units=1/GPa)
#
#
# Indices 1 2 3 4 5 6 
#
# 1 0.013527 0.000385 -0.004397 0.000000 0.001084 0.000000
# 2 0.000385 0.015194 -0.000155 0.000000 -0.001397 0.000000
# 3 -0.004397 -0.000155 0.011222 0.000000 -0.000131 0.000000
# 4 0.000000 0.000000 0.000000 0.132140 0.000000 0.007598
# 5 0.001084 -0.001397 -0.000131 0.000000 0.014973 0.000000
# 6 0.000000 0.000000 0.000000 0.007598 0.000000 0.096323
#
#
# Mechanical properties :
#
#
# Convention : Reuss Voigt Hill
#
# Bulk Modulus (GPa) = 31.63724 35.10317 33.37020
# Shear Modulus (GPa) = 16.54258 32.02991 24.28624
#
# Velocity S-wave (km/s) = 2.68088 3.73038 3.24829
# Velocity P-wave (km/s) = 4.82990 5.81423 5.34477
#
# Compressibility (1/GPa) = 0.03160832
#
# Stress axis : x y z
#
# Youngs Moduli (GPa) = 73.92892 65.81400 89.10895
#
# Poissons Ratio (x) = -0.02532 0.39177
# Poissons Ratio (y) = -0.02844 0.01385
# Poissons Ratio (z) = 0.32503 0.01023
#
# Static dielectric constant tensor:
#      x y z
#    x 1.923420 0.000000 -0.038710 
#    y 0.000000 1.843510 0.000000 
#    z -0.038710 0.000000 1.849440 
# 
# From -- ./inp_files/48699.got.cif
#   From: 2010.05.17/outbox.cif.g08.bks.cpg/sg12_25_cif.got.tgz:48699.got - 2010.06.03 13:09:07.
