data_PCOD9177834
_publ_section_title
;
Structure prediction by ZEFSAII (Michael W. Deem and Ramdas Pophale) SiO2 
 PCOD9177834
Probable space group: C 2/M
;
_chemical_formula_sum "Si O2"
_cell_formula_units_Z 56
_cell_length_a 18.429662
_cell_length_b 11.050937
_cell_length_c 12.547544
_cell_angle_alpha 90.000000
_cell_angle_beta 125.325926
_cell_angle_gamma 90.000000
_cell_volume 2084.967906
_symmetry_space_group_name_H-M "C 2/M"
_symmetry_group_IT_number 12
_symmetry_cell_setting 'monoclinic'
loop_
_space_group_symop_operation_xyz
x,y,z
-x,y,-z
-x,-y,-z
x,-y,z
1/2+x,1/2+y,z
1/2-x,1/2+y,-z
1/2-x,1/2-y,-z
1/2+x,1/2-y,z
loop_
_atom_site_type_symbol
_atom_site_label
_atom_site_fract_x
_atom_site_fract_y
_atom_site_fract_z
Si Si1 0.136175 0.354419 0.381939
Si Si2 0.070248 0.626518 0.963374
Si Si3 0.702045 0.367493 0.330713
Si Si4 0.279516 0.628502 0.190152
Si Si5 0.588078 0.361915 0.502330
Si Si6 0.948297 0.125360 0.070281
Si Si7 0.762490 0.626248 0.150436
O O1 0.108671 0.500000 0.344812
O O2 0.235803 0.371128 0.513510
O O3 0.148208 0.258550 0.293331
O O4 0.093235 0.257650 0.431381
O O5 0.062529 0.500000 0.899071
O O6 0.171642 0.631247 0.094195
O O7 0.041317 0.742807 0.871841
O O8 0.000000 0.623385 0.000000
O O9 0.655930 0.500000 0.282871
O O10 0.764635 0.367329 0.280226
O O11 0.306188 0.500000 0.163751
O O12 0.327602 0.632984 0.344929
O O13 0.305045 0.749539 0.148714
O O14 0.500000 0.351085 0.500000
O O15 0.585190 0.500000 0.451914
O O16 0.842947 0.123120 0.958098
O O17 0.969423 0.000000 0.144693
O O18 0.000000 0.125519 0.000000
O O19 0.800962 0.500000 0.145461
#
# Coordination Sequence:
#
# PCOD9177834 Si02
#       7
#     8   8   8   8   8   8   8
#     4  10  19  30  44  61  79 104 141 183 220 252
#     4   8  13  21  33  50  72  98 126 157 194 237
#     4   9  17  28  42  60  82 107 137 175 217 258
#     4   9  16  25  38  55  76 104 138 169 200 240
#     4  10  20  32  44  58  80 112 148 182 214 248
#     4   8  13  20  31  49  74 104 132 155 183 228
#     4   9  15  24  38  56  79 106 136 166 201 243
#
# _framework density 26.858924999999999
#
# number of rings (size 3 to 8) (size 9 to 14) (size 15 to 20)
#    0.000    3.000    1.429    0.429    0.000    1.429 
#    0.000    0.000    0.000    0.000    0.000    0.000 
#    0.000    0.000    0.000   20.571    0.000  226.857 
#
# Total GULP energy -155916.421100 kJ/mol
# GULP energy per Si atom -5568.443611 kJ/mol
# Density = 2.679779 g / cm^3
# Si number density = 26.858925 Si / 1000 Ang^3
#
#
#
# Elastic Constant Matrix: (Units=GPa)
#
#
# Indices 1 2 3 4 5 6 
#
# 1 128.5406 52.7227 15.6454 0.0000 6.3328 0.0000
# 2 52.7227 398.7772 17.1373 0.0000 3.2107 0.0000
# 3 15.6454 17.1373 115.2481 0.0000 3.5227 0.0000
# 4 0.0000 0.0000 0.0000 -34.1399 0.0000 44.8452
# 5 6.3328 3.2107 3.5227 0.0000 31.2170 0.0000
# 6 0.0000 0.0000 0.0000 44.8452 0.0000 -60.1603
#
#
#
# Elastic Compliance Matrix: (Units=1/GPa)
#
#
# Indices 1 2 3 4 5 6 
#
# 1 0.008401 -0.001058 -0.000938 0.000000 -0.001490 0.000000
# 2 -0.001058 0.002659 -0.000251 0.000000 -0.000030 0.000000
# 3 -0.000938 -0.000251 0.008865 0.000000 -0.000784 0.000000
# 4 0.000000 0.000000 0.000000 -1.406557 0.000000 -1.048488
# 5 -0.001490 -0.000030 -0.000784 0.000000 0.032428 0.000000
# 6 0.000000 0.000000 0.000000 -1.048488 0.000000 -0.798196
#
#
# Mechanical properties :
#
#
# Convention : Reuss Voigt Hill
#
# Bulk Modulus (GPa) = 64.80091 90.39740 77.59916
# Shear Modulus (GPa) = -2.33344 24.52073 11.09365
#
# Velocity S-wave (km/s) = -0.93309 3.02478 2.03453
# Velocity P-wave (km/s) = 4.79770 6.77705 5.87139
#
# Compressibility (1/GPa) = 0.01543188
#
# Stress axis : x y z
#
# Youngs Moduli (GPa) = 119.02925 376.13430 112.79718
#
# Poissons Ratio (x) = 0.39812 0.10576
# Poissons Ratio (y) = 0.12599 0.02828
# Poissons Ratio (z) = 0.11160 0.09430
#
# Static dielectric constant tensor:
#      x y z
#    x 2.057240 0.000000 0.000140 
#    y 0.000000 1.105130 0.000000 
#    z 0.000140 0.000000 2.050110 
# 
# From -- ./inp_files/348983.got.cif
#   From: 2010.05.17/outbox.cif.g08.bks.cpg/sg12_175_cif.got.tgz:348983.got - 2010.06.03 13:09:07.
