data_PCOD9177179
_publ_section_title
;
Structure prediction by ZEFSAII (Michael W. Deem and Ramdas Pophale) SiO2 
 PCOD9177179
Probable space group: C 2/M
;
_chemical_formula_sum "Si O2"
_cell_formula_units_Z 48
_cell_length_a 12.850604
_cell_length_b 21.255520
_cell_length_c 13.205621
_cell_angle_alpha 90.000000
_cell_angle_beta 150.407431
_cell_angle_gamma 90.000000
_cell_volume 1781.274192
_symmetry_space_group_name_H-M "C 2/M"
_symmetry_group_IT_number 12
_symmetry_cell_setting 'monoclinic'
loop_
_space_group_symop_operation_xyz
x,y,z
-x,y,-z
-x,-y,-z
x,-y,z
1/2+x,1/2+y,z
1/2-x,1/2+y,-z
1/2-x,1/2-y,-z
1/2+x,1/2-y,z
loop_
_atom_site_type_symbol
_atom_site_label
_atom_site_fract_x
_atom_site_fract_y
_atom_site_fract_z
Si Si1 0.229413 0.569905 0.508177
Si Si2 0.825552 0.652315 0.129618
Si Si3 0.000000 0.596077 0.000000
Si Si4 0.702012 0.201163 0.284527
Si Si5 0.939899 0.203620 0.270723
Si Si6 0.888698 0.000000 0.276444
Si Si7 0.743291 0.340309 0.282866
O O1 0.169677 0.500000 0.492607
O O2 0.009420 0.600366 0.284726
O O3 0.324742 0.689810 0.492765
O O4 0.291197 0.608312 0.660680
O O5 0.916256 0.723717 0.217076
O O6 0.704932 0.641477 0.134221
O O7 0.045118 0.644607 0.129674
O O8 0.208548 0.554062 0.155013
O O9 0.166655 0.840275 0.902106
O O10 0.829417 0.198447 0.286639
O O11 0.636936 0.274216 0.225941
O O12 0.073831 0.054148 0.402553
O O13 0.000000 0.327772 0.500000
#
# Coordination Sequence:
#
# PCOD9177179 Si02
#       7
#     8   8   4   8   8   4   8
#     4   9  18  36  73 114 177 219 278 350 413 510
#     4   9  16  31  69 119 178 223 264 324 418 530
#     4  11  24  46  82 104 145 224 306 364 429 502
#     4  10  18  38  72 112 159 211 282 353 427 498
#     4   9  17  35  69 115 169 219 260 334 423 512
#     4   9  24  48  73 109 150 230 299 363 417 499
#     4   9  15  33  68 122 171 213 265 330 433 519
#
# _framework density 26.947002000000001
#
# number of rings (size 3 to 8) (size 9 to 14) (size 15 to 20)
#    0.500    2.167    5.000    0.000    0.000    3.000 
#    0.000    4.167   22.000   20.000    0.000    4.083 
#    0.000    0.000    0.000    5.333    0.000    0.000 
#
# Total GULP energy -133711.366473 kJ/mol
# GULP energy per Si atom -5571.306936 kJ/mol
# Density = 2.688567 g / cm^3
# Si number density = 26.947002 Si / 1000 Ang^3
#
#
#
# Elastic Constant Matrix: (Units=GPa)
#
#
# Indices 1 2 3 4 5 6 
#
# 1 196.0034 77.3076 61.0056 0.0000 26.5322 0.0000
# 2 77.3076 210.9433 98.8839 0.0000 11.2135 0.0000
# 3 61.0056 98.8839 247.3148 0.0000 -17.3228 0.0000
# 4 0.0000 0.0000 0.0000 22.2308 0.0000 33.1006
# 5 26.5322 11.2135 -17.3228 0.0000 31.2570 0.0000
# 6 0.0000 0.0000 0.0000 33.1006 0.0000 64.4780
#
#
#
# Elastic Compliance Matrix: (Units=1/GPa)
#
#
# Indices 1 2 3 4 5 6 
#
# 1 0.007041 -0.001506 -0.001577 0.000000 -0.006310 0.000000
# 2 -0.001506 0.006554 -0.002418 0.000000 -0.002413 0.000000
# 3 -0.001577 -0.002418 0.005778 0.000000 0.005408 0.000000
# 4 0.000000 0.000000 0.000000 0.190906 0.000000 -0.098004
# 5 -0.006310 -0.002413 0.005408 0.000000 0.041212 0.000000
# 6 0.000000 0.000000 0.000000 -0.098004 0.000000 0.065821
#
#
# Mechanical properties :
#
#
# Convention : Reuss Voigt Hill
#
# Bulk Modulus (GPa) = 119.44942 125.40618 122.42780
# Shear Modulus (GPa) = 15.10101 51.39746 33.24924
#
# Velocity S-wave (km/s) = 2.36984 4.37206 3.51647
# Velocity P-wave (km/s) = 7.20499 8.49269 7.87520
#
# Compressibility (1/GPa) = 0.00837174
#
# Stress axis : x y z
#
# Youngs Moduli (GPa) = 142.02971 152.57041 173.06922
#
# Poissons Ratio (x) = 0.22974 0.27287
# Poissons Ratio (y) = 0.21387 0.41852
# Poissons Ratio (z) = 0.22393 0.36895
#
# Static dielectric constant tensor:
#      x y z
#    x 2.366840 0.000000 0.090120 
#    y 0.000000 2.099690 0.000000 
#    z 0.090120 0.000000 2.180610 
# 
# From -- ./inp_files/131800.got.cif
#   From: 2010.05.17/outbox.cif.g08.bks.cpg/sg12_66_cif.got.tgz:131800.got - 2010.06.03 13:09:07.
