data_PCOD9177751
_publ_section_title
;
Structure prediction by ZEFSAII (Michael W. Deem and Ramdas Pophale) SiO2 
 PCOD9177751
Probable space group: C 2/M
;
_chemical_formula_sum "Si O2"
_cell_formula_units_Z 56
_cell_length_a 27.259235
_cell_length_b 15.578147
_cell_length_c 9.378549
_cell_angle_alpha 90.000000
_cell_angle_beta 122.390958
_cell_angle_gamma 90.000000
_cell_volume 3362.944918
_symmetry_space_group_name_H-M "C 2/M"
_symmetry_group_IT_number 12
_symmetry_cell_setting 'monoclinic'
loop_
_space_group_symop_operation_xyz
x,y,z
-x,y,-z
-x,-y,-z
x,-y,z
1/2+x,1/2+y,z
1/2-x,1/2+y,-z
1/2-x,1/2-y,-z
1/2+x,1/2-y,z
loop_
_atom_site_type_symbol
_atom_site_label
_atom_site_fract_x
_atom_site_fract_y
_atom_site_fract_z
Si Si1 0.846091 0.226599 0.719040
Si Si2 0.793938 0.091207 0.432741
Si Si3 0.186065 0.159504 0.830561
Si Si4 0.942053 0.899226 0.329995
Si Si5 0.823496 0.595205 0.570000
Si Si6 0.560497 0.402839 0.011052
Si Si7 0.246714 0.321075 0.787602
O O1 0.827630 0.171076 0.552367
O O2 0.858764 0.322810 0.684580
O O3 0.896957 0.172277 0.871311
O O4 0.791243 0.223382 0.743674
O O5 0.790398 0.099661 0.258515
O O6 0.731385 0.091123 0.408620
O O7 0.822778 0.000000 0.514333
O O8 0.116829 0.150480 0.725295
O O9 0.207528 0.252988 0.812444
O O10 0.212860 0.137610 0.026780
O O11 0.000000 0.869253 0.500000
O O12 0.933028 0.000000 0.354154
O O13 0.950748 0.894225 0.174377
O O14 0.850567 0.500000 0.608513
O O15 0.794361 0.618771 0.372045
O O16 0.584832 0.500000 0.071343
O O17 0.500000 0.397628 0.000000
#
# Coordination Sequence:
#
# PCOD9177751 Si02
#       7
#     8   8   8   8   8   8   8
#     4  11  18  37  52  74 108 140 180 225 269 322
#     4  10  19  29  49  76 102 139 176 210 259 319
#     4  11  19  33  52  77 109 147 181 223 271 329
#     4  10  22  36  50  76 113 147 182 218 256 321
#     4  10  20  34  51  74 104 140 182 222 264 319
#     4  10  22  37  55  79 107 145 185 217 258 319
#     4  10  20  33  53  77 109 143 181 225 276 330
#
# _framework density 16.652072
#
# number of rings (size 3 to 8) (size 9 to 14) (size 15 to 20)
#    0.000    1.714    4.286    1.714    2.000    1.714 
#    0.000    0.000    0.000    0.429    0.000    0.000 
#    0.000    2.286    0.000    0.000    0.000    0.000 
#
# Total GULP energy -156028.884046 kJ/mol
# GULP energy per Si atom -5572.460145 kJ/mol
# Density = 1.661417 g / cm^3
# Si number density = 16.652072 Si / 1000 Ang^3
#
#
#
# Elastic Constant Matrix: (Units=GPa)
#
#
# Indices 1 2 3 4 5 6 
#
# 1 57.1726 21.9063 29.8149 0.0000 -1.4853 0.0000
# 2 21.9063 114.8505 46.7247 0.0000 6.7883 0.0000
# 3 29.8149 46.7247 108.0783 0.0000 -1.7492 0.0000
# 4 0.0000 0.0000 0.0000 18.2764 0.0000 4.8778
# 5 -1.4853 6.7883 -1.7492 0.0000 28.3580 0.0000
# 6 0.0000 0.0000 0.0000 4.8778 0.0000 8.3424
#
#
#
# Elastic Compliance Matrix: (Units=1/GPa)
#
#
# Indices 1 2 3 4 5 6 
#
# 1 0.020841 -0.002089 -0.004825 0.000000 0.001294 0.000000
# 2 -0.002089 0.011004 -0.004230 0.000000 -0.003004 0.000000
# 3 -0.004825 -0.004230 0.012437 0.000000 0.001527 0.000000
# 4 0.000000 0.000000 0.000000 0.064832 0.000000 -0.037908
# 5 0.001294 -0.003004 0.001527 0.000000 0.036145 0.000000
# 6 0.000000 0.000000 0.000000 -0.037908 0.000000 0.142035
#
#
# Mechanical properties :
#
#
# Convention : Reuss Voigt Hill
#
# Bulk Modulus (GPa) = 45.46564 52.99924 49.23244
# Shear Modulus (GPa) = 15.77724 23.10572 19.44148
#
# Velocity S-wave (km/s) = 3.08143 3.72904 3.42059
# Velocity P-wave (km/s) = 6.32636 7.10193 6.72534
#
# Compressibility (1/GPa) = 0.02199463
#
# Stress axis : x y z
#
# Youngs Moduli (GPa) = 47.98189 90.87907 80.40527
#
# Poissons Ratio (x) = 0.18980 0.38799
# Poissons Ratio (y) = 0.10021 0.34008
# Poissons Ratio (z) = 0.23154 0.38438
#
# Static dielectric constant tensor:
#      x y z
#    x 1.542290 0.000000 -0.011950 
#    y 0.000000 1.608730 0.000000 
#    z -0.011950 0.000000 1.578840 
# 
# From -- ./inp_files/87351.got.cif
#   From: 2010.05.17/outbox.cif.g08.bks.cpg/sg12_44_cif.got.tgz:87351.got - 2010.06.03 13:09:07.
