data_PCOD9177349
_publ_section_title
;
Structure prediction by ZEFSAII (Michael W. Deem and Ramdas Pophale) SiO2 
 PCOD9177349
Probable space group: C 2/M
;
_chemical_formula_sum "Si O2"
_cell_formula_units_Z 52
_cell_length_a 8.217918
_cell_length_b 17.769291
_cell_length_c 18.839389
_cell_angle_alpha 90.000000
_cell_angle_beta 104.644895
_cell_angle_gamma 90.000000
_cell_volume 2661.673557
_symmetry_space_group_name_H-M "C 2/M"
_symmetry_group_IT_number 12
_symmetry_cell_setting 'monoclinic'
loop_
_space_group_symop_operation_xyz
x,y,z
-x,y,-z
-x,-y,-z
x,-y,z
1/2+x,1/2+y,z
1/2-x,1/2+y,-z
1/2-x,1/2-y,-z
1/2+x,1/2-y,z
loop_
_atom_site_type_symbol
_atom_site_label
_atom_site_fract_x
_atom_site_fract_y
_atom_site_fract_z
Si Si1 0.000000 0.362884 0.000000
Si Si2 0.484761 0.417223 0.913446
Si Si3 0.709551 0.714573 0.886537
Si Si4 0.658320 0.823700 0.251932
Si Si5 0.996127 0.798530 0.654708
Si Si6 0.335559 0.802949 0.449237
Si Si7 0.107521 0.613796 0.865612
O O1 0.847493 0.309429 0.959245
O O2 0.038007 0.411684 0.934212
O O3 0.561360 0.500000 0.909004
O O4 0.570927 0.350060 0.880692
O O5 0.289316 0.419235 0.871774
O O6 0.500000 0.402352 0.000000
O O7 0.790716 0.711382 0.817913
O O8 0.642135 0.797929 0.885141
O O9 0.568880 0.761329 0.292499
O O10 0.524532 0.887321 0.213504
O O11 0.841606 0.846206 0.302653
O O12 0.828039 0.839508 0.606758
O O13 0.077980 0.749213 0.600718
O O14 0.500000 0.845044 0.500000
O O15 0.250000 0.750000 0.500000
#
# Coordination Sequence:
#
# PCOD9177349 Si02
#       7
#     4   8   8   8   8   8   8
#     4  10  20  30  45  72  89 120 154 222 264 306
#     4  11  24  40  53  70  98 132 169 224 293 334
#     4  11  21  33  52  74  98 125 177 219 272 314
#     4  10  19  28  43  71  95 129 160 224 253 306
#     4   9  16  27  40  65 104 127 170 217 249 279
#     4   8  14  24  40  60  90 142 185 196 224 298
#     4  11  21  33  52  74  98 125 177 219 273 315
#
# _framework density 19.536580000000001
#
# number of rings (size 3 to 8) (size 9 to 14) (size 15 to 20)
#    0.000    2.000    3.077    2.308    2.154    0.000 
#    0.000    3.846    0.000    0.000    0.000    0.000 
#    0.000    0.000    0.000    0.000    0.000  958.462 
#
# Total GULP energy -144745.390414 kJ/mol
# GULP energy per Si atom -5567.130401 kJ/mol
# Density = 1.949211 g / cm^3
# Si number density = 19.536580 Si / 1000 Ang^3
#
#
#
# Elastic Constant Matrix: (Units=GPa)
#
#
# Indices 1 2 3 4 5 6 
#
# 1 124.4651 20.2172 49.5668 0.0000 29.0436 0.0000
# 2 20.2172 66.4554 3.9934 0.0000 -10.2177 0.0000
# 3 49.5668 3.9934 93.2913 0.0000 17.0792 0.0000
# 4 0.0000 0.0000 0.0000 -12.3170 0.0000 9.3832
# 5 29.0436 -10.2177 17.0792 0.0000 74.1073 0.0000
# 6 0.0000 0.0000 0.0000 9.3832 0.0000 -2.7538
#
#
#
# Elastic Compliance Matrix: (Units=1/GPa)
#
#
# Indices 1 2 3 4 5 6 
#
# 1 0.011686 -0.003831 -0.005335 0.000000 -0.003879 0.000000
# 2 -0.003831 0.016737 0.000649 0.000000 0.003659 0.000000
# 3 -0.005335 0.000649 0.013705 0.000000 -0.000978 0.000000
# 4 0.000000 0.000000 0.000000 0.050878 0.000000 0.173359
# 5 -0.003879 0.003659 -0.000978 0.000000 0.015744 0.000000
# 6 0.000000 0.000000 0.000000 0.173359 0.000000 0.227564
#
#
# Mechanical properties :
#
#
# Convention : Reuss Voigt Hill
#
# Bulk Modulus (GPa) = 39.84980 47.97406 43.91193
# Shear Modulus (GPa) = 13.82315 25.83627 19.82971
#
# Velocity S-wave (km/s) = 2.66287 3.64050 3.18937
# Velocity P-wave (km/s) = 5.46775 6.50233 6.00736
#
# Compressibility (1/GPa) = 0.02509423
#
# Stress axis : x y z
#
# Youngs Moduli (GPa) = 85.56983 59.74854 72.96622
#
# Poissons Ratio (x) = 0.22890 0.38928
# Poissons Ratio (y) = 0.32782 -0.04736
# Poissons Ratio (z) = 0.45652 -0.03878
#
# Static dielectric constant tensor:
#      x y z
#    x 1.786740 0.000000 0.063570 
#    y 0.000000 1.635800 0.000000 
#    z 0.063570 0.000000 1.779480 
# 
# From -- ./inp_files/257719.got.cif
#   From: 2010.05.17/outbox.cif.g08.bks.cpg/sg12_129_cif.got.tgz:257719.got - 2010.06.03 13:09:07.
