data_PCOD9177038
_publ_section_title
;
Structure prediction by ZEFSAII (Michael W. Deem and Ramdas Pophale) SiO2 
 PCOD9177038
Probable space group: C 2/M
;
_chemical_formula_sum "Si O2"
_cell_formula_units_Z 48
_cell_length_a 21.057314
_cell_length_b 16.466835
_cell_length_c 9.219767
_cell_angle_alpha 90.000000
_cell_angle_beta 128.265720
_cell_angle_gamma 90.000000
_cell_volume 2510.059708
_symmetry_space_group_name_H-M "C 2/M"
_symmetry_group_IT_number 12
_symmetry_cell_setting 'monoclinic'
loop_
_space_group_symop_operation_xyz
x,y,z
-x,y,-z
-x,-y,-z
x,-y,z
1/2+x,1/2+y,z
1/2-x,1/2+y,-z
1/2-x,1/2-y,-z
1/2+x,1/2-y,z
loop_
_atom_site_type_symbol
_atom_site_label
_atom_site_fract_x
_atom_site_fract_y
_atom_site_fract_z
Si Si1 0.786488 0.589322 0.520724
Si Si2 0.518125 0.635288 0.192773
Si Si3 0.781310 0.219358 0.783305
Si Si4 0.424384 0.191340 0.821196
Si Si5 0.347272 0.407705 0.090552
Si Si6 0.325622 0.373983 0.393890
O O1 0.787513 0.500000 0.458768
O O2 0.729545 0.651595 0.355670
O O3 0.873133 0.631575 0.650117
O O4 0.750085 0.586718 0.630636
O O5 0.535917 0.731646 0.203384
O O6 0.438405 0.611597 0.167825
O O7 0.597229 0.607792 0.394077
O O8 0.500000 0.607646 0.000000
O O9 0.860790 0.270006 0.847434
O O10 0.704707 0.279873 0.666599
O O11 0.794415 0.165232 0.944952
O O12 0.500000 0.147148 0.000000
O O13 0.326112 0.500000 0.012923
O O14 0.341175 0.404101 0.254757
#
# Coordination Sequence:
#
# PCOD9177038 Si02
#       6
#     8   8   8   8   8   8
#     4  11  21  35  61  88 113 148 190 245 287 324
#     4  11  20  39  61  82 115 156 192 231 281 344
#     4  11  20  39  61  83 111 162 192 228 281 351
#     4  10  18  37  60  81 111 146 200 233 269 342
#     4  12  25  37  56  90 122 149 188 242 295 335
#     4  11  22  39  58  86 121 153 192 230 288 351
#
# _framework density 19.123051
#
# number of rings (size 3 to 8) (size 9 to 14) (size 15 to 20)
#    0.000    1.000    6.667    3.000    0.000    2.667 
#    0.000    0.000    0.000    0.000    0.000    1.167 
#    0.000    0.000    0.000    0.000    0.000    0.000 
#
# Total GULP energy -133770.411624 kJ/mol
# GULP energy per Si atom -5573.767151 kJ/mol
# Density = 1.907953 g / cm^3
# Si number density = 19.123051 Si / 1000 Ang^3
#
#
#
# Elastic Constant Matrix: (Units=GPa)
#
#
# Indices 1 2 3 4 5 6 
#
# 1 53.4695 20.6246 33.1472 0.0000 -7.7820 0.0000
# 2 20.6246 88.9763 35.6876 0.0000 -3.7068 0.0000
# 3 33.1472 35.6876 105.2351 0.0000 9.2354 0.0000
# 4 0.0000 0.0000 0.0000 5.3568 0.0000 -5.8042
# 5 -7.7820 -3.7068 9.2354 0.0000 28.6547 0.0000
# 6 0.0000 0.0000 0.0000 -5.8042 0.0000 7.6392
#
#
#
# Elastic Compliance Matrix: (Units=1/GPa)
#
#
# Indices 1 2 3 4 5 6 
#
# 1 0.026098 -0.002346 -0.008254 0.000000 0.009445 0.000000
# 2 -0.002346 0.013510 -0.004055 0.000000 0.002418 0.000000
# 3 -0.008254 -0.004055 0.014120 0.000000 -0.007317 0.000000
# 4 0.000000 0.000000 0.000000 1.056140 0.000000 0.802450
# 5 0.009445 0.002418 -0.007317 0.000000 0.040134 0.000000
# 6 0.000000 0.000000 0.000000 0.802450 0.000000 0.740602
#
#
# Mechanical properties :
#
#
# Convention : Reuss Voigt Hill
#
# Bulk Modulus (GPa) = 40.95152 47.39997 44.17574
# Shear Modulus (GPa) = 2.59329 18.87823 10.73576
#
# Velocity S-wave (km/s) = 1.16578 3.14538 2.37197
# Velocity P-wave (km/s) = 4.82424 6.16700 5.53648
#
# Compressibility (1/GPa) = 0.02441912
#
# Stress axis : x y z
#
# Youngs Moduli (GPa) = 38.31641 74.02087 70.82344
#
# Poissons Ratio (x) = 0.17362 0.58458
# Poissons Ratio (y) = 0.08987 0.28718
# Poissons Ratio (z) = 0.31626 0.30014
#
# Static dielectric constant tensor:
#      x y z
#    x 1.642330 0.000000 -0.000140 
#    y 0.000000 1.701570 0.000000 
#    z -0.000140 0.000000 1.732140 
# 
# From -- ./inp_files/97883.got.cif
#   From: 2010.05.17/outbox.cif.g08.bks.cpg/sg12_49_cif.got.tgz:97883.got - 2010.06.03 13:09:07.
