data_PCOD9177427
_publ_section_title
;
Structure prediction by ZEFSAII (Michael W. Deem and Ramdas Pophale) SiO2 
 PCOD9177427
Probable space group: C 2/M
;
_chemical_formula_sum "Si O2"
_cell_formula_units_Z 48
_cell_length_a 23.718244
_cell_length_b 7.495493
_cell_length_c 24.825173
_cell_angle_alpha 90.000000
_cell_angle_beta 34.939947
_cell_angle_gamma 90.000000
_cell_volume 2527.641693
_symmetry_space_group_name_H-M "C 2/M"
_symmetry_group_IT_number 12
_symmetry_cell_setting 'monoclinic'
loop_
_space_group_symop_operation_xyz
x,y,z
-x,y,-z
-x,-y,-z
x,-y,z
1/2+x,1/2+y,z
1/2-x,1/2+y,-z
1/2-x,1/2-y,-z
1/2+x,1/2-y,z
loop_
_atom_site_type_symbol
_atom_site_label
_atom_site_fract_x
_atom_site_fract_y
_atom_site_fract_z
Si Si1 0.887785 0.206230 0.941480
Si Si2 0.459975 0.281307 0.089581
Si Si3 0.169645 0.210475 0.129701
Si Si4 0.417754 0.792758 0.516821
Si Si5 0.921856 0.284771 0.686087
Si Si6 0.264889 0.781396 0.719469
O O1 0.874556 0.283488 0.891770
O O2 0.967607 0.282558 0.919828
O O3 0.916393 0.000000 0.911437
O O4 0.778693 0.211556 0.052707
O O5 0.461489 0.500000 0.088356
O O6 0.347485 0.225953 0.186811
O O7 0.500000 0.225327 0.000000
O O8 0.101499 0.237974 0.234539
O O9 0.185308 0.000000 0.109901
O O10 0.500000 0.790424 0.500000
O O11 0.475935 0.716717 0.420008
O O12 0.320614 0.718459 0.621577
O O13 0.396053 0.000000 0.521539
O O14 0.924689 0.500000 0.680050
O O15 0.831901 0.225911 0.717880
O O16 0.266795 0.000000 0.717257
#
# Coordination Sequence:
#
# PCOD9177427 Si02
#       6
#     8   8   8   8   8   8
#     4   9  18  31  44  60  82 108 138 169 203 242
#     4   9  15  23  40  65  86 103 129 168 209 244
#     4  10  19  29  42  60  83 110 138 169 203 241
#     4   7  11  20  36  61  87 106 129 166 207 239
#     4   9  15  25  44  66  85 106 135 170 205 241
#     4   8  13  22  40  66  89 106 131 171 210 240
#
# _framework density 18.990033
#
# number of rings (size 3 to 8) (size 9 to 14) (size 15 to 20)
#    0.000    3.333    0.000    3.500    0.000    3.333 
#    0.000    0.000    0.000   10.000    0.000    0.000 
#    0.000    0.000    0.000    0.000    0.000    0.500 
#
# Total GULP energy -133700.708790 kJ/mol
# GULP energy per Si atom -5570.862866 kJ/mol
# Density = 1.894681 g / cm^3
# Si number density = 18.990033 Si / 1000 Ang^3
#
#
#
# Elastic Constant Matrix: (Units=GPa)
#
#
# Indices 1 2 3 4 5 6 
#
# 1 90.6677 6.9923 80.7627 -0.0005 -2.3529 -0.0003
# 2 6.9923 51.2122 -0.0777 -0.0050 -2.1966 0.0023
# 3 80.7627 -0.0777 192.4794 -0.0016 9.8319 0.0000
# 4 -0.0005 -0.0050 -0.0016 10.0674 0.0003 6.8444
# 5 -2.3529 -2.1966 9.8319 0.0003 29.2583 0.0003
# 6 -0.0003 0.0023 0.0000 6.8444 0.0003 4.1794
#
#
#
# Elastic Compliance Matrix: (Units=1/GPa)
#
#
# Indices 1 2 3 4 5 6 
#
# 1 0.018354 -0.002348 -0.007904 0.000029 0.003956 -0.000046
# 2 -0.002348 0.019891 0.000943 -0.000153 0.000988 0.000240
# 3 -0.007904 0.000943 0.008690 -0.000019 -0.003485 0.000030
# 4 0.000029 -0.000153 -0.000019 -0.876279 -0.000007 1.435022
# 5 0.003956 0.000988 -0.003485 -0.000007 0.035742 0.000008
# 6 -0.000046 0.000240 0.000030 1.435022 0.000008 -2.110769
#
#
# Mechanical properties :
#
#
# Convention : Reuss Voigt Hill
#
# Bulk Modulus (GPa) = 35.31569 56.63489 45.97529
# Shear Modulus (GPa) = -1.73834 25.14648 11.70407
#
# Velocity S-wave (km/s) = -0.95780 3.64290 2.48529
# Velocity P-wave (km/s) = 4.17303 6.89801 5.70073
#
# Compressibility (1/GPa) = 0.02831603
#
# Stress axis : x y z
#
# Youngs Moduli (GPa) = 54.48540 50.27402 115.07212
#
# Poissons Ratio (x) = 0.11806 0.90953
# Poissons Ratio (y) = 0.12794 -0.10850
# Poissons Ratio (z) = 0.43065 -0.04740
#
# Static dielectric constant tensor:
#      x y z
#    x 1.641340 0.000000 0.017640 
#    y 0.000000 1.740250 0.000000 
#    z 0.017640 0.000000 1.672010 
# 
# From -- ./inp_files/367221.got.cif
#   From: 2010.05.17/outbox.cif.g08.bks.cpg/sg12_184_cif.got.tgz:367221.got - 2010.06.03 13:09:07.
