data_PCOD9177910
_publ_section_title
;
Structure prediction by ZEFSAII (Michael W. Deem and Ramdas Pophale) SiO2 
 PCOD9177910
Probable space group: C 2/M
;
_chemical_formula_sum "Si O2"
_cell_formula_units_Z 64
_cell_length_a 29.386323
_cell_length_b 7.570799
_cell_length_c 15.427432
_cell_angle_alpha 90.000000
_cell_angle_beta 92.542139
_cell_angle_gamma 90.000000
_cell_volume 3428.885574
_symmetry_space_group_name_H-M "C 2/M"
_symmetry_group_IT_number 12
_symmetry_cell_setting 'monoclinic'
loop_
_space_group_symop_operation_xyz
x,y,z
-x,y,-z
-x,-y,-z
x,-y,z
1/2+x,1/2+y,z
1/2-x,1/2+y,-z
1/2-x,1/2-y,-z
1/2+x,1/2-y,z
loop_
_atom_site_type_symbol
_atom_site_label
_atom_site_fract_x
_atom_site_fract_y
_atom_site_fract_z
Si Si1 0.084845 0.715585 0.282911
Si Si2 0.856528 0.792918 0.141659
Si Si3 0.166408 0.293536 0.186969
Si Si4 0.903858 0.784583 0.972397
Si Si5 0.756026 0.212984 0.103045
Si Si6 0.439825 0.797358 0.251293
Si Si7 0.485522 0.297550 0.875418
Si Si8 0.490792 0.215970 0.596654
O O1 0.083651 0.500000 0.275771
O O2 0.136092 0.775503 0.264997
O O3 0.052318 0.789249 0.204486
O O4 0.058723 0.764383 0.368707
O O5 0.805324 0.721036 0.139420
O O6 0.890395 0.778049 0.225395
O O7 0.850980 0.000000 0.123124
O O8 0.883806 0.720208 0.061169
O O9 0.174417 0.500000 0.205971
O O10 0.131726 0.276997 0.103227
O O11 0.213924 0.216277 0.156803
O O12 0.955135 0.726132 0.952455
O O13 0.905149 0.000000 0.970476
O O14 0.754643 0.000000 0.110688
O O15 0.750000 0.250000 0.000000
O O16 0.471098 0.786565 0.167281
O O17 0.470608 0.721347 0.331800
O O18 0.432380 0.000000 0.272037
O O19 0.498567 0.500000 0.894515
O O20 0.500000 0.275010 0.500000
O O21 0.492170 0.000000 0.597472
#
# Coordination Sequence:
#
# PCOD9177910 Si02
#       8
#     8   8   8   8   8   8   8   8
#     4   8  14  25  42  66  92 112 137 175 216 257
#     4  10  20  32  43  58  85 118 151 183 216 254
#     4   9  16  26  42  64  88 113 144 187 225 248
#     4   9  17  28  42  60  82 115 153 181 210 251
#     4  10  19  30  45  63  85 116 154 191 222 252
#     4  10  20  32  45  63  86 111 142 180 218 260
#     4   9  16  27  43  60  83 115 147 176 209 252
#     4   8  14  27  48  70  89 109 134 170 217 267
#
# _framework density 18.664954999999999
#
# number of rings (size 3 to 8) (size 9 to 14) (size 15 to 20)
#    0.000    2.875    1.250    1.500    0.000    2.000 
#    0.000    2.500    0.000    9.375    0.000    0.875 
#    0.000    0.000    0.000    0.000    0.000    0.000 
#
# Total GULP energy -178234.247523 kJ/mol
# GULP energy per Si atom -5569.820235 kJ/mol
# Density = 1.862247 g / cm^3
# Si number density = 18.664955 Si / 1000 Ang^3
#
#
#
# Elastic Constant Matrix: (Units=GPa)
#
#
# Indices 1 2 3 4 5 6 
#
# 1 172.7268 1.1584 71.0712 0.0000 -19.1805 0.0000
# 2 1.1584 40.2204 0.3195 0.0000 -2.7521 0.0000
# 3 71.0712 0.3195 93.1950 0.0000 -23.2173 0.0000
# 4 0.0000 0.0000 0.0000 10.7586 0.0000 3.4901
# 5 -19.1805 -2.7521 -23.2173 0.0000 23.8895 0.0000
# 6 0.0000 0.0000 0.0000 3.4901 0.0000 13.4564
#
#
#
# Elastic Compliance Matrix: (Units=1/GPa)
#
#
# Indices 1 2 3 4 5 6 
#
# 1 0.008446 -0.000148 -0.006275 0.000000 0.000666 0.000000
# 2 -0.000148 0.025113 0.000947 0.000000 0.003695 0.000000
# 3 -0.006275 0.000947 0.018848 0.000000 0.013388 0.000000
# 4 0.000000 0.000000 0.000000 0.101488 0.000000 -0.026323
# 5 0.000666 0.003695 0.013388 0.000000 0.055831 0.000000
# 6 0.000000 0.000000 0.000000 -0.026323 0.000000 0.081141
#
#
# Mechanical properties :
#
#
# Convention : Reuss Voigt Hill
#
# Bulk Modulus (GPa) = 24.12233 50.13785 37.13009
# Shear Modulus (GPa) = 15.84102 25.19379 20.51740
#
# Velocity S-wave (km/s) = 2.91641 3.67794 3.31909
# Velocity P-wave (km/s) = 4.92875 6.70497 5.88427
#
# Compressibility (1/GPa) = 0.04145536
#
# Stress axis : x y z
#
# Youngs Moduli (GPa) = 118.39498 39.82076 53.05741
#
# Poissons Ratio (x) = 0.00589 0.33292
# Poissons Ratio (y) = 0.01750 -0.05025
# Poissons Ratio (z) = 0.74290 -0.03771
#
# Static dielectric constant tensor:
#      x y z
#    x 1.700460 0.000000 -0.025420 
#    y 0.000000 1.683660 0.000000 
#    z -0.025420 0.000000 1.650030 
# 
# From -- ./inp_files/248430.got.cif
#   From: 2010.05.17/outbox.cif.g08.bks.cpg/sg12_125_cif.got.tgz:248430.got - 2010.06.03 13:09:07.
