data_PCOD9177584
_publ_section_title
;
Structure prediction by ZEFSAII (Michael W. Deem and Ramdas Pophale) SiO2 
 PCOD9177584
Probable space group: C 2/M
;
_chemical_formula_sum "Si O2"
_cell_formula_units_Z 56
_cell_length_a 18.844800
_cell_length_b 7.433156
_cell_length_c 30.210260
_cell_angle_alpha 90.000000
_cell_angle_beta 141.418059
_cell_angle_gamma 90.000000
_cell_volume 2639.055342
_symmetry_space_group_name_H-M "C 2/M"
_symmetry_group_IT_number 12
_symmetry_cell_setting 'monoclinic'
loop_
_space_group_symop_operation_xyz
x,y,z
-x,y,-z
-x,-y,-z
x,-y,z
1/2+x,1/2+y,z
1/2-x,1/2+y,-z
1/2-x,1/2-y,-z
1/2+x,1/2-y,z
loop_
_atom_site_type_symbol
_atom_site_label
_atom_site_fract_x
_atom_site_fract_y
_atom_site_fract_z
Si Si1 0.743649 0.280937 0.361236
Si Si2 0.125430 0.210026 0.069281
Si Si3 0.218552 0.780676 0.207059
Si Si4 0.586539 0.780726 0.634362
Si Si5 0.951919 0.219261 0.797738
Si Si6 0.830162 0.715136 0.497685
Si Si7 0.290360 0.713414 0.069509
O O1 0.740805 0.500000 0.360578
O O2 0.842327 0.230460 0.374667
O O3 0.624228 0.223564 0.281315
O O4 0.774462 0.216482 0.425051
O O5 0.189790 0.283947 0.143879
O O6 0.201883 0.219019 0.062858
O O7 0.107036 0.000000 0.071053
O O8 0.000000 0.288879 0.000000
O O9 0.337862 0.721636 0.286848
O O10 0.118238 0.729241 0.192397
O O11 0.222634 0.000000 0.209088
O O12 0.457594 0.716281 0.568658
O O13 0.584349 0.000000 0.634321
O O14 0.081315 0.283421 0.861042
O O15 0.954167 0.000000 0.798908
O O16 0.840524 0.500000 0.497366
O O17 0.750000 0.750000 0.500000
O O18 0.294381 0.500000 0.077302
O O19 0.250000 0.750000 0.000000
#
# Coordination Sequence:
#
# PCOD9177584 Si02
#       7
#     8   8   8   8   8   8   8
#     4   8  14  27  48  70  91 120 161 201 232 270
#     4  10  20  34  52  73  98 130 166 201 240 288
#     4   8  14  27  48  71  94 121 156 199 242 282
#     4   8  14  26  46  70  92 119 160 202 233 270
#     4   8  15  29  49  72  95 121 156 198 241 283
#     4  10  19  29  44  69  98 125 154 193 238 280
#     4  11  22  35  52  74 100 129 162 200 242 289
#
# _framework density 21.219714
#
# number of rings (size 3 to 8) (size 9 to 14) (size 15 to 20)
#    0.000    3.000    0.000    3.429    0.000    5.429 
#    0.000    0.000    0.000    2.571    0.000    6.000 
#    0.000    0.000    0.000    0.000    0.000    0.000 
#
# Total GULP energy -156291.630464 kJ/mol
# GULP energy per Si atom -5581.843945 kJ/mol
# Density = 2.117142 g / cm^3
# Si number density = 21.219714 Si / 1000 Ang^3
#
#
#
# Elastic Constant Matrix: (Units=GPa)
#
#
# Indices 1 2 3 4 5 6 
#
# 1 127.0944 -12.5341 139.3915 -0.0001 -6.3845 0.0007
# 2 -12.5341 63.6540 0.3306 -0.0001 -0.5539 0.0010
# 3 139.3915 0.3306 243.1408 0.0000 -4.4854 0.0001
# 4 -0.0001 -0.0001 0.0000 -10.1765 0.0000 -3.3940
# 5 -6.3845 -0.5539 -4.4854 0.0000 44.3590 0.0000
# 6 0.0007 0.0010 0.0001 -3.3940 0.0000 14.9365
#
#
#
# Elastic Compliance Matrix: (Units=1/GPa)
#
#
# Indices 1 2 3 4 5 6 
#
# 1 0.022578 0.004530 -0.012913 0.000000 0.002000 -0.000001
# 2 0.004530 0.016621 -0.002609 0.000000 0.000596 -0.000001
# 3 -0.012913 -0.002609 0.011506 0.000000 -0.000728 0.000001
# 4 0.000000 0.000000 0.000000 -0.091343 0.000000 -0.020756
# 5 0.002000 0.000596 -0.000728 0.000000 0.022765 0.000000
# 6 -0.000001 -0.000001 0.000001 -0.020756 0.000000 0.062234
#
#
# Mechanical properties :
#
#
# Convention : Reuss Voigt Hill
#
# Bulk Modulus (GPa) = 34.81723 76.47392 55.64557
# Shear Modulus (GPa) = 65.86100 30.27053 48.06577
#
# Velocity S-wave (km/s) = 5.57719 3.78104 4.76452
# Velocity P-wave (km/s) = 7.61032 7.42826 7.51984
#
# Compressibility (1/GPa) = 0.02872141
#
# Stress axis : x y z
#
# Youngs Moduli (GPa) = 44.29107 60.16590 86.91146
#
# Poissons Ratio (x) = -0.27257 1.12229
# Poissons Ratio (y) = -0.20065 0.22673
# Poissons Ratio (z) = 0.57193 0.15696
#
# Static dielectric constant tensor:
#      x y z
#    x 1.678500 0.000000 0.007760 
#    y 0.000000 1.830240 0.000000 
#    z 0.007760 0.000000 1.770790 
# 
# From -- ./inp_files/377736.got.cif
#   From: 2010.05.17/outbox.cif.g08.bks.cpg/sg12_189_cif.got.tgz:377736.got - 2010.06.03 13:09:07.
