data_PCOD9177128
_publ_section_title
;
Structure prediction by ZEFSAII (Michael W. Deem and Ramdas Pophale) SiO2 
 PCOD9177128
Probable space group: C 2/M
;
_chemical_formula_sum "Si O2"
_cell_formula_units_Z 40
_cell_length_a 14.152343
_cell_length_b 25.225859
_cell_length_c 5.981527
_cell_angle_alpha 90.000000
_cell_angle_beta 59.002712
_cell_angle_gamma 90.000000
_cell_volume 1830.477198
_symmetry_space_group_name_H-M "C 2/M"
_symmetry_group_IT_number 12
_symmetry_cell_setting 'monoclinic'
loop_
_space_group_symop_operation_xyz
x,y,z
-x,y,-z
-x,-y,-z
x,-y,z
1/2+x,1/2+y,z
1/2-x,1/2+y,-z
1/2-x,1/2-y,-z
1/2+x,1/2-y,z
loop_
_atom_site_type_symbol
_atom_site_label
_atom_site_fract_x
_atom_site_fract_y
_atom_site_fract_z
Si Si1 0.655164 0.352367 0.341463
Si Si2 0.000000 0.234887 0.500000
Si Si3 0.133073 0.329550 0.165782
Si Si4 0.500000 0.907225 0.000000
Si Si5 0.196058 0.592305 0.471262
Si Si6 0.098872 0.059354 0.058194
O O1 0.578119 0.306507 0.532962
O O2 0.720480 0.383817 0.449509
O O3 0.745634 0.322865 0.079493
O O4 0.599728 0.395223 0.243723
O O5 0.069868 0.274654 0.264081
O O6 0.144413 0.359686 0.388864
O O7 0.070108 0.369828 0.078996
O O8 0.593676 0.934535 0.729367
O O9 0.279435 0.561402 0.205720
O O10 0.083673 0.000000 0.169196
O O11 0.000000 0.068069 0.000000
#
# Coordination Sequence:
#
# PCOD9177128 Si02
#       6
#     8   4   8   4   8   8
#     4  10  23  37  58  89 119 154 198 242 287 347
#     4  12  20  38  55  86 123 162 196 236 284 344
#     4  10  21  38  56  85 121 162 195 237 286 344
#     4  10  18  38  61  84 118 160 195 238 290 342
#     4  10  20  39  61  86 118 157 195 243 290 347
#     4  10  22  42  64  87 117 153 193 244 298 347
#
# _framework density 21.852226000000002
#
# number of rings (size 3 to 8) (size 9 to 14) (size 15 to 20)
#    0.000    1.800    2.000    1.800    0.000    1.600 
#    9.000    3.000    0.000   15.600    0.000    0.000 
#    0.000    0.000    0.000    0.000    0.000    0.000 
#
# Total GULP energy -111586.078803 kJ/mol
# GULP energy per Si atom -5579.303940 kJ/mol
# Density = 2.180249 g / cm^3
# Si number density = 21.852226 Si / 1000 Ang^3
#
#
#
# Elastic Constant Matrix: (Units=GPa)
#
#
# Indices 1 2 3 4 5 6 
#
# 1 92.5145 47.3924 27.1757 0.0000 -3.1177 0.0000
# 2 47.3924 117.2756 42.9552 0.0000 -6.8498 0.0000
# 3 27.1757 42.9552 93.5644 0.0000 -21.9590 0.0000
# 4 0.0000 0.0000 0.0000 -5.1682 0.0000 -8.9007
# 5 -3.1177 -6.8498 -21.9590 0.0000 42.6124 0.0000
# 6 0.0000 0.0000 0.0000 -8.9007 0.0000 -10.0622
#
#
#
# Elastic Compliance Matrix: (Units=1/GPa)
#
#
# Indices 1 2 3 4 5 6 
#
# 1 0.013888 -0.004945 -0.001947 0.000000 -0.000782 0.000000
# 2 -0.004945 0.012041 -0.004234 0.000000 -0.000608 0.000000
# 3 -0.001947 -0.004234 0.014793 0.000000 0.006800 0.000000
# 4 0.000000 0.000000 0.000000 0.369656 0.000000 -0.326988
# 5 -0.000782 -0.000608 0.006800 0.000000 0.026817 0.000000
# 6 0.000000 0.000000 0.000000 -0.326988 0.000000 0.189864
#
#
# Mechanical properties :
#
#
# Convention : Reuss Voigt Hill
#
# Bulk Modulus (GPa) = 54.14428 59.82232 56.98330
# Shear Modulus (GPa) = 7.62816 17.86516 12.74666
#
# Velocity S-wave (km/s) = 1.87039 2.86238 2.41781
# Velocity P-wave (km/s) = 5.43100 6.19351 5.82474
#
# Compressibility (1/GPa) = 0.01846917
#
# Stress axis : x y z
#
# Youngs Moduli (GPa) = 72.00592 83.05267 67.59804
#
# Poissons Ratio (x) = 0.41067 0.13162
# Poissons Ratio (y) = 0.35605 0.28624
# Poissons Ratio (z) = 0.14021 0.35168
#
# Static dielectric constant tensor:
#      x y z
#    x 1.810470 0.000000 -0.064100 
#    y 0.000000 1.734570 0.000000 
#    z -0.064100 0.000000 1.862670 
# 
# From -- ./inp_files/12039.got.cif
#   From: 2010.05.17/outbox.cif.g08.bks.cpg/sg12_7_cif.got.tgz:12039.got - 2010.06.03 13:09:07.
