data_PCOD9177545
_publ_section_title
;
Structure prediction by ZEFSAII (Michael W. Deem and Ramdas Pophale) SiO2 
 PCOD9177545
Probable space group: C 2/M
;
_chemical_formula_sum "Si O2"
_cell_formula_units_Z 56
_cell_length_a 24.445390
_cell_length_b 10.814486
_cell_length_c 20.560569
_cell_angle_alpha 90.000000
_cell_angle_beta 140.630953
_cell_angle_gamma 90.000000
_cell_volume 3447.796075
_symmetry_space_group_name_H-M "C 2/M"
_symmetry_group_IT_number 12
_symmetry_cell_setting 'monoclinic'
loop_
_space_group_symop_operation_xyz
x,y,z
-x,y,-z
-x,-y,-z
x,-y,z
1/2+x,1/2+y,z
1/2-x,1/2+y,-z
1/2-x,1/2-y,-z
1/2+x,1/2-y,z
loop_
_atom_site_type_symbol
_atom_site_label
_atom_site_fract_x
_atom_site_fract_y
_atom_site_fract_z
Si Si1 0.487159 0.855712 0.832269
Si Si2 0.046315 0.148849 0.642458
Si Si3 0.605030 0.742436 0.835770
Si Si4 0.160494 0.356808 0.073800
Si Si5 0.177894 0.649373 0.242470
Si Si6 0.770433 0.865878 0.948121
Si Si7 0.130634 0.849555 0.585444
O O1 0.524357 0.784599 0.804582
O O2 0.399429 0.805020 0.783157
O O3 0.475129 0.000000 0.804242
O O4 0.563775 0.851605 0.956243
O O5 0.076291 0.196884 0.739176
O O6 0.107782 0.186533 0.638719
O O7 0.949454 0.188514 0.533187
O O8 0.047104 0.000000 0.644787
O O9 0.674993 0.851454 0.889905
O O10 0.660491 0.646631 0.930007
O O11 0.191955 0.500000 0.093803
O O12 0.161131 0.327942 0.150752
O O13 0.213109 0.252800 0.082808
O O14 0.177239 0.500000 0.248299
O O15 0.274442 0.693718 0.346978
O O16 0.780269 0.000000 0.925253
O O17 0.131619 0.000000 0.585854
#
# Coordination Sequence:
#
# PCOD9177545 Si02
#       7
#     8   8   8   8   8   8   8
#     4   9  17  28  42  64  93 120 150 187 223 264
#     4   9  16  28  45  66  91 114 141 188 240 274
#     4  10  19  29  44  63  90 123 155 182 221 274
#     4   9  17  29  48  72  94 119 153 191 230 269
#     4   9  15  26  46  69  91 115 147 191 233 263
#     4  10  20  31  45  68  96 123 152 186 227 276
#     4   8  15  26  43  68  90 108 141 191 240 273
#
# _framework density 16.242260000000002
#
# number of rings (size 3 to 8) (size 9 to 14) (size 15 to 20)
#    0.000    2.857    0.000    3.000    0.000    6.857 
#    0.000    0.714    0.000    7.714    0.000   19.000 
#    0.000    0.000    0.000    0.000    0.000    0.000 
#
# Total GULP energy -155918.624550 kJ/mol
# GULP energy per Si atom -5568.522305 kJ/mol
# Density = 1.620529 g / cm^3
# Si number density = 16.242260 Si / 1000 Ang^3
#
#
#
# Elastic Constant Matrix: (Units=GPa)
#
#
# Indices 1 2 3 4 5 6 
#
# 1 123.9321 35.3822 58.0710 0.0000 11.9208 0.0000
# 2 35.3822 52.5998 19.6179 0.0000 0.5248 0.0000
# 3 58.0710 19.6179 76.9047 0.0000 -5.1962 0.0000
# 4 0.0000 0.0000 0.0000 2.7282 0.0000 -7.4254
# 5 11.9208 0.5248 -5.1962 0.0000 20.6198 0.0000
# 6 0.0000 0.0000 0.0000 -7.4254 0.0000 16.3480
#
#
#
# Elastic Compliance Matrix: (Units=1/GPa)
#
#
# Indices 1 2 3 4 5 6 
#
# 1 0.016670 -0.006721 -0.011712 0.000000 -0.012418 0.000000
# 2 -0.006721 0.023795 -0.000786 0.000000 0.003082 0.000000
# 3 -0.011712 -0.000786 0.022896 0.000000 0.012561 0.000000
# 4 0.000000 0.000000 0.000000 -1.551561 0.000000 -0.704734
# 5 -0.012418 0.003082 0.012561 0.000000 0.058763 0.000000
# 6 0.000000 0.000000 0.000000 -0.704734 0.000000 -0.258928
#
#
# Mechanical properties :
#
#
# Convention : Reuss Voigt Hill
#
# Bulk Modulus (GPa) = 40.12548 53.28655 46.70601
# Shear Modulus (GPa) = -3.04578 17.29691 7.12556
#
# Velocity S-wave (km/s) = -1.37087 3.26687 2.09680
# Velocity P-wave (km/s) = 4.71723 6.86356 5.88901
#
# Compressibility (1/GPa) = 0.02492182
#
# Stress axis : x y z
#
# Youngs Moduli (GPa) = 59.98659 42.02500 43.67497
#
# Poissons Ratio (x) = 0.28247 0.51153
# Poissons Ratio (y) = 0.40320 0.03435
# Poissons Ratio (z) = 0.70258 0.03305
#
# Static dielectric constant tensor:
#      x y z
#    x 1.563290 0.000000 0.019910 
#    y 0.000000 1.546060 0.000000 
#    z 0.019910 0.000000 1.551260 
# 
# From -- ./inp_files/282961.got.cif
#   From: 2010.05.17/outbox.cif.g08.bks.cpg/sg12_142_cif.got.tgz:282961.got - 2010.06.03 13:09:07.
