data_PCOD9177671
_publ_section_title
;
Structure prediction by ZEFSAII (Michael W. Deem and Ramdas Pophale) SiO2 
 PCOD9177671
Probable space group: C 2/M
;
_chemical_formula_sum "Si O2"
_cell_formula_units_Z 60
_cell_length_a 19.492928
_cell_length_b 9.358521
_cell_length_c 13.737151
_cell_angle_alpha 90.000000
_cell_angle_beta 82.132878
_cell_angle_gamma 90.000000
_cell_volume 2482.413401
_symmetry_space_group_name_H-M "C 2/M"
_symmetry_group_IT_number 12
_symmetry_cell_setting 'monoclinic'
loop_
_space_group_symop_operation_xyz
x,y,z
-x,y,-z
-x,-y,-z
x,-y,z
1/2+x,1/2+y,z
1/2-x,1/2+y,-z
1/2-x,1/2-y,-z
1/2+x,1/2-y,z
loop_
_atom_site_type_symbol
_atom_site_label
_atom_site_fract_x
_atom_site_fract_y
_atom_site_fract_z
Si Si1 0.843593 0.664508 0.461234
Si Si2 0.682256 0.244664 0.139809
Si Si3 0.878042 0.836561 0.176509
Si Si4 0.565796 0.663147 0.412697
Si Si5 0.566305 0.665302 0.042819
Si Si6 0.244439 0.328563 0.699684
Si Si7 0.524671 0.163748 0.713550
Si Si8 0.757534 0.000000 0.003314
O O1 0.831482 0.500000 0.496963
O O2 0.870372 0.770484 0.539343
O O3 0.780808 0.714402 0.403333
O O4 0.909832 0.657979 0.374385
O O5 0.691699 0.262524 0.253536
O O6 0.724292 0.118800 0.083748
O O7 0.602856 0.244725 0.118463
O O8 0.715060 0.380388 0.080232
O O9 0.881082 0.845121 0.059434
O O10 0.818674 0.729965 0.221530
O O11 0.948216 0.770786 0.207973
O O12 0.868046 0.000000 0.213913
O O13 0.500000 0.655659 0.500000
O O14 0.580152 0.500000 0.377942
O O15 0.537540 0.766510 0.334393
O O16 0.551625 0.500000 0.075870
O O17 0.500000 0.725761 0.000000
O O18 0.247582 0.500000 0.699180
O O19 0.512289 0.000000 0.747623
#
# Coordination Sequence:
#
# PCOD9177671 Si02
#       8
#     8   8   8   8   8   8   8   4
#     4   8  15  25  35  56  86 121 151 183 230 286
#     4  11  20  34  50  74  96 128 161 207 248 300
#     4  10  19  29  46  68  92 119 160 207 245 284
#     4   9  15  23  37  57  85 119 154 186 224 282
#     4  10  21  36  52  69  95 132 169 204 247 297
#     4  10  19  29  46  68  95 123 158 201 245 290
#     4   9  16  27  41  59  85 121 156 192 233 283
#     4  10  20  30  52  74  96 118 160 204 258 288
#
# _framework density 24.170027999999999
#
# number of rings (size 3 to 8) (size 9 to 14) (size 15 to 20)
#    0.000    2.400    1.333    3.600    2.800    4.800 
#    1.200    0.333    0.000    0.000    0.000    0.000 
#    0.000    1.067    0.000    1.867    0.000    3.333 
#
# Total GULP energy -167180.462195 kJ/mol
# GULP energy per Si atom -5572.682073 kJ/mol
# Density = 2.411502 g / cm^3
# Si number density = 24.170028 Si / 1000 Ang^3
#
#
#
# Elastic Constant Matrix: (Units=GPa)
#
#
# Indices 1 2 3 4 5 6 
#
# 1 111.5675 6.1153 43.4144 0.0000 39.5942 0.0000
# 2 6.1153 92.7514 16.2316 0.0000 9.1569 0.0000
# 3 43.4144 16.2316 124.1964 0.0000 30.0130 0.0000
# 4 0.0000 0.0000 0.0000 56.5635 0.0000 78.9966
# 5 39.5942 9.1569 30.0130 0.0000 58.3193 0.0000
# 6 0.0000 0.0000 0.0000 78.9966 0.0000 115.0093
#
#
#
# Elastic Compliance Matrix: (Units=1/GPa)
#
#
# Indices 1 2 3 4 5 6 
#
# 1 0.012542 0.000354 -0.002694 0.000000 -0.007184 0.000000
# 2 0.000354 0.011110 -0.001252 0.000000 -0.001340 0.000000
# 3 -0.002694 -0.001252 0.009899 0.000000 -0.003068 0.000000
# 4 0.000000 0.000000 0.000000 0.434202 0.000000 -0.298241
# 5 -0.007184 -0.001340 -0.003068 0.000000 0.023814 0.000000
# 6 0.000000 0.000000 0.000000 -0.298241 0.000000 0.213548
#
#
# Mechanical properties :
#
#
# Convention : Reuss Voigt Hill
#
# Bulk Modulus (GPa) = 37.92833 51.11531 44.52182
# Shear Modulus (GPa) = 6.93398 63.49537 35.21468
#
# Velocity S-wave (km/s) = 1.69560 5.13102 3.82115
# Velocity P-wave (km/s) = 4.42264 7.50315 6.15861
#
# Compressibility (1/GPa) = 0.02636552
#
# Stress axis : x y z
#
# Youngs Moduli (GPa) = 79.73415 90.01255 101.02344
#
# Poissons Ratio (x) = -0.03185 0.27219
# Poissons Ratio (y) = -0.02821 0.12645
# Poissons Ratio (z) = 0.21483 0.11267
#
# Static dielectric constant tensor:
#      x y z
#    x 2.093630 0.000000 0.012590 
#    y 0.000000 1.831820 0.000000 
#    z 0.012590 0.000000 1.930040 
# 
# From -- ./inp_files/287812.got.cif
#   From: 2010.05.17/outbox.cif.g08.bks.cpg/sg12_144_cif.got.tgz:287812.got - 2010.06.03 13:09:07.
