data_PCOD9177310
_publ_section_title
;
Structure prediction by ZEFSAII (Michael W. Deem and Ramdas Pophale) SiO2 
 PCOD9177310
Probable space group: C 2/M
;
_chemical_formula_sum "Si O2"
_cell_formula_units_Z 64
_cell_length_a 28.251189
_cell_length_b 8.935110
_cell_length_c 21.291871
_cell_angle_alpha 90.000000
_cell_angle_beta 52.269064
_cell_angle_gamma 90.000000
_cell_volume 4250.776979
_symmetry_space_group_name_H-M "C 2/M"
_symmetry_group_IT_number 12
_symmetry_cell_setting 'monoclinic'
loop_
_space_group_symop_operation_xyz
x,y,z
-x,y,-z
-x,-y,-z
x,-y,z
1/2+x,1/2+y,z
1/2-x,1/2+y,-z
1/2-x,1/2-y,-z
1/2+x,1/2-y,z
loop_
_atom_site_type_symbol
_atom_site_label
_atom_site_fract_x
_atom_site_fract_y
_atom_site_fract_z
Si Si1 0.864281 0.820795 0.765670
Si Si2 0.625025 0.678517 0.973098
Si Si3 0.965022 0.321367 0.443248
Si Si4 0.062591 0.672206 0.910465
Si Si5 0.257218 0.820516 0.062786
Si Si6 0.516648 0.821623 0.271679
Si Si7 0.414519 0.321530 0.596093
Si Si8 0.502683 0.321534 0.148120
O O1 0.801702 0.783066 0.848692
O O2 0.919402 0.738596 0.755019
O O3 0.865965 0.787983 0.689532
O O4 0.874272 0.000000 0.764197
O O5 0.632494 0.500000 0.965632
O O6 0.608366 0.739780 0.917731
O O7 0.683542 0.756344 0.952989
O O8 0.567883 0.711880 0.064403
O O9 0.969521 0.500000 0.448721
O O10 0.912480 0.256607 0.529787
O O11 0.968248 0.291324 0.366335
O O12 0.024802 0.241489 0.421164
O O13 0.080799 0.500000 0.887461
O O14 0.046586 0.749356 0.857750
O O15 0.000000 0.673578 0.000000
O O16 0.261137 0.000000 0.054794
O O17 0.250000 0.750000 0.000000
O O18 0.501139 0.744169 0.218978
O O19 0.520616 0.000000 0.260229
O O20 0.418628 0.500000 0.584651
O O21 0.495945 0.500000 0.154308
#
# Coordination Sequence:
#
# PCOD9177310 Si02
#       8
#     8   8   8   8   8   8   8   8
#     4   9  19  32  43  58  83 114 148 184 218 252
#     4  10  20  33  47  64  86 113 146 182 218 254
#     4   9  16  25  37  57  83 108 135 171 212 251
#     4   9  17  30  48  67  85 108 140 176 215 259
#     4  11  22  34  46  62  86 116 150 186 220 252
#     4  10  19  28  41  62  88 116 145 176 212 257
#     4   9  15  25  41  57  75 105 142 175 209 252
#     4  10  19  30  45  64  88 115 142 176 216 256
#
# _framework density 15.056070999999999
#
# number of rings (size 3 to 8) (size 9 to 14) (size 15 to 20)
#    0.000    2.375    0.000    4.125    0.000    9.000 
#    0.000    0.000    0.000    0.000    0.000    0.000 
#    0.000    1.000    0.000    3.000    0.000    5.125 
#
# Total GULP energy -178312.830295 kJ/mol
# GULP energy per Si atom -5572.275947 kJ/mol
# Density = 1.502180 g / cm^3
# Si number density = 15.056071 Si / 1000 Ang^3
#
#
#
# Elastic Constant Matrix: (Units=GPa)
#
#
# Indices 1 2 3 4 5 6 
#
# 1 84.8593 38.9988 54.8930 0.0009 19.6791 -0.0007
# 2 38.9988 64.6883 58.8553 0.0022 13.3450 0.0007
# 3 54.8930 58.8553 128.4605 0.0001 23.2171 -0.0009
# 4 0.0009 0.0022 0.0001 24.8170 -0.0010 6.3379
# 5 19.6791 13.3450 23.2171 -0.0010 21.9004 0.0004
# 6 -0.0007 0.0007 -0.0009 6.3379 0.0004 24.5410
#
#
#
# Elastic Compliance Matrix: (Units=1/GPa)
#
#
# Indices 1 2 3 4 5 6 
#
# 1 0.019256 -0.006377 -0.003565 -0.000001 -0.009638 0.000001
# 2 -0.006377 0.028915 -0.010359 -0.000002 -0.000907 -0.000001
# 3 -0.003565 -0.010359 0.015257 0.000001 -0.006659 0.000001
# 4 -0.000001 -0.000002 0.000001 0.043140 0.000003 -0.011141
# 5 -0.009638 -0.000907 -0.006659 0.000003 0.061935 -0.000002
# 6 0.000001 -0.000001 0.000001 -0.011141 -0.000002 0.043626
#
#
# Mechanical properties :
#
#
# Convention : Reuss Voigt Hill
#
# Bulk Modulus (GPa) = 43.80744 64.83358 54.32051
# Shear Modulus (GPa) = 19.20571 22.60240 20.90406
#
# Velocity S-wave (km/s) = 3.57545 3.87876 3.73018
# Velocity P-wave (km/s) = 6.79739 7.95076 7.39659
#
# Compressibility (1/GPa) = 0.02282717
#
# Stress axis : x y z
#
# Youngs Moduli (GPa) = 51.93185 34.58372 65.54308
#
# Poissons Ratio (x) = 0.22056 0.23363
# Poissons Ratio (y) = 0.33120 0.67893
# Poissons Ratio (z) = 0.18511 0.35824
#
# Static dielectric constant tensor:
#      x y z
#    x 1.463650 0.000000 0.011820 
#    y 0.000000 1.502350 0.000000 
#    z 0.011820 0.000000 1.537880 
# 
# From -- ./inp_files/326579.got.cif
#   From: 2010.05.17/outbox.cif.g08.bks.cpg/sg12_164_cif.got.tgz:326579.got - 2010.06.03 13:09:07.
