data_PCOD9177510
_publ_section_title
;
Structure prediction by ZEFSAII (Michael W. Deem and Ramdas Pophale) SiO2 
 PCOD9177510
Probable space group: C 2/M
;
_chemical_formula_sum "Si O2"
_cell_formula_units_Z 48
_cell_length_a 28.876439
_cell_length_b 9.151325
_cell_length_c 12.214931
_cell_angle_alpha 90.000000
_cell_angle_beta 71.217156
_cell_angle_gamma 90.000000
_cell_volume 3055.990362
_symmetry_space_group_name_H-M "C 2/M"
_symmetry_group_IT_number 12
_symmetry_cell_setting 'monoclinic'
loop_
_space_group_symop_operation_xyz
x,y,z
-x,y,-z
-x,-y,-z
x,-y,z
1/2+x,1/2+y,z
1/2-x,1/2+y,-z
1/2-x,1/2-y,-z
1/2+x,1/2-y,z
loop_
_atom_site_type_symbol
_atom_site_label
_atom_site_fract_x
_atom_site_fract_y
_atom_site_fract_z
Si Si1 0.020262 0.168426 0.609944
Si Si2 0.224055 0.674579 0.417560
Si Si3 0.084225 0.823577 0.253745
Si Si4 0.256087 0.172180 0.170785
Si Si5 0.611399 0.826512 0.461789
Si Si6 0.674521 0.672444 0.044235
O O1 0.068684 0.264860 0.572222
O O2 0.000000 0.171904 0.500000
O O3 0.972923 0.216004 0.715546
O O4 0.032305 0.000000 0.626017
O O5 0.230785 0.500000 0.415106
O O6 0.250000 0.750000 0.500000
O O7 0.245278 0.740067 0.289001
O O8 0.165826 0.704979 0.462263
O O9 0.103963 0.749163 0.349298
O O10 0.120520 0.787389 0.127105
O O11 0.086001 0.000000 0.268093
O O12 0.210668 0.192082 0.121088
O O13 0.260685 0.000000 0.189768
O O14 0.303065 0.233797 0.070677
O O15 0.605867 0.000000 0.453284
O O16 0.675729 0.500000 0.015302
#
# Coordination Sequence:
#
# PCOD9177510 Si02
#       6
#     8   8   8   8   8   8
#     4   8  15  26  42  63  90 123 156 185 222 277
#     4  11  23  36  50  68  92 125 164 201 237 280
#     4   9  16  28  45  67  94 127 158 184 224 278
#     4  10  19  31  48  69  94 125 159 195 236 279
#     4  10  19  29  43  65  93 121 153 195 237 276
#     4   9  17  29  47  69  97 128 156 190 231 277
#
# _framework density 15.706856
#
# number of rings (size 3 to 8) (size 9 to 14) (size 15 to 20)
#    0.000    2.500    1.667    2.500    0.000    6.333 
#    0.000    0.000    0.000    0.000    0.000    1.167 
#    0.000    9.333    0.000    0.000    0.000    0.000 
#
# Total GULP energy -133750.872426 kJ/mol
# GULP energy per Si atom -5572.953018 kJ/mol
# Density = 1.567111 g / cm^3
# Si number density = 15.706856 Si / 1000 Ang^3
#
#
#
# Elastic Constant Matrix: (Units=GPa)
#
#
# Indices 1 2 3 4 5 6 
#
# 1 101.1219 63.2893 68.4417 0.0000 -31.5377 0.0000
# 2 63.2893 67.0991 51.9976 0.0000 -10.9079 0.0000
# 3 68.4417 51.9976 77.3131 0.0000 -26.8966 0.0000
# 4 0.0000 0.0000 0.0000 25.4300 0.0000 -4.6568
# 5 -31.5377 -10.9079 -26.8966 0.0000 33.3034 0.0000
# 6 0.0000 0.0000 0.0000 -4.6568 0.0000 24.1908
#
#
#
# Elastic Compliance Matrix: (Units=1/GPa)
#
#
# Indices 1 2 3 4 5 6 
#
# 1 0.039596 -0.025860 -0.010517 0.000000 0.020533 0.000000
# 2 -0.025860 0.050252 -0.019051 0.000000 -0.023416 0.000000
# 3 -0.010517 -0.019051 0.040918 0.000000 0.016848 0.000000
# 4 0.000000 0.000000 0.000000 0.040760 0.000000 0.007846
# 5 0.020533 -0.023416 0.016848 0.000000 0.055409 0.000000
# 6 0.000000 0.000000 0.000000 0.007846 0.000000 0.042849
#
#
# Mechanical properties :
#
#
# Convention : Reuss Voigt Hill
#
# Bulk Modulus (GPa) = 50.22361 68.11014 59.16687
# Shear Modulus (GPa) = 12.91073 20.70522 16.80797
#
# Velocity S-wave (km/s) = 2.87013 3.63468 3.27479
# Velocity P-wave (km/s) = 6.55961 7.81486 7.21459
#
# Compressibility (1/GPa) = 0.01991096
#
# Stress axis : x y z
#
# Youngs Moduli (GPa) = 25.25508 19.89989 24.43906
#
# Poissons Ratio (x) = 0.51461 0.25702
# Poissons Ratio (y) = 0.65310 0.46558
# Poissons Ratio (z) = 0.26560 0.37910
#
# Static dielectric constant tensor:
#      x y z
#    x 1.532540 0.000000 -0.038510 
#    y 0.000000 1.523990 0.000000 
#    z -0.038510 0.000000 1.509990 
# 
# From -- ./inp_files/179226.got.cif
#   From: 2010.05.17/outbox.cif.g08.bks.cpg/sg12_90_cif.got.tgz:179226.got - 2010.06.03 13:09:07.
