data_PCOD9177724
_publ_section_title
;
Structure prediction by ZEFSAII (Michael W. Deem and Ramdas Pophale) SiO2 
 PCOD9177724
Probable space group: C 2/M
;
_chemical_formula_sum "Si O2"
_cell_formula_units_Z 56
_cell_length_a 25.647206
_cell_length_b 7.614713
_cell_length_c 22.994454
_cell_angle_alpha 90.000000
_cell_angle_beta 138.899317
_cell_angle_gamma 90.000000
_cell_volume 2952.133424
_symmetry_space_group_name_H-M "C 2/M"
_symmetry_group_IT_number 12
_symmetry_cell_setting 'monoclinic'
loop_
_space_group_symop_operation_xyz
x,y,z
-x,y,-z
-x,-y,-z
x,-y,z
1/2+x,1/2+y,z
1/2-x,1/2+y,-z
1/2-x,1/2-y,-z
1/2+x,1/2-y,z
loop_
_atom_site_type_symbol
_atom_site_label
_atom_site_fract_x
_atom_site_fract_y
_atom_site_fract_z
Si Si1 0.632070 0.791867 0.901070
Si Si2 0.667319 0.284540 0.721261
Si Si3 0.159866 0.206105 0.585485
Si Si4 0.285728 0.290755 0.593492
Si Si5 0.990930 0.785224 0.611828
Si Si6 0.538928 0.711830 0.280821
Si Si7 0.752431 0.703287 0.904372
O O1 0.538654 0.762116 0.820496
O O2 0.674434 0.710548 0.880041
O O3 0.647738 0.000000 0.910587
O O4 0.677533 0.721502 0.996401
O O5 0.670229 0.500000 0.725875
O O6 0.681698 0.224256 0.667483
O O7 0.578090 0.233550 0.664374
O O8 0.727967 0.220010 0.821709
O O9 0.229034 0.221504 0.596304
O O10 0.078998 0.278401 0.489281
O O11 0.143902 0.000000 0.581286
O O12 0.287149 0.500000 0.600923
O O13 0.250000 0.250000 0.500000
O O14 0.376294 0.224694 0.671105
O O15 0.973607 0.727613 0.663173
O O16 0.989112 0.000000 0.610592
O O17 0.542110 0.500000 0.285133
O O18 0.773457 0.500000 0.912035
#
# Coordination Sequence:
#
# PCOD9177724 Si02
#       7
#     8   8   8   8   8   8   8
#     4  10  19  29  47  76 103 128 164 209 252 292
#     4   9  16  28  51  75  99 132 166 200 237 293
#     4  10  19  32  51  76 100 129 170 204 240 292
#     4  11  22  36  53  73  98 132 169 208 248 291
#     4   9  15  27  48  74  99 128 162 197 236 291
#     4  10  19  33  52  70  97 133 167 201 247 298
#     4   9  17  31  49  72 103 135 165 199 246 300
#
# _framework density 18.969332999999999
#
# number of rings (size 3 to 8) (size 9 to 14) (size 15 to 20)
#    0.000    2.286    2.857    1.286    0.000    3.429 
#    0.000    0.714    0.000    1.714    0.000    6.000 
#    0.000    0.000    0.000    0.000    0.000    0.000 
#
# Total GULP energy -156232.763668 kJ/mol
# GULP energy per Si atom -5579.741560 kJ/mol
# Density = 1.892616 g / cm^3
# Si number density = 18.969333 Si / 1000 Ang^3
#
#
#
# Elastic Constant Matrix: (Units=GPa)
#
#
# Indices 1 2 3 4 5 6 
#
# 1 77.3870 -11.4847 63.0398 0.0000 -23.4917 0.0000
# 2 -11.4847 37.9987 -4.5200 0.0001 -5.2362 0.0002
# 3 63.0398 -4.5200 166.5081 0.0000 -16.0753 0.0000
# 4 0.0000 0.0001 0.0000 11.5297 0.0000 3.8975
# 5 -23.4917 -5.2362 -16.0753 0.0000 30.3525 0.0000
# 6 0.0000 0.0002 0.0000 3.8975 0.0000 16.1604
#
#
#
# Elastic Compliance Matrix: (Units=1/GPa)
#
#
# Indices 1 2 3 4 5 6 
#
# 1 0.026137 0.009387 -0.007937 0.000000 0.017645 0.000000
# 2 0.009387 0.030576 -0.001595 0.000000 0.011695 0.000000
# 3 -0.007937 -0.001595 0.008798 0.000000 -0.001759 0.000000
# 4 0.000000 0.000000 0.000000 0.094431 0.000000 -0.022775
# 5 0.017645 0.011695 -0.001759 0.000000 0.047689 0.000000
# 6 0.000000 0.000000 0.000000 -0.022775 0.000000 0.067372
#
#
# Mechanical properties :
#
#
# Convention : Reuss Voigt Hill
#
# Bulk Modulus (GPa) = 15.33262 41.77377 28.55320
# Shear Modulus (GPa) = 16.83315 27.26577 22.04946
#
# Velocity S-wave (km/s) = 2.98214 3.79537 3.41306
# Velocity P-wave (km/s) = 4.46743 6.42464 5.53326
#
# Compressibility (1/GPa) = 0.06522043
#
# Stress axis : x y z
#
# Youngs Moduli (GPa) = 38.25982 32.70572 113.66705
#
# Poissons Ratio (x) = -0.30701 0.90219
# Poissons Ratio (y) = -0.35914 0.18127
# Poissons Ratio (z) = 0.30367 0.05216
#
# Static dielectric constant tensor:
#      x y z
#    x 1.608480 0.000000 -0.016860 
#    y 0.000000 1.746330 0.000000 
#    z -0.016860 0.000000 1.682280 
# 
# From -- ./inp_files/287918.got.cif
#   From: 2010.05.17/outbox.cif.g08.bks.cpg/sg12_144_cif.got.tgz:287918.got - 2010.06.03 13:09:07.
