data_PCOD9177932
_publ_section_title
;
Structure prediction by ZEFSAII (Michael W. Deem and Ramdas Pophale) SiO2 
 PCOD9177932
Probable space group: C 2/M
;
_chemical_formula_sum "Si O2"
_cell_formula_units_Z 64
_cell_length_a 28.479290
_cell_length_b 9.389090
_cell_length_c 21.034665
_cell_angle_alpha 90.000000
_cell_angle_beta 45.636600
_cell_angle_gamma 90.000000
_cell_volume 4021.104743
_symmetry_space_group_name_H-M "C 2/M"
_symmetry_group_IT_number 12
_symmetry_cell_setting 'monoclinic'
loop_
_space_group_symop_operation_xyz
x,y,z
-x,y,-z
-x,-y,-z
x,-y,z
1/2+x,1/2+y,z
1/2-x,1/2+y,-z
1/2-x,1/2-y,-z
1/2+x,1/2-y,z
loop_
_atom_site_type_symbol
_atom_site_label
_atom_site_fract_x
_atom_site_fract_y
_atom_site_fract_z
Si Si1 0.854839 0.337809 0.470819
Si Si2 0.988599 0.332354 0.694606
Si Si3 0.440605 0.173601 0.602970
Si Si4 0.032805 0.330401 0.901990
Si Si5 0.007605 0.163118 0.800435
Si Si6 0.165486 0.837614 0.628777
Si Si7 0.192554 0.667608 0.339484
Si Si8 0.186120 0.330786 0.736035
O O1 0.841600 0.500000 0.462347
O O2 0.823325 0.230121 0.450659
O O3 0.831838 0.320541 0.564486
O O4 0.933601 0.320832 0.394099
O O5 0.974641 0.500000 0.718448
O O6 0.952793 0.283041 0.664202
O O7 0.975970 0.243888 0.770421
O O8 0.500000 0.220730 0.500000
O O9 0.369261 0.215280 0.644384
O O10 0.442649 0.000000 0.599907
O O11 0.024591 0.500000 0.899166
O O12 0.001614 0.246384 0.872408
O O13 0.111255 0.302853 0.829066
O O14 0.000000 0.292604 0.000000
O O15 0.086232 0.161673 0.712440
O O16 0.985545 0.000000 0.826038
O O17 0.191515 0.741845 0.661568
O O18 0.188809 0.000000 0.612208
O O19 0.205565 0.500000 0.314983
O O20 0.258666 0.758715 0.272493
O O21 0.195542 0.500000 0.722882
#
# Coordination Sequence:
#
# PCOD9177932 Si02
#       8
#     8   8   8   8   8   8   8   8
#     4   9  16  26  42  63  86 118 158 196 230 261
#     4   9  15  26  46  67  90 122 162 202 232 260
#     4   9  15  27  47  69  89 119 167 211 236 259
#     4   9  18  34  55  75  93 116 149 186 225 278
#     4   9  17  28  44  70 100 123 146 182 232 283
#     4   9  17  29  44  61  86 120 156 190 223 265
#     4  10  19  30  45  65  91 122 158 197 233 268
#     4  10  20  33  47  65  91 119 147 183 229 280
#
# _framework density 15.916024
#
# number of rings (size 3 to 8) (size 9 to 14) (size 15 to 20)
#    0.000    2.750    1.250    1.125    0.000    4.750 
#    0.000    0.625    0.000    0.750    0.000    0.875 
#    0.000    0.000    0.000    0.000    0.000    0.000 
#
# Total GULP energy -178386.047008 kJ/mol
# GULP energy per Si atom -5574.563969 kJ/mol
# Density = 1.587980 g / cm^3
# Si number density = 15.916024 Si / 1000 Ang^3
#
#
#
# Elastic Constant Matrix: (Units=GPa)
#
#
# Indices 1 2 3 4 5 6 
#
# 1 131.4530 61.0951 48.8141 -0.0024 13.8036 0.0005
# 2 61.0951 71.8721 44.4049 -0.0038 10.2048 0.0012
# 3 48.8141 44.4049 66.4842 -0.0048 17.6928 0.0020
# 4 -0.0024 -0.0038 -0.0048 10.1213 0.0033 -0.4964
# 5 13.8036 10.2048 17.6928 0.0033 18.1327 -0.0009
# 6 0.0005 0.0012 0.0020 -0.4964 -0.0009 20.3846
#
#
#
# Elastic Compliance Matrix: (Units=1/GPa)
#
#
# Indices 1 2 3 4 5 6 
#
# 1 0.013139 -0.008939 -0.003179 -0.000001 -0.001869 0.000000
# 2 -0.008939 0.029880 -0.014493 0.000001 0.004130 0.000000
# 3 -0.003179 -0.014493 0.032742 0.000016 -0.021372 -0.000003
# 4 -0.000001 0.000001 0.000016 0.098920 -0.000034 0.002409
# 5 -0.001869 0.004130 -0.021372 -0.000034 0.075101 0.000005
# 6 0.000000 0.000000 -0.000003 0.002409 0.000005 0.049115
#
#
# Mechanical properties :
#
#
# Convention : Reuss Voigt Hill
#
# Bulk Modulus (GPa) = 44.36600 64.27085 54.31842
# Shear Modulus (GPa) = 13.90312 17.42738 15.66525
#
# Velocity S-wave (km/s) = 2.95876 3.31261 3.14067
# Velocity P-wave (km/s) = 6.29348 7.42294 6.88142
#
# Compressibility (1/GPa) = 0.02253978
#
# Stress axis : x y z
#
# Youngs Moduli (GPa) = 76.11150 33.46709 30.54159
#
# Poissons Ratio (x) = 0.29917 0.09708
# Poissons Ratio (y) = 0.68038 0.44263
# Poissons Ratio (z) = 0.24193 0.48503
#
# Static dielectric constant tensor:
#      x y z
#    x 1.543630 0.000000 -0.013680 
#    y 0.000000 1.538690 0.000000 
#    z -0.013680 0.000000 1.518680 
# 
# From -- ./inp_files/326848.got.cif
#   From: 2010.05.17/outbox.cif.g08.bks.cpg/sg12_164_cif.got.tgz:326848.got - 2010.06.03 13:09:07.
