data_PCOD9177174
_publ_section_title
;
Structure prediction by ZEFSAII (Michael W. Deem and Ramdas Pophale) SiO2 
 PCOD9177174
Probable space group: C 2/M
;
_chemical_formula_sum "Si O2"
_cell_formula_units_Z 52
_cell_length_a 19.271698
_cell_length_b 11.540767
_cell_length_c 15.003948
_cell_angle_alpha 90.000000
_cell_angle_beta 131.415358
_cell_angle_gamma 90.000000
_cell_volume 2502.552060
_symmetry_space_group_name_H-M "C 2/M"
_symmetry_group_IT_number 12
_symmetry_cell_setting 'monoclinic'
loop_
_space_group_symop_operation_xyz
x,y,z
-x,y,-z
-x,-y,-z
x,-y,z
1/2+x,1/2+y,z
1/2-x,1/2+y,-z
1/2-x,1/2-y,-z
1/2+x,1/2-y,z
loop_
_atom_site_type_symbol
_atom_site_label
_atom_site_fract_x
_atom_site_fract_y
_atom_site_fract_z
Si Si1 0.735991 0.135913 0.754874
Si Si2 0.514741 0.634971 0.250476
Si Si3 0.293604 0.000000 0.697348
Si Si4 0.608193 0.500000 0.617476
Si Si5 0.902438 0.500000 0.968896
Si Si6 0.438428 0.740002 0.358676
Si Si7 0.798533 0.750484 0.635698
Si Si8 0.916188 0.241277 0.002351
O O1 0.637935 0.161499 0.717730
O O2 0.732643 0.201498 0.657030
O O3 0.823361 0.191336 0.879627
O O4 0.750726 0.000000 0.755738
O O5 0.507745 0.500000 0.268449
O O6 0.500148 0.714298 0.325011
O O7 0.614256 0.665218 0.294691
O O8 0.443501 0.668835 0.112345
O O9 0.181555 0.000000 0.599444
O O10 0.323702 0.000000 0.825962
O O11 0.328423 0.880637 0.685046
O O12 0.500000 0.500000 0.500000
O O13 0.619569 0.620134 0.678309
O O14 0.900433 0.376135 0.014924
O O15 0.000000 0.500000 0.000000
O O16 0.500000 0.758117 0.500000
O O17 0.750000 0.750000 0.500000
O O18 0.000000 0.235769 0.000000
#
# Coordination Sequence:
#
# PCOD9177174 Si02
#       8
#     8   8   4   4   4   8   8   8
#     4  12  25  45  68  97 140 185 224 282 348 407
#     4  12  26  43  69 103 138 179 229 284 343 411
#     4  12  22  44  68 100 131 179 232 281 340 410
#     4  10  20  38  70  90 122 171 229 280 318 396
#     4  10  18  38  68  92 132 169 220 282 336 401
#     4  11  24  45  69  97 134 182 231 277 340 408
#     4  12  26  40  67 104 137 175 230 281 344 404
#     4  11  22  43  69 103 133 176 227 282 351 404
#
# _framework density 20.778789
#
# number of rings (size 3 to 8) (size 9 to 14) (size 15 to 20)
#    0.000    0.615    5.385    2.769    4.308    1.538 
#    2.769    0.000    0.000    0.000    0.000    0.000 
#    0.000    0.000    0.000    0.000    0.000    0.000 
#
# Total GULP energy -145327.198720 kJ/mol
# GULP energy per Si atom -5589.507643 kJ/mol
# Density = 2.073150 g / cm^3
# Si number density = 20.778789 Si / 1000 Ang^3
#
#
#
# Elastic Constant Matrix: (Units=GPa)
#
#
# Indices 1 2 3 4 5 6 
#
# 1 60.1645 9.7969 11.7763 0.0000 3.1132 0.0000
# 2 9.7969 104.5056 1.5537 0.0000 10.3674 0.0000
# 3 11.7763 1.5537 75.0972 0.0000 10.8848 0.0000
# 4 0.0000 0.0000 0.0000 15.5439 0.0000 0.5211
# 5 3.1132 10.3674 10.8848 0.0000 27.6320 0.0000
# 6 0.0000 0.0000 0.0000 0.5211 0.0000 33.0276
#
#
#
# Elastic Compliance Matrix: (Units=1/GPa)
#
#
# Indices 1 2 3 4 5 6 
#
# 1 0.017411 -0.001560 -0.002650 0.000000 -0.000333 0.000000
# 2 -0.001560 0.010087 0.000593 0.000000 -0.003843 0.000000
# 3 -0.002650 0.000593 0.014538 0.000000 -0.005651 0.000000
# 4 0.000000 0.000000 0.000000 0.064368 0.000000 -0.001016
# 5 -0.000333 -0.003843 -0.005651 0.000000 0.039895 0.000000
# 6 0.000000 0.000000 0.000000 -0.001016 0.000000 0.030294
#
#
# Mechanical properties :
#
#
# Convention : Reuss Voigt Hill
#
# Bulk Modulus (GPa) = 28.73293 31.78013 30.25653
# Shear Modulus (GPa) = 25.58484 29.68339 27.63412
#
# Velocity S-wave (km/s) = 3.51279 3.78371 3.65076
# Velocity P-wave (km/s) = 5.50554 5.86654 5.68890
#
# Compressibility (1/GPa) = 0.03480327
#
# Stress axis : x y z
#
# Youngs Moduli (GPa) = 57.43506 99.13289 68.78347
#
# Poissons Ratio (x) = 0.15463 0.18226
# Poissons Ratio (y) = 0.08959 -0.04078
# Poissons Ratio (z) = 0.15219 -0.05877
#
# Static dielectric constant tensor:
#      x y z
#    x 1.741050 0.000000 0.013750 
#    y 0.000000 1.736860 0.000000 
#    z 0.013750 0.000000 1.741450 
# 
# From -- ./inp_files/232641.got.cif
#   From: 2010.05.17/outbox.cif.g08.bks.cpg/sg12_117_cif.got.tgz:232641.got - 2010.06.03 13:09:07.
