data_PCOD9177872
_publ_section_title
;
Structure prediction by ZEFSAII (Michael W. Deem and Ramdas Pophale) SiO2 
 PCOD9177872
Probable space group: C 2/M
;
_chemical_formula_sum "Si O2"
_cell_formula_units_Z 48
_cell_length_a 14.158574
_cell_length_b 28.430248
_cell_length_c 5.161392
_cell_angle_alpha 90.000000
_cell_angle_beta 97.466389
_cell_angle_gamma 90.000000
_cell_volume 2060.008623
_symmetry_space_group_name_H-M "C 2/M"
_symmetry_group_IT_number 12
_symmetry_cell_setting 'monoclinic'
loop_
_space_group_symop_operation_xyz
x,y,z
-x,y,-z
-x,-y,-z
x,-y,z
1/2+x,1/2+y,z
1/2-x,1/2+y,-z
1/2-x,1/2-y,-z
1/2+x,1/2-y,z
loop_
_atom_site_type_symbol
_atom_site_label
_atom_site_fract_x
_atom_site_fract_y
_atom_site_fract_z
Si Si1 0.104229 0.049054 0.648079
Si Si2 0.310529 0.119661 0.032482
Si Si3 0.638517 0.783738 0.173331
Si Si4 0.365005 0.730889 0.333385
Si Si5 0.201893 0.555768 0.488298
Si Si6 0.100911 0.854784 0.907866
O O1 0.182800 0.056106 0.453631
O O2 0.101144 0.091040 0.841415
O O3 0.000000 0.046407 0.500000
O O4 0.131317 0.000000 0.789466
O O5 0.371251 0.163262 0.936457
O O6 0.309938 0.081639 0.795746
O O7 0.209172 0.146990 0.064006
O O8 0.337506 0.089617 0.297833
O O9 0.599669 0.765344 0.431732
O O10 0.750614 0.773087 0.265360
O O11 0.604055 0.750205 0.933240
O O12 0.395453 0.676706 0.352077
O O13 0.172089 0.500000 0.484922
O O14 0.000000 0.843654 0.000000
#
# Coordination Sequence:
#
# PCOD9177872 Si02
#       6
#     8   8   8   8   8   8
#     4   9  18  30  43  59  84 120 158 194 228 263
#     4  10  19  31  48  65  87 119 153 188 222 264
#     4   9  17  31  47  64  82 108 147 184 222 266
#     4   9  18  30  46  64  84 107 141 190 229 265
#     4  10  19  30  44  65  90 116 149 186 225 263
#     4  10  20  30  44  65  89 116 152 194 236 268
#
# _framework density 23.300875999999999
#
# number of rings (size 3 to 8) (size 9 to 14) (size 15 to 20)
#    0.000    2.500    0.000    2.500    0.000   10.333 
#    0.000    0.000    0.000    0.000    0.000    0.000 
#    0.000    0.000    0.000    0.000    0.000   58.333 
#
# Total GULP energy -133621.466984 kJ/mol
# GULP energy per Si atom -5567.561124 kJ/mol
# Density = 2.324784 g / cm^3
# Si number density = 23.300876 Si / 1000 Ang^3
#
#
#
# Elastic Constant Matrix: (Units=GPa)
#
#
# Indices 1 2 3 4 5 6 
#
# 1 24.5812 8.9897 14.5680 0.0000 -6.8245 0.0000
# 2 8.9897 115.9291 36.1454 0.0000 -15.3017 0.0000
# 3 14.5680 36.1454 120.6052 0.0000 -8.8805 0.0000
# 4 0.0000 0.0000 0.0000 30.7423 0.0000 2.5187
# 5 -6.8245 -15.3017 -8.8805 0.0000 16.7401 0.0000
# 6 0.0000 0.0000 0.0000 2.5187 0.0000 84.3766
#
#
#
# Elastic Compliance Matrix: (Units=1/GPa)
#
#
# Indices 1 2 3 4 5 6 
#
# 1 0.048158 -0.000053 -0.004536 0.000000 0.017178 0.000000
# 2 -0.000053 0.010508 -0.002536 0.000000 0.008238 0.000000
# 3 -0.004536 -0.002536 0.009670 0.000000 0.000962 0.000000
# 4 0.000000 0.000000 0.000000 0.032608 0.000000 -0.000973
# 5 0.017178 0.008238 0.000962 0.000000 0.074781 0.000000
# 6 0.000000 0.000000 0.000000 -0.000973 0.000000 0.011881
#
#
# Mechanical properties :
#
#
# Convention : Reuss Voigt Hill
#
# Bulk Modulus (GPa) = 18.48894 42.28019 30.38456
# Shear Modulus (GPa) = 22.73897 39.79928 31.26912
#
# Velocity S-wave (km/s) = 3.12730 4.13735 3.66727
# Velocity P-wave (km/s) = 4.58172 6.40377 5.56778
#
# Compressibility (1/GPa) = 0.05408640
#
# Stress axis : x y z
#
# Youngs Moduli (GPa) = 20.76478 95.16330 103.40746
#
# Poissons Ratio (x) = 0.00500 0.46910
# Poissons Ratio (y) = 0.00109 0.26228
# Poissons Ratio (z) = 0.09420 0.24137
#
# Static dielectric constant tensor:
#      x y z
#    x 2.070150 0.000000 -0.023430 
#    y 0.000000 2.040770 0.000000 
#    z -0.023430 0.000000 1.868740 
# 
# From -- ./inp_files/16673.got.cif
#   From: 2010.05.17/outbox.cif.g08.bks.cpg/sg12_9_cif.got.tgz:16673.got - 2010.06.03 13:09:07.
