data_PCOD9177055
_publ_section_title
;
Structure prediction by ZEFSAII (Michael W. Deem and Ramdas Pophale) SiO2 
 PCOD9177055
Probable space group: C 2/M
;
_chemical_formula_sum "Si O2"
_cell_formula_units_Z 44
_cell_length_a 16.681237
_cell_length_b 16.580920
_cell_length_c 9.573409
_cell_angle_alpha 90.000000
_cell_angle_beta 50.790237
_cell_angle_gamma 90.000000
_cell_volume 2051.699340
_symmetry_space_group_name_H-M "C 2/M"
_symmetry_group_IT_number 12
_symmetry_cell_setting 'monoclinic'
loop_
_space_group_symop_operation_xyz
x,y,z
-x,y,-z
-x,-y,-z
x,-y,z
1/2+x,1/2+y,z
1/2-x,1/2+y,-z
1/2-x,1/2-y,-z
1/2+x,1/2-y,z
loop_
_atom_site_type_symbol
_atom_site_label
_atom_site_fract_x
_atom_site_fract_y
_atom_site_fract_z
Si Si1 0.021870 0.086674 0.310622
Si Si2 0.328739 0.723948 0.796291
Si Si3 0.317660 0.233455 0.285952
Si Si4 0.101988 0.588126 0.660714
Si Si5 0.500000 0.151468 0.500000
Si Si6 0.160727 0.910644 0.708250
O O1 0.099040 0.159161 0.209349
O O2 0.000000 0.086901 0.500000
O O3 0.918411 0.095367 0.334421
O O4 0.068719 0.000000 0.222542
O O5 0.258394 0.695084 0.744539
O O6 0.403565 0.792237 0.650096
O O7 0.250000 0.750000 0.000000
O O8 0.250000 0.250000 0.500000
O O9 0.402778 0.167426 0.236332
O O10 0.351942 0.323921 0.200995
O O11 0.079998 0.500000 0.748284
O O12 0.032811 0.601648 0.599728
O O13 0.221196 0.586196 0.475410
O O14 0.140467 0.000000 0.797220
#
# Coordination Sequence:
#
# PCOD9177055 Si02
#       6
#     8   8   8   8   4   8
#     4  10  19  35  63  94 125 169 216 267 329 385
#     4  12  25  40  65  99 131 169 216 269 329 392
#     4  10  18  37  61  85 126 167 205 262 317 377
#     4  10  20  34  63  95 121 172 221 259 319 394
#     4  12  21  42  65  86 134 170 217 266 330 400
#     4   9  17  32  57  89 118 157 211 259 312 375
#
# _framework density 21.445637000000001
#
# number of rings (size 3 to 8) (size 9 to 14) (size 15 to 20)
#    0.000    1.636    4.545    3.545    0.000    2.182 
#    0.000    6.364    0.000    3.273    0.000    0.000 
#    0.000    0.000    0.000    0.000    0.000    0.000 
#
# Total GULP energy -122704.244678 kJ/mol
# GULP energy per Si atom -5577.465667 kJ/mol
# Density = 2.139683 g / cm^3
# Si number density = 21.445637 Si / 1000 Ang^3
#
#
#
# Elastic Constant Matrix: (Units=GPa)
#
#
# Indices 1 2 3 4 5 6 
#
# 1 110.1645 10.3771 -1.0856 0.0000 -6.4648 0.0000
# 2 10.3771 151.9708 -0.0760 0.0000 -10.4335 0.0000
# 3 -1.0856 -0.0760 50.4641 0.0000 6.0288 0.0000
# 4 0.0000 0.0000 0.0000 -19.9513 0.0000 5.5807
# 5 -6.4648 -10.4335 6.0288 0.0000 15.9922 0.0000
# 6 0.0000 0.0000 0.0000 5.5807 0.0000 16.8280
#
#
#
# Elastic Compliance Matrix: (Units=1/GPa)
#
#
# Indices 1 2 3 4 5 6 
#
# 1 0.009323 -0.000389 -0.000230 0.000000 0.003602 0.000000
# 2 -0.000389 0.006920 -0.000543 0.000000 0.004562 0.000000
# 3 -0.000230 -0.000543 0.020801 0.000000 -0.008289 0.000000
# 4 0.000000 0.000000 0.000000 -0.045867 0.000000 0.015211
# 5 0.003602 0.004562 -0.008289 0.000000 0.070088 0.000000
# 6 0.000000 0.000000 0.000000 0.015211 0.000000 0.054380
#
#
# Mechanical properties :
#
#
# Convention : Reuss Voigt Hill
#
# Bulk Modulus (GPa) = 28.80355 36.78116 32.79235
# Shear Modulus (GPa) = 38.59752 22.79936 30.69844
#
# Velocity S-wave (km/s) = 4.24699 3.26409 3.78756
# Velocity P-wave (km/s) = 6.12449 5.60302 5.86955
#
# Compressibility (1/GPa) = 0.03471795
#
# Stress axis : x y z
#
# Youngs Moduli (GPa) = 107.26040 144.51446 48.07568
#
# Poissons Ratio (x) = 0.05628 0.01107
# Poissons Ratio (y) = 0.04177 0.02610
# Poissons Ratio (z) = 0.02470 0.07846
#
# Static dielectric constant tensor:
#      x y z
#    x 1.765290 0.000000 0.002870 
#    y 0.000000 1.898340 0.000000 
#    z 0.002870 0.000000 1.741900 
# 
# From -- ./inp_files/145352.got.cif
#   From: 2010.05.17/outbox.cif.g08.bks.cpg/sg12_73_cif.got.tgz:145352.got - 2010.06.03 13:09:07.
