data_PCOD9177258
_publ_section_title
;
Structure prediction by ZEFSAII (Michael W. Deem and Ramdas Pophale) SiO2 
 PCOD9177258
Probable space group: C 2/M
;
_chemical_formula_sum "Si O2"
_cell_formula_units_Z 52
_cell_length_a 5.507186
_cell_length_b 19.127558
_cell_length_c 25.931098
_cell_angle_alpha 90.000000
_cell_angle_beta 77.499572
_cell_angle_gamma 90.000000
_cell_volume 2666.803230
_symmetry_space_group_name_H-M "C 2/M"
_symmetry_group_IT_number 12
_symmetry_cell_setting 'monoclinic'
loop_
_space_group_symop_operation_xyz
x,y,z
-x,y,-z
-x,-y,-z
x,-y,z
1/2+x,1/2+y,z
1/2-x,1/2+y,-z
1/2-x,1/2-y,-z
1/2+x,1/2-y,z
loop_
_atom_site_type_symbol
_atom_site_label
_atom_site_fract_x
_atom_site_fract_y
_atom_site_fract_z
Si Si1 0.720580 0.414666 0.528810
Si Si2 0.329072 0.402502 0.870548
Si Si3 0.130389 0.385600 0.171054
Si Si4 0.228349 0.748011 0.093111
Si Si5 0.957745 0.414631 0.289488
Si Si6 0.397173 0.415407 0.349377
Si Si7 0.716914 0.500000 0.032668
O O1 0.500000 0.392848 0.500000
O O2 0.720951 0.500000 0.528280
O O3 0.659148 0.391790 0.589805
O O4 0.000000 0.392939 0.500000
O O5 0.599528 0.421211 0.836517
O O6 0.310527 0.318869 0.873035
O O7 0.316075 0.433528 0.928372
O O8 0.087491 0.424935 0.849891
O O9 0.185497 0.317118 0.133443
O O10 0.025836 0.376850 0.232974
O O11 0.510037 0.750715 0.061936
O O12 0.965162 0.500000 0.281693
O O13 0.676554 0.395626 0.319181
O O14 0.171095 0.396299 0.321439
O O15 0.397798 0.500000 0.350336
O O16 0.500000 0.500000 0.000000
O O17 0.000000 0.500000 0.000000
#
# Coordination Sequence:
#
# PCOD9177258 Si02
#       7
#     8   8   8   8   8   8   4
#     4   9  15  23  37  52  70 112 177 226 254 297
#     4  10  21  36  58  78 105 134 169 207 244 295
#     4  10  19  33  55  78 102 133 176 207 249 302
#     4   8  16  32  53  76  99 129 166 206 240 284
#     4  10  19  27  41  65  99 129 160 202 261 320
#     4   9  17  28  36  55  92 129 161 217 271 306
#     4  12  26  42  60  84 114 140 166 208 256 294
#
# _framework density 19.498999999999999
#
# number of rings (size 3 to 8) (size 9 to 14) (size 15 to 20)
#    0.000    2.462    0.000    2.769    2.154    3.692 
#    0.000    0.000    0.000   24.923    0.000    0.000 
#    0.000    0.000    0.000    0.000    0.000  484.615 
#
# Total GULP energy -144748.303393 kJ/mol
# GULP energy per Si atom -5567.242438 kJ/mol
# Density = 1.945462 g / cm^3
# Si number density = 19.499000 Si / 1000 Ang^3
#
#
#
# Elastic Constant Matrix: (Units=GPa)
#
#
# Indices 1 2 3 4 5 6 
#
# 1 181.0551 0.7416 22.8460 0.0000 -1.6619 0.0000
# 2 0.7416 43.5184 -6.9319 0.0000 2.6312 0.0000
# 3 22.8460 -6.9319 74.2027 0.0000 2.9082 0.0000
# 4 0.0000 0.0000 0.0000 -4.4340 0.0000 9.8222
# 5 -1.6619 2.6312 2.9082 0.0000 42.5172 0.0000
# 6 0.0000 0.0000 0.0000 9.8222 0.0000 -32.0138
#
#
#
# Elastic Compliance Matrix: (Units=1/GPa)
#
#
# Indices 1 2 3 4 5 6 
#
# 1 0.005759 -0.000412 -0.001826 0.000000 0.000375 0.000000
# 2 -0.000412 0.023464 0.002383 0.000000 -0.001631 0.000000
# 3 -0.001826 0.002383 0.014308 0.000000 -0.001198 0.000000
# 4 0.000000 0.000000 0.000000 -0.704038 0.000000 -0.216008
# 5 0.000375 -0.001631 -0.001198 0.000000 0.023717 0.000000
# 6 0.000000 0.000000 0.000000 -0.216008 0.000000 -0.097511
#
#
# Mechanical properties :
#
#
# Convention : Reuss Voigt Hill
#
# Bulk Modulus (GPa) = 22.82040 36.89864 29.85952
# Shear Modulus (GPa) = -6.94461 20.02193 6.53866
#
# Velocity S-wave (km/s) = -1.88925 3.20788 1.83320
# Velocity P-wave (km/s) = 2.64003 5.71709 4.45280
#
# Compressibility (1/GPa) = 0.04382045
#
# Stress axis : x y z
#
# Youngs Moduli (GPa) = 173.64884 42.61862 69.88913
#
# Poissons Ratio (x) = 0.01755 0.12763
# Poissons Ratio (y) = 0.07150 -0.16652
# Poissons Ratio (z) = 0.31712 -0.10155
#
# Static dielectric constant tensor:
#      x y z
#    x 1.772930 0.000000 -0.004400 
#    y 0.000000 1.674690 0.000000 
#    z -0.004400 0.000000 1.646200 
# 
# From -- ./inp_files/331169.got.cif
#   From: 2010.05.17/outbox.cif.g08.bks.cpg/sg12_166_cif.got.tgz:331169.got - 2010.06.03 13:09:07.
