data_PCOD9177908
_publ_section_title
;
Structure prediction by ZEFSAII (Michael W. Deem and Ramdas Pophale) SiO2 
 PCOD9177908
Probable space group: C 2/M
;
_chemical_formula_sum "Si O2"
_cell_formula_units_Z 48
_cell_length_a 22.879729
_cell_length_b 7.460501
_cell_length_c 29.691505
_cell_angle_alpha 90.000000
_cell_angle_beta 150.801583
_cell_angle_gamma 90.000000
_cell_volume 2472.432925
_symmetry_space_group_name_H-M "C 2/M"
_symmetry_group_IT_number 12
_symmetry_cell_setting 'monoclinic'
loop_
_space_group_symop_operation_xyz
x,y,z
-x,y,-z
-x,-y,-z
x,-y,z
1/2+x,1/2+y,z
1/2-x,1/2+y,-z
1/2-x,1/2-y,-z
1/2+x,1/2-y,z
loop_
_atom_site_type_symbol
_atom_site_label
_atom_site_fract_x
_atom_site_fract_y
_atom_site_fract_z
Si Si1 0.550756 0.289694 0.482892
Si Si2 0.132558 0.293638 0.091518
Si Si3 0.293525 0.780720 0.682165
Si Si4 0.062368 0.284284 0.860316
Si Si5 0.715883 0.711782 0.049524
Si Si6 0.696049 0.280442 0.714975
O O1 0.500000 0.280380 0.500000
O O2 0.562512 0.500000 0.479444
O O3 0.685468 0.216899 0.577251
O O4 0.442117 0.216500 0.379791
O O5 0.114779 0.500000 0.094431
O O6 0.187094 0.291798 0.078426
O O7 0.224913 0.217129 0.190039
O O8 0.000000 0.210677 0.000000
O O9 0.427607 0.720439 0.761580
O O10 0.259181 0.731339 0.710309
O O11 0.292390 0.000000 0.680184
O O12 0.061316 0.500000 0.856361
O O13 0.163797 0.218055 0.893923
O O14 0.109341 0.240990 0.941982
O O15 0.729535 0.500000 0.065390
O O16 0.690307 0.500000 0.711766
#
# Coordination Sequence:
#
# PCOD9177908 Si02
#       6
#     8   8   8   8   8   8
#     4   7  10  17  32  58  87 106 125 165 215 248
#     4  10  19  30  45  63  85 115 146 173 205 251
#     4   8  12  21  40  63  84 105 133 171 211 249
#     4   9  17  30  47  64  83 110 143 176 210 251
#     4  10  20  31  43  62  87 113 141 175 214 251
#     4   8  13  21  36  61  88 109 132 168 212 249
#
# _framework density 19.414073999999999
#
# number of rings (size 3 to 8) (size 9 to 14) (size 15 to 20)
#    0.000    3.333    0.000    3.500    0.000    3.667 
#    0.000    0.000    0.000    1.000    0.000    1.167 
#    0.000    5.333    0.000    0.000    0.000    0.500 
#
# Total GULP energy -133716.119375 kJ/mol
# GULP energy per Si atom -5571.504974 kJ/mol
# Density = 1.936989 g / cm^3
# Si number density = 19.414074 Si / 1000 Ang^3
#
#
#
# Elastic Constant Matrix: (Units=GPa)
#
#
# Indices 1 2 3 4 5 6 
#
# 1 55.9359 -3.5366 67.7592 -0.0001 -5.3973 -0.0015
# 2 -3.5366 57.0724 8.7832 -0.0003 0.9780 -0.0043
# 3 67.7592 8.7832 228.2714 0.0000 7.1787 -0.0003
# 4 -0.0001 -0.0003 0.0000 -2.9662 0.0000 1.9765
# 5 -5.3973 0.9780 7.1787 0.0000 26.5026 -0.0005
# 6 -0.0015 -0.0043 -0.0003 1.9765 -0.0005 17.1447
#
#
#
# Elastic Compliance Matrix: (Units=1/GPa)
#
#
# Indices 1 2 3 4 5 6 
#
# 1 0.030264 0.003171 -0.009375 0.000001 0.008586 0.000003
# 2 0.003171 0.017964 -0.001646 0.000001 0.000429 0.000005
# 3 -0.009375 -0.001646 0.007348 0.000000 -0.003839 -0.000001
# 4 0.000001 0.000001 0.000000 -0.313079 0.000001 0.036093
# 5 0.008586 0.000429 -0.003839 0.000001 0.040505 0.000002
# 6 0.000003 0.000005 -0.000001 0.036093 0.000002 0.054166
#
#
# Mechanical properties :
#
#
# Convention : Reuss Voigt Hill
#
# Bulk Modulus (GPa) = 25.07844 54.14346 39.61095
# Shear Modulus (GPa) = -37.35782 26.02114 -5.66834
#
# Velocity S-wave (km/s) = -4.39140 3.66501 -1.71057
# Velocity P-wave (km/s) = 3.57307 6.77193 4.06769
#
# Compressibility (1/GPa) = 0.03987489
#
# Stress axis : x y z
#
# Youngs Moduli (GPa) = 33.04302 55.66666 136.09618
#
# Poissons Ratio (x) = -0.17652 1.27595
# Poissons Ratio (y) = -0.10478 0.22401
# Poissons Ratio (z) = 0.30979 0.09163
#
# Static dielectric constant tensor:
#      x y z
#    x 1.630400 0.000000 0.023490 
#    y 0.000000 1.729430 0.000000 
#    z 0.023490 0.000000 1.729180 
# 
# From -- ./inp_files/348286.got.cif
#   From: 2010.05.17/outbox.cif.g08.bks.cpg/sg12_175_cif.got.tgz:348286.got - 2010.06.03 13:09:07.
