data_PCOD9177467
_publ_section_title
;
Structure prediction by ZEFSAII (Michael W. Deem and Ramdas Pophale) SiO2 
 PCOD9177467
Probable space group: C 2/M
;
_chemical_formula_sum "Si O2"
_cell_formula_units_Z 56
_cell_length_a 14.433322
_cell_length_b 9.390936
_cell_length_c 19.069330
_cell_angle_alpha 90.000000
_cell_angle_beta 87.044232
_cell_angle_gamma 90.000000
_cell_volume 2581.264230
_symmetry_space_group_name_H-M "C 2/M"
_symmetry_group_IT_number 12
_symmetry_cell_setting 'monoclinic'
loop_
_space_group_symop_operation_xyz
x,y,z
-x,y,-z
-x,-y,-z
x,-y,z
1/2+x,1/2+y,z
1/2-x,1/2+y,-z
1/2-x,1/2-y,-z
1/2+x,1/2-y,z
loop_
_atom_site_type_symbol
_atom_site_label
_atom_site_fract_x
_atom_site_fract_y
_atom_site_fract_z
Si Si1 0.392582 0.338250 0.155462
Si Si2 0.363385 0.162297 0.565490
Si Si3 0.384350 0.337767 0.853469
Si Si4 0.863618 0.162168 0.427811
Si Si5 0.861070 0.340939 0.294675
Si Si6 0.641008 0.338554 0.300176
Si Si7 0.892137 0.826096 0.003003
O O1 0.359120 0.500000 0.170981
O O2 0.504183 0.347280 0.144584
O O3 0.373552 0.233785 0.219642
O O4 0.355156 0.287209 0.081290
O O5 0.249831 0.158164 0.569342
O O6 0.390360 0.249476 0.495404
O O7 0.393693 0.242486 0.634917
O O8 0.396180 0.000000 0.562058
O O9 0.346365 0.500000 0.850073
O O10 0.367592 0.272555 0.777574
O O11 0.352759 0.275163 0.929714
O O12 0.894878 0.240894 0.356029
O O13 0.896483 0.000000 0.429807
O O14 0.901155 0.500000 0.295096
O O15 0.750573 0.353201 0.309056
O O16 0.600448 0.500000 0.301387
O O17 0.890048 0.000000 0.000853
O O18 0.000000 0.781849 0.000000
#
# Coordination Sequence:
#
# PCOD9177467 Si02
#       7
#     8   8   8   8   8   8   8
#     4   9  16  28  48  69  87 112 150 191 225 259
#     4   9  16  26  42  65  91 116 144 181 223 262
#     4   8  14  27  48  69  86 111 152 193 221 253
#     4   9  16  27  44  64  86 115 152 186 214 253
#     4  10  19  29  42  64  95 123 145 176 222 270
#     4   9  17  29  45  65  90 120 151 181 216 262
#     4   7  11  22  43  68  86 105 144 193 226 250
#
# _framework density 21.694794999999999
#
# number of rings (size 3 to 8) (size 9 to 14) (size 15 to 20)
#    0.000    3.286    0.000    3.000    0.000    4.000 
#    0.000    1.429    0.000    5.571    0.000    6.000 
#    0.000    0.000    0.000    0.000    0.000    0.000 
#
# Total GULP energy -156080.482478 kJ/mol
# GULP energy per Si atom -5574.302946 kJ/mol
# Density = 2.164542 g / cm^3
# Si number density = 21.694795 Si / 1000 Ang^3
#
#
#
# Elastic Constant Matrix: (Units=GPa)
#
#
# Indices 1 2 3 4 5 6 
#
# 1 49.5623 4.8702 -3.1225 0.0000 8.8834 0.0000
# 2 4.8702 130.7452 113.1357 0.0000 -8.3122 0.0000
# 3 -3.1225 113.1357 257.0017 0.0000 8.7912 0.0000
# 4 0.0000 0.0000 0.0000 -6.6966 0.0000 -3.2720
# 5 8.8834 -8.3122 8.7912 0.0000 21.7132 0.0000
# 6 0.0000 0.0000 0.0000 -3.2720 0.0000 3.1803
#
#
#
# Elastic Compliance Matrix: (Units=1/GPa)
#
#
# Indices 1 2 3 4 5 6 
#
# 1 0.022724 -0.003488 0.002206 0.000000 -0.011525 0.000000
# 2 -0.003488 0.014047 -0.006550 0.000000 0.009456 0.000000
# 3 0.002206 -0.006550 0.007015 0.000000 -0.006250 0.000000
# 4 0.000000 0.000000 0.000000 -0.099375 0.000000 -0.102240
# 5 -0.011525 0.009456 -0.006250 0.000000 0.056921 0.000000
# 6 0.000000 0.000000 0.000000 -0.102240 0.000000 0.209247
#
#
# Mechanical properties :
#
#
# Convention : Reuss Voigt Hill
#
# Bulk Modulus (GPa) = 35.55858 74.11956 54.83907
# Shear Modulus (GPa) = 21.22095 25.13444 23.17769
#
# Velocity S-wave (km/s) = 3.13095 3.40744 3.27211
# Velocity P-wave (km/s) = 5.43106 7.05122 6.29349
#
# Compressibility (1/GPa) = 0.02812260
#
# Stress axis : x y z
#
# Youngs Moduli (GPa) = 44.00617 71.18984 142.55579
#
# Poissons Ratio (x) = 0.24830 -0.31444
# Poissons Ratio (y) = 0.15349 0.93367
# Poissons Ratio (z) = -0.09707 0.46626
#
# Static dielectric constant tensor:
#      x y z
#    x 1.851600 0.000000 -0.006180 
#    y 0.000000 1.757790 0.000000 
#    z -0.006180 0.000000 1.820790 
# 
# From -- ./inp_files/280294.got.cif
#   From: 2010.05.17/outbox.cif.g08.bks.cpg/sg12_141_cif.got.tgz:280294.got - 2010.06.03 13:09:07.
