data_PCOD9177091
_publ_section_title
;
Structure prediction by ZEFSAII (Michael W. Deem and Ramdas Pophale) SiO2 
 PCOD9177091
Probable space group: C 2/M
;
_chemical_formula_sum "Si O2"
_cell_formula_units_Z 46
_cell_length_a 19.742227
_cell_length_b 16.440773
_cell_length_c 17.970018
_cell_angle_alpha 90.000000
_cell_angle_beta 158.904649
_cell_angle_gamma 90.000000
_cell_volume 2099.298531
_symmetry_space_group_name_H-M "C 2/M"
_symmetry_group_IT_number 12
_symmetry_cell_setting 'monoclinic'
loop_
_space_group_symop_operation_xyz
x,y,z
-x,y,-z
-x,-y,-z
x,-y,z
1/2+x,1/2+y,z
1/2-x,1/2+y,-z
1/2-x,1/2-y,-z
1/2+x,1/2-y,z
loop_
_atom_site_type_symbol
_atom_site_label
_atom_site_fract_x
_atom_site_fract_y
_atom_site_fract_z
Si Si1 0.142488 0.376558 0.211769
Si Si2 0.608368 0.086573 0.904812
Si Si3 0.500000 0.364926 0.500000
Si Si4 0.500000 0.000000 0.500000
Si Si5 0.076969 0.379017 0.439492
Si Si6 0.686558 0.733846 0.819440
Si Si7 0.048165 0.187316 0.131767
O O1 0.351411 0.405269 0.404109
O O2 0.134848 0.277764 0.209188
O O3 0.050364 0.405019 0.194063
O O4 0.000000 0.400998 0.000000
O O5 0.505815 0.085784 0.720886
O O6 0.708587 0.000000 0.019165
O O7 0.745000 0.164230 0.054074
O O8 0.360579 0.312619 0.305372
O O9 0.513936 0.928697 0.448031
O O10 0.301720 0.369996 0.674870
O O11 0.994430 0.287536 0.351268
O O12 0.857888 0.796088 0.981555
O O13 0.000000 0.154803 0.000000
#
# Coordination Sequence:
#
# PCOD9177091 Si02
#       7
#     8   8   4   2   8   8   8
#     4  10  20  38  67  97 132 180 226 281 347 413
#     4  11  25  47  65  97 152 186 234 297 356 412
#     4  12  17  40  69 106 132 168 244 283 348 419
#     4  12  26  44  78 106 136 194 224 294 362 416
#     4  12  24  45  72  99 144 188 238 292 357 419
#     4  11  22  40  75 103 136 189 238 290 345 432
#     4  10  18  37  67 101 130 172 233 286 339 419
#
# _framework density 21.912081000000001
#
# number of rings (size 3 to 8) (size 9 to 14) (size 15 to 20)
#    0.000    1.043    7.826    2.087    0.000    3.130 
#    3.130    5.652    0.000    0.000    0.000    0.000 
#    0.000    0.000    0.000    0.000    0.000    0.000 
#
# Total GULP energy -128134.418781 kJ/mol
# GULP energy per Si atom -5571.061686 kJ/mol
# Density = 2.186221 g / cm^3
# Si number density = 21.912081 Si / 1000 Ang^3
#
#
#
# Elastic Constant Matrix: (Units=GPa)
#
#
# Indices 1 2 3 4 5 6 
#
# 1 95.0413 6.9776 35.4196 -0.0014 -25.7200 -0.0022
# 2 6.9776 58.9898 25.5761 0.0001 -13.1184 0.0022
# 3 35.4196 25.5761 112.9453 -0.0014 -10.4616 -0.0007
# 4 -0.0014 0.0001 -0.0014 -0.1782 -0.0001 -16.2322
# 5 -25.7200 -13.1184 -10.4616 -0.0001 45.4723 -0.0012
# 6 -0.0022 0.0022 -0.0007 -16.2322 -0.0012 1.5624
#
#
#
# Elastic Compliance Matrix: (Units=1/GPa)
#
#
# Indices 1 2 3 4 5 6 
#
# 1 0.013929 0.001779 -0.004081 -0.000002 0.007453 -0.000001
# 2 0.001779 0.019989 -0.004554 0.000002 0.005725 0.000000
# 3 -0.004081 -0.004554 0.011065 -0.000001 -0.001076 -0.000001
# 4 -0.000002 0.000002 -0.000001 -0.005923 -0.000002 -0.061541
# 5 0.007453 0.005725 -0.001076 -0.000002 0.027611 -0.000001
# 6 -0.000001 0.000000 -0.000001 -0.061541 -0.000001 0.000676
#
#
# Mechanical properties :
#
#
# Convention : Reuss Voigt Hill
#
# Bulk Modulus (GPa) = 31.97762 44.76923 38.37342
# Shear Modulus (GPa) = 54.65567 22.63816 38.64691
#
# Velocity S-wave (km/s) = 4.99973 3.21773 4.20423
# Velocity P-wave (km/s) = 6.92496 5.85497 6.41232
#
# Compressibility (1/GPa) = 0.03127187
#
# Stress axis : x y z
#
# Youngs Moduli (GPa) = 71.79396 50.02657 90.37422
#
# Poissons Ratio (x) = -0.08900 0.36878
# Poissons Ratio (y) = -0.12772 0.41158
# Poissons Ratio (z) = 0.29296 0.22783
#
# Static dielectric constant tensor:
#      x y z
#    x 1.806900 0.000000 0.007630 
#    y 0.000000 1.826780 0.000000 
#    z 0.007630 0.000000 1.783890 
# 
# From -- ./inp_files/285471.got.cif
#   From: 2010.05.17/outbox.cif.g08.bks.cpg/sg12_143_cif.got.tgz:285471.got - 2010.06.03 13:09:07.
