data_PCOD9177426
_publ_section_title
;
Structure prediction by ZEFSAII (Michael W. Deem and Ramdas Pophale) SiO2 
 PCOD9177426
Probable space group: C 2/M
;
_chemical_formula_sum "Si O2"
_cell_formula_units_Z 48
_cell_length_a 32.857644
_cell_length_b 7.172409
_cell_length_c 7.619668
_cell_angle_alpha 90.000000
_cell_angle_beta 102.528905
_cell_angle_gamma 90.000000
_cell_volume 1752.953510
_symmetry_space_group_name_H-M "C 2/M"
_symmetry_group_IT_number 12
_symmetry_cell_setting 'monoclinic'
loop_
_space_group_symop_operation_xyz
x,y,z
-x,y,-z
-x,-y,-z
x,-y,z
1/2+x,1/2+y,z
1/2-x,1/2+y,-z
1/2-x,1/2-y,-z
1/2+x,1/2-y,z
loop_
_atom_site_type_symbol
_atom_site_label
_atom_site_fract_x
_atom_site_fract_y
_atom_site_fract_z
Si Si1 0.062844 0.225710 0.557413
Si Si2 0.655738 0.273380 0.772174
Si Si3 0.715086 0.721049 0.113752
Si Si4 0.033638 0.226879 0.888238
Si Si5 0.688594 0.724952 0.443247
Si Si6 0.096039 0.774228 0.226763
O O1 0.065510 0.285471 0.357872
O O2 0.058915 0.000000 0.546110
O O3 0.108924 0.273492 0.674998
O O4 0.032230 0.287865 0.684624
O O5 0.656327 0.500000 0.776290
O O6 0.673696 0.210579 0.974205
O O7 0.750000 0.250000 0.000000
O O8 0.710811 0.500000 0.129793
O O9 0.719417 0.791584 0.317434
O O10 0.813810 0.710206 0.358310
O O11 0.077153 0.279428 0.022868
O O12 0.031238 0.000000 0.879824
O O13 0.000000 0.286877 0.000000
O O14 0.690901 0.500000 0.457585
O O15 0.642868 0.775722 0.322199
O O16 0.096003 0.000000 0.226686
#
# Coordination Sequence:
#
# PCOD9177426 Si02
#       6
#     8   8   8   8   8   8
#     4   8  13  21  32  44  59  83 117 154 186 216
#     4   8  14  25  40  55  70  92 125 162 194 225
#     4  10  19  29  42  60  81 103 127 159 199 238
#     4   9  15  19  24  38  61  88 117 151 190 225
#     4   8  14  25  40  55  70  92 125 162 194 225
#     4   8  13  21  32  44  59  83 117 154 186 216
#
# _framework density 27.382359000000001
#
# number of rings (size 3 to 8) (size 9 to 14) (size 15 to 20)
#    0.000    3.500    0.000    3.000    0.000    5.333 
#    0.000    3.333    0.000    0.000    0.000    0.000 
#    0.000    0.000    0.000    0.000    0.000   13.333 
#
# Total GULP energy -134097.879575 kJ/mol
# GULP energy per Si atom -5587.411649 kJ/mol
# Density = 2.732004 g / cm^3
# Si number density = 27.382359 Si / 1000 Ang^3
#
#
#
# Elastic Constant Matrix: (Units=GPa)
#
#
# Indices 1 2 3 4 5 6 
#
# 1 93.1192 -9.3499 19.9335 0.0000 -34.0599 0.0000
# 2 -9.3499 143.4717 0.2051 0.0000 -2.5466 0.0000
# 3 19.9335 0.2051 174.6205 0.0000 -46.6406 0.0000
# 4 0.0000 0.0000 0.0000 224.9093 0.0000 -67.2104
# 5 -34.0599 -2.5466 -46.6406 0.0000 58.0722 0.0000
# 6 0.0000 0.0000 0.0000 -67.2104 0.0000 -1.4913
#
#
#
# Elastic Compliance Matrix: (Units=1/GPa)
#
#
# Indices 1 2 3 4 5 6 
#
# 1 0.013907 0.001062 0.000767 0.000000 0.008819 0.000000
# 2 0.001062 0.007058 0.000152 0.000000 0.001054 0.000000
# 3 0.000767 0.000152 0.007334 0.000000 0.006347 0.000000
# 4 0.000000 0.000000 0.000000 0.000307 0.000000 -0.013850
# 5 0.008819 0.001054 0.006347 0.000000 0.027536 0.000000
# 6 0.000000 0.000000 0.000000 -0.013850 0.000000 -0.046348
#
#
# Mechanical properties :
#
#
# Convention : Reuss Voigt Hill
#
# Bulk Modulus (GPa) = 30.99789 48.08765 39.54277
# Shear Modulus (GPa) = 301.44243 82.99289 192.21766
#
# Velocity S-wave (km/s) = 10.50359 5.51132 8.38749
# Velocity P-wave (km/s) = 12.58751 7.62229 10.40540
#
# Compressibility (1/GPa) = 0.03226026
#
# Stress axis : x y z
#
# Youngs Moduli (GPa) = 71.90579 141.68909 136.34717
#
# Poissons Ratio (x) = -0.15044 -0.10454
# Poissons Ratio (y) = -0.07635 -0.02074
# Poissons Ratio (z) = -0.05513 -0.02156
#
# Static dielectric constant tensor:
#      x y z
#    x 2.234320 0.000000 -0.043970 
#    y 0.000000 2.100540 0.000000 
#    z -0.043970 0.000000 2.132330 
# 
# From -- ./inp_files/109488.got.cif
#   From: 2010.05.17/outbox.cif.g08.bks.cpg/sg12_55_cif.got.tgz:109488.got - 2010.06.03 13:09:07.
