data_PCOD9177401
_publ_section_title
;
Structure prediction by ZEFSAII (Michael W. Deem and Ramdas Pophale) SiO2 
 PCOD9177401
Probable space group: C 2/M
;
_chemical_formula_sum "Si O2"
_cell_formula_units_Z 64
_cell_length_a 28.466461
_cell_length_b 9.231955
_cell_length_c 21.328332
_cell_angle_alpha 90.000000
_cell_angle_beta 51.082038
_cell_angle_gamma 90.000000
_cell_volume 4361.033888
_symmetry_space_group_name_H-M "C 2/M"
_symmetry_group_IT_number 12
_symmetry_cell_setting 'monoclinic'
loop_
_space_group_symop_operation_xyz
x,y,z
-x,y,-z
-x,-y,-z
x,-y,z
1/2+x,1/2+y,z
1/2-x,1/2+y,-z
1/2-x,1/2-y,-z
1/2+x,1/2-y,z
loop_
_atom_site_type_symbol
_atom_site_label
_atom_site_fract_x
_atom_site_fract_y
_atom_site_fract_z
Si Si1 0.296159 0.834117 0.046155
Si Si2 0.382195 0.826598 0.740911
Si Si3 0.122637 0.827716 0.526452
Si Si4 0.249902 0.672988 0.647294
Si Si5 0.766614 0.825772 0.778250
Si Si6 0.159442 0.834098 0.104724
Si Si7 0.993084 0.326163 0.433508
Si Si8 0.195448 0.826792 0.583040
O O1 0.284581 0.787891 0.127501
O O2 0.228284 0.833614 0.073834
O O3 0.317821 0.000000 0.026079
O O4 0.336087 0.734304 0.967980
O O5 0.327638 0.755975 0.746935
O O6 0.377426 0.760700 0.814603
O O7 0.445762 0.791498 0.655249
O O8 0.374665 0.000000 0.749165
O O9 0.183213 0.790941 0.435886
O O10 0.138053 0.797538 0.586590
O O11 0.065132 0.744918 0.548961
O O12 0.113652 0.000000 0.527325
O O13 0.241801 0.500000 0.645011
O O14 0.248935 0.705424 0.721777
O O15 0.200917 0.758978 0.647263
O O16 0.776770 0.000000 0.775488
O O17 0.138865 0.000000 0.121048
O O18 0.985825 0.500000 0.439188
O O19 0.000000 0.279346 0.500000
O O20 0.250000 0.750000 0.500000
O O21 0.204246 0.000000 0.577292
#
# Coordination Sequence:
#
# PCOD9177401 Si02
#       8
#     8   8   8   8   8   8   8   8
#     4   8  14  24  38  57  80 106 134 166 203 241
#     4  10  19  29  41  58  81 110 144 178 209 243
#     4   9  18  30  44  61  81 108 142 176 206 240
#     4   9  17  29  44  64  87 110 138 170 207 250
#     4   9  17  28  42  61  86 113 140 169 203 247
#     4   9  16  26  40  56  76 105 139 172 205 243
#     4  10  21  33  43  59  83 110 142 177 210 243
#     4   9  17  29  44  63  83 105 137 173 210 250
#
# _framework density 14.675419
#
# number of rings (size 3 to 8) (size 9 to 14) (size 15 to 20)
#    0.000    2.875    0.000    3.375    0.000    7.250 
#    0.000    0.000    0.000    0.000    0.000    0.000 
#    0.000    1.000    0.000   11.250    0.000    5.875 
#
# Total GULP energy -178182.236253 kJ/mol
# GULP energy per Si atom -5568.194883 kJ/mol
# Density = 1.464202 g / cm^3
# Si number density = 14.675419 Si / 1000 Ang^3
#
#
#
# Elastic Constant Matrix: (Units=GPa)
#
#
# Indices 1 2 3 4 5 6 
#
# 1 94.0334 45.5766 56.0054 0.0004 21.1902 -0.0003
# 2 45.5766 49.6687 48.7804 0.0020 11.4306 -0.0012
# 3 56.0054 48.7804 103.4894 0.0008 26.5230 -0.0006
# 4 0.0004 0.0020 0.0008 19.6507 -0.0006 2.9784
# 5 21.1902 11.4306 26.5230 -0.0006 21.9677 0.0005
# 6 -0.0003 -0.0012 -0.0006 2.9784 0.0005 25.0472
#
#
#
# Elastic Compliance Matrix: (Units=1/GPa)
#
#
# Indices 1 2 3 4 5 6 
#
# 1 0.021686 -0.016029 -0.001386 0.000001 -0.010905 0.000000
# 2 -0.016029 0.049441 -0.017376 -0.000004 0.010715 0.000002
# 3 -0.001386 -0.017376 0.023087 0.000000 -0.017497 0.000000
# 4 0.000001 -0.000004 0.000000 0.051823 0.000002 -0.006162
# 5 -0.010905 0.010715 -0.017497 0.000002 0.071590 -0.000002
# 6 0.000000 0.000002 0.000000 -0.006162 -0.000002 0.040657
#
#
# Mechanical properties :
#
#
# Convention : Reuss Voigt Hill
#
# Bulk Modulus (GPa) = 40.59581 60.87959 50.73770
# Shear Modulus (GPa) = 14.87749 19.78838 17.33294
#
# Velocity S-wave (km/s) = 3.18743 3.67604 3.44042
# Velocity P-wave (km/s) = 6.42408 7.71958 7.10143
#
# Compressibility (1/GPa) = 0.02463308
#
# Stress axis : x y z
#
# Youngs Moduli (GPa) = 46.11195 20.22599 43.31394
#
# Poissons Ratio (x) = 0.32420 0.06002
# Poissons Ratio (y) = 0.73913 0.75263
# Poissons Ratio (z) = 0.06390 0.35145
#
# Static dielectric constant tensor:
#      x y z
#    x 1.473140 0.000000 0.030520 
#    y 0.000000 1.492290 0.000000 
#    z 0.030520 0.000000 1.495480 
# 
# From -- ./inp_files/326578.got.cif
#   From: 2010.05.17/outbox.cif.g08.bks.cpg/sg12_164_cif.got.tgz:326578.got - 2010.06.03 13:09:07.
