data_PCOD9177102
_publ_section_title
;
Structure prediction by ZEFSAII (Michael W. Deem and Ramdas Pophale) SiO2 
 PCOD9177102
Probable space group: C 2/M
;
_chemical_formula_sum "Si O2"
_cell_formula_units_Z 48
_cell_length_a 16.926184
_cell_length_b 19.858117
_cell_length_c 8.138201
_cell_angle_alpha 90.000000
_cell_angle_beta 65.226658
_cell_angle_gamma 90.000000
_cell_volume 2483.694917
_symmetry_space_group_name_H-M "C 2/M"
_symmetry_group_IT_number 12
_symmetry_cell_setting 'monoclinic'
loop_
_space_group_symop_operation_xyz
x,y,z
-x,y,-z
-x,-y,-z
x,-y,z
1/2+x,1/2+y,z
1/2-x,1/2+y,-z
1/2-x,1/2-y,-z
1/2+x,1/2-y,z
loop_
_atom_site_type_symbol
_atom_site_label
_atom_site_fract_x
_atom_site_fract_y
_atom_site_fract_z
Si Si1 0.144419 0.687587 0.208963
Si Si2 0.667391 0.677443 0.993194
Si Si3 0.500000 0.268582 0.500000
Si Si4 0.215537 0.078945 0.254269
Si Si5 0.444839 0.399811 0.393935
Si Si6 0.500000 0.609367 0.000000
Si Si7 0.909290 0.579825 0.994518
O O1 0.154699 0.745916 0.061583
O O2 0.081201 0.721821 0.392454
O O3 0.241795 0.672472 0.182545
O O4 0.104421 0.622391 0.158380
O O5 0.680360 0.629515 0.143220
O O6 0.585557 0.652231 0.965177
O O7 0.473306 0.320668 0.378697
O O8 0.155295 0.091426 0.466065
O O9 0.319549 0.091104 0.176017
O O10 0.204941 0.000000 0.216384
O O11 0.500000 0.428057 0.500000
O O12 0.474546 0.426466 0.192740
O O13 0.914099 0.500000 0.957822
O O14 0.000000 0.600066 0.000000
#
# Coordination Sequence:
#
# PCOD9177102 Si02
#       7
#     8   8   4   8   8   4   8
#     4  10  19  35  61  80 121 157 198 253 302 348
#     4  10  20  36  58  88 115 158 204 249 294 358
#     4  10  18  38  54  82 120 156 192 256 296 358
#     4  10  19  39  63  82 121 167 195 246 309 350
#     4  10  20  37  56  84 123 155 197 247 291 359
#     4  12  20  38  59  84 127 154 194 260 288 354
#     4   9  20  37  61  90 117 155 207 249 298 366
#
# _framework density 19.326046000000002
#
# number of rings (size 3 to 8) (size 9 to 14) (size 15 to 20)
#    0.500    1.500    5.000    0.000    1.167    0.333 
#    3.000    2.917    0.000    0.000    0.000    0.000 
#    0.000    0.000    0.000    0.000    0.000    0.000 
#
# Total GULP energy -133677.318522 kJ/mol
# GULP energy per Si atom -5569.888272 kJ/mol
# Density = 1.928206 g / cm^3
# Si number density = 19.326046 Si / 1000 Ang^3
#
#
#
# Elastic Constant Matrix: (Units=GPa)
#
#
# Indices 1 2 3 4 5 6 
#
# 1 140.0487 39.9590 38.2645 0.0000 -23.8067 0.0000
# 2 39.9590 56.8354 27.5060 0.0000 -12.4860 0.0000
# 3 38.2645 27.5060 114.5915 0.0000 -13.7705 0.0000
# 4 0.0000 0.0000 0.0000 -8.5043 0.0000 -14.2997
# 5 -23.8067 -12.4860 -13.7705 0.0000 27.6486 0.0000
# 6 0.0000 0.0000 0.0000 -14.2997 0.0000 64.3634
#
#
#
# Elastic Compliance Matrix: (Units=1/GPa)
#
#
# Indices 1 2 3 4 5 6 
#
# 1 0.009918 -0.005063 -0.001431 0.000000 0.005541 0.000000
# 2 -0.005063 0.023866 -0.003475 0.000000 0.004687 0.000000
# 3 -0.001431 -0.003475 0.010319 0.000000 0.002339 0.000000
# 4 0.000000 0.000000 0.000000 -0.085607 0.000000 -0.019019
# 5 0.005541 0.004687 0.002339 0.000000 0.044220 0.000000
# 6 0.000000 0.000000 0.000000 -0.019019 0.000000 0.011311
#
#
# Mechanical properties :
#
#
# Convention : Reuss Voigt Hill
#
# Bulk Modulus (GPa) = 41.38041 58.10386 49.74213
# Shear Modulus (GPa) = 118.99242 30.41795 74.70519
#
# Velocity S-wave (km/s) = 7.85523 3.97159 6.22407
# Velocity P-wave (km/s) = 10.18485 7.15274 8.80036
#
# Compressibility (1/GPa) = 0.02416603
#
# Stress axis : x y z
#
# Youngs Moduli (GPa) = 100.82946 41.90093 96.90467
#
# Poissons Ratio (x) = 0.21216 0.13863
# Poissons Ratio (y) = 0.51053 0.33671
# Poissons Ratio (z) = 0.14424 0.14559
#
# Static dielectric constant tensor:
#      x y z
#    x 1.682910 0.000000 -0.029790 
#    y 0.000000 1.669830 0.000000 
#    z -0.029790 0.000000 1.711570 
# 
# From -- ./inp_files/76739.got.cif
#   From: 2010.05.17/outbox.cif.g08.bks.cpg/sg12_39_cif.got.tgz:76739.got - 2010.06.03 13:09:07.
