data_PCOD9177085
_publ_section_title
;
Structure prediction by ZEFSAII (Michael W. Deem and Ramdas Pophale) SiO2 
 PCOD9177085
Probable space group: C 2/M
;
_chemical_formula_sum "Si O2"
_cell_formula_units_Z 36
_cell_length_a 10.882253
_cell_length_b 15.273869
_cell_length_c 14.434619
_cell_angle_alpha 90.000000
_cell_angle_beta 40.165563
_cell_angle_gamma 90.000000
_cell_volume 1547.504462
_symmetry_space_group_name_H-M "C 2/M"
_symmetry_group_IT_number 12
_symmetry_cell_setting 'monoclinic'
loop_
_space_group_symop_operation_xyz
x,y,z
-x,y,-z
-x,-y,-z
x,-y,z
1/2+x,1/2+y,z
1/2-x,1/2+y,-z
1/2-x,1/2-y,-z
1/2+x,1/2-y,z
loop_
_atom_site_type_symbol
_atom_site_label
_atom_site_fract_x
_atom_site_fract_y
_atom_site_fract_z
Si Si1 0.218837 0.500000 0.411765
Si Si2 0.706815 0.000000 0.825644
Si Si3 0.782955 0.670304 0.097615
Si Si4 0.394280 0.000000 0.330059
Si Si5 0.439789 0.825498 0.810007
Si Si6 0.217719 0.289674 0.411328
O O1 0.251707 0.500000 0.503507
O O2 0.271148 0.394113 0.362918
O O3 0.000000 0.500000 0.500000
O O4 0.804476 0.913051 0.803040
O O5 0.676212 0.000000 0.734530
O O6 0.500000 0.000000 0.000000
O O7 0.669444 0.755552 0.186860
O O8 0.802804 0.654760 0.975996
O O9 0.000000 0.680803 0.000000
O O10 0.516521 0.912953 0.268984
O O11 0.633838 0.775332 0.726967
O O12 0.250000 0.250000 0.500000
O O13 0.000000 0.278637 0.500000
#
# Coordination Sequence:
#
# PCOD9177085 Si02
#       6
#     4   4   8   4   8   8
#     4  10  24  45  63  93 134 181 224 274 343 392
#     4  10  18  37  65  95 135 162 212 278 341 392
#     4  10  21  38  63  98 130 168 208 270 334 401
#     4  12  20  40  65  93 129 175 214 279 336 393
#     4  11  23  38  65  95 130 170 219 267 334 396
#     4  11  25  44  68  96 131 179 228 278 333 397
#
# _framework density 23.263261
#
# number of rings (size 3 to 8) (size 9 to 14) (size 15 to 20)
#    0.000    1.333    6.667    0.000    3.111    0.889 
#    0.000    3.889    0.000    0.000    0.000    0.000 
#    0.000    0.000    0.000    0.000    0.000    0.000 
#
# Total GULP energy -100244.229129 kJ/mol
# GULP energy per Si atom -5569.123841 kJ/mol
# Density = 2.321031 g / cm^3
# Si number density = 23.263261 Si / 1000 Ang^3
#
#
#
# Elastic Constant Matrix: (Units=GPa)
#
#
# Indices 1 2 3 4 5 6 
#
# 1 90.5507 36.2253 19.3940 -0.0005 -7.5384 0.0004
# 2 36.2253 220.6168 23.5424 -0.0007 -20.8327 0.0007
# 3 19.3940 23.5424 56.7620 -0.0012 7.8916 0.0012
# 4 -0.0005 -0.0007 -0.0012 0.0789 0.0009 -7.3464
# 5 -7.5384 -20.8327 7.8916 0.0009 40.8006 -0.0007
# 6 0.0004 0.0007 0.0012 -7.3464 -0.0007 19.5567
#
#
#
# Elastic Compliance Matrix: (Units=1/GPa)
#
#
# Indices 1 2 3 4 5 6 
#
# 1 0.012686 -0.001420 -0.004080 0.000000 0.002408 0.000000
# 2 -0.001420 0.005255 -0.002087 0.000001 0.002825 0.000000
# 3 -0.004080 -0.002087 0.020686 -0.000006 -0.005821 -0.000004
# 4 0.000000 0.000001 -0.000006 -0.373023 0.000007 -0.140126
# 5 0.002408 0.002825 -0.005821 0.000007 0.027522 0.000004
# 6 0.000000 0.000000 -0.000004 -0.140126 0.000004 -0.001505
#
#
# Mechanical properties :
#
#
# Convention : Reuss Voigt Hill
#
# Bulk Modulus (GPa) = 42.63908 58.47255 50.55582
# Shear Modulus (GPa) = -17.52024 31.33841 6.90909
#
# Velocity S-wave (km/s) = -2.74730 3.67430 1.72523
# Velocity P-wave (km/s) = 2.88188 6.57193 5.07422
#
# Compressibility (1/GPa) = 0.02345266
#
# Stress axis : x y z
#
# Youngs Moduli (GPa) = 78.82661 190.27993 48.34084
#
# Poissons Ratio (x) = 0.27025 0.19724
# Poissons Ratio (y) = 0.11196 0.10090
# Poissons Ratio (z) = 0.32163 0.39715
#
# Static dielectric constant tensor:
#      x y z
#    x 1.944170 0.000000 0.054880 
#    y 0.000000 1.960490 0.000000 
#    z 0.054880 0.000000 2.012520 
# 
# From -- ./inp_files/204823.got.cif
#   From: 2010.05.17/outbox.cif.g08.bks.cpg/sg12_103_cif.got.tgz:204823.got - 2010.06.03 13:09:07.
