data_PCOD9177739
_publ_section_title
;
Structure prediction by ZEFSAII (Michael W. Deem and Ramdas Pophale) SiO2 
 PCOD9177739
Probable space group: C 2/M
;
_chemical_formula_sum "Si O2"
_cell_formula_units_Z 48
_cell_length_a 28.917965
_cell_length_b 7.378410
_cell_length_c 12.945431
_cell_angle_alpha 90.000000
_cell_angle_beta 48.449437
_cell_angle_gamma 90.000000
_cell_volume 2067.110945
_symmetry_space_group_name_H-M "C 2/M"
_symmetry_group_IT_number 12
_symmetry_cell_setting 'monoclinic'
loop_
_space_group_symop_operation_xyz
x,y,z
-x,y,-z
-x,-y,-z
x,-y,z
1/2+x,1/2+y,z
1/2-x,1/2+y,-z
1/2-x,1/2-y,-z
1/2+x,1/2-y,z
loop_
_atom_site_type_symbol
_atom_site_label
_atom_site_fract_x
_atom_site_fract_y
_atom_site_fract_z
Si Si1 0.281078 0.715648 0.562836
Si Si2 0.247944 0.718053 0.831553
Si Si3 0.481669 0.279027 0.913270
Si Si4 0.114971 0.210135 0.097750
Si Si5 0.419362 0.279106 0.405057
Si Si6 0.388661 0.721389 0.673893
O O1 0.285075 0.500000 0.569089
O O2 0.250000 0.750000 0.500000
O O3 0.243547 0.780317 0.718662
O O4 0.351476 0.780794 0.467787
O O5 0.246075 0.500000 0.839422
O O6 0.316415 0.772518 0.765937
O O7 0.188873 0.782278 0.981758
O O8 0.482282 0.500000 0.919816
O O9 0.416409 0.218802 0.960390
O O10 0.530409 0.223518 0.752855
O O11 0.500000 0.213560 0.000000
O O12 0.092391 0.287098 0.240815
O O13 0.096732 0.000000 0.128415
O O14 0.420725 0.500000 0.403792
O O15 0.424761 0.222308 0.517021
O O16 0.390643 0.500000 0.671866
#
# Coordination Sequence:
#
# PCOD9177739 Si02
#       6
#     8   8   8   8   8   8
#     4   9  18  30  48  70  91 124 160 191 232 280
#     4   9  18  32  47  68 100 129 153 187 240 292
#     4   9  18  29  42  67  99 126 155 194 239 280
#     4  10  19  29  48  75  96 121 161 200 228 271
#     4   8  15  29  46  64  94 128 151 188 243 283
#     4   8  15  29  47  69  94 121 158 197 235 279
#
# _framework density 23.220811999999999
#
# number of rings (size 3 to 8) (size 9 to 14) (size 15 to 20)
#    0.000    3.167    0.000    2.500    2.333    1.333 
#    0.000    3.333    0.000    2.500    0.000    1.167 
#    0.000    0.000    0.000    0.000    0.000    0.000 
#
# Total GULP energy -133913.980438 kJ/mol
# GULP energy per Si atom -5579.749185 kJ/mol
# Density = 2.316796 g / cm^3
# Si number density = 23.220812 Si / 1000 Ang^3
#
#
#
# Elastic Constant Matrix: (Units=GPa)
#
#
# Indices 1 2 3 4 5 6 
#
# 1 84.0459 7.3170 50.0883 0.0000 40.5816 0.0000
# 2 7.3170 76.3396 -1.4694 0.0001 4.9564 0.0000
# 3 50.0883 -1.4694 129.8722 0.0000 25.6272 0.0000
# 4 0.0000 0.0001 0.0000 1.5471 0.0000 -0.5929
# 5 40.5816 4.9564 25.6272 0.0000 41.8525 0.0000
# 6 0.0000 0.0000 0.0000 -0.5929 0.0000 -0.0177
#
#
#
# Elastic Compliance Matrix: (Units=1/GPa)
#
#
# Indices 1 2 3 4 5 6 
#
# 1 0.025671 -0.001191 -0.005721 0.000000 -0.021247 0.000000
# 2 -0.001191 0.013287 0.000787 -0.000001 -0.000901 -0.000001
# 3 -0.005721 0.000787 0.010054 0.000000 -0.000702 0.000000
# 4 0.000000 -0.000001 0.000000 0.046831 0.000000 -1.564504
# 5 -0.021247 -0.000901 -0.000702 0.000000 0.045031 0.000000
# 6 0.000000 -0.000001 0.000000 -1.564504 0.000000 -4.082501
#
#
# Mechanical properties :
#
#
# Convention : Reuss Voigt Hill
#
# Bulk Modulus (GPa) = 27.20237 44.68106 35.94171
# Shear Modulus (GPa) = -1.27645 24.29783 11.51069
#
# Velocity S-wave (km/s) = -0.74222 3.23829 2.22886
# Velocity P-wave (km/s) = 3.31746 5.76764 4.70485
#
# Compressibility (1/GPa) = 0.03676151
#
# Stress axis : x y z
#
# Youngs Moduli (GPa) = 38.95480 75.26061 99.46403
#
# Poissons Ratio (x) = 0.08965 0.56908
# Poissons Ratio (y) = 0.04640 -0.07832
# Poissons Ratio (z) = 0.22288 -0.05927
#
# Static dielectric constant tensor:
#      x y z
#    x 1.896040 0.000000 0.016390 
#    y 0.000000 1.913940 0.000000 
#    z 0.016390 0.000000 1.862740 
# 
# From -- ./inp_files/154213.got.cif
#   From: 2010.05.17/outbox.cif.g08.bks.cpg/sg12_78_cif.got.tgz:154213.got - 2010.06.03 13:09:07.
