data_PCOD9177074
_publ_section_title
;
Structure prediction by ZEFSAII (Michael W. Deem and Ramdas Pophale) SiO2 
 PCOD9177074
Probable space group: C 2/M
;
_chemical_formula_sum "Si O2"
_cell_formula_units_Z 42
_cell_length_a 14.427300
_cell_length_b 16.432925
_cell_length_c 9.287549
_cell_angle_alpha 90.000000
_cell_angle_beta 125.444229
_cell_angle_gamma 90.000000
_cell_volume 1793.859033
_symmetry_space_group_name_H-M "C 2/M"
_symmetry_group_IT_number 12
_symmetry_cell_setting 'monoclinic'
loop_
_space_group_symop_operation_xyz
x,y,z
-x,y,-z
-x,-y,-z
x,-y,z
1/2+x,1/2+y,z
1/2-x,1/2+y,-z
1/2-x,1/2-y,-z
1/2+x,1/2-y,z
loop_
_atom_site_type_symbol
_atom_site_label
_atom_site_fract_x
_atom_site_fract_y
_atom_site_fract_z
Si Si1 0.315882 0.857670 0.297620
Si Si2 0.183022 0.290413 0.270104
Si Si3 0.000000 0.500000 0.500000
Si Si4 0.441039 0.231800 0.147168
Si Si5 0.389611 0.413090 0.079012
Si Si6 0.873256 0.090805 0.391985
O O1 0.251438 0.794355 0.344069
O O2 0.401884 0.926969 0.426034
O O3 0.378918 0.799033 0.235042
O O4 0.213175 0.902356 0.122499
O O5 0.276311 0.358918 0.378820
O O6 0.067774 0.302686 0.254311
O O7 0.135124 0.292607 0.060329
O O8 0.458301 0.329025 0.140951
O O9 0.449283 0.500000 0.110064
O O10 0.339472 0.415211 0.194663
O O11 0.000000 0.127986 0.500000
O O12 0.885203 0.000000 0.463726
#
# Coordination Sequence:
#
# PCOD9177074 Si02
#       6
#     8   8   2   8   8   8
#     4  11  21  42  60  88 129 162 212 250 307 375
#     4  10  20  38  66  93 122 166 209 257 315 366
#     4  12  28  40  64  92 120 182 204 248 314 368
#     4  10  20  38  65  96 120 164 214 252 311 375
#     4  10  18  37  64  88 121 163 203 259 307 359
#     4  10  20  35  59  90 120 156 207 258 313 364
#
# _framework density 23.413211
#
# number of rings (size 3 to 8) (size 9 to 14) (size 15 to 20)
#    0.000    1.714    4.762    1.143    1.333    0.000 
#    3.429    6.667    4.190    0.000    0.000    0.000 
#    0.000    0.000    0.000    0.000    0.000    0.000 
#
# Total GULP energy -117043.352191 kJ/mol
# GULP energy per Si atom -5573.492961 kJ/mol
# Density = 2.335992 g / cm^3
# Si number density = 23.413211 Si / 1000 Ang^3
#
#
#
# Elastic Constant Matrix: (Units=GPa)
#
#
# Indices 1 2 3 4 5 6 
#
# 1 90.5581 19.9662 18.9917 0.0000 21.0348 0.0000
# 2 19.9662 105.4740 32.8193 0.0000 24.3842 0.0000
# 3 18.9917 32.8193 81.1482 0.0000 30.1829 0.0000
# 4 0.0000 0.0000 0.0000 27.9492 0.0000 12.4696
# 5 21.0348 24.3842 30.1829 0.0000 42.3566 0.0000
# 6 0.0000 0.0000 0.0000 12.4696 0.0000 13.5418
#
#
#
# Elastic Compliance Matrix: (Units=1/GPa)
#
#
# Indices 1 2 3 4 5 6 
#
# 1 0.012609 -0.000983 -0.000592 0.000000 -0.005274 0.000000
# 2 -0.000983 0.011513 -0.002915 0.000000 -0.004062 0.000000
# 3 -0.000592 -0.002915 0.017562 0.000000 -0.010542 0.000000
# 4 0.000000 0.000000 0.000000 0.060728 0.000000 -0.055920
# 5 -0.005274 -0.004062 -0.010542 0.000000 0.036079 0.000000
# 6 0.000000 0.000000 0.000000 -0.055920 0.000000 0.125338
#
#
# Mechanical properties :
#
#
# Convention : Reuss Voigt Hill
#
# Bulk Modulus (GPa) = 30.57810 46.74830 38.66320
# Shear Modulus (GPa) = 17.62360 30.46306 24.04333
#
# Velocity S-wave (km/s) = 2.74655 3.61100 3.20802
# Velocity P-wave (km/s) = 4.81109 6.11520 5.50192
#
# Compressibility (1/GPa) = 0.03270315
#
# Stress axis : x y z
#
# Youngs Moduli (GPa) = 79.31136 86.85475 56.94174
#
# Poissons Ratio (x) = 0.08542 0.03368
# Poissons Ratio (y) = 0.07800 0.16600
# Poissons Ratio (z) = 0.04691 0.25321
#
# Static dielectric constant tensor:
#      x y z
#    x 1.871770 0.000000 -0.076310 
#    y 0.000000 1.920710 0.000000 
#    z -0.076310 0.000000 1.908630 
# 
# From -- ./inp_files/224973.got.cif
#   From: 2010.05.17/outbox.cif.g08.bks.cpg/sg12_113_cif.got.tgz:224973.got - 2010.06.03 13:09:07.
