data_PCOD9177480
_publ_section_title
;
Structure prediction by ZEFSAII (Michael W. Deem and Ramdas Pophale) SiO2 
 PCOD9177480
Probable space group: C 2/M
;
_chemical_formula_sum "Si O2"
_cell_formula_units_Z 64
_cell_length_a 26.562383
_cell_length_b 7.630711
_cell_length_c 17.826441
_cell_angle_alpha 90.000000
_cell_angle_beta 89.709865
_cell_angle_gamma 90.000000
_cell_volume 3613.192650
_symmetry_space_group_name_H-M "C 2/M"
_symmetry_group_IT_number 12
_symmetry_cell_setting 'monoclinic'
loop_
_space_group_symop_operation_xyz
x,y,z
-x,y,-z
-x,-y,-z
x,-y,z
1/2+x,1/2+y,z
1/2-x,1/2+y,-z
1/2-x,1/2-y,-z
1/2+x,1/2-y,z
loop_
_atom_site_type_symbol
_atom_site_label
_atom_site_fract_x
_atom_site_fract_y
_atom_site_fract_z
Si Si1 0.051833 0.790962 0.087968
Si Si2 0.806656 0.707198 0.666325
Si Si3 0.648637 0.789063 0.180406
Si Si4 0.690713 0.714879 0.660775
Si Si5 0.190375 0.792472 0.498201
Si Si6 0.938782 0.785561 0.081770
Si Si7 0.754865 0.710197 0.912346
Si Si8 0.343680 0.285438 0.178262
O O1 0.094204 0.754006 0.148346
O O2 0.995051 0.728301 0.104412
O O3 0.047779 0.000000 0.081516
O O4 0.068196 0.728631 0.004766
O O5 0.801646 0.500000 0.678222
O O6 0.838876 0.776021 0.735774
O O7 0.749014 0.774717 0.668473
O O8 0.828287 0.729678 0.582515
O O9 0.693224 0.724319 0.124968
O O10 0.651287 0.000000 0.181061
O O11 0.691281 0.500000 0.659619
O O12 0.670998 0.773341 0.579144
O O13 0.661028 0.768959 0.735089
O O14 0.250000 0.750000 0.500000
O O15 0.184397 0.000000 0.497623
O O16 0.893774 0.726019 0.135313
O O17 0.937531 0.000000 0.082968
O O18 0.755277 0.500000 0.904664
O O19 0.706153 0.772467 0.866430
O O20 0.750000 0.750000 0.000000
O O21 0.343563 0.500000 0.177491
#
# Coordination Sequence:
#
# PCOD9177480 Si02
#       8
#     8   8   8   8   8   8   8   8
#     4   9  17  30  45  64  86 110 145 189 221 249
#     4   9  16  28  42  59  86 115 143 175 208 254
#     4  10  19  30  44  64  89 118 146 175 215 263
#     4   8  13  23  39  59  83 109 139 171 204 250
#     4   9  16  25  40  61  85 114 144 174 210 253
#     4   8  15  27  44  63  84 110 145 184 222 254
#     4  10  19  29  43  62  87 116 145 173 209 259
#     4   9  14  24  43  63  82 112 144 172 210 257
#
# _framework density 17.712866000000002
#
# number of rings (size 3 to 8) (size 9 to 14) (size 15 to 20)
#    0.000    3.000    1.250    2.625    0.000    2.000 
#    0.000    1.250    0.000    0.750    0.000    0.875 
#    0.000    7.000    0.000    0.000    0.000    0.000 
#
# Total GULP energy -178272.155109 kJ/mol
# GULP energy per Si atom -5571.004847 kJ/mol
# Density = 1.767255 g / cm^3
# Si number density = 17.712866 Si / 1000 Ang^3
#
#
#
# Elastic Constant Matrix: (Units=GPa)
#
#
# Indices 1 2 3 4 5 6 
#
# 1 80.3520 0.1888 57.2911 0.0000 8.4448 0.0000
# 2 0.1888 28.0298 -6.3537 0.0000 0.5214 0.0000
# 3 57.2911 -6.3537 138.6616 0.0000 11.9358 0.0000
# 4 0.0000 0.0000 0.0000 17.2147 0.0000 4.4984
# 5 8.4448 0.5214 11.9358 0.0000 21.6210 0.0000
# 6 0.0000 0.0000 0.0000 4.4984 0.0000 11.3768
#
#
#
# Elastic Compliance Matrix: (Units=1/GPa)
#
#
# Indices 1 2 3 4 5 6 
#
# 1 0.017911 -0.001703 -0.007223 0.000000 -0.002967 0.000000
# 2 -0.001703 0.036285 0.002503 0.000000 -0.001592 0.000000
# 3 -0.007223 0.002503 0.010576 0.000000 -0.003078 0.000000
# 4 0.000000 0.000000 0.000000 0.064783 0.000000 -0.025615
# 5 -0.002967 -0.001592 -0.003078 0.000000 0.049148 0.000000
# 6 0.000000 0.000000 0.000000 -0.025615 0.000000 0.098026
#
#
# Mechanical properties :
#
#
# Convention : Reuss Voigt Hill
#
# Bulk Modulus (GPa) = 19.25797 38.81065 29.03431
# Shear Modulus (GPa) = 16.29291 23.10368 19.69829
#
# Velocity S-wave (km/s) = 3.03617 3.61549 3.33842
# Velocity P-wave (km/s) = 4.81529 6.27595 5.59350
#
# Compressibility (1/GPa) = 0.05192654
#
# Stress axis : x y z
#
# Youngs Moduli (GPa) = 55.83145 27.55978 94.55619
#
# Poissons Ratio (x) = 0.04693 0.68297
# Poissons Ratio (y) = 0.09506 -0.23669
# Poissons Ratio (z) = 0.40327 -0.06899
#
# Static dielectric constant tensor:
#      x y z
#    x 1.582820 0.000000 0.000470 
#    y 0.000000 1.649910 0.000000 
#    z 0.000470 0.000000 1.637290 
# 
# From -- ./inp_files/291587.got.cif
#   From: 2010.05.17/outbox.cif.g08.bks.cpg/sg12_146_cif.got.tgz:291587.got - 2010.06.03 13:09:07.
