data_PCOD9177606
_publ_section_title
;
Structure prediction by ZEFSAII (Michael W. Deem and Ramdas Pophale) SiO2 
 PCOD9177606
Probable space group: C 2/M
;
_chemical_formula_sum "Si O2"
_cell_formula_units_Z 44
_cell_length_a 13.762972
_cell_length_b 15.785526
_cell_length_c 8.994883
_cell_angle_alpha 90.000000
_cell_angle_beta 86.902151
_cell_angle_gamma 90.000000
_cell_volume 1951.334415
_symmetry_space_group_name_H-M "C 2/M"
_symmetry_group_IT_number 12
_symmetry_cell_setting 'monoclinic'
loop_
_space_group_symop_operation_xyz
x,y,z
-x,y,-z
-x,-y,-z
x,-y,z
1/2+x,1/2+y,z
1/2-x,1/2+y,-z
1/2-x,1/2-y,-z
1/2+x,1/2-y,z
loop_
_atom_site_type_symbol
_atom_site_label
_atom_site_fract_x
_atom_site_fract_y
_atom_site_fract_z
Si Si1 0.128499 0.500000 0.526360
Si Si2 0.648115 0.831442 0.374903
Si Si3 0.718297 0.154889 0.050546
Si Si4 0.378128 0.332699 0.446937
Si Si5 0.156621 0.000000 0.398918
Si Si6 0.184271 0.500000 0.845937
Si Si7 0.928463 0.098872 0.139991
O O1 0.100605 0.415507 0.444869
O O2 0.246595 0.500000 0.506198
O O3 0.115960 0.500000 0.705073
O O4 0.648094 0.833695 0.197443
O O5 0.604655 0.750035 0.458023
O O6 0.763403 0.829603 0.410038
O O7 0.817905 0.108933 0.093254
O O8 0.674078 0.088157 0.935819
O O9 0.750000 0.250000 0.000000
O O10 0.393878 0.413967 0.550828
O O11 0.433775 0.344729 0.287315
O O12 0.204946 0.000000 0.232113
O O13 0.946855 0.000000 0.177219
O O14 0.000000 0.122926 0.000000
#
# Coordination Sequence:
#
# PCOD9177606 Si02
#       7
#     4   8   8   8   4   4   8
#     4   8  17  27  44  68 100 131 167 210 263 322
#     4   9  17  28  47  71  96 138 177 217 266 310
#     4  11  21  32  50  80 109 139 174 232 278 303
#     4   9  15  27  47  70  92 133 182 212 239 307
#     4   8  14  24  40  63  92 134 162 207 237 306
#     4  10  19  29  44  75 113 129 163 225 279 304
#     4  10  20  34  53  76 110 153 183 207 259 335
#
# _framework density 22.548673999999998
#
# number of rings (size 3 to 8) (size 9 to 14) (size 15 to 20)
#    0.545    2.000    1.818    1.636    7.636    0.000 
#    0.000    0.000    0.000    5.455    0.000    2.545 
#    0.000    2.909    0.000    0.000    0.000    0.000 
#
# Total GULP energy -122793.196615 kJ/mol
# GULP energy per Si atom -5581.508937 kJ/mol
# Density = 2.249735 g / cm^3
# Si number density = 22.548674 Si / 1000 Ang^3
#
#
#
# Elastic Constant Matrix: (Units=GPa)
#
#
# Indices 1 2 3 4 5 6 
#
# 1 58.9336 -5.4710 15.0026 0.0000 -16.5155 0.0000
# 2 -5.4710 215.7094 130.7235 0.0000 -21.1600 0.0000
# 3 15.0026 130.7235 210.6678 0.0000 -34.6769 0.0000
# 4 0.0000 0.0000 0.0000 25.0775 0.0000 -1.4000
# 5 -16.5155 -21.1600 -34.6769 0.0000 25.8297 0.0000
# 6 0.0000 0.0000 0.0000 -1.4000 0.0000 -4.2460
#
#
#
# Elastic Compliance Matrix: (Units=1/GPa)
#
#
# Indices 1 2 3 4 5 6 
#
# 1 0.021509 0.002322 -0.000508 0.000000 0.014973 0.000000
# 2 0.002322 0.007681 -0.004687 0.000000 0.001485 0.000000
# 3 -0.000508 -0.004687 0.008993 0.000000 0.007909 0.000000
# 4 0.000000 0.000000 0.000000 0.039156 0.000000 -0.012911
# 5 0.014973 0.001485 0.007909 0.000000 0.060123 0.000000
# 6 0.000000 0.000000 0.000000 -0.012911 0.000000 -0.231260
#
#
# Mechanical properties :
#
#
# Convention : Reuss Voigt Hill
#
# Bulk Modulus (GPa) = 30.82849 85.09124 57.95987
# Shear Modulus (GPa) = -64.73431 32.33597 -16.19917
#
# Velocity S-wave (km/s) = -5.36386 3.79100 -2.68322
# Velocity P-wave (km/s) = 4.96585 7.54856 4.02002
#
# Compressibility (1/GPa) = 0.03243752
#
# Stress axis : x y z
#
# Youngs Moduli (GPa) = 46.49152 130.19327 111.19341
#
# Poissons Ratio (x) = -0.30234 0.05650
# Poissons Ratio (y) = -0.10797 0.52118
# Poissons Ratio (z) = 0.02362 0.61024
#
# Static dielectric constant tensor:
#      x y z
#    x 1.882000 0.000000 0.024160 
#    y 0.000000 1.823780 0.000000 
#    z 0.024160 0.000000 1.824400 
# 
# From -- ./inp_files/73093.got.cif
#   From: 2010.05.17/outbox.cif.g08.bks.cpg/sg12_37_cif.got.tgz:73093.got - 2010.06.03 13:09:07.
