data_PCOD9177723
_publ_section_title
;
Structure prediction by ZEFSAII (Michael W. Deem and Ramdas Pophale) SiO2 
 PCOD9177723
Probable space group: C 2/M
;
_chemical_formula_sum "Si O2"
_cell_formula_units_Z 64
_cell_length_a 17.530600
_cell_length_b 13.456955
_cell_length_c 15.832220
_cell_angle_alpha 90.000000
_cell_angle_beta 72.082018
_cell_angle_gamma 90.000000
_cell_volume 3553.802007
_symmetry_space_group_name_H-M "C 2/M"
_symmetry_group_IT_number 12
_symmetry_cell_setting 'monoclinic'
loop_
_space_group_symop_operation_xyz
x,y,z
-x,y,-z
-x,-y,-z
x,-y,z
1/2+x,1/2+y,z
1/2-x,1/2+y,-z
1/2-x,1/2-y,-z
1/2+x,1/2-y,z
loop_
_atom_site_type_symbol
_atom_site_label
_atom_site_fract_x
_atom_site_fract_y
_atom_site_fract_z
Si Si1 0.092444 0.387883 0.998162
Si Si2 0.857490 0.386930 0.209248
Si Si3 0.795293 0.114186 0.229349
Si Si4 0.394035 0.702911 0.881562
Si Si5 0.909812 0.113176 0.040382
Si Si6 0.438500 0.700613 0.268470
Si Si7 0.526177 0.382238 0.394229
Si Si8 0.310821 0.700672 0.731040
O O1 0.111524 0.500000 0.020813
O O2 0.135461 0.368591 0.894035
O O3 0.107752 0.306737 0.065517
O O4 0.000000 0.386027 0.000000
O O5 0.883806 0.500000 0.215103
O O6 0.907804 0.308707 0.247898
O O7 0.764533 0.369893 0.260930
O O8 0.845065 0.151057 0.129437
O O9 0.864633 0.127495 0.275240
O O10 0.722738 0.188228 0.272894
O O11 0.771242 0.000000 0.227287
O O12 0.483449 0.680858 0.816216
O O13 0.337726 0.699210 0.819837
O O14 0.373531 0.622839 0.959928
O O15 0.923031 0.000000 0.062884
O O16 0.000000 0.158573 0.000000
O O17 0.468083 0.680915 0.352787
O O18 0.500000 0.375575 0.500000
O O19 0.525978 0.500000 0.369748
O O20 0.613749 0.335840 0.348269
#
# Coordination Sequence:
#
# PCOD9177723 Si02
#       8
#     8   8   8   8   8   8   8   8
#     4  10  19  30  48  74 108 154 202 233 259 306
#     4  10  20  35  53  79 117 155 190 228 268 316
#     4  10  20  35  52  78 115 150 184 225 269 313
#     4  11  19  31  49  73 108 144 190 238 269 304
#     4  10  19  29  47  75 107 146 191 231 263 301
#     4  10  19  33  59  84 103 141 188 227 272 325
#     4  10  22  42  66  88 108 131 168 224 284 345
#     4  10  23  36  54  81 110 145 178 225 286 340
#
# _framework density 18.008882
#
# number of rings (size 3 to 8) (size 9 to 14) (size 15 to 20)
#    0.000    1.875    2.500    2.625    0.000    5.000 
#    0.000    6.875    0.000    3.000    0.000    0.000 
#    0.000    0.000    0.000    0.000    0.000    0.000 
#
# Total GULP energy -178365.527348 kJ/mol
# GULP energy per Si atom -5573.922730 kJ/mol
# Density = 1.796789 g / cm^3
# Si number density = 18.008882 Si / 1000 Ang^3
#
#
#
# Elastic Constant Matrix: (Units=GPa)
#
#
# Indices 1 2 3 4 5 6 
#
# 1 69.8969 3.7428 28.9522 0.0000 -5.4468 0.0000
# 2 3.7428 87.3025 20.8704 0.0000 -6.5377 0.0000
# 3 28.9522 20.8704 81.9894 0.0000 -1.2192 0.0000
# 4 0.0000 0.0000 0.0000 19.0564 0.0000 -3.8744
# 5 -5.4468 -6.5377 -1.2192 0.0000 15.2977 0.0000
# 6 0.0000 0.0000 0.0000 -3.8744 0.0000 8.7562
#
#
#
# Elastic Compliance Matrix: (Units=1/GPa)
#
#
# Indices 1 2 3 4 5 6 
#
# 1 0.017355 0.001239 -0.006351 0.000000 0.006202 0.000000
# 2 0.001239 0.012675 -0.003581 0.000000 0.005572 0.000000
# 3 -0.006351 -0.003581 0.015313 0.000000 -0.002571 0.000000
# 4 0.000000 0.000000 0.000000 0.057663 0.000000 0.025514
# 5 0.006202 0.005572 -0.002571 0.000000 0.069754 0.000000
# 6 0.000000 0.000000 0.000000 0.025514 0.000000 0.125495
#
#
# Mechanical properties :
#
#
# Convention : Reuss Voigt Hill
#
# Bulk Modulus (GPa) = 35.77172 38.47995 37.12583
# Shear Modulus (GPa) = 15.38655 20.99696 18.19175
#
# Velocity S-wave (km/s) = 2.92616 3.41826 3.18174
# Velocity P-wave (km/s) = 5.59670 6.08218 5.84449
#
# Compressibility (1/GPa) = 0.02795505
#
# Stress axis : x y z
#
# Youngs Moduli (GPa) = 57.62160 78.89770 65.30489
#
# Poissons Ratio (x) = -0.09774 0.41478
# Poissons Ratio (y) = -0.07138 0.23385
# Poissons Ratio (z) = 0.36598 0.28253
#
# Static dielectric constant tensor:
#      x y z
#    x 1.657500 0.000000 -0.009990 
#    y 0.000000 1.663760 0.000000 
#    z -0.009990 0.000000 1.621620 
# 
# From -- ./inp_files/224736.got.cif
#   From: 2010.05.17/outbox.cif.g08.bks.cpg/sg12_113_cif.got.tgz:224736.got - 2010.06.03 13:09:07.
