data_PCOD9177556
_publ_section_title
;
Structure prediction by ZEFSAII (Michael W. Deem and Ramdas Pophale) SiO2 
 PCOD9177556
Probable space group: C 2/M
;
_chemical_formula_sum "Si O2"
_cell_formula_units_Z 58
_cell_length_a 24.235658
_cell_length_b 7.540522
_cell_length_c 12.408493
_cell_angle_alpha 90.000000
_cell_angle_beta 111.991644
_cell_angle_gamma 90.000000
_cell_volume 2102.648665
_symmetry_space_group_name_H-M "C 2/M"
_symmetry_group_IT_number 12
_symmetry_cell_setting 'monoclinic'
loop_
_space_group_symop_operation_xyz
x,y,z
-x,y,-z
-x,-y,-z
x,-y,z
1/2+x,1/2+y,z
1/2-x,1/2+y,-z
1/2-x,1/2-y,-z
1/2+x,1/2-y,z
loop_
_atom_site_type_symbol
_atom_site_label
_atom_site_fract_x
_atom_site_fract_y
_atom_site_fract_z
Si Si1 0.269360 0.789758 0.800901
Si Si2 0.166314 0.706107 0.870811
Si Si3 0.507074 0.718844 0.262782
Si Si4 0.915049 0.296853 0.005232
Si Si5 0.076409 0.799326 0.620320
Si Si6 0.361003 0.712288 0.701123
Si Si7 0.000000 0.000000 0.000000
Si Si8 0.678681 0.717699 0.550050
O O1 0.233507 0.718953 0.877718
O O2 0.334626 0.760400 0.797856
O O3 0.228347 0.722300 0.670549
O O4 0.264093 0.000000 0.809698
O O5 0.149997 0.500000 0.853210
O O6 0.145765 0.759327 0.975777
O O7 0.125261 0.804344 0.753394
O O8 0.503800 0.500000 0.251124
O O9 0.461293 0.790949 0.141609
O O10 0.482157 0.770776 0.362449
O O11 0.573266 0.774545 0.282201
O O12 0.913700 0.500000 0.966402
O O13 0.947688 0.153360 0.955753
O O14 0.115117 0.720433 0.552560
O O15 0.063214 0.000000 0.577204
O O16 0.361637 0.500000 0.695610
O O17 0.319166 0.777035 0.571724
O O18 0.679555 0.500000 0.553703
#
# Coordination Sequence:
#
# PCOD9177556 Si02
#       8
#     8   8   8   8   8   8   2   8
#     4  10  19  30  46  66  96 136 187 232 277 305
#     4   9  17  30  50  74 101 131 169 213 259 307
#     4   9  17  31  49  71 104 144 177 217 265 321
#     4  10  21  36  58  88 118 142 166 205 258 318
#     4   8  14  26  45  65  92 133 175 214 267 318
#     4  10  19  29  44  67 100 138 187 228 270 315
#     4  12  22  36  64  90 124 134 166 196 268 318
#     4   8  15  27  42  65  94 132 180 239 280 311
#
# _framework density 27.584256
#
# number of rings (size 3 to 8) (size 9 to 14) (size 15 to 20)
#    0.000    2.759    0.690    2.276    1.931    1.103 
#    0.000    5.517    0.000    0.000    0.000   14.483 
#    0.000    0.000    0.000    0.000    0.000    0.000 
#
# Total GULP energy -162006.889187 kJ/mol
# GULP energy per Si atom -5586.444455 kJ/mol
# Density = 2.752147 g / cm^3
# Si number density = 27.584256 Si / 1000 Ang^3
#
#
#
# Elastic Constant Matrix: (Units=GPa)
#
#
# Indices 1 2 3 4 5 6 
#
# 1 223.4095 42.3182 24.0867 0.0000 -29.4811 0.0000
# 2 42.3182 98.9798 10.7331 0.0000 -3.6841 0.0000
# 3 24.0867 10.7331 91.0436 0.0000 -43.7583 0.0000
# 4 0.0000 0.0000 0.0000 8.2034 0.0000 -5.5706
# 5 -29.4811 -3.6841 -43.7583 0.0000 54.5478 0.0000
# 6 0.0000 0.0000 0.0000 -5.5706 0.0000 39.0744
#
#
#
# Elastic Compliance Matrix: (Units=1/GPa)
#
#
# Indices 1 2 3 4 5 6 
#
# 1 0.005239 -0.002160 0.000259 0.000000 0.002894 0.000000
# 2 -0.002160 0.011132 -0.001531 0.000000 -0.001644 0.000000
# 3 0.000259 -0.001531 0.018087 0.000000 0.014546 0.000000
# 4 0.000000 0.000000 0.000000 0.134966 0.000000 0.019241
# 5 0.002894 -0.001644 0.014546 0.000000 0.031454 0.000000
# 6 0.000000 0.000000 0.000000 0.019241 0.000000 0.028335
#
#
# Mechanical properties :
#
#
# Convention : Reuss Voigt Hill
#
# Bulk Modulus (GPa) = 36.23958 63.07875 49.65916
# Shear Modulus (GPa) = 20.38527 42.78479 31.58503
#
# Velocity S-wave (km/s) = 2.72144 3.94262 3.38751
# Velocity P-wave (km/s) = 4.80013 6.60628 5.77426
#
# Compressibility (1/GPa) = 0.02759414
#
# Stress axis : x y z
#
# Youngs Moduli (GPa) = 190.86864 89.83471 55.28868
#
# Poissons Ratio (x) = 0.19408 -0.01434
# Poissons Ratio (y) = 0.41235 0.08464
# Poissons Ratio (z) = -0.04952 0.13752
#
# Static dielectric constant tensor:
#      x y z
#    x 2.225680 0.000000 0.046630 
#    y 0.000000 1.991160 0.000000 
#    z 0.046630 0.000000 2.276070 
# 
# From -- ./inp_files/237749.got.cif
#   From: 2010.05.17/outbox.cif.g08.bks.cpg/sg12_119_cif.got.tgz:237749.got - 2010.06.03 13:09:07.
