data_PCOD9177052
_publ_section_title
;
Structure prediction by ZEFSAII (Michael W. Deem and Ramdas Pophale) SiO2 
 PCOD9177052
Probable space group: C 2/M
;
_chemical_formula_sum "Si O2"
_cell_formula_units_Z 56
_cell_length_a 21.552491
_cell_length_b 17.718349
_cell_length_c 9.417872
_cell_angle_alpha 90.000000
_cell_angle_beta 56.212265
_cell_angle_gamma 90.000000
_cell_volume 2989.018730
_symmetry_space_group_name_H-M "C 2/M"
_symmetry_group_IT_number 12
_symmetry_cell_setting 'monoclinic'
loop_
_space_group_symop_operation_xyz
x,y,z
-x,y,-z
-x,-y,-z
x,-y,z
1/2+x,1/2+y,z
1/2-x,1/2+y,-z
1/2-x,1/2-y,-z
1/2+x,1/2-y,z
loop_
_atom_site_type_symbol
_atom_site_label
_atom_site_fract_x
_atom_site_fract_y
_atom_site_fract_z
Si Si1 0.068296 0.415310 0.806789
Si Si2 0.734030 0.910378 0.301543
Si Si3 0.416418 0.333406 0.579335
Si Si4 0.567162 0.844096 0.514684
Si Si5 0.184159 0.834725 0.535208
Si Si6 0.665651 0.214302 0.781278
Si Si7 0.315483 0.303324 0.977348
O O1 0.092010 0.500000 0.735412
O O2 0.044502 0.367214 0.701467
O O3 0.132763 0.367817 0.799920
O O4 0.000000 0.420292 0.000000
O O5 0.648851 0.881613 0.394694
O O6 0.770243 0.883651 0.406478
O O7 0.780174 0.869766 0.117431
O O8 0.737145 0.000000 0.287598
O O9 0.500000 0.362217 0.500000
O O10 0.423804 0.244886 0.525579
O O11 0.373126 0.371543 0.502181
O O12 0.367468 0.332913 0.785092
O O13 0.500000 0.871807 0.500000
O O14 0.245168 0.793047 0.356781
O O15 0.143450 0.771743 0.683888
O O16 0.643864 0.250000 0.958562
O O17 0.250000 0.250000 0.000000
#
# Coordination Sequence:
#
# PCOD9177052 Si02
#       7
#     8   8   8   8   8   8   8
#     4  11  24  37  51  82 129 171 201 235 288 359
#     4  11  23  40  64  90 121 165 204 244 304 367
#     4  11  22  38  64  96 118 154 200 256 314 358
#     4  11  22  37  59  90 129 164 200 243 297 367
#     4  10  18  37  61  85 111 149 210 251 292 348
#     4  10  19  33  58  80 114 163 199 248 286 337
#     4  11  21  38  61  90 125 155 201 258 298 353
#
# _framework density 18.735246
#
# number of rings (size 3 to 8) (size 9 to 14) (size 15 to 20)
#    0.000    1.286    5.714    1.286    4.000    1.143 
#    0.000    5.000    0.000    2.571    0.000    0.000 
#    0.000    0.000    0.000    0.000    0.000    0.000 
#
# Total GULP energy -156185.279661 kJ/mol
# GULP energy per Si atom -5578.045702 kJ/mol
# Density = 1.869260 g / cm^3
# Si number density = 18.735246 Si / 1000 Ang^3
#
#
#
# Elastic Constant Matrix: (Units=GPa)
#
#
# Indices 1 2 3 4 5 6 
#
# 1 131.9681 16.6048 43.6569 0.0000 10.6510 0.0000
# 2 16.6048 60.5485 6.9304 0.0000 3.1547 0.0000
# 3 43.6569 6.9304 101.2059 0.0000 7.0120 0.0000
# 4 0.0000 0.0000 0.0000 18.1596 0.0000 -2.1066
# 5 10.6510 3.1547 7.0120 0.0000 22.5719 0.0000
# 6 0.0000 0.0000 0.0000 -2.1066 0.0000 10.8012
#
#
#
# Elastic Compliance Matrix: (Units=1/GPa)
#
#
# Indices 1 2 3 4 5 6 
#
# 1 0.009276 -0.001970 -0.003661 0.000000 -0.002964 0.000000
# 2 -0.001970 0.017155 -0.000228 0.000000 -0.001397 0.000000
# 3 -0.003661 -0.000228 0.011604 0.000000 -0.001845 0.000000
# 4 0.000000 0.000000 0.000000 0.056342 0.000000 0.010989
# 5 -0.002964 -0.001397 -0.001845 0.000000 0.046470 0.000000
# 6 0.000000 0.000000 0.000000 0.010989 0.000000 0.094725
#
#
# Mechanical properties :
#
#
# Convention : Reuss Voigt Hill
#
# Bulk Modulus (GPa) = 38.00019 47.56739 42.78379
# Shear Modulus (GPa) = 19.52651 25.40858 22.46754
#
# Velocity S-wave (km/s) = 3.23187 3.68665 3.46672
# Velocity P-wave (km/s) = 5.85264 6.60047 6.23777
#
# Compressibility (1/GPa) = 0.02631566
#
# Stress axis : x y z
#
# Youngs Moduli (GPa) = 107.80676 58.29233 86.18064
#
# Poissons Ratio (x) = 0.11485 0.31551
# Poissons Ratio (y) = 0.21241 0.01965
# Poissons Ratio (z) = 0.39468 0.01329
#
# Static dielectric constant tensor:
#      x y z
#    x 1.714980 0.000000 0.009020 
#    y 0.000000 1.642300 0.000000 
#    z 0.009020 0.000000 1.658240 
# 
# From -- ./inp_files/75883.got.cif
#   From: 2010.05.17/outbox.cif.g08.bks.cpg/sg12_38_cif.got.tgz:75883.got - 2010.06.03 13:09:07.
