data_PCOD9177685
_publ_section_title
;
Structure prediction by ZEFSAII (Michael W. Deem and Ramdas Pophale) SiO2 
 PCOD9177685
Probable space group: C 2/M
;
_chemical_formula_sum "Si O2"
_cell_formula_units_Z 48
_cell_length_a 20.746076
_cell_length_b 9.147817
_cell_length_c 16.915308
_cell_angle_alpha 90.000000
_cell_angle_beta 65.653979
_cell_angle_gamma 90.000000
_cell_volume 2924.733202
_symmetry_space_group_name_H-M "C 2/M"
_symmetry_group_IT_number 12
_symmetry_cell_setting 'monoclinic'
loop_
_space_group_symop_operation_xyz
x,y,z
-x,y,-z
-x,-y,-z
x,-y,z
1/2+x,1/2+y,z
1/2-x,1/2+y,-z
1/2-x,1/2-y,-z
1/2+x,1/2-y,z
loop_
_atom_site_type_symbol
_atom_site_label
_atom_site_fract_x
_atom_site_fract_y
_atom_site_fract_z
Si Si1 0.963703 0.175120 0.435158
Si Si2 0.277770 0.673962 0.095937
Si Si3 0.798533 0.825742 0.540497
Si Si4 0.285502 0.828029 0.712217
Si Si5 0.640895 0.327193 0.091695
Si Si6 0.068279 0.326756 0.264775
O O1 0.880861 0.209360 0.482097
O O2 0.000000 0.217636 0.500000
O O3 0.003898 0.254374 0.343934
O O4 0.972074 0.000000 0.422268
O O5 0.259743 0.500000 0.094244
O O6 0.274828 0.699570 0.191109
O O7 0.215049 0.772261 0.091908
O O8 0.347236 0.701026 0.007908
O O9 0.750000 0.750000 0.500000
O O10 0.780272 0.767128 0.636852
O O11 0.790451 0.000000 0.541593
O O12 0.360490 0.799722 0.718719
O O13 0.283939 0.000000 0.692226
O O14 0.632308 0.500000 0.107802
O O15 0.582444 0.242273 0.171544
O O16 0.059784 0.500000 0.262749
#
# Coordination Sequence:
#
# PCOD9177685 Si02
#       6
#     8   8   8   8   8   8
#     4  10  20  35  53  74  99 128 168 210 249 296
#     4   8  15  26  40  63  94 129 164 200 244 294
#     4  11  23  37  53  73 100 132 167 208 250 297
#     4   9  17  30  47  69  98 130 166 204 245 292
#     4   9  15  24  40  63  96 131 162 199 244 292
#     4  10  19  29  46  72 101 131 165 204 248 296
#
# _framework density 16.411753000000001
#
# number of rings (size 3 to 8) (size 9 to 14) (size 15 to 20)
#    0.000    2.500    1.667    2.500    0.000    5.000 
#    0.000    0.000    0.000    0.000    0.000    1.167 
#    0.000    9.333    0.000    0.000    0.000    0.000 
#
# Total GULP energy -133689.493675 kJ/mol
# GULP energy per Si atom -5570.395570 kJ/mol
# Density = 1.637440 g / cm^3
# Si number density = 16.411753 Si / 1000 Ang^3
#
#
#
# Elastic Constant Matrix: (Units=GPa)
#
#
# Indices 1 2 3 4 5 6 
#
# 1 59.3153 40.5833 53.7966 0.0000 -1.7609 0.0000
# 2 40.5833 53.9669 74.2220 0.0000 -4.3304 -0.0001
# 3 53.7966 74.2220 179.0401 0.0000 -20.3316 0.0000
# 4 0.0000 0.0000 0.0000 33.0904 0.0000 -1.9355
# 5 -1.7609 -4.3304 -20.3316 0.0000 11.9634 0.0000
# 6 0.0000 -0.0001 0.0000 -1.9355 0.0000 18.4502
#
#
#
# Elastic Compliance Matrix: (Units=1/GPa)
#
#
# Indices 1 2 3 4 5 6 
#
# 1 0.034961 -0.026778 0.000099 0.000000 -0.004378 0.000000
# 2 -0.026778 0.067113 -0.021642 0.000000 -0.016428 0.000000
# 3 0.000099 -0.021642 0.016901 0.000000 0.020904 0.000000
# 4 0.000000 0.000000 0.000000 0.030407 0.000000 0.003190
# 5 -0.004378 -0.016428 0.020904 0.000000 0.112524 0.000000
# 6 0.000000 0.000000 0.000000 0.003190 0.000000 0.054534
#
#
# Mechanical properties :
#
#
# Convention : Reuss Voigt Hill
#
# Bulk Modulus (GPa) = 44.77566 69.94733 57.36150
# Shear Modulus (GPa) = 11.88987 20.94881 16.41934
#
# Velocity S-wave (km/s) = 2.69452 3.57662 3.16644
# Velocity P-wave (km/s) = 6.08461 7.73105 6.95671
#
# Compressibility (1/GPa) = 0.02233356
#
# Stress axis : x y z
#
# Youngs Moduli (GPa) = 28.60350 14.90018 59.16797
#
# Poissons Ratio (x) = 0.39900 -0.00586
# Poissons Ratio (y) = 0.76595 1.28049
# Poissons Ratio (z) = -0.00284 0.32246
#
# Static dielectric constant tensor:
#      x y z
#    x 1.519300 0.000000 -0.012350 
#    y 0.000000 1.549890 0.000000 
#    z -0.012350 0.000000 1.590220 
# 
# From -- ./inp_files/229925.got.cif
#   From: 2010.05.17/outbox.cif.g08.bks.cpg/sg12_115_cif.got.tgz:229925.got - 2010.06.03 13:09:07.
