data_PCOD9177478
_publ_section_title
;
Structure prediction by ZEFSAII (Michael W. Deem and Ramdas Pophale) SiO2 
 PCOD9177478
Probable space group: C 2/M
;
_chemical_formula_sum "Si O2"
_cell_formula_units_Z 56
_cell_length_a 15.697749
_cell_length_b 10.960802
_cell_length_c 15.305313
_cell_angle_alpha 90.000000
_cell_angle_beta 76.177998
_cell_angle_gamma 90.000000
_cell_volume 2557.173623
_symmetry_space_group_name_H-M "C 2/M"
_symmetry_group_IT_number 12
_symmetry_cell_setting 'monoclinic'
loop_
_space_group_symop_operation_xyz
x,y,z
-x,y,-z
-x,-y,-z
x,-y,z
1/2+x,1/2+y,z
1/2-x,1/2+y,-z
1/2-x,1/2-y,-z
1/2+x,1/2-y,z
loop_
_atom_site_type_symbol
_atom_site_label
_atom_site_fract_x
_atom_site_fract_y
_atom_site_fract_z
Si Si1 0.713569 0.357726 0.875335
Si Si2 0.950798 0.858980 0.224668
Si Si3 0.686104 0.871780 0.455833
Si Si4 0.308506 0.637186 0.766223
Si Si5 0.924111 0.147160 0.955167
Si Si6 0.674518 0.787399 0.648930
Si Si7 0.588704 0.631621 0.422861
O O1 0.744274 0.500000 0.870507
O O2 0.631535 0.357013 0.825683
O O3 0.784302 0.255821 0.829797
O O4 0.668049 0.321468 0.978505
O O5 0.921497 0.754396 0.298731
O O6 0.039647 0.828030 0.150097
O O7 0.954477 0.000000 0.254661
O O8 0.683005 0.867403 0.560684
O O9 0.780249 0.841288 0.391253
O O10 0.633019 0.754192 0.442306
O O11 0.652682 0.000000 0.430406
O O12 0.302771 0.500000 0.807860
O O13 0.230932 0.650523 0.711551
O O14 0.397484 0.639810 0.685568
O O15 0.927080 0.000000 0.960824
O O16 0.000000 0.198021 0.000000
O O17 0.500000 0.629401 0.500000
O O18 0.630857 0.500000 0.434490
#
# Coordination Sequence:
#
# PCOD9177478 Si02
#       7
#     8   8   8   8   8   8   8
#     4   8  13  21  34  53  76 101 131 164 194 225
#     4   8  12  19  33  52  74 103 137 165 187 220
#     4  10  19  29  43  62  83 108 138 171 204 240
#     4   9  16  26  41  58  79 107 133 160 195 237
#     4   7  10  17  30  48  71 100 132 163 190 217
#     4   9  17  26  39  58  85 111 135 163 198 236
#     4   9  19  34  47  59  78 105 136 170 208 245
#
# _framework density 21.899177000000002
#
# number of rings (size 3 to 8) (size 9 to 14) (size 15 to 20)
#    0.000    3.429    0.000    2.571    0.000    7.714 
#    0.000    0.000    0.000   11.571    0.000    0.000 
#    0.000    1.143    0.000    1.714    0.000    5.429 
#
# Total GULP energy -155868.298824 kJ/mol
# GULP energy per Si atom -5566.724958 kJ/mol
# Density = 2.184933 g / cm^3
# Si number density = 21.899177 Si / 1000 Ang^3
#
#
#
# Elastic Constant Matrix: (Units=GPa)
#
#
# Indices 1 2 3 4 5 6 
#
# 1 47.5970 43.5297 30.5114 0.0000 -19.2550 0.0000
# 2 43.5297 151.3921 54.9667 0.0000 -25.9483 0.0000
# 3 30.5114 54.9667 113.8073 0.0000 -36.4598 0.0000
# 4 0.0000 0.0000 0.0000 -10.2622 0.0000 3.3818
# 5 -19.2550 -25.9483 -36.4598 0.0000 42.8357 0.0000
# 6 0.0000 0.0000 0.0000 3.3818 0.0000 13.8607
#
#
#
# Elastic Compliance Matrix: (Units=1/GPa)
#
#
# Indices 1 2 3 4 5 6 
#
# 1 0.032352 -0.006928 -0.002768 0.000000 0.007990 0.000000
# 2 -0.006928 0.009639 -0.002647 0.000000 0.000472 0.000000
# 3 -0.002768 -0.002647 0.013605 0.000000 0.008732 0.000000
# 4 0.000000 0.000000 0.000000 -0.090193 0.000000 0.022006
# 5 0.007990 0.000472 0.008732 0.000000 0.034655 0.000000
# 6 0.000000 0.000000 0.000000 0.022006 0.000000 0.066777
#
#
# Mechanical properties :
#
#
# Convention : Reuss Voigt Hill
#
# Bulk Modulus (GPa) = 32.35102 63.42356 47.88729
# Shear Modulus (GPa) = 49.10420 21.53941 35.32180
#
# Velocity S-wave (km/s) = 4.74041 3.13960 4.02048
# Velocity P-wave (km/s) = 6.69080 6.49363 6.59295
#
# Compressibility (1/GPa) = 0.03091093
#
# Stress axis : x y z
#
# Youngs Moduli (GPa) = 30.90989 103.74208 73.50367
#
# Poissons Ratio (x) = 0.71870 0.20344
# Poissons Ratio (y) = 0.21414 0.19457
# Poissons Ratio (z) = 0.08555 0.27461
#
# Static dielectric constant tensor:
#      x y z
#    x 1.921210 0.000000 0.032180 
#    y 0.000000 1.773450 0.000000 
#    z 0.032180 0.000000 1.918920 
# 
# From -- ./inp_files/287378.got.cif
#   From: 2010.05.17/outbox.cif.g08.bks.cpg/sg12_144_cif.got.tgz:287378.got - 2010.06.03 13:09:07.
