data_PCOD9177582
_publ_section_title
;
Structure prediction by ZEFSAII (Michael W. Deem and Ramdas Pophale) SiO2 
 PCOD9177582
Probable space group: C 2/M
;
_chemical_formula_sum "Si O2"
_cell_formula_units_Z 40
_cell_length_a 18.273541
_cell_length_b 15.271116
_cell_length_c 7.244992
_cell_angle_alpha 90.000000
_cell_angle_beta 49.182093
_cell_angle_gamma 90.000000
_cell_volume 1530.055706
_symmetry_space_group_name_H-M "C 2/M"
_symmetry_group_IT_number 12
_symmetry_cell_setting 'monoclinic'
loop_
_space_group_symop_operation_xyz
x,y,z
-x,y,-z
-x,-y,-z
x,-y,z
1/2+x,1/2+y,z
1/2-x,1/2+y,-z
1/2-x,1/2-y,-z
1/2+x,1/2-y,z
loop_
_atom_site_type_symbol
_atom_site_label
_atom_site_fract_x
_atom_site_fract_y
_atom_site_fract_z
Si Si1 0.021462 0.157984 0.259225
Si Si2 0.590248 0.148673 0.252353
Si Si3 0.816880 0.105610 0.531085
Si Si4 0.780248 0.100754 0.027621
Si Si5 0.391422 0.902086 0.173231
O O1 0.921431 0.147611 0.314973
O O2 0.000000 0.118377 0.500000
O O3 0.052895 0.257673 0.243900
O O4 0.120712 0.115344 0.025473
O O5 0.500000 0.106461 0.500000
O O6 0.618847 0.092791 0.030082
O O7 0.684534 0.157091 0.224360
O O8 0.805653 0.121476 0.771159
O O9 0.822612 0.000000 0.496084
O O10 0.715476 0.135391 0.601970
O O11 0.752898 0.000000 0.093655
O O12 0.398543 0.000000 0.243994
O O13 0.500000 0.861383 0.000000
#
# Coordination Sequence:
#
# PCOD9177582 Si02
#       5
#     8   8   8   8   8
#     4   9  16  26  42  66  93 119 148 185 229 267
#     4  10  19  29  44  69  97 121 143 181 229 273
#     4   8  14  26  45  66  87 115 154 193 222 256
#     4   9  16  26  42  64  91 121 152 186 222 263
#     4   9  18  33  51  68  88 118 154 188 220 260
#
# _framework density 26.14284
#
# number of rings (size 3 to 8) (size 9 to 14) (size 15 to 20)
#    0.000    3.000    0.000    3.000    0.000    5.600 
#    0.000    1.000    0.000    0.000    0.000    0.000 
#    0.000    8.000    0.000    0.000    0.000    0.000 
#
# Total GULP energy -111454.192199 kJ/mol
# GULP energy per Si atom -5572.709610 kJ/mol
# Density = 2.608334 g / cm^3
# Si number density = 26.142840 Si / 1000 Ang^3
#
#
#
# Elastic Constant Matrix: (Units=GPa)
#
#
# Indices 1 2 3 4 5 6 
#
# 1 114.9182 16.3673 73.1914 0.0000 -50.4401 0.0000
# 2 16.3673 74.0026 37.6015 0.0000 -21.1297 0.0000
# 3 73.1914 37.6015 194.2766 0.0000 -103.7888 0.0000
# 4 0.0000 0.0000 0.0000 26.7270 0.0000 -9.9516
# 5 -50.4401 -21.1297 -103.7888 0.0000 78.7790 0.0000
# 6 0.0000 0.0000 0.0000 -9.9516 0.0000 18.5389
#
#
#
# Elastic Compliance Matrix: (Units=1/GPa)
#
#
# Indices 1 2 3 4 5 6 
#
# 1 0.012226 -0.000311 -0.001379 0.000000 0.005928 0.000000
# 2 -0.000311 0.015005 -0.002510 0.000000 0.000519 0.000000
# 3 -0.001379 -0.002510 0.017967 0.000000 0.022115 0.000000
# 4 0.000000 0.000000 0.000000 0.046762 0.000000 0.025102
# 5 0.005928 0.000519 0.022115 0.000000 0.045764 0.000000
# 6 0.000000 0.000000 0.000000 0.025102 0.000000 0.067415
#
#
# Mechanical properties :
#
#
# Convention : Reuss Voigt Hill
#
# Bulk Modulus (GPa) = 27.17450 70.83532 49.00491
# Shear Modulus (GPa) = 22.14291 41.87812 32.01051
#
# Velocity S-wave (km/s) = 2.91348 4.00671 3.50301
# Velocity P-wave (km/s) = 4.66208 6.96845 5.92850
#
# Compressibility (1/GPa) = 0.03679921
#
# Stress axis : x y z
#
# Youngs Moduli (GPa) = 81.79056 66.64337 55.65713
#
# Poissons Ratio (x) = 0.02071 0.07675
# Poissons Ratio (y) = 0.02542 0.13969
# Poissons Ratio (z) = 0.11279 0.16727
#
# Static dielectric constant tensor:
#      x y z
#    x 2.202390 0.000000 -0.077010 
#    y 0.000000 2.011670 0.000000 
#    z -0.077010 0.000000 2.248390 
# 
# From -- ./inp_files/46926.got.cif
#   From: 2010.05.17/outbox.cif.g08.bks.cpg/sg12_24_cif.got.tgz:46926.got - 2010.06.03 13:09:07.
