data_PCOD9177327
_publ_section_title
;
Structure prediction by ZEFSAII (Michael W. Deem and Ramdas Pophale) SiO2 
 PCOD9177327
Probable space group: C 2/M
;
_chemical_formula_sum "Si O2"
_cell_formula_units_Z 64
_cell_length_a 22.883311
_cell_length_b 13.729847
_cell_length_c 15.472678
_cell_angle_alpha 90.000000
_cell_angle_beta 108.009927
_cell_angle_gamma 90.000000
_cell_volume 4623.085420
_symmetry_space_group_name_H-M "C 2/M"
_symmetry_group_IT_number 12
_symmetry_cell_setting 'monoclinic'
loop_
_space_group_symop_operation_xyz
x,y,z
-x,y,-z
-x,-y,-z
x,-y,z
1/2+x,1/2+y,z
1/2-x,1/2+y,-z
1/2-x,1/2-y,-z
1/2+x,1/2-y,z
loop_
_atom_site_type_symbol
_atom_site_label
_atom_site_fract_x
_atom_site_fract_y
_atom_site_fract_z
Si Si1 0.667714 0.196085 0.795721
Si Si2 0.431775 0.883616 0.780263
Si Si3 0.205363 0.112055 0.079337
Si Si4 0.449512 0.882232 0.595859
Si Si5 0.727051 0.387627 0.883699
Si Si6 0.138444 0.696494 0.091520
Si Si7 0.089107 0.617875 0.608888
Si Si8 0.574072 0.884090 0.896268
O O1 0.730458 0.138101 0.844889
O O2 0.684792 0.309148 0.816013
O O3 0.639946 0.168476 0.690624
O O4 0.617949 0.163420 0.844440
O O5 0.425579 0.850089 0.678048
O O6 0.388737 0.828866 0.827946
O O7 0.502987 0.870104 0.839649
O O8 0.419313 0.000000 0.779628
O O9 0.155471 0.190532 0.086698
O O10 0.188718 0.000000 0.086892
O O11 0.216775 0.125855 0.981855
O O12 0.412703 0.853561 0.492914
O O13 0.521273 0.856962 0.614944
O O14 0.448690 0.000000 0.596830
O O15 0.714860 0.500000 0.856684
O O16 0.797627 0.360697 0.895744
O O17 0.091436 0.660663 0.996544
O O18 0.095562 0.500000 0.618199
O O19 0.586164 0.000000 0.903366
#
# Coordination Sequence:
#
# PCOD9177327 Si02
#       8
#     8   8   8   8   8   8   8   8
#     4  11  17  27  46  70  88 113 142 179 225 257
#     4  10  19  28  42  65  94 122 143 171 217 269
#     4  10  19  31  46  62  85 117 153 187 212 244
#     4   8  15  26  40  64  92 118 141 170 217 266
#     4  10  19  31  45  62  87 118 151 184 212 248
#     4  11  19  30  43  64  90 123 148 172 212 264
#     4   9  15  25  43  66  93 114 138 177 219 262
#     4  11  18  26  41  67  96 116 140 173 215 265
#
# _framework density 13.843569
#
# number of rings (size 3 to 8) (size 9 to 14) (size 15 to 20)
#    0.000    2.000    3.750    4.125    0.000    1.000 
#    0.000    0.000    0.000    5.250    0.000    4.375 
#    0.000    0.000    0.000    0.000    0.000    0.000 
#
# Total GULP energy -178390.882499 kJ/mol
# GULP energy per Si atom -5574.715078 kJ/mol
# Density = 1.381206 g / cm^3
# Si number density = 13.843569 Si / 1000 Ang^3
#
#
#
# Elastic Constant Matrix: (Units=GPa)
#
#
# Indices 1 2 3 4 5 6 
#
# 1 43.9831 34.1888 40.7183 0.0000 -15.0653 0.0000
# 2 34.1888 90.3242 49.1218 0.0000 -1.2380 0.0000
# 3 40.7183 49.1218 125.7852 0.0000 -5.9448 0.0000
# 4 0.0000 0.0000 0.0000 18.5224 0.0000 -1.0007
# 5 -15.0653 -1.2380 -5.9448 0.0000 25.4535 0.0000
# 6 0.0000 0.0000 0.0000 -1.0007 0.0000 18.3061
#
#
#
# Elastic Compliance Matrix: (Units=1/GPa)
#
#
# Indices 1 2 3 4 5 6 
#
# 1 0.052791 -0.013999 -0.010291 0.000000 0.028161 0.000000
# 2 -0.013999 0.017778 -0.002793 0.000000 -0.008073 0.000000
# 3 -0.010291 -0.002793 0.012213 0.000000 -0.003375 0.000000
# 4 0.000000 0.000000 0.000000 0.054149 0.000000 0.002960
# 5 0.028161 -0.008073 -0.003375 0.000000 0.054775 0.000000
# 6 0.000000 0.000000 0.000000 0.002960 0.000000 0.054789
#
#
# Mechanical properties :
#
#
# Convention : Reuss Voigt Hill
#
# Bulk Modulus (GPa) = 34.94585 56.46114 45.70349
# Shear Modulus (GPa) = 16.11871 21.52729 18.82300
#
# Velocity S-wave (km/s) = 3.41595 3.94768 3.69140
# Velocity P-wave (km/s) = 6.39191 7.85191 7.15923
#
# Compressibility (1/GPa) = 0.02861570
#
# Stress axis : x y z
#
# Youngs Moduli (GPa) = 18.94255 56.24872 81.88318
#
# Poissons Ratio (x) = 0.78744 0.84268
# Poissons Ratio (y) = 0.26518 0.22866
# Poissons Ratio (z) = 0.19494 0.15708
#
# Static dielectric constant tensor:
#      x y z
#    x 1.441400 0.000000 -0.005800 
#    y 0.000000 1.446600 0.000000 
#    z -0.005800 0.000000 1.464020 
# 
# From -- ./inp_files/233144.got.cif
#   From: 2010.05.17/outbox.cif.g08.bks.cpg/sg12_117_cif.got.tgz:233144.got - 2010.06.03 13:09:07.
