data_PCOD9177227
_publ_section_title
;
Structure prediction by ZEFSAII (Michael W. Deem and Ramdas Pophale) SiO2 
 PCOD9177227
Probable space group: C 2/M
;
_chemical_formula_sum "Si O2"
_cell_formula_units_Z 48
_cell_length_a 15.429996
_cell_length_b 23.697979
_cell_length_c 14.013058
_cell_angle_alpha 90.000000
_cell_angle_beta 150.994390
_cell_angle_gamma 90.000000
_cell_volume 2484.608560
_symmetry_space_group_name_H-M "C 2/M"
_symmetry_group_IT_number 12
_symmetry_cell_setting 'monoclinic'
loop_
_space_group_symop_operation_xyz
x,y,z
-x,y,-z
-x,-y,-z
x,-y,z
1/2+x,1/2+y,z
1/2-x,1/2+y,-z
1/2-x,1/2-y,-z
1/2+x,1/2-y,z
loop_
_atom_site_type_symbol
_atom_site_label
_atom_site_fract_x
_atom_site_fract_y
_atom_site_fract_z
Si Si1 0.000000 0.796039 0.500000
Si Si2 0.199217 0.379069 0.852588
Si Si3 0.712336 0.878375 0.523433
Si Si4 0.449738 0.376919 0.276014
Si Si5 0.811592 0.000000 0.609364
Si Si6 0.798950 0.204260 0.778096
Si Si7 0.991921 0.000000 0.379009
Si Si8 0.146573 0.000000 0.053946
O O1 0.935382 0.834062 0.349320
O O2 0.834220 0.755895 0.367230
O O3 0.228951 0.333933 0.797948
O O4 0.997024 0.371168 0.693550
O O5 0.330655 0.367027 0.067592
O O6 0.242471 0.441612 0.849867
O O7 0.730392 0.943527 0.572913
O O8 0.787958 0.836268 0.675699
O O9 0.844117 0.873961 0.560598
O O10 0.405632 0.440290 0.267864
O O11 0.822050 0.000000 0.504038
O O12 0.018027 0.000000 0.838152
O O13 0.000000 0.221079 0.000000
O O14 0.000000 0.000000 0.500000
O O15 0.000000 0.000000 0.000000
#
# Coordination Sequence:
#
# PCOD9177227 Si02
#       8
#     4   8   8   8   4   8   4   4
#     4  12  28  45  66  95 124 184 224 268 330 376
#     4  12  22  41  67  98 133 172 215 267 332 389
#     4  11  22  41  67  98 132 171 215 270 328 393
#     4  11  24  43  71  96 130 168 220 271 330 383
#     4  10  19  36  62  98 129 166 210 254 325 392
#     4  12  24  45  64  92 136 170 220 270 320 391
#     4  10  18  40  71  93 125 168 202 269 328 375
#     4  12  21  34  66 100 137 172 206 259 335 401
#
# _framework density 19.318940000000001
#
# number of rings (size 3 to 8) (size 9 to 14) (size 15 to 20)
#    0.000    0.667    7.500    2.000    0.000    2.667 
#    0.000    2.500    0.000    2.000    0.000    0.000 
#    0.000    0.000    0.000    0.000    0.000    0.000 
#
# Total GULP energy -133900.099661 kJ/mol
# GULP energy per Si atom -5579.170819 kJ/mol
# Density = 1.927497 g / cm^3
# Si number density = 19.318940 Si / 1000 Ang^3
#
#
#
# Elastic Constant Matrix: (Units=GPa)
#
#
# Indices 1 2 3 4 5 6 
#
# 1 68.6833 26.6179 16.1205 0.0000 -15.5820 0.0000
# 2 26.6179 104.4542 18.1458 0.0000 -17.2976 0.0000
# 3 16.1205 18.1458 73.2735 -0.0001 15.8830 0.0000
# 4 0.0000 0.0000 -0.0001 7.3762 -0.0001 -2.6364
# 5 -15.5820 -17.2976 15.8830 -0.0001 33.1893 0.0000
# 6 0.0000 0.0000 0.0000 -2.6364 0.0000 131.2160
#
#
#
# Elastic Compliance Matrix: (Units=1/GPa)
#
#
# Indices 1 2 3 4 5 6 
#
# 1 0.019251 -0.002045 -0.006088 0.000000 0.010886 0.000000
# 2 -0.002045 0.012009 -0.004097 0.000000 0.007259 0.000000
# 3 -0.006088 -0.004097 0.019062 0.000000 -0.014116 0.000000
# 4 0.000000 0.000000 0.000000 0.136553 0.000000 0.002744
# 5 0.010886 0.007259 -0.014116 0.000000 0.045780 0.000000
# 6 0.000000 0.000000 0.000000 0.002744 0.000000 0.007676
#
#
# Mechanical properties :
#
#
# Convention : Reuss Voigt Hill
#
# Bulk Modulus (GPa) = 38.67166 40.90883 39.79024
# Shear Modulus (GPa) = 18.28745 46.72471 32.50608
#
# Velocity S-wave (km/s) = 3.08004 4.92326 4.10640
# Velocity P-wave (km/s) = 5.71925 7.31706 6.56693
#
# Compressibility (1/GPa) = 0.02585873
#
# Stress axis : x y z
#
# Youngs Moduli (GPa) = 51.94574 83.27262 52.46162
#
# Poissons Ratio (x) = 0.17032 0.31941
# Poissons Ratio (y) = 0.10625 0.21496
# Poissons Ratio (z) = 0.31627 0.34121
#
# Static dielectric constant tensor:
#      x y z
#    x 1.695600 0.000000 0.011210 
#    y 0.000000 1.705890 0.000000 
#    z 0.011210 0.000000 1.664270 
# 
# From -- ./inp_files/218592.got.cif
#   From: 2010.05.17/outbox.cif.g08.bks.cpg/sg12_110_cif.got.tgz:218592.got - 2010.06.03 13:09:07.
