data_PCOD9177011
_publ_section_title
;
Structure prediction by ZEFSAII (Michael W. Deem and Ramdas Pophale) SiO2 
 PCOD9177011
Probable space group: C 2/M
;
_chemical_formula_sum "Si O2"
_cell_formula_units_Z 48
_cell_length_a 18.940882
_cell_length_b 16.566262
_cell_length_c 12.116685
_cell_angle_alpha 90.000000
_cell_angle_beta 41.977787
_cell_angle_gamma 90.000000
_cell_volume 2542.918072
_symmetry_space_group_name_H-M "C 2/M"
_symmetry_group_IT_number 12
_symmetry_cell_setting 'monoclinic'
loop_
_space_group_symop_operation_xyz
x,y,z
-x,y,-z
-x,-y,-z
x,-y,z
1/2+x,1/2+y,z
1/2-x,1/2+y,-z
1/2-x,1/2-y,-z
1/2+x,1/2-y,z
loop_
_atom_site_type_symbol
_atom_site_label
_atom_site_fract_x
_atom_site_fract_y
_atom_site_fract_z
Si Si1 0.372584 0.910685 0.328956
Si Si2 0.786136 0.318380 0.622262
Si Si3 0.295512 0.590004 0.674632
Si Si4 0.442966 0.740363 0.181488
Si Si5 0.701588 0.261460 0.176825
Si Si6 0.971407 0.812459 0.375190
O O1 0.322727 0.894644 0.508032
O O2 0.279846 0.906899 0.345108
O O3 0.446451 0.834491 0.214032
O O4 0.420949 0.000000 0.266914
O O5 0.678263 0.285696 0.695057
O O6 0.777448 0.313889 0.765087
O O7 0.878393 0.253421 0.493690
O O8 0.290503 0.500000 0.727296
O O9 0.258608 0.658822 0.803534
O O10 0.414228 0.610608 0.494843
O O11 0.491081 0.684677 0.221485
O O12 0.500000 0.730580 0.000000
O O13 0.577196 0.280140 0.307566
O O14 0.750000 0.250000 0.000000
#
# Coordination Sequence:
#
# PCOD9177011 Si02
#       6
#     8   8   8   8   8   8
#     4  10  19  34  57  81 106 142 184 225 266 314
#     4  10  18  37  55  77 105 143 187 218 258 317
#     4  10  19  35  58  81 107 141 183 224 265 320
#     4  11  19  32  56  81 109 139 178 227 272 311
#     4  11  22  34  54  84 111 141 177 222 274 323
#     4  10  19  33  55  80 104 140 182 221 259 321
#
# _framework density 18.875951000000001
#
# number of rings (size 3 to 8) (size 9 to 14) (size 15 to 20)
#    0.000    1.667    5.000    4.000    0.000    1.667 
#    0.000    0.833    0.000   12.000    0.000    0.000 
#    0.000    0.000    0.000    0.000    0.000    0.000 
#
# Total GULP energy -133724.349197 kJ/mol
# GULP energy per Si atom -5571.847883 kJ/mol
# Density = 1.883299 g / cm^3
# Si number density = 18.875951 Si / 1000 Ang^3
#
#
#
# Elastic Constant Matrix: (Units=GPa)
#
#
# Indices 1 2 3 4 5 6 
#
# 1 73.5059 -1.9952 6.6429 0.0000 20.9071 0.0000
# 2 -1.9952 44.0083 10.6065 0.0000 13.0417 0.0000
# 3 6.6429 10.6065 77.9616 0.0000 36.9827 0.0000
# 4 0.0000 0.0000 0.0000 12.7071 0.0000 2.3344
# 5 20.9071 13.0417 36.9827 0.0000 43.7143 0.0000
# 6 0.0000 0.0000 0.0000 2.3344 0.0000 14.3932
#
#
#
# Elastic Compliance Matrix: (Units=1/GPa)
#
#
# Indices 1 2 3 4 5 6 
#
# 1 0.016903 0.003512 0.004032 0.000000 -0.012543 0.000000
# 2 0.003512 0.025659 0.001066 0.000000 -0.010236 0.000000
# 3 0.004032 0.001066 0.022389 0.000000 -0.021188 0.000000
# 4 0.000000 0.000000 0.000000 0.081113 0.000000 -0.013156
# 5 -0.012543 -0.010236 -0.021188 0.000000 0.049853 0.000000
# 6 0.000000 0.000000 0.000000 -0.013156 0.000000 0.071611
#
#
# Mechanical properties :
#
#
# Convention : Reuss Voigt Hill
#
# Bulk Modulus (GPa) = 12.17006 25.10935 18.63970
# Shear Modulus (GPa) = 18.00508 26.17769 22.09139
#
# Velocity S-wave (km/s) = 3.09182 3.72805 3.42474
# Velocity P-wave (km/s) = 4.38260 5.64467 5.05319
#
# Compressibility (1/GPa) = 0.08216887
#
# Stress axis : x y z
#
# Youngs Moduli (GPa) = 59.16183 38.97306 44.66463
#
# Poissons Ratio (x) = -0.13686 -0.18008
# Poissons Ratio (y) = -0.20775 -0.04760
# Poissons Ratio (z) = -0.23854 -0.04153
#
# Static dielectric constant tensor:
#      x y z
#    x 1.701080 0.000000 0.041000 
#    y 0.000000 1.659310 0.000000 
#    z 0.041000 0.000000 1.730180 
# 
# From -- ./inp_files/157664.got.cif
#   From: 2010.05.17/outbox.cif.g08.bks.cpg/sg12_79_cif.got.tgz:157664.got - 2010.06.03 13:09:07.
