data_PCOD9177764
_publ_section_title
;
Structure prediction by ZEFSAII (Michael W. Deem and Ramdas Pophale) SiO2 
 PCOD9177764
Probable space group: C 2/M
;
_chemical_formula_sum "Si O2"
_cell_formula_units_Z 48
_cell_length_a 19.411487
_cell_length_b 30.524313
_cell_length_c 9.572267
_cell_angle_alpha 90.000000
_cell_angle_beta 29.884762
_cell_angle_gamma 90.000000
_cell_volume 2826.005891
_symmetry_space_group_name_H-M "C 2/M"
_symmetry_group_IT_number 12
_symmetry_cell_setting 'monoclinic'
loop_
_space_group_symop_operation_xyz
x,y,z
-x,y,-z
-x,-y,-z
x,-y,z
1/2+x,1/2+y,z
1/2-x,1/2+y,-z
1/2-x,1/2-y,-z
1/2+x,1/2-y,z
loop_
_atom_site_type_symbol
_atom_site_label
_atom_site_fract_x
_atom_site_fract_y
_atom_site_fract_z
Si Si1 0.354041 0.303836 0.207771
Si Si2 0.639269 0.203531 0.835253
Si Si3 0.649905 0.865299 0.056925
Si Si4 0.333631 0.950123 0.141526
Si Si5 0.183141 0.630504 0.320230
Si Si6 0.669480 0.049492 0.532718
O O1 0.381425 0.255115 0.098417
O O2 0.261181 0.299578 0.509086
O O3 0.268605 0.332797 0.250669
O O4 0.500000 0.323077 0.000000
O O5 0.500000 0.187211 0.000000
O O6 0.674751 0.175050 0.908344
O O7 0.482323 0.865666 0.365127
O O8 0.706793 0.864426 0.113807
O O9 0.704896 0.909922 0.889227
O O10 0.290775 0.940125 0.376787
O O11 0.288327 0.000000 0.186876
O O12 0.501529 0.950749 0.835427
O O13 0.217853 0.584219 0.333299
O O14 0.713821 0.000000 0.421983
#
# Coordination Sequence:
#
# PCOD9177764 Si02
#       6
#     8   8   8   8   8   8
#     4  10  21  35  54  75  97 130 173 216 250 294
#     4  10  19  35  56  74  95 132 175 211 251 299
#     4  10  19  29  50  75 103 137 162 206 257 301
#     4   8  14  24  41  70 101 130 165 204 250 294
#     4  10  19  31  47  75 106 132 167 206 254 302
#     4   8  14  25  44  68  98 133 167 205 243 291
#
# _framework density 16.985102999999999
#
# number of rings (size 3 to 8) (size 9 to 14) (size 15 to 20)
#    0.000    2.667    1.667    2.000    2.333    1.333 
#    0.000    4.167    0.000    0.500    0.000    0.000 
#    0.000    5.333    0.000    0.000    0.000    0.000 
#
# Total GULP energy -133620.315500 kJ/mol
# GULP energy per Si atom -5567.513146 kJ/mol
# Density = 1.694644 g / cm^3
# Si number density = 16.985103 Si / 1000 Ang^3
#
#
#
# Elastic Constant Matrix: (Units=GPa)
#
#
# Indices 1 2 3 4 5 6 
#
# 1 118.9939 83.1934 23.8131 0.0000 27.3966 0.0000
# 2 83.1934 103.7303 15.4281 0.0000 28.1313 0.0000
# 3 23.8131 15.4281 29.0414 -0.0001 6.2143 0.0000
# 4 0.0000 0.0000 -0.0001 11.9023 0.0001 0.9520
# 5 27.3966 28.1313 6.2143 0.0001 25.2929 0.0000
# 6 0.0000 0.0000 0.0000 0.9520 0.0000 -0.4997
#
#
#
# Elastic Compliance Matrix: (Units=1/GPa)
#
#
# Indices 1 2 3 4 5 6 
#
# 1 0.021515 -0.014620 -0.008832 0.000000 -0.004874 0.000000
# 2 -0.014620 0.024260 0.001567 0.000000 -0.011532 0.000000
# 3 -0.008832 0.001567 0.041342 0.000000 -0.002334 0.000001
# 4 0.000000 0.000000 0.000000 0.072906 0.000000 0.138911
# 5 -0.004874 -0.011532 -0.002334 0.000000 0.058215 -0.000001
# 6 0.000000 0.000000 0.000001 0.138911 -0.000001 -1.736637
#
#
# Mechanical properties :
#
#
# Convention : Reuss Voigt Hill
#
# Bulk Modulus (GPa) = 23.06891 55.18164 39.12527
# Shear Modulus (GPa) = -3.42423 15.96118 6.26847
#
# Velocity S-wave (km/s) = -1.42141 3.06880 1.92317
# Velocity P-wave (km/s) = 3.30416 6.71681 5.29306
#
# Compressibility (1/GPa) = 0.04334838
#
# Stress axis : x y z
#
# Youngs Moduli (GPa) = 46.48021 41.22033 24.18837
#
# Poissons Ratio (x) = 0.60263 0.21363
# Poissons Ratio (y) = 0.67953 -0.03791
# Poissons Ratio (z) = 0.41050 -0.06461
#
# Static dielectric constant tensor:
#      x y z
#    x 1.565110 0.000000 -0.001630 
#    y 0.000000 1.601550 0.000000 
#    z -0.001630 0.000000 1.562850 
# 
# From -- ./inp_files/68070.got.cif
#   From: 2010.05.17/outbox.cif.g08.bks.cpg/sg12_35_cif.got.tgz:68070.got - 2010.06.03 13:09:07.
