data_PCOD9177243
_publ_section_title
;
Structure prediction by ZEFSAII (Michael W. Deem and Ramdas Pophale) SiO2 
 PCOD9177243
Probable space group: C 2/M
;
_chemical_formula_sum "Si O2"
_cell_formula_units_Z 56
_cell_length_a 22.593236
_cell_length_b 14.215842
_cell_length_c 7.857386
_cell_angle_alpha 90.000000
_cell_angle_beta 59.869223
_cell_angle_gamma 90.000000
_cell_volume 2182.659178
_symmetry_space_group_name_H-M "C 2/M"
_symmetry_group_IT_number 12
_symmetry_cell_setting 'monoclinic'
loop_
_space_group_symop_operation_xyz
x,y,z
-x,y,-z
-x,-y,-z
x,-y,z
1/2+x,1/2+y,z
1/2-x,1/2+y,-z
1/2-x,1/2-y,-z
1/2+x,1/2-y,z
loop_
_atom_site_type_symbol
_atom_site_label
_atom_site_fract_x
_atom_site_fract_y
_atom_site_fract_z
Si Si1 0.870125 0.370005 0.048900
Si Si2 0.886798 0.144260 0.988017
Si Si3 0.757670 0.638950 0.939992
Si Si4 0.470675 0.682522 0.356890
Si Si5 0.162936 0.858879 0.574758
Si Si6 0.693223 0.863842 0.516694
Si Si7 0.485185 0.102522 0.319790
O O1 0.860192 0.393876 0.260712
O O2 0.875462 0.257117 0.015677
O O3 0.806549 0.398315 0.019286
O O4 0.942654 0.403991 0.878774
O O5 0.966176 0.132082 0.828221
O O6 0.821853 0.108438 0.970599
O O7 0.874370 0.113550 0.197624
O O8 0.795935 0.618479 0.702149
O O9 0.750000 0.750000 0.000000
O O10 0.500000 0.692861 0.500000
O O11 0.398029 0.629866 0.470073
O O12 0.458861 0.791342 0.311465
O O13 0.237735 0.898894 0.490176
O O14 0.183481 0.748888 0.531219
O O15 0.500000 0.107652 0.500000
O O16 0.449435 0.000000 0.351058
#
# Coordination Sequence:
#
# PCOD9177243 Si02
#       7
#     8   8   8   8   8   8   8
#     4   9  17  29  47  64  83 117 150 198 244 281
#     4   8  16  27  36  61  85 115 144 179 223 281
#     4   9  16  25  45  64  91 114 147 182 236 291
#     4  10  19  24  43  64  85 127 157 191 232 274
#     4   9  16  27  39  58  89 115 143 186 229 273
#     4   9  18  27  43  66  88 115 148 200 229 283
#     4   9  19  34  48  65  87 122 173 213 249 281
#
# _framework density 25.656776000000001
#
# number of rings (size 3 to 8) (size 9 to 14) (size 15 to 20)
#    0.000    3.000    0.000    3.000   10.000    0.000 
#    0.000    0.000    0.000   16.286    0.000    0.000 
#    0.000    0.000    0.000    2.571    0.000   12.143 
#
# Total GULP energy -155904.671384 kJ/mol
# GULP energy per Si atom -5568.023978 kJ/mol
# Density = 2.559838 g / cm^3
# Si number density = 25.656776 Si / 1000 Ang^3
#
#
#
# Elastic Constant Matrix: (Units=GPa)
#
#
# Indices 1 2 3 4 5 6 
#
# 1 148.8473 -4.6689 24.0718 0.0000 9.3713 0.0000
# 2 -4.6689 87.9837 -2.3979 0.0000 5.7641 0.0000
# 3 24.0718 -2.3979 163.4758 0.0000 11.3265 0.0000
# 4 0.0000 0.0000 0.0000 -24.0538 0.0000 45.7870
# 5 9.3713 5.7641 11.3265 0.0000 18.1465 0.0000
# 6 0.0000 0.0000 0.0000 45.7870 0.0000 -50.2977
#
#
#
# Elastic Compliance Matrix: (Units=1/GPa)
#
#
# Indices 1 2 3 4 5 6 
#
# 1 0.007076 0.000572 -0.000802 0.000000 -0.003335 0.000000
# 2 0.000572 0.011685 0.000381 0.000000 -0.004245 0.000000
# 3 -0.000802 0.000381 0.006502 0.000000 -0.003765 0.000000
# 4 0.000000 0.000000 0.000000 0.056731 0.000000 0.051644
# 5 -0.003335 -0.004245 -0.003765 0.000000 0.060528 0.000000
# 6 0.000000 0.000000 0.000000 0.051644 0.000000 0.027131
#
#
# Mechanical properties :
#
#
# Convention : Reuss Voigt Hill
#
# Bulk Modulus (GPa) = 39.11735 48.25742 43.68739
# Shear Modulus (GPa) = 28.11019 14.31244 21.21131
#
# Velocity S-wave (km/s) = 3.31361 2.36443 2.87842
# Velocity P-wave (km/s) = 5.46988 5.12872 5.30204
#
# Compressibility (1/GPa) = 0.02556410
#
# Stress axis : x y z
#
# Youngs Moduli (GPa) = 141.32294 85.58280 153.80536
#
# Poissons Ratio (x) = -0.04896 0.12342
# Poissons Ratio (y) = -0.08085 -0.05864
# Poissons Ratio (z) = 0.11341 -0.03263
#
# Static dielectric constant tensor:
#      x y z
#    x 2.300340 0.000000 -0.065600 
#    y 0.000000 2.079240 0.000000 
#    z -0.065600 0.000000 2.050120 
# 
# From -- ./inp_files/98815.got.cif
#   From: 2010.05.17/outbox.cif.g08.bks.cpg/sg12_50_cif.got.tgz:98815.got - 2010.06.03 13:09:07.
