data_PCOD9177037
_publ_section_title
;
Structure prediction by ZEFSAII (Michael W. Deem and Ramdas Pophale) SiO2 
 PCOD9177037
Probable space group: C 2/M
;
_chemical_formula_sum "Si O2"
_cell_formula_units_Z 64
_cell_length_a 15.577854
_cell_length_b 17.056221
_cell_length_c 13.621617
_cell_angle_alpha 90.000000
_cell_angle_beta 59.185176
_cell_angle_gamma 90.000000
_cell_volume 3108.314789
_symmetry_space_group_name_H-M "C 2/M"
_symmetry_group_IT_number 12
_symmetry_cell_setting 'monoclinic'
loop_
_space_group_symop_operation_xyz
x,y,z
-x,y,-z
-x,-y,-z
x,-y,z
1/2+x,1/2+y,z
1/2-x,1/2+y,-z
1/2-x,1/2-y,-z
1/2+x,1/2-y,z
loop_
_atom_site_type_symbol
_atom_site_label
_atom_site_fract_x
_atom_site_fract_y
_atom_site_fract_z
Si Si1 0.740493 0.698809 0.699780
Si Si2 0.754760 0.382551 0.356840
Si Si3 0.379133 0.633460 0.388120
Si Si4 0.520507 0.088103 0.730436
Si Si5 0.395159 0.586434 0.734104
Si Si6 0.237871 0.217989 0.115726
Si Si7 0.075780 0.706727 0.533598
Si Si8 0.598060 0.909933 0.009103
O O1 0.732887 0.789338 0.667818
O O2 0.652933 0.644703 0.706612
O O3 0.753207 0.713317 0.808220
O O4 0.838366 0.669827 0.584324
O O5 0.707281 0.400859 0.491058
O O6 0.867919 0.413193 0.286898
O O7 0.672476 0.409382 0.325241
O O8 0.485461 0.594042 0.346551
O O9 0.386319 0.722475 0.422973
O O10 0.526137 0.144958 0.634925
O O11 0.440472 0.112374 0.859615
O O12 0.496091 0.000000 0.714230
O O13 0.375191 0.500000 0.790061
O O14 0.360820 0.664815 0.811746
O O15 0.250000 0.250000 0.000000
O O16 0.324740 0.152697 0.077718
O O17 0.000000 0.743093 0.500000
O O18 0.636238 0.000000 0.988189
O O19 0.500000 0.909800 0.000000
#
# Coordination Sequence:
#
# PCOD9177037 Si02
#       8
#     8   8   8   8   8   8   8   8
#     4  10  20  38  60  91 118 161 204 254 308 362
#     4  10  18  37  59  90 126 158 198 246 306 375
#     4  11  20  37  61  90 124 163 200 243 306 377
#     4  11  22  35  59  89 122 163 201 252 317 376
#     4  11  24  38  60  92 127 162 204 260 313 366
#     4  11  25  40  65  91 119 160 215 260 312 367
#     4  11  21  36  61  85 125 157 202 254 307 368
#     4  10  22  39  61  90 123 158 201 260 317 362
#
# _framework density 20.589934
#
# number of rings (size 3 to 8) (size 9 to 14) (size 15 to 20)
#    0.000    1.375    2.500    5.625    3.500    2.750 
#    0.000    0.000    0.000    2.250    0.000    0.000 
#    0.000    0.000    0.000    0.000    0.000    0.000 
#
# Total GULP energy -178539.457143 kJ/mol
# GULP energy per Si atom -5579.358036 kJ/mol
# Density = 2.054307 g / cm^3
# Si number density = 20.589934 Si / 1000 Ang^3
#
#
#
# Elastic Constant Matrix: (Units=GPa)
#
#
# Indices 1 2 3 4 5 6 
#
# 1 64.0416 -3.8719 12.3164 0.0000 5.0294 0.0000
# 2 -3.8719 30.6661 17.9110 0.0000 13.3061 0.0000
# 3 12.3164 17.9110 100.0831 0.0000 13.0122 0.0000
# 4 0.0000 0.0000 0.0000 -8.2867 0.0000 4.5482
# 5 5.0294 13.3061 13.0122 0.0000 38.8785 0.0000
# 6 0.0000 0.0000 0.0000 4.5482 0.0000 -3.3433
#
#
#
# Elastic Compliance Matrix: (Units=1/GPa)
#
#
# Indices 1 2 3 4 5 6 
#
# 1 0.016629 0.004866 -0.002531 0.000000 -0.002970 0.000000
# 2 0.004866 0.042712 -0.006545 0.000000 -0.013057 0.000000
# 3 -0.002531 -0.006545 0.011648 0.000000 -0.001331 0.000000
# 4 0.000000 0.000000 0.000000 -0.476308 0.000000 -0.647954
# 5 -0.002970 -0.013057 -0.001331 0.000000 0.031020 0.000000
# 6 0.000000 0.000000 0.000000 -0.647954 0.000000 -1.180558
#
#
# Mechanical properties :
#
#
# Convention : Reuss Voigt Hill
#
# Bulk Modulus (GPa) = 15.98238 27.50020 21.74129
# Shear Modulus (GPa) = -3.27744 16.67871 6.70064
#
# Velocity S-wave (km/s) = -1.26302 2.84921 1.80593
# Velocity P-wave (km/s) = 2.37742 4.92028 3.86402
#
# Compressibility (1/GPa) = 0.06256891
#
# Stress axis : x y z
#
# Youngs Moduli (GPa) = 60.13565 23.41265 85.85511
#
# Poissons Ratio (x) = -0.11394 0.21732
# Poissons Ratio (y) = -0.29265 0.56193
# Poissons Ratio (z) = 0.15222 0.15324
#
# Static dielectric constant tensor:
#      x y z
#    x 1.782910 0.000000 -0.007390 
#    y 0.000000 1.731530 0.000000 
#    z -0.007390 0.000000 1.778870 
# 
# From -- ./inp_files/216349.got.cif
#   From: 2010.05.17/outbox.cif.g08.bks.cpg/sg12_109_cif.got.tgz:216349.got - 2010.06.03 13:09:07.
