data_PCOD9177169
_publ_section_title
;
Structure prediction by ZEFSAII (Michael W. Deem and Ramdas Pophale) SiO2 
 PCOD9177169
Probable space group: C 2/M
;
_chemical_formula_sum "Si O2"
_cell_formula_units_Z 56
_cell_length_a 21.535896
_cell_length_b 14.422243
_cell_length_c 21.762348
_cell_angle_alpha 90.000000
_cell_angle_beta 158.684570
_cell_angle_gamma 90.000000
_cell_volume 2457.018688
_symmetry_space_group_name_H-M "C 2/M"
_symmetry_group_IT_number 12
_symmetry_cell_setting 'monoclinic'
loop_
_space_group_symop_operation_xyz
x,y,z
-x,y,-z
-x,-y,-z
x,-y,z
1/2+x,1/2+y,z
1/2-x,1/2+y,-z
1/2-x,1/2-y,-z
1/2+x,1/2-y,z
loop_
_atom_site_type_symbol
_atom_site_label
_atom_site_fract_x
_atom_site_fract_y
_atom_site_fract_z
Si Si1 0.713839 0.602245 0.573506
Si Si2 0.891194 0.199219 0.962148
Si Si3 0.985573 0.242924 0.418295
Si Si4 0.938955 0.286054 0.692162
Si Si5 0.024129 0.896046 0.833644
Si Si6 0.489147 0.900926 0.916859
Si Si7 0.118338 0.397251 0.473990
O O1 0.672302 0.500000 0.511964
O O2 0.549971 0.667500 0.428034
O O3 0.877461 0.642800 0.688160
O O4 0.793271 0.598447 0.714726
O O5 0.697270 0.213126 0.762599
O O6 0.000000 0.180849 0.000000
O O7 0.923347 0.128517 0.047784
O O8 0.936604 0.301223 0.030880
O O9 0.000000 0.205834 0.500000
O O10 0.113802 0.328912 0.527510
O O11 0.750000 0.250000 0.500000
O O12 0.051591 0.198011 0.817730
O O13 0.989335 0.347524 0.679774
O O14 0.817422 0.902928 0.640016
O O15 0.089520 0.000000 0.876704
O O16 0.563706 0.000000 0.962515
O O17 0.500000 0.902841 0.000000
O O18 0.053900 0.500000 0.426601
#
# Coordination Sequence:
#
# PCOD9177169 Si02
#       7
#     8   8   8   8   8   8   8
#     4  11  21  37  64  94 124 160 206 255 305 370
#     4  11  22  38  60  83 125 170 208 256 307 372
#     4  12  24  39  61  91 129 163 205 260 312 365
#     4  10  18  38  66  92 121 156 204 254 305 362
#     4  10  20  37  63  91 120 159 208 252 305 369
#     4   9  17  32  56  83 114 156 199 242 299 363
#     4  10  21  40  66  93 122 161 208 258 306 365
#
# _framework density 22.79185
#
# number of rings (size 3 to 8) (size 9 to 14) (size 15 to 20)
#    0.000    1.571    4.286    3.000    0.000    2.571 
#    0.000    0.714    0.000    0.000    0.000    0.000 
#    0.000    0.000    0.000    0.000    0.000    0.000 
#
# Total GULP energy -155959.806881 kJ/mol
# GULP energy per Si atom -5569.993103 kJ/mol
# Density = 2.273997 g / cm^3
# Si number density = 22.791850 Si / 1000 Ang^3
#
#
#
# Elastic Constant Matrix: (Units=GPa)
#
#
# Indices 1 2 3 4 5 6 
#
# 1 52.6889 12.2522 12.4793 -0.0007 -6.3392 -0.0005
# 2 12.2522 141.4539 -4.1667 -0.0005 -0.7570 -0.0010
# 3 12.4793 -4.1667 37.7916 0.0011 -13.4127 0.0003
# 4 -0.0007 -0.0005 0.0011 23.1109 -0.0001 -7.0842
# 5 -6.3392 -0.7570 -13.4127 -0.0001 27.5592 -0.0002
# 6 -0.0005 -0.0010 0.0003 -7.0842 -0.0002 10.6139
#
#
#
# Elastic Compliance Matrix: (Units=1/GPa)
#
#
# Indices 1 2 3 4 5 6 
#
# 1 0.021220 -0.002026 -0.006670 0.000001 0.001579 0.000002
# 2 -0.002026 0.007297 0.001667 0.000000 0.000546 0.000001
# 3 -0.006670 0.001667 0.034232 -0.000002 0.015172 -0.000002
# 4 0.000001 0.000000 -0.000002 0.054399 0.000000 0.036309
# 5 0.001579 0.000546 0.015172 0.000000 0.044048 0.000000
# 6 0.000002 0.000001 -0.000002 0.036309 0.000000 0.118450
#
#
# Mechanical properties :
#
#
# Convention : Reuss Voigt Hill
#
# Bulk Modulus (GPa) = 20.53752 30.34044 25.43898
# Shear Modulus (GPa) = 16.13243 26.34810 21.24026
#
# Velocity S-wave (km/s) = 2.66337 3.40373 3.05605
# Velocity P-wave (km/s) = 4.29983 5.36545 4.86192
#
# Compressibility (1/GPa) = 0.04869136
#
# Stress axis : x y z
#
# Youngs Moduli (GPa) = 47.12472 137.04331 29.21247
#
# Poissons Ratio (x) = 0.27766 0.19485
# Poissons Ratio (y) = 0.09548 -0.04871
# Poissons Ratio (z) = 0.31433 -0.22849
#
# Static dielectric constant tensor:
#      x y z
#    x 2.005980 0.000000 -0.028530 
#    y 0.000000 1.978740 0.000000 
#    z -0.028530 0.000000 1.899330 
# 
# From -- ./inp_files/349781.got.cif
#   From: 2010.05.17/outbox.cif.g08.bks.cpg/sg12_175_cif.got.tgz:349781.got - 2010.06.03 13:09:07.
