data_PCOD9177823
_publ_section_title
;
Structure prediction by ZEFSAII (Michael W. Deem and Ramdas Pophale) SiO2 
 PCOD9177823
Probable space group: C 2/M
;
_chemical_formula_sum "Si O2"
_cell_formula_units_Z 64
_cell_length_a 26.994205
_cell_length_b 20.175842
_cell_length_c 9.222865
_cell_angle_alpha 90.000000
_cell_angle_beta 55.375253
_cell_angle_gamma 90.000000
_cell_volume 4133.428125
_symmetry_space_group_name_H-M "C 2/M"
_symmetry_group_IT_number 12
_symmetry_cell_setting 'monoclinic'
loop_
_space_group_symop_operation_xyz
x,y,z
-x,y,-z
-x,-y,-z
x,-y,z
1/2+x,1/2+y,z
1/2-x,1/2+y,-z
1/2-x,1/2-y,-z
1/2+x,1/2-y,z
loop_
_atom_site_type_symbol
_atom_site_label
_atom_site_fract_x
_atom_site_fract_y
_atom_site_fract_z
Si Si1 0.569478 0.717753 0.870517
Si Si2 0.924424 0.925295 0.993925
Si Si3 0.467126 0.423595 0.412965
Si Si4 0.180459 0.708742 0.777754
Si Si5 0.707601 0.423899 0.915807
Si Si6 0.240041 0.846220 0.584387
Si Si7 0.261923 0.316780 0.892937
Si Si8 0.359429 0.333964 0.492628
O O1 0.612753 0.764575 0.893204
O O2 0.599417 0.719107 0.661324
O O3 0.500000 0.735602 0.000000
O O4 0.575010 0.639988 0.907670
O O5 0.984093 0.921481 0.796957
O O6 0.923031 0.000000 0.064417
O O7 0.864305 0.919864 0.996389
O O8 0.500000 0.394380 0.500000
O O9 0.453067 0.500000 0.469156
O O10 0.406189 0.387834 0.471396
O O11 0.219902 0.776380 0.690562
O O12 0.198857 0.665646 0.606494
O O13 0.205297 0.673619 0.879359
O O14 0.722199 0.500000 0.922390
O O15 0.737999 0.399291 0.715194
O O16 0.726062 0.375920 0.015288
O O17 0.188982 0.859421 0.546595
O O18 0.319650 0.309013 0.692043
O O19 0.250000 0.250000 0.000000
#
# Coordination Sequence:
#
# PCOD9177823 Si02
#       8
#     8   8   8   8   8   8   8   8
#     4  11  19  32  51  74  99 127 176 225 249 291
#     4  10  19  30  43  65 103 145 176 207 245 284
#     4  10  20  31  42  61 100 148 184 211 243 285
#     4   9  18  32  52  72  95 133 173 207 260 316
#     4  11  21  33  51  78 107 136 178 222 258 300
#     4   9  17  33  51  72  97 128 173 215 264 309
#     4  11  20  34  54  73 100 143 175 209 269 320
#     4  10  20  31  49  72  92 134 183 219 247 293
#
# _framework density 15.483515000000001
#
# number of rings (size 3 to 8) (size 9 to 14) (size 15 to 20)
#    0.000    1.875    5.000    1.500    0.000    2.750 
#    0.000    1.875    0.000    0.000    0.000    0.000 
#    0.000    3.000    0.000    0.000    0.000    0.000 
#
# Total GULP energy -178343.919608 kJ/mol
# GULP energy per Si atom -5573.247488 kJ/mol
# Density = 1.544827 g / cm^3
# Si number density = 15.483515 Si / 1000 Ang^3
#
#
#
# Elastic Constant Matrix: (Units=GPa)
#
#
# Indices 1 2 3 4 5 6 
#
# 1 92.3758 47.0710 46.1930 0.0000 -4.9009 0.0000
# 2 47.0710 64.6432 40.1281 0.0000 -1.1865 0.0000
# 3 46.1930 40.1281 92.1068 0.0000 -1.6507 0.0000
# 4 0.0000 0.0000 0.0000 19.4973 0.0000 2.8482
# 5 -4.9009 -1.1865 -1.6507 0.0000 24.7761 0.0000
# 6 0.0000 0.0000 0.0000 2.8482 0.0000 29.8017
#
#
#
# Elastic Compliance Matrix: (Units=1/GPa)
#
#
# Indices 1 2 3 4 5 6 
#
# 1 0.018787 -0.010706 -0.004706 0.000000 0.002890 0.000000
# 2 -0.010706 0.027309 -0.006551 0.000000 -0.001246 0.000000
# 3 -0.004706 -0.006551 0.016068 0.000000 -0.000174 0.000000
# 4 0.000000 0.000000 0.000000 0.052015 0.000000 -0.004971
# 5 0.002890 -0.001246 -0.000174 0.000000 0.040862 0.000000
# 6 0.000000 0.000000 0.000000 -0.004971 0.000000 0.034030
#
#
# Mechanical properties :
#
#
# Convention : Reuss Voigt Hill
#
# Bulk Modulus (GPa) = 54.82882 57.32334 56.07608
# Shear Modulus (GPa) = 20.91380 22.53060 21.72220
#
# Velocity S-wave (km/s) = 3.67919 3.81876 3.74963
# Velocity P-wave (km/s) = 7.31687 7.51974 7.41900
#
# Compressibility (1/GPa) = 0.01823858
#
# Stress axis : x y z
#
# Youngs Moduli (GPa) = 53.22752 36.61823 62.23544
#
# Poissons Ratio (x) = 0.39203 0.29289
# Poissons Ratio (y) = 0.56985 0.40769
# Poissons Ratio (z) = 0.25050 0.23988
#
# Static dielectric constant tensor:
#      x y z
#    x 1.545250 0.000000 0.022500 
#    y 0.000000 1.512510 0.000000 
#    z 0.022500 0.000000 1.558360 
# 
# From -- ./inp_files/106235.got.cif
#   From: 2010.05.17/outbox.cif.g08.bks.cpg/sg12_54_cif.got.tgz:106235.got - 2010.06.03 13:09:07.
