data_PCOD9177931
_publ_section_title
;
Structure prediction by ZEFSAII (Michael W. Deem and Ramdas Pophale) SiO2 
 PCOD9177931
Probable space group: C 2/M
;
_chemical_formula_sum "Si O2"
_cell_formula_units_Z 56
_cell_length_a 19.563292
_cell_length_b 7.314100
_cell_length_c 25.577106
_cell_angle_alpha 90.000000
_cell_angle_beta 40.906799
_cell_angle_gamma 90.000000
_cell_volume 2396.531464
_symmetry_space_group_name_H-M "C 2/M"
_symmetry_group_IT_number 12
_symmetry_cell_setting 'monoclinic'
loop_
_space_group_symop_operation_xyz
x,y,z
-x,y,-z
-x,-y,-z
x,-y,z
1/2+x,1/2+y,z
1/2-x,1/2+y,-z
1/2-x,1/2-y,-z
1/2+x,1/2-y,z
loop_
_atom_site_type_symbol
_atom_site_label
_atom_site_fract_x
_atom_site_fract_y
_atom_site_fract_z
Si Si1 0.823656 0.207167 0.843304
Si Si2 0.429144 0.222716 0.492905
Si Si3 0.190196 0.209833 0.756431
Si Si4 0.885137 0.277877 0.083652
Si Si5 0.962755 0.775616 0.245542
Si Si6 0.286062 0.717237 0.420163
Si Si7 0.100094 0.722078 0.316210
O O1 0.708824 0.287370 0.899824
O O2 0.873301 0.204453 0.756147
O O3 0.917769 0.289646 0.822592
O O4 0.806902 0.000000 0.871613
O O5 0.500000 0.283163 0.500000
O O6 0.310075 0.284700 0.559995
O O7 0.490203 0.274647 0.404689
O O8 0.427586 0.000000 0.495447
O O9 0.139940 0.216407 0.843110
O O10 0.108422 0.284781 0.761958
O O11 0.306629 0.283452 0.698748
O O12 0.206695 0.000000 0.730212
O O13 0.881025 0.500000 0.086374
O O14 0.000000 0.221521 0.000000
O O15 0.896866 0.715810 0.334823
O O16 0.969507 0.000000 0.241179
O O17 0.290726 0.500000 0.411311
O O18 0.250000 0.750000 0.500000
O O19 0.104630 0.500000 0.310395
#
# Coordination Sequence:
#
# PCOD9177931 Si02
#       7
#     8   8   8   8   8   8   8
#     4   9  17  30  48  65  85 117 149 175 212 267
#     4   9  16  26  42  63  85 113 150 187 221 257
#     4   9  17  30  49  70  91 117 150 186 221 260
#     4   9  18  33  51  70  92 117 145 178 220 271
#     4   9  17  30  47  67  91 120 153 186 222 265
#     4  10  19  30  45  65  91 122 154 189 227 264
#     4   9  16  27  44  65  87 112 147 188 221 252
#
# _framework density 23.367104999999999
#
# number of rings (size 3 to 8) (size 9 to 14) (size 15 to 20)
#    0.000    2.857    0.000    1.714    0.000    3.714 
#    0.000    2.143    0.000    3.429    0.000    0.000 
#    0.000    0.000    0.000    0.000    0.000    0.000 
#
# Total GULP energy -156315.569047 kJ/mol
# GULP energy per Si atom -5582.698895 kJ/mol
# Density = 2.331392 g / cm^3
# Si number density = 23.367105 Si / 1000 Ang^3
#
#
#
# Elastic Constant Matrix: (Units=GPa)
#
#
# Indices 1 2 3 4 5 6 
#
# 1 113.8643 -3.2105 15.9307 0.0001 -35.8759 0.0005
# 2 -3.2105 98.2390 -4.3071 0.0003 -5.7040 0.0025
# 3 15.9307 -4.3071 87.5156 0.0000 -39.9111 -0.0002
# 4 0.0001 0.0003 0.0000 5.2308 -0.0003 11.8622
# 5 -35.8759 -5.7040 -39.9111 -0.0003 40.5155 0.0000
# 6 0.0005 0.0025 -0.0002 11.8622 0.0000 -4.2729
#
#
#
# Elastic Compliance Matrix: (Units=1/GPa)
#
#
# Indices 1 2 3 4 5 6 
#
# 1 0.013754 0.001768 0.005903 -0.000001 0.018243 0.000001
# 2 0.001768 0.010710 0.002917 -0.000002 0.005947 0.000001
# 3 0.005903 0.002917 0.023725 0.000000 0.029009 0.000001
# 4 -0.000001 -0.000002 0.000000 0.026204 -0.000001 0.072746
# 5 0.018243 0.005947 0.029009 -0.000001 0.070249 0.000002
# 6 0.000001 0.000001 0.000001 0.072746 0.000002 -0.032078
#
#
# Mechanical properties :
#
#
# Convention : Reuss Voigt Hill
#
# Bulk Modulus (GPa) = 14.41658 35.16059 24.78858
# Shear Modulus (GPa) = 43.66427 27.70837 35.68632
#
# Velocity S-wave (km/s) = 4.32744 3.44726 3.91218
# Velocity P-wave (km/s) = 5.58140 5.56098 5.57120
#
# Compressibility (1/GPa) = 0.06936459
#
# Stress axis : x y z
#
# Youngs Moduli (GPa) = 72.70500 93.36885 42.14995
#
# Poissons Ratio (x) = -0.16503 -0.24880
# Poissons Ratio (y) = -0.12851 -0.12297
# Poissons Ratio (z) = -0.42916 -0.27239
#
# Static dielectric constant tensor:
#      x y z
#    x 1.912690 0.000000 -0.027920 
#    y 0.000000 1.886780 0.000000 
#    z -0.027920 0.000000 1.842980 
# 
# From -- ./inp_files/280319.got.cif
#   From: 2010.05.17/outbox.cif.g08.bks.cpg/sg12_141_cif.got.tgz:280319.got - 2010.06.03 13:09:07.
