data_PCOD9177611
_publ_section_title
;
Structure prediction by ZEFSAII (Michael W. Deem and Ramdas Pophale) SiO2 
 PCOD9177611
Probable space group: C 2/M
;
_chemical_formula_sum "Si O2"
_cell_formula_units_Z 64
_cell_length_a 15.488015
_cell_length_b 7.363452
_cell_length_c 25.160113
_cell_angle_alpha 90.000000
_cell_angle_beta 87.687601
_cell_angle_gamma 90.000000
_cell_volume 2867.054921
_symmetry_space_group_name_H-M "C 2/M"
_symmetry_group_IT_number 12
_symmetry_cell_setting 'monoclinic'
loop_
_space_group_symop_operation_xyz
x,y,z
-x,y,-z
-x,-y,-z
x,-y,z
1/2+x,1/2+y,z
1/2-x,1/2+y,-z
1/2-x,1/2-y,-z
1/2+x,1/2-y,z
loop_
_atom_site_type_symbol
_atom_site_label
_atom_site_fract_x
_atom_site_fract_y
_atom_site_fract_z
Si Si1 0.392636 0.785928 0.121808
Si Si2 0.353593 0.783375 0.501182
Si Si3 0.995129 0.721679 0.581686
Si Si4 0.675623 0.217794 0.765169
Si Si5 0.405221 0.213074 0.891936
Si Si6 0.484553 0.777662 0.298025
Si Si7 0.363154 0.214590 0.781600
Si Si8 0.149523 0.284003 0.993574
O O1 0.348119 0.709827 0.175440
O O2 0.495145 0.774952 0.126681
O O3 0.369144 0.000000 0.120035
O O4 0.372615 0.709244 0.064039
O O5 0.250000 0.750000 0.500000
O O6 0.416718 0.721767 0.451293
O O7 0.408579 0.720834 0.551743
O O8 0.359779 0.000000 0.501261
O O9 0.994931 0.500000 0.581465
O O10 0.997537 0.781366 0.642517
O O11 0.607730 0.280128 0.722999
O O12 0.774625 0.260932 0.752621
O O13 0.666476 0.000000 0.767789
O O14 0.355167 0.289544 0.842072
O O15 0.394237 0.289049 0.951503
O O16 0.380577 0.000000 0.898008
O O17 0.557240 0.715279 0.254632
O O18 0.486463 0.000000 0.298503
O O19 0.379017 0.000000 0.788202
O O20 0.128582 0.500000 0.991523
O O21 0.250000 0.250000 0.000000
#
# Coordination Sequence:
#
# PCOD9177611 Si02
#       8
#     8   8   8   8   8   8   8   8
#     4   9  16  29  48  68  88 117 159 197 231 281
#     4   9  17  31  52  76 102 131 165 203 240 282
#     4   8  16  31  50  72  99 134 170 198 232 286
#     4  10  19  32  51  72  95 125 162 202 242 287
#     4   9  16  29  48  68  88 117 159 197 231 281
#     4   9  17  32  52  71  96 133 170 198 232 287
#     4  10  19  32  51  72  95 125 162 202 242 287
#     4  10  19  29  45  67  91 116 148 193 239 285
#
# _framework density 22.322558000000001
#
# number of rings (size 3 to 8) (size 9 to 14) (size 15 to 20)
#    0.000    2.750    1.250    1.875    0.000    2.500 
#    0.000    1.875    0.000    4.500    0.000    0.000 
#    0.000    0.000    0.000    0.000    0.000    0.000 
#
# Total GULP energy -178510.118007 kJ/mol
# GULP energy per Si atom -5578.441188 kJ/mol
# Density = 2.227175 g / cm^3
# Si number density = 22.322558 Si / 1000 Ang^3
#
#
#
# Elastic Constant Matrix: (Units=GPa)
#
#
# Indices 1 2 3 4 5 6 
#
# 1 81.8698 -4.9249 46.1255 0.0000 29.6376 0.0000
# 2 -4.9249 81.7333 6.6396 0.0000 -0.3049 0.0000
# 3 46.1255 6.6396 141.0712 0.0000 30.0185 0.0000
# 4 0.0000 0.0000 0.0000 -11.9817 0.0000 6.6283
# 5 29.6376 -0.3049 30.0185 0.0000 23.4368 0.0000
# 6 0.0000 0.0000 0.0000 6.6283 0.0000 18.5949
#
#
#
# Elastic Compliance Matrix: (Units=1/GPa)
#
#
# Indices 1 2 3 4 5 6 
#
# 1 0.023030 0.001445 -0.001931 0.000000 -0.026631 0.000000
# 2 0.001445 0.012399 -0.000964 0.000000 -0.000431 0.000000
# 3 -0.001931 -0.000964 0.009964 0.000000 -0.010333 0.000000
# 4 0.000000 0.000000 0.000000 -0.069713 0.000000 0.024850
# 5 -0.026631 -0.000431 -0.010333 0.000000 0.089574 0.000000
# 6 0.000000 0.000000 0.000000 0.024850 0.000000 0.044920
#
#
# Mechanical properties :
#
#
# Convention : Reuss Voigt Hill
#
# Bulk Modulus (GPa) = 23.53369 44.48385 34.00877
# Shear Modulus (GPa) = 39.29630 23.13226 31.21428
#
# Velocity S-wave (km/s) = 4.20025 3.22261 3.74348
# Velocity P-wave (km/s) = 5.83851 5.81532 5.82693
#
# Compressibility (1/GPa) = 0.04249228
#
# Stress axis : x y z
#
# Youngs Moduli (GPa) = 43.42122 80.65343 100.35968
#
# Poissons Ratio (x) = -0.11656 0.19383
# Poissons Ratio (y) = -0.06275 0.09678
# Poissons Ratio (z) = 0.08386 0.07778
#
# Static dielectric constant tensor:
#      x y z
#    x 1.789500 0.000000 0.004120 
#    y 0.000000 1.861190 0.000000 
#    z 0.004120 0.000000 1.844740 
# 
# From -- ./inp_files/335279.got.cif
#   From: 2010.05.17/outbox.cif.g08.bks.cpg/sg12_168_cif.got.tgz:335279.got - 2010.06.03 13:09:07.
