data_PCOD9177139
_publ_section_title
;
Structure prediction by ZEFSAII (Michael W. Deem and Ramdas Pophale) SiO2 
 PCOD9177139
Probable space group: C 2/M
;
_chemical_formula_sum "Si O2"
_cell_formula_units_Z 44
_cell_length_a 15.751930
_cell_length_b 10.567711
_cell_length_c 31.649192
_cell_angle_alpha 90.000000
_cell_angle_beta 151.119138
_cell_angle_gamma 90.000000
_cell_volume 2544.575882
_symmetry_space_group_name_H-M "C 2/M"
_symmetry_group_IT_number 12
_symmetry_cell_setting 'monoclinic'
loop_
_space_group_symop_operation_xyz
x,y,z
-x,y,-z
-x,-y,-z
x,-y,z
1/2+x,1/2+y,z
1/2-x,1/2+y,-z
1/2-x,1/2-y,-z
1/2+x,1/2-y,z
loop_
_atom_site_type_symbol
_atom_site_label
_atom_site_fract_x
_atom_site_fract_y
_atom_site_fract_z
Si Si1 0.384164 0.000000 0.883834
Si Si2 0.895223 0.144611 0.768275
Si Si3 0.824275 0.000000 0.449685
Si Si4 0.071612 0.000000 0.407376
Si Si5 0.304974 0.000000 0.433986
Si Si6 0.186170 0.792889 0.746434
Si Si7 0.770767 0.000000 0.089738
Si Si8 0.117160 0.259525 0.325185
O O1 0.329302 0.881591 0.831295
O O2 0.268246 0.000000 0.876728
O O3 0.585844 0.000000 0.985800
O O4 0.781671 0.193614 0.757782
O O5 0.883426 0.246957 0.725629
O O6 0.834989 0.000000 0.729888
O O7 0.102565 0.118182 0.866383
O O8 0.720365 0.875705 0.390039
O O9 0.000000 0.000000 0.500000
O O10 0.878469 0.000000 0.522155
O O11 0.951327 0.119818 0.340456
O O12 0.257508 0.000000 0.463130
O O13 0.500000 0.000000 0.500000
O O14 0.208772 0.872861 0.377295
O O15 0.072185 0.737312 0.735200
#
# Coordination Sequence:
#
# PCOD9177139 Si02
#       8
#     4   8   4   4   4   8   4   8
#     4  10  18  38  62  90 116 151 193 236 294 334
#     4  10  20  37  59  86 113 155 199 226 288 351
#     4  12  25  36  54  80 119 153 194 247 295 343
#     4   9  22  39  53  83 112 156 196 233 309 342
#     4  10  20  36  60  76 107 151 193 252 286 351
#     4  10  20  36  63  81 119 152 188 248 285 350
#     4   9  19  35  63  88 115 153 198 234 273 366
#     4  11  22  39  57  83 117 150 201 242 292 343
#
# _framework density 17.291682999999999
#
# number of rings (size 3 to 8) (size 9 to 14) (size 15 to 20)
#    0.545    1.273    2.727    2.182    1.273    5.818 
#    0.000    0.000    0.000    0.000    0.000    3.818 
#    0.000    0.000    0.000    0.000    0.000    0.000 
#
# Total GULP energy -122505.403789 kJ/mol
# GULP energy per Si atom -5568.427445 kJ/mol
# Density = 1.725233 g / cm^3
# Si number density = 17.291683 Si / 1000 Ang^3
#
#
#
# Elastic Constant Matrix: (Units=GPa)
#
#
# Indices 1 2 3 4 5 6 
#
# 1 129.9719 22.3100 38.6523 -0.0001 4.3358 0.0000
# 2 22.3100 67.9735 25.5767 -0.0001 -5.0338 0.0000
# 3 38.6523 25.5767 69.0279 -0.0002 -5.8548 0.0000
# 4 -0.0001 -0.0001 -0.0002 13.5280 -0.0001 4.1245
# 5 4.3358 -5.0338 -5.8548 -0.0001 25.7696 0.0000
# 6 0.0000 0.0000 0.0000 4.1245 0.0000 36.5785
#
#
#
# Elastic Compliance Matrix: (Units=1/GPa)
#
#
# Indices 1 2 3 4 5 6 
#
# 1 0.009552 -0.001453 -0.005068 0.000000 -0.003043 0.000000
# 2 -0.001453 0.017412 -0.005433 0.000000 0.002411 0.000000
# 3 -0.005068 -0.005433 0.019700 0.000000 0.004267 0.000000
# 4 0.000000 0.000000 0.000000 0.076552 0.000000 -0.008632
# 5 -0.003043 0.002411 0.004267 0.000000 0.040758 0.000000
# 6 0.000000 0.000000 0.000000 -0.008632 0.000000 0.028312
#
#
# Mechanical properties :
#
#
# Convention : Reuss Voigt Hill
#
# Bulk Modulus (GPa) = 43.94817 48.89458 46.42137
# Shear Modulus (GPa) = 22.34338 27.20419 24.77378
#
# Velocity S-wave (km/s) = 3.59854 3.97073 3.78921
# Velocity P-wave (km/s) = 6.53735 7.02567 6.78590
#
# Compressibility (1/GPa) = 0.02275408
#
# Stress axis : x y z
#
# Youngs Moduli (GPa) = 104.68780 57.43314 50.76163
#
# Poissons Ratio (x) = 0.08348 0.25728
# Poissons Ratio (y) = 0.15216 0.27579
# Poissons Ratio (z) = 0.53059 0.31204
#
# Static dielectric constant tensor:
#      x y z
#    x 1.599150 0.000000 -0.005570 
#    y 0.000000 1.557400 0.000000 
#    z -0.005570 0.000000 1.627360 
# 
# From -- ./inp_files/375950.got.cif
#   From: 2010.05.17/outbox.cif.g08.bks.cpg/sg12_188_cif.got.tgz:375950.got - 2010.06.03 13:09:07.
