data_PCOD9177592
_publ_section_title
;
Structure prediction by ZEFSAII (Michael W. Deem and Ramdas Pophale) SiO2 
 PCOD9177592
Probable space group: C 2/M
;
_chemical_formula_sum "Si O2"
_cell_formula_units_Z 56
_cell_length_a 11.104590
_cell_length_b 23.406030
_cell_length_c 17.186670
_cell_angle_alpha 90.000000
_cell_angle_beta 137.047930
_cell_angle_gamma 90.000000
_cell_volume 3043.795232
_symmetry_space_group_name_H-M "C 2/M"
_symmetry_group_IT_number 12
_symmetry_cell_setting 'monoclinic'
loop_
_space_group_symop_operation_xyz
x,y,z
-x,y,-z
-x,-y,-z
x,-y,z
1/2+x,1/2+y,z
1/2-x,1/2+y,-z
1/2-x,1/2-y,-z
1/2+x,1/2-y,z
loop_
_atom_site_type_symbol
_atom_site_label
_atom_site_fract_x
_atom_site_fract_y
_atom_site_fract_z
Si Si1 0.613268 0.931305 0.867895
Si Si2 0.743914 0.896874 0.355583
Si Si3 0.481042 0.617009 0.333071
Si Si4 0.390635 0.568836 0.134154
Si Si5 0.224727 0.431110 0.746136
Si Si6 0.113511 0.214734 0.486229
Si Si7 0.849574 0.564247 0.523893
O O1 0.429884 0.897256 0.780054
O O2 0.703905 0.917800 0.827657
O O3 0.578591 0.000000 0.853427
O O4 0.742149 0.918449 0.000187
O O5 0.903059 0.913646 0.373481
O O6 0.790055 0.836881 0.420156
O O7 0.693337 0.936975 0.403743
O O8 0.368464 0.600339 0.205500
O O9 0.488491 0.682295 0.364738
O O10 0.683025 0.598226 0.412047
O O11 0.392193 0.500000 0.147623
O O12 0.583692 0.586051 0.193020
O O13 0.215859 0.500000 0.736329
O O14 0.048796 0.411100 0.616434
O O15 0.250000 0.250000 0.500000
O O16 0.000000 0.245545 0.500000
O O17 0.845285 0.500000 0.490194
#
# Coordination Sequence:
#
# PCOD9177592 Si02
#       7
#     8   8   8   8   8   8   8
#     4   9  17  30  48  70 100 141 181 203 229 283
#     4   9  18  32  50  70  97 130 164 203 244 300
#     4  10  20  31  45  72 104 127 158 203 256 302
#     4  10  19  29  44  70 107 143 170 203 240 282
#     4   8  15  28  43  60  91 138 179 207 238 273
#     4   9  19  39  59  76  99 128 162 211 272 319
#     4   9  16  27  44  66  95 131 167 199 238 294
#
# _framework density 18.398084999999998
#
# number of rings (size 3 to 8) (size 9 to 14) (size 15 to 20)
#    0.000    2.857    0.000    3.429    0.000    5.714 
#    7.714    3.571    0.000    0.857    0.000    0.000 
#    0.000    0.000    0.000    0.000    0.000    0.000 
#
# Total GULP energy -155902.198204 kJ/mol
# GULP energy per Si atom -5567.935650 kJ/mol
# Density = 1.835621 g / cm^3
# Si number density = 18.398085 Si / 1000 Ang^3
#
#
#
# Elastic Constant Matrix: (Units=GPa)
#
#
# Indices 1 2 3 4 5 6 
#
# 1 92.8347 23.0851 36.2268 -0.0002 -2.1215 -0.0001
# 2 23.0851 18.9428 14.1846 -0.0001 -4.8359 0.0000
# 3 36.2268 14.1846 123.4863 -0.0005 -10.6925 -0.0002
# 4 -0.0002 -0.0001 -0.0005 11.0071 -0.0002 -2.5022
# 5 -2.1215 -4.8359 -10.6925 -0.0002 27.3253 -0.0001
# 6 -0.0001 0.0000 -0.0002 -2.5022 -0.0001 15.6674
#
#
#
# Elastic Compliance Matrix: (Units=1/GPa)
#
#
# Indices 1 2 3 4 5 6 
#
# 1 0.016511 -0.018712 -0.002971 0.000000 -0.003192 0.000000
# 2 -0.018712 0.080658 -0.002759 0.000001 0.011742 0.000000
# 3 -0.002971 -0.002759 0.009548 0.000000 0.003017 0.000000
# 4 0.000000 0.000001 0.000000 0.094273 0.000001 0.015056
# 5 -0.003192 0.011742 0.003017 0.000001 0.039607 0.000000
# 6 0.000000 0.000000 0.000000 0.015056 0.000000 0.066231
#
#
# Mechanical properties :
#
#
# Convention : Reuss Voigt Hill
#
# Bulk Modulus (GPa) = 17.29102 42.47298 29.88200
# Shear Modulus (GPa) = 13.33370 21.58447 17.45909
#
# Velocity S-wave (km/s) = 2.69501 3.42890 3.08386
# Velocity P-wave (km/s) = 4.37067 6.22994 5.38121
#
# Compressibility (1/GPa) = 0.05783350
#
# Stress axis : x y z
#
# Youngs Moduli (GPa) = 60.56448 12.39803 104.73667
#
# Poissons Ratio (x) = 0.23199 0.31116
# Poissons Ratio (y) = 1.13330 0.28894
# Poissons Ratio (z) = 0.17993 0.03420
#
# Static dielectric constant tensor:
#      x y z
#    x 1.702480 0.000000 0.009900 
#    y 0.000000 1.634970 0.000000 
#    z 0.009900 0.000000 1.670290 
# 
# From -- ./inp_files/134893.got.cif
#   From: 2010.05.17/outbox.cif.g08.bks.cpg/sg12_68_cif.got.tgz:134893.got - 2010.06.03 13:09:07.
