data_PCOD9177630
_publ_section_title
;
Structure prediction by ZEFSAII (Michael W. Deem and Ramdas Pophale) SiO2 
 PCOD9177630
Probable space group: C 2/M
;
_chemical_formula_sum "Si O2"
_cell_formula_units_Z 56
_cell_length_a 20.032128
_cell_length_b 7.513464
_cell_length_c 20.200941
_cell_angle_alpha 90.000000
_cell_angle_beta 66.375907
_cell_angle_gamma 90.000000
_cell_volume 2785.649574
_symmetry_space_group_name_H-M "C 2/M"
_symmetry_group_IT_number 12
_symmetry_cell_setting 'monoclinic'
loop_
_space_group_symop_operation_xyz
x,y,z
-x,y,-z
-x,-y,-z
x,-y,z
1/2+x,1/2+y,z
1/2-x,1/2+y,-z
1/2-x,1/2-y,-z
1/2+x,1/2-y,z
loop_
_atom_site_type_symbol
_atom_site_label
_atom_site_fract_x
_atom_site_fract_y
_atom_site_fract_z
Si Si1 0.737814 0.787233 0.926915
Si Si2 0.577000 0.789704 0.998403
Si Si3 0.493296 0.286328 0.299014
Si Si4 0.897827 0.783858 0.856944
Si Si5 0.185844 0.794874 0.434415
Si Si6 0.658027 0.210730 0.590547
Si Si7 0.450334 0.718400 0.581464
O O1 0.816052 0.723818 0.868038
O O2 0.735166 0.000000 0.917888
O O3 0.750000 0.750000 0.000000
O O4 0.656454 0.718099 0.941734
O O5 0.581985 0.770306 0.076141
O O6 0.577098 0.000000 0.982764
O O7 0.500000 0.717888 0.000000
O O8 0.499598 0.500000 0.296709
O O9 0.541510 0.221372 0.218968
O O10 0.408098 0.242699 0.333939
O O11 0.522395 0.220808 0.358355
O O12 0.896468 0.000000 0.857718
O O13 0.265390 0.715308 0.413392
O O14 0.146733 0.790954 0.521947
O O15 0.130866 0.718607 0.403135
O O16 0.197668 0.000000 0.411163
O O17 0.665557 0.000000 0.576491
O O18 0.500000 0.774338 0.500000
O O19 0.450789 0.500000 0.581352
#
# Coordination Sequence:
#
# PCOD9177630 Si02
#       7
#     8   8   8   8   8   8   8
#     4   8  14  27  46  68  93 120 153 186 220 268
#     4   9  17  30  50  75 100 125 151 185 232 280
#     4  10  19  32  49  67  91 124 160 198 238 277
#     4   9  18  31  48  70  94 124 160 194 229 273
#     4   9  17  31  48  66  88 117 157 198 237 282
#     4  10  19  29  45  69  94 120 151 192 241 288
#     4   9  15  27  49  69  85 115 160 200 229 267
#
# _framework density 20.103033
#
# number of rings (size 3 to 8) (size 9 to 14) (size 15 to 20)
#    0.000    2.857    1.429    0.429    0.000    1.429 
#    0.000    2.857    0.000    5.143    0.000    0.000 
#    0.000    0.000    0.000    0.000    0.000    0.000 
#
# Total GULP energy -155952.918888 kJ/mol
# GULP energy per Si atom -5569.747103 kJ/mol
# Density = 2.005728 g / cm^3
# Si number density = 20.103033 Si / 1000 Ang^3
#
#
#
# Elastic Constant Matrix: (Units=GPa)
#
#
# Indices 1 2 3 4 5 6 
#
# 1 153.4936 1.5937 50.4932 0.0005 -28.0353 0.0012
# 2 1.5937 54.8742 -7.4813 0.0010 0.7922 0.0030
# 3 50.4932 -7.4813 89.3493 0.0001 -29.6252 0.0001
# 4 0.0005 0.0010 0.0001 12.7929 0.0001 -3.1377
# 5 -28.0353 0.7922 -29.6252 0.0001 31.2284 0.0004
# 6 0.0012 0.0030 0.0001 -3.1377 0.0004 -6.5717
#
#
#
# Elastic Compliance Matrix: (Units=1/GPa)
#
#
# Indices 1 2 3 4 5 6 
#
# 1 0.008435 -0.000769 -0.003376 0.000000 0.004390 0.000001
# 2 -0.000769 0.018549 0.002338 0.000001 0.001058 0.000008
# 3 -0.003376 0.002338 0.017902 0.000000 0.013893 0.000002
# 4 0.000000 0.000001 0.000000 0.069974 0.000000 -0.033410
# 5 0.004390 0.001058 0.013893 0.000000 0.049116 0.000004
# 6 0.000001 0.000008 0.000002 -0.033410 0.000004 -0.136216
#
#
# Mechanical properties :
#
#
# Convention : Reuss Voigt Hill
#
# Bulk Modulus (GPa) = 24.22826 42.99202 33.61014
# Shear Modulus (GPa) = 110.78930 24.36403 67.57667
#
# Velocity S-wave (km/s) = 7.43171 3.48510 5.80415
# Velocity P-wave (km/s) = 9.25844 6.13407 7.85320
#
# Compressibility (1/GPa) = 0.04127412
#
# Stress axis : x y z
#
# Youngs Moduli (GPa) = 118.55119 53.91028 55.85970
#
# Poissons Ratio (x) = 0.04143 0.18857
# Poissons Ratio (y) = 0.09112 -0.13061
# Poissons Ratio (z) = 0.40020 -0.12605
#
# Static dielectric constant tensor:
#      x y z
#    x 1.770760 0.000000 -0.042450 
#    y 0.000000 1.807690 0.000000 
#    z -0.042450 0.000000 1.691140 
# 
# From -- ./inp_files/319013.got.cif
#   From: 2010.05.17/outbox.cif.g08.bks.cpg/sg12_160_cif.got.tgz:319013.got - 2010.06.03 13:09:07.
