data_PCOD9177504
_publ_section_title
;
Structure prediction by ZEFSAII (Michael W. Deem and Ramdas Pophale) SiO2 
 PCOD9177504
Probable space group: C 2/M
;
_chemical_formula_sum "Si O2"
_cell_formula_units_Z 64
_cell_length_a 20.984397
_cell_length_b 7.424176
_cell_length_c 35.792292
_cell_angle_alpha 90.000000
_cell_angle_beta 147.739044
_cell_angle_gamma 90.000000
_cell_volume 2976.415026
_symmetry_space_group_name_H-M "C 2/M"
_symmetry_group_IT_number 12
_symmetry_cell_setting 'monoclinic'
loop_
_space_group_symop_operation_xyz
x,y,z
-x,y,-z
-x,-y,-z
x,-y,z
1/2+x,1/2+y,z
1/2-x,1/2+y,-z
1/2-x,1/2-y,-z
1/2+x,1/2-y,z
loop_
_atom_site_type_symbol
_atom_site_label
_atom_site_fract_x
_atom_site_fract_y
_atom_site_fract_z
Si Si1 0.162858 0.785372 0.903329
Si Si2 0.911742 0.719484 0.922732
Si Si3 0.030732 0.284582 0.605495
Si Si4 0.355292 0.720634 0.188963
Si Si5 0.364548 0.208303 0.416172
Si Si6 0.724389 0.220938 0.550768
Si Si7 0.421823 0.784472 0.059560
Si Si8 0.015639 0.214900 0.336102
O O1 0.124046 0.719627 0.843418
O O2 0.076896 0.753042 0.895800
O O3 0.175573 0.000000 0.906168
O O4 0.294569 0.715304 0.980371
O O5 0.909440 0.500000 0.921627
O O6 0.777491 0.776651 0.864500
O O7 0.970214 0.779987 0.912771
O O8 0.000000 0.773205 0.000000
O O9 0.028560 0.500000 0.599212
O O10 0.896305 0.218521 0.529630
O O11 0.054710 0.249869 0.660540
O O12 0.120052 0.213685 0.617701
O O13 0.358087 0.500000 0.190609
O O14 0.449218 0.782911 0.266379
O O15 0.500000 0.209951 0.500000
O O16 0.285349 0.281635 0.410718
O O17 0.327036 0.000000 0.393515
O O18 0.848142 0.282457 0.594311
O O19 0.721596 0.000000 0.549263
O O20 0.418998 0.000000 0.054236
O O21 0.023695 0.000000 0.336436
#
# Coordination Sequence:
#
# PCOD9177504 Si02
#       8
#     8   8   8   8   8   8   8   8
#     4   9  16  28  45  65  90 114 139 177 221 262
#     4   9  14  25  46  68  85 109 149 185 207 246
#     4   9  16  28  47  67  87 114 149 185 216 254
#     4   9  17  29  44  63  88 118 150 182 217 258
#     4   7  11  22  42  64  81 103 142 184 210 239
#     4   8  14  26  45  67  87 112 150 186 214 253
#     4   9  16  26  46  71  87 106 143 185 218 250
#     4  10  19  29  43  65  92 118 143 179 226 266
#
# _framework density 21.502376000000002
#
# number of rings (size 3 to 8) (size 9 to 14) (size 15 to 20)
#    0.000    3.250    1.250    1.875    0.000    0.000 
#    0.000    1.875    0.000    7.500    0.000    0.000 
#    0.000    0.000    0.000    0.000    0.000    0.000 
#
# Total GULP energy -178407.315183 kJ/mol
# GULP energy per Si atom -5575.228599 kJ/mol
# Density = 2.145344 g / cm^3
# Si number density = 21.502376 Si / 1000 Ang^3
#
#
#
# Elastic Constant Matrix: (Units=GPa)
#
#
# Indices 1 2 3 4 5 6 
#
# 1 112.0962 -4.9575 31.1940 0.0016 -47.5760 -0.0003
# 2 -4.9575 66.9698 -0.2633 0.0072 0.9527 -0.0016
# 3 31.1940 -0.2633 67.1099 0.0003 -36.6931 -0.0004
# 4 0.0016 0.0072 0.0003 28.8201 -0.0023 -19.2635
# 5 -47.5760 0.9527 -36.6931 -0.0023 38.1776 0.0012
# 6 -0.0003 -0.0016 -0.0004 -19.2635 0.0012 15.3207
#
#
#
# Elastic Compliance Matrix: (Units=1/GPa)
#
#
# Indices 1 2 3 4 5 6 
#
# 1 0.021741 0.001128 0.009898 0.000000 0.036578 -0.000002
# 2 0.001128 0.014999 0.000208 -0.000017 0.001231 -0.000020
# 3 0.009898 0.000208 0.035916 0.000007 0.046850 0.000007
# 4 0.000000 -0.000017 0.000007 0.217435 0.000013 0.273393
# 5 0.036578 0.001231 0.046850 0.000013 0.116774 0.000009
# 6 -0.000002 -0.000020 0.000007 0.273393 0.000009 0.409023
#
#
# Mechanical properties :
#
#
# Convention : Reuss Voigt Hill
#
# Bulk Modulus (GPa) = 10.51257 33.12471 21.81864
# Shear Modulus (GPa) = 6.05966 31.14384 18.60175
#
# Velocity S-wave (km/s) = 1.68055 3.80990 2.94445
# Velocity P-wave (km/s) = 2.94369 5.89851 4.66142
#
# Compressibility (1/GPa) = 0.09512424
#
# Stress axis : x y z
#
# Youngs Moduli (GPa) = 45.99620 66.67153 27.84237
#
# Poissons Ratio (x) = -0.07520 -0.27560
# Poissons Ratio (y) = -0.05188 -0.00578
# Poissons Ratio (z) = -0.45529 -0.01383
#
# Static dielectric constant tensor:
#      x y z
#    x 1.807250 0.000000 -0.044700 
#    y 0.000000 1.849200 0.000000 
#    z -0.044700 0.000000 1.768220 
# 
# From -- ./inp_files/346860.got.cif
#   From: 2010.05.17/outbox.cif.g08.bks.cpg/sg12_174_cif.got.tgz:346860.got - 2010.06.03 13:09:07.
