data_PCOD9177336
_publ_section_title
;
Structure prediction by ZEFSAII (Michael W. Deem and Ramdas Pophale) SiO2 
 PCOD9177336
Probable space group: C 2/M
;
_chemical_formula_sum "Si O2"
_cell_formula_units_Z 56
_cell_length_a 30.102013
_cell_length_b 8.748363
_cell_length_c 18.153341
_cell_angle_alpha 90.000000
_cell_angle_beta 48.468627
_cell_angle_gamma 90.000000
_cell_volume 3578.693756
_symmetry_space_group_name_H-M "C 2/M"
_symmetry_group_IT_number 12
_symmetry_cell_setting 'monoclinic'
loop_
_space_group_symop_operation_xyz
x,y,z
-x,y,-z
-x,-y,-z
x,-y,z
1/2+x,1/2+y,z
1/2-x,1/2+y,-z
1/2-x,1/2-y,-z
1/2+x,1/2-y,z
loop_
_atom_site_type_symbol
_atom_site_label
_atom_site_fract_x
_atom_site_fract_y
_atom_site_fract_z
Si Si1 0.921366 0.815717 0.215565
Si Si2 0.593555 0.818421 0.924860
Si Si3 0.237162 0.683656 0.127131
Si Si4 0.844500 0.317211 0.914761
Si Si5 0.045433 0.817985 0.129278
Si Si6 0.276032 0.315651 0.239403
Si Si7 0.214078 0.183168 0.607269
O O1 0.932590 0.738968 0.123976
O O2 0.855552 0.770213 0.314463
O O3 0.975710 0.777571 0.209818
O O4 0.920908 0.000000 0.205440
O O5 0.662217 0.767946 0.845156
O O6 0.587616 0.000000 0.938318
O O7 0.566189 0.737309 0.025849
O O8 0.243027 0.500000 0.114673
O O9 0.182566 0.729572 0.134769
O O10 0.233397 0.721169 0.217743
O O11 0.296645 0.755224 0.026654
O O12 0.845406 0.500000 0.918285
O O13 0.909202 0.254938 0.862854
O O14 0.051180 0.000000 0.127186
O O15 0.286452 0.500000 0.227217
O O16 0.259374 0.274756 0.341421
O O17 0.250000 0.250000 0.500000
O O18 0.215331 0.000000 0.600328
#
# Coordination Sequence:
#
# PCOD9177336 Si02
#       7
#     8   8   8   8   8   8   8
#     4   9  20  35  48  62  86 123 159 183 218 283
#     4  11  20  28  42  67  94 119 152 194 229 258
#     4   9  17  30  46  63  89 127 160 187 225 270
#     4  10  19  28  42  67  94 120 157 199 228 255
#     4  11  20  31  45  61  88 129 162 183 219 270
#     4   9  17  31  49  66  90 126 159 182 218 280
#     4   9  18  33  51  71  91 112 145 189 233 278
#
# _framework density 15.648168
#
# number of rings (size 3 to 8) (size 9 to 14) (size 15 to 20)
#    0.000    2.286    1.429    3.429    0.000    5.714 
#    0.000    0.000    0.000    0.000    0.000    1.000 
#    0.000    8.000    0.000    0.000    0.000    0.000 
#
# Total GULP energy -156054.288757 kJ/mol
# GULP energy per Si atom -5573.367456 kJ/mol
# Density = 1.561255 g / cm^3
# Si number density = 15.648168 Si / 1000 Ang^3
#
#
#
# Elastic Constant Matrix: (Units=GPa)
#
#
# Indices 1 2 3 4 5 6 
#
# 1 154.0931 30.4911 52.2723 -0.0001 7.6738 0.0000
# 2 30.4911 16.0656 14.0027 -0.0017 2.0833 0.0004
# 3 52.2723 14.0027 69.5525 -0.0005 12.9552 0.0003
# 4 -0.0001 -0.0017 -0.0005 18.6966 0.0001 1.5325
# 5 7.6738 2.0833 12.9552 0.0001 15.5907 0.0000
# 6 0.0000 0.0004 0.0003 1.5325 0.0000 24.2007
#
#
#
# Elastic Compliance Matrix: (Units=1/GPa)
#
#
# Indices 1 2 3 4 5 6 
#
# 1 0.011822 -0.017775 -0.005519 -0.000002 0.001143 0.000000
# 2 -0.017775 0.102337 -0.007485 0.000009 0.001294 -0.000002
# 3 -0.005519 -0.007485 0.022882 0.000000 -0.015297 0.000000
# 4 -0.000002 0.000009 0.000000 0.053765 -0.000001 -0.003405
# 5 0.001143 0.001294 -0.015297 -0.000001 0.076117 0.000000
# 6 0.000000 -0.000002 0.000000 -0.003405 0.000000 0.041537
#
#
# Mechanical properties :
#
#
# Convention : Reuss Voigt Hill
#
# Bulk Modulus (GPa) = 13.24819 48.13817 30.69318
# Shear Modulus (GPa) = 12.65249 21.22726 16.93987
#
# Velocity S-wave (km/s) = 2.84660 3.68711 3.29378
# Velocity P-wave (km/s) = 4.39191 6.99685 5.84144
#
# Compressibility (1/GPa) = 0.07548203
#
# Stress axis : x y z
#
# Youngs Moduli (GPa) = 84.58649 9.77163 43.70277
#
# Poissons Ratio (x) = 0.17369 0.24120
# Poissons Ratio (y) = 1.50354 0.32712
# Poissons Ratio (z) = 0.46685 0.07314
#
# Static dielectric constant tensor:
#      x y z
#    x 1.576870 0.000000 -0.002420 
#    y 0.000000 1.525530 0.000000 
#    z -0.002420 0.000000 1.491050 
# 
# From -- ./inp_files/287892.got.cif
#   From: 2010.05.17/outbox.cif.g08.bks.cpg/sg12_144_cif.got.tgz:287892.got - 2010.06.03 13:09:07.
