data_PCOD9177620
_publ_section_title
;
Structure prediction by ZEFSAII (Michael W. Deem and Ramdas Pophale) SiO2 
 PCOD9177620
Probable space group: C 2/M
;
_chemical_formula_sum "Si O2"
_cell_formula_units_Z 56
_cell_length_a 14.578882
_cell_length_b 30.840158
_cell_length_c 7.932233
_cell_angle_alpha 90.000000
_cell_angle_beta 71.084967
_cell_angle_gamma 90.000000
_cell_volume 3373.863979
_symmetry_space_group_name_H-M "C 2/M"
_symmetry_group_IT_number 12
_symmetry_cell_setting 'monoclinic'
loop_
_space_group_symop_operation_xyz
x,y,z
-x,y,-z
-x,-y,-z
x,-y,z
1/2+x,1/2+y,z
1/2-x,1/2+y,-z
1/2-x,1/2-y,-z
1/2+x,1/2-y,z
loop_
_atom_site_type_symbol
_atom_site_label
_atom_site_fract_x
_atom_site_fract_y
_atom_site_fract_z
Si Si1 0.912071 0.754187 0.960662
Si Si2 0.709135 0.862046 0.573214
Si Si3 0.883723 0.549966 0.268137
Si Si4 0.695320 0.133853 0.205850
Si Si5 0.737907 0.692814 0.148552
Si Si6 0.497591 0.183213 0.321812
Si Si7 0.608859 0.950592 0.143784
O O1 0.823169 0.729780 0.111496
O O2 0.971947 0.715573 0.839869
O O3 0.858219 0.782201 0.850947
O O4 0.000000 0.779340 0.000000
O O5 0.687068 0.912665 0.622547
O O6 0.742340 0.856713 0.359628
O O7 0.603616 0.839407 0.650593
O O8 0.768701 0.836692 0.681013
O O9 0.858887 0.500000 0.326739
O O10 0.995648 0.557617 0.257708
O O11 0.885624 0.553127 0.063037
O O12 0.736380 0.161465 0.025565
O O13 0.583236 0.148531 0.285861
O O14 0.684477 0.083178 0.174718
O O15 0.500000 0.206982 0.500000
O O16 0.630192 0.000000 0.178613
#
# Coordination Sequence:
#
# PCOD9177620 Si02
#       7
#     8   8   8   8   8   8   8
#     4  10  19  35  52  67  91 123 157 198 248 280
#     4  11  18  30  49  66  95 129 159 196 232 277
#     4   9  17  26  42  67  95 131 165 192 228 273
#     4  10  19  29  45  68  93 126 164 192 231 275
#     4  10  21  34  49  70  92 122 162 200 234 288
#     4   9  18  30  45  69  89 123 161 194 232 280
#     4   9  16  26  41  64  95 129 163 195 225 273
#
# _framework density 16.598179999999999
#
# number of rings (size 3 to 8) (size 9 to 14) (size 15 to 20)
#    0.000    2.286    4.286    0.857    0.000    0.571 
#    2.571    4.286    0.000    0.000    0.000    0.000 
#    0.000    2.286    0.000    2.571    0.000    0.000 
#
# Total GULP energy -155872.945211 kJ/mol
# GULP energy per Si atom -5566.890900 kJ/mol
# Density = 1.656040 g / cm^3
# Si number density = 16.598180 Si / 1000 Ang^3
#
#
#
# Elastic Constant Matrix: (Units=GPa)
#
#
# Indices 1 2 3 4 5 6 
#
# 1 59.4284 24.5754 17.1557 0.0000 17.4786 0.0000
# 2 24.5754 65.9321 19.6581 0.0000 17.7072 0.0000
# 3 17.1557 19.6581 53.5798 0.0000 22.5891 0.0000
# 4 0.0000 0.0000 0.0000 5.5585 0.0000 19.5127
# 5 17.4786 17.7072 22.5891 0.0000 16.4723 0.0000
# 6 0.0000 0.0000 0.0000 19.5127 0.0000 3.5046
#
#
#
# Elastic Compliance Matrix: (Units=1/GPa)
#
#
# Indices 1 2 3 4 5 6 
#
# 1 0.026036 -0.002489 0.007339 0.000000 -0.035016 0.000000
# 2 -0.002489 0.022000 0.003751 0.000000 -0.026153 0.000000
# 3 0.007339 0.003751 0.047223 0.000000 -0.076578 0.000000
# 4 0.000000 0.000000 0.000000 -0.009701 0.000000 0.054012
# 5 -0.035016 -0.026153 -0.076578 0.000000 0.230990 0.000000
# 6 0.000000 0.000000 0.000000 0.054012 0.000000 -0.015386
#
#
# Mechanical properties :
#
#
# Convention : Reuss Voigt Hill
#
# Bulk Modulus (GPa) = 8.89194 33.52429 21.20811
# Shear Modulus (GPa) = 15.55472 12.94382 14.24927
#
# Velocity S-wave (km/s) = 3.06459 2.79558 2.93317
# Velocity P-wave (km/s) = 4.22978 5.53731 4.92711
#
# Compressibility (1/GPa) = 0.11246139
#
# Stress axis : x y z
#
# Youngs Moduli (GPa) = 38.40838 45.45430 21.17634
#
# Poissons Ratio (x) = 0.11312 -0.15542
# Poissons Ratio (y) = 0.09559 -0.07943
# Poissons Ratio (z) = -0.28188 -0.17050
#
# Static dielectric constant tensor:
#      x y z
#    x 1.561700 0.000000 0.038600 
#    y 0.000000 1.582820 0.000000 
#    z 0.038600 0.000000 1.628160 
# 
# From -- ./inp_files/67613.got.cif
#   From: 2010.05.17/outbox.cif.g08.bks.cpg/sg12_34_cif.got.tgz:67613.got - 2010.06.03 13:09:07.
