data_PCOD9177509
_publ_section_title
;
Structure prediction by ZEFSAII (Michael W. Deem and Ramdas Pophale) SiO2 
 PCOD9177509
Probable space group: C 2/M
;
_chemical_formula_sum "Si O2"
_cell_formula_units_Z 64
_cell_length_a 13.624806
_cell_length_b 8.770366
_cell_length_c 22.155559
_cell_angle_alpha 90.000000
_cell_angle_beta 87.033039
_cell_angle_gamma 90.000000
_cell_volume 2643.919422
_symmetry_space_group_name_H-M "C 2/M"
_symmetry_group_IT_number 12
_symmetry_cell_setting 'monoclinic'
loop_
_space_group_symop_operation_xyz
x,y,z
-x,y,-z
-x,-y,-z
x,-y,z
1/2+x,1/2+y,z
1/2-x,1/2+y,-z
1/2-x,1/2-y,-z
1/2+x,1/2-y,z
loop_
_atom_site_type_symbol
_atom_site_label
_atom_site_fract_x
_atom_site_fract_y
_atom_site_fract_z
Si Si1 0.357534 0.684332 0.513192
Si Si2 0.803949 0.825308 0.639531
Si Si3 0.345670 0.821150 0.888904
Si Si4 0.581329 0.179502 0.855542
Si Si5 0.184808 0.829084 0.231752
Si Si6 0.923314 0.327356 0.392818
Si Si7 0.954931 0.830324 0.265553
Si Si8 0.382466 0.181365 0.016553
O O1 0.356094 0.500000 0.514321
O O2 0.250000 0.750000 0.500000
O O3 0.369347 0.738860 0.582641
O O4 0.426057 0.737362 0.456014
O O5 0.793844 0.747710 0.705013
O O6 0.693811 0.835445 0.618245
O O7 0.840107 0.000000 0.648797
O O8 0.463268 0.810802 0.871558
O O9 0.294906 0.743251 0.833433
O O10 0.321139 0.000000 0.890480
O O11 0.333461 0.754022 0.956905
O O12 0.599557 0.248154 0.788457
O O13 0.628678 0.247642 0.915636
O O14 0.602713 0.000000 0.853669
O O15 0.066723 0.840834 0.239504
O O16 0.226598 0.000000 0.232565
O O17 0.959284 0.500000 0.399171
O O18 0.961054 0.252254 0.329855
O O19 0.914828 0.000000 0.275758
O O20 0.359224 0.000000 0.019431
O O21 0.500000 0.189752 0.000000
#
# Coordination Sequence:
#
# PCOD9177509 Si02
#       8
#     8   8   8   8   8   8   8   8
#     4   9  16  29  49  70  90 112 143 183 222 257
#     4   8  16  31  50  68  85 112 148 179 209 255
#     4   8  13  22  37  59  85 112 144 179 215 253
#     4   8  13  23  39  57  81 115 149 178 210 253
#     4   9  17  30  45  63  90 120 147 174 212 263
#     4  10  19  32  50  68  87 114 149 185 217 255
#     4  10  19  29  43  65  93 120 143 176 221 263
#     4   7  10  18  34  55  79 109 144 178 210 249
#
# _framework density 24.206488
#
# number of rings (size 3 to 8) (size 9 to 14) (size 15 to 20)
#    0.000    3.375    0.000    3.375    0.000    0.500 
#    0.000    5.000    0.000    7.500    0.000    0.875 
#    0.000    0.000    0.000    0.000    0.000    0.000 
#
# Total GULP energy -178500.513893 kJ/mol
# GULP energy per Si atom -5578.141059 kJ/mol
# Density = 2.415139 g / cm^3
# Si number density = 24.206488 Si / 1000 Ang^3
#
#
#
# Elastic Constant Matrix: (Units=GPa)
#
#
# Indices 1 2 3 4 5 6 
#
# 1 50.2267 -6.1407 32.4435 0.0000 -10.0218 0.0000
# 2 -6.1407 72.3397 74.7191 0.0000 -2.0200 0.0000
# 3 32.4435 74.7191 302.5334 0.0000 -2.2324 0.0000
# 4 0.0000 0.0000 0.0000 36.6310 0.0000 0.2422
# 5 -10.0218 -2.0200 -2.2324 0.0000 59.1093 0.0000
# 6 0.0000 0.0000 0.0000 0.2422 0.0000 7.9640
#
#
#
# Elastic Compliance Matrix: (Units=1/GPa)
#
#
# Indices 1 2 3 4 5 6 
#
# 1 0.024225 0.006477 -0.004167 0.000000 0.004171 0.000000
# 2 0.006477 0.020302 -0.005697 0.000000 0.001577 0.000000
# 3 -0.004167 -0.005697 0.005154 0.000000 -0.000706 0.000000
# 4 0.000000 0.000000 0.000000 0.027305 0.000000 -0.000830
# 5 0.004171 0.001577 -0.000706 0.000000 0.017652 0.000000
# 6 0.000000 0.000000 0.000000 -0.000830 0.000000 0.125590
#
#
# Mechanical properties :
#
#
# Convention : Reuss Voigt Hill
#
# Bulk Modulus (GPa) = 23.30619 69.68263 46.49441
# Shear Modulus (GPa) = 20.72066 42.34605 31.53336
#
# Velocity S-wave (km/s) = 2.92892 4.18708 3.61318
# Velocity P-wave (km/s) = 4.59206 7.22667 6.05441
#
# Compressibility (1/GPa) = 0.04290705
#
# Stress axis : x y z
#
# Youngs Moduli (GPa) = 41.27916 49.25650 194.02085
#
# Poissons Ratio (x) = -0.31902 0.80843
# Poissons Ratio (y) = -0.26735 1.10534
# Poissons Ratio (z) = 0.17200 0.28062
#
# Static dielectric constant tensor:
#      x y z
#    x 2.078670 0.000000 -0.001570 
#    y 0.000000 1.859260 0.000000 
#    z -0.001570 0.000000 2.006530 
# 
# From -- ./inp_files/319173.got.cif
#   From: 2010.05.17/outbox.cif.g08.bks.cpg/sg12_160_cif.got.tgz:319173.got - 2010.06.03 13:09:07.
