data_PCOD9177923
_publ_section_title
;
Structure prediction by ZEFSAII (Michael W. Deem and Ramdas Pophale) SiO2 
 PCOD9177923
Probable space group: C 2/M
;
_chemical_formula_sum "Si O2"
_cell_formula_units_Z 56
_cell_length_a 24.093966
_cell_length_b 7.692064
_cell_length_c 19.635608
_cell_angle_alpha 90.000000
_cell_angle_beta 127.349456
_cell_angle_gamma 90.000000
_cell_volume 2892.913254
_symmetry_space_group_name_H-M "C 2/M"
_symmetry_group_IT_number 12
_symmetry_cell_setting 'monoclinic'
loop_
_space_group_symop_operation_xyz
x,y,z
-x,y,-z
-x,-y,-z
x,-y,z
1/2+x,1/2+y,z
1/2-x,1/2+y,-z
1/2-x,1/2-y,-z
1/2+x,1/2-y,z
loop_
_atom_site_type_symbol
_atom_site_label
_atom_site_fract_x
_atom_site_fract_y
_atom_site_fract_z
Si Si1 0.943089 0.702104 0.254150
Si Si2 0.497625 0.207864 0.159222
Si Si3 0.214501 0.288611 0.716547
Si Si4 0.134797 0.792986 0.177917
Si Si5 0.789362 0.798324 0.126908
Si Si6 0.137912 0.708440 0.020297
Si Si7 0.938010 0.287077 0.405128
O O1 0.960785 0.500000 0.275964
O O2 0.992312 0.777709 0.232217
O O3 0.863448 0.711415 0.166145
O O4 0.945967 0.775352 0.332711
O O5 0.569427 0.234569 0.173358
O O6 0.487867 0.000000 0.156281
O O7 0.430861 0.277280 0.067898
O O8 0.214615 0.500000 0.721652
O O9 0.288333 0.233051 0.740029
O O10 0.214450 0.217958 0.793577
O O11 0.140282 0.237424 0.629737
O O12 0.129283 0.741058 0.094505
O O13 0.134544 0.000000 0.179623
O O14 0.713312 0.724799 0.049286
O O15 0.794486 0.000000 0.111697
O O16 0.141517 0.500000 0.014563
O O17 0.939517 0.500000 0.405713
O O18 0.000000 0.227775 0.500000
#
# Coordination Sequence:
#
# PCOD9177923 Si02
#       7
#     8   8   8   8   8   8   8
#     4   9  18  31  45  64  90 117 144 176 219 265
#     4  10  20  32  44  59  86 123 154 181 215 256
#     4   8  15  28  45  66  90 113 139 175 218 258
#     4  10  19  30  45  65  88 115 150 188 219 248
#     4   9  16  27  44  64  86 113 145 180 217 258
#     4   9  18  31  45  62  85 116 153 187 218 252
#     4   8  13  25  49  74  88 103 136 179 216 257
#
# _framework density 19.35765
#
# number of rings (size 3 to 8) (size 9 to 14) (size 15 to 20)
#    0.000    3.000    0.000    2.143    0.000    4.571 
#    0.000    0.000    0.000    7.714    0.000    0.000 
#    0.000    0.000    0.000    0.000    0.000    1.286 
#
# Total GULP energy -155983.719542 kJ/mol
# GULP energy per Si atom -5570.847127 kJ/mol
# Density = 1.931359 g / cm^3
# Si number density = 19.357650 Si / 1000 Ang^3
#
#
#
# Elastic Constant Matrix: (Units=GPa)
#
#
# Indices 1 2 3 4 5 6 
#
# 1 128.0885 -5.4491 63.8062 0.0000 4.1495 0.0000
# 2 -5.4491 34.4042 6.7023 0.0000 4.3058 0.0001
# 3 63.8062 6.7023 120.4440 0.0000 26.2239 0.0000
# 4 0.0000 0.0000 0.0000 7.0673 0.0000 0.8313
# 5 4.1495 4.3058 26.2239 0.0000 28.3076 0.0000
# 6 0.0000 0.0001 0.0000 0.8313 0.0000 1.1407
#
#
#
# Elastic Compliance Matrix: (Units=1/GPa)
#
#
# Indices 1 2 3 4 5 6 
#
# 1 0.011326 0.002614 -0.007137 0.000000 0.004554 0.000000
# 2 0.002614 0.030301 -0.002485 0.000000 -0.002690 -0.000003
# 3 -0.007137 -0.002485 0.014921 0.000000 -0.012399 0.000000
# 4 0.000000 0.000000 0.000000 0.154764 0.000000 -0.112783
# 5 0.004554 -0.002690 -0.012399 0.000000 0.046554 0.000000
# 6 0.000000 -0.000003 0.000000 -0.112783 0.000000 0.958820
#
#
# Mechanical properties :
#
#
# Convention : Reuss Voigt Hill
#
# Bulk Modulus (GPa) = 23.51161 45.89504 34.70332
# Shear Modulus (GPa) = 4.01645 21.82826 12.92235
#
# Velocity S-wave (km/s) = 1.44200 3.36166 2.58652
# Velocity P-wave (km/s) = 3.86585 6.23122 5.18522
#
# Compressibility (1/GPa) = 0.04253219
#
# Stress axis : x y z
#
# Youngs Moduli (GPa) = 88.29205 33.00205 67.01792
#
# Poissons Ratio (x) = -0.08628 0.47831
# Poissons Ratio (y) = -0.23082 0.16657
# Poissons Ratio (z) = 0.63014 0.08203
#
# Static dielectric constant tensor:
#      x y z
#    x 1.729930 0.000000 0.018410 
#    y 0.000000 1.721500 0.000000 
#    z 0.018410 0.000000 1.693580 
# 
# From -- ./inp_files/287904.got.cif
#   From: 2010.05.17/outbox.cif.g08.bks.cpg/sg12_144_cif.got.tgz:287904.got - 2010.06.03 13:09:07.
