data_PCOD9177956
_publ_section_title
;
Structure prediction by ZEFSAII (Michael W. Deem and Ramdas Pophale) SiO2 
 PCOD9177956
Probable space group: C 2/M
;
_chemical_formula_sum "Si O2"
_cell_formula_units_Z 56
_cell_length_a 32.660953
_cell_length_b 9.078739
_cell_length_c 13.929069
_cell_angle_alpha 90.000000
_cell_angle_beta 64.755975
_cell_angle_gamma 90.000000
_cell_volume 3735.810723
_symmetry_space_group_name_H-M "C 2/M"
_symmetry_group_IT_number 12
_symmetry_cell_setting 'monoclinic'
loop_
_space_group_symop_operation_xyz
x,y,z
-x,y,-z
-x,-y,-z
x,-y,z
1/2+x,1/2+y,z
1/2-x,1/2+y,-z
1/2-x,1/2-y,-z
1/2+x,1/2-y,z
loop_
_atom_site_type_symbol
_atom_site_label
_atom_site_fract_x
_atom_site_fract_y
_atom_site_fract_z
Si Si1 0.179253 0.175489 0.608526
Si Si2 0.593390 0.824731 0.792085
Si Si3 0.725551 0.176104 0.385598
Si Si4 0.725551 0.823896 0.163300
Si Si5 0.820747 0.175489 0.967031
Si Si6 1.000000 0.169730 0.883420
Si Si7 0.906610 0.324731 0.978865
O O1 0.135191 0.253072 0.694931
O O2 0.222847 0.206606 0.632699
O O3 0.193105 0.238197 0.490815
O O4 0.172902 0.000000 0.611635
O O5 0.545826 0.752684 0.808594
O O6 0.598849 0.797209 0.901151
O O7 0.592129 0.000000 0.779105
O O8 0.719338 0.215419 0.280662
O O9 0.718588 0.000000 0.403272
O O10 0.693105 0.738197 0.122974
O O11 0.718588 0.000000 0.159552
O O12 0.777153 0.793395 0.078393
O O13 0.827098 0.000000 0.957439
O O14 0.864809 0.253072 0.965312
O O15 1.000000 0.000000 0.851818
O O16 0.954174 0.252684 0.900246
O O17 0.000000 0.170350 0.000000
O O18 0.907871 0.500000 0.963363
#
# Coordination Sequence:
#
# PCOD9177956 Si02
#       7
#     8   8   8   8   8   8   8
#     4  10  19  30  46  68  92 119 153 189 226 269
#     4  10  19  30  45  66  93 123 153 185 223 269
#     4   9  18  32  47  64  90 122 154 189 227 267
#     4   9  18  32  47  64  90 122 154 189 227 267
#     4  10  19  30  46  68  92 119 153 189 226 269
#     4   9  17  29  45  65  90 119 150 185 225 267
#     4  10  19  30  45  66  93 123 153 185 223 269
#
# _framework density 14.990053
#
# number of rings (size 3 to 8) (size 9 to 14) (size 15 to 20)
#    0.000    2.429    0.000    3.000    0.000    6.286 
#    0.000    0.000    0.000    0.000    0.000    1.000 
#    0.000    8.000    0.000    0.000    0.000    0.000 
#
# Total GULP energy -156173.376889 kJ/mol
# GULP energy per Si atom -5577.620603 kJ/mol
# Density = 1.495593 g / cm^3
# Si number density = 14.990053 Si / 1000 Ang^3
#
#
#
# Elastic Constant Matrix: (Units=GPa)
#
#
# Indices 1 2 3 4 5 6 
#
# 1 134.6410 81.1932 68.0948 0.0000 -13.5584 0.0000
# 2 81.1932 87.9944 68.7604 0.0000 -10.7671 0.0000
# 3 68.0948 68.7604 105.1909 0.0000 -11.9467 0.0000
# 4 0.0000 0.0000 0.0000 25.0061 0.0000 -3.4062
# 5 -13.5584 -10.7671 -11.9467 0.0000 26.8411 0.0000
# 6 0.0000 0.0000 0.0000 -3.4062 0.0000 28.9392
#
#
#
# Elastic Compliance Matrix: (Units=1/GPa)
#
#
# Indices 1 2 3 4 5 6 
#
# 1 0.016986 -0.014322 -0.001382 0.000000 0.002220 0.000000
# 2 -0.014322 0.035492 -0.013833 0.000000 0.000846 0.000000
# 3 -0.001382 -0.013833 0.019731 0.000000 0.002535 0.000000
# 4 0.000000 0.000000 0.000000 0.040642 0.000000 0.004784
# 5 0.002220 0.000846 0.002535 0.000000 0.039845 0.000000
# 6 0.000000 0.000000 0.000000 0.004784 0.000000 0.035118
#
#
# Mechanical properties :
#
#
# Convention : Reuss Voigt Hill
#
# Bulk Modulus (GPa) = 76.12640 84.88033 80.50337
# Shear Modulus (GPa) = 19.89913 23.47580 21.68746
#
# Velocity S-wave (km/s) = 3.64742 3.96168 3.80780
# Velocity P-wave (km/s) = 8.28451 8.81328 8.55298
#
# Compressibility (1/GPa) = 0.01313605
#
# Stress axis : x y z
#
# Youngs Moduli (GPa) = 58.87138 28.17537 50.68069
#
# Poissons Ratio (x) = 0.40352 0.07005
# Poissons Ratio (y) = 0.84314 0.70107
# Poissons Ratio (z) = 0.08137 0.38975
#
# Static dielectric constant tensor:
#      x y z
#    x 1.474020 0.000000 -0.000670 
#    y 0.000000 1.496220 0.000000 
#    z -0.000670 0.000000 1.473250 
# 
# From -- ./inp_files/103276.got.cif
#   From: 2010.05.17/outbox.cif.g08.bks.cpg/sg12_52_cif.got.tgz:103276.got - 2010.06.03 13:09:07.
