data_PCOD9177418
_publ_section_title
;
Structure prediction by ZEFSAII (Michael W. Deem and Ramdas Pophale) SiO2 
 PCOD9177418
Probable space group: C 2/M
;
_chemical_formula_sum "Si O2"
_cell_formula_units_Z 64
_cell_length_a 27.572806
_cell_length_b 9.156826
_cell_length_c 24.251236
_cell_angle_alpha 90.000000
_cell_angle_beta 45.278355
_cell_angle_gamma 90.000000
_cell_volume 4350.553203
_symmetry_space_group_name_H-M "C 2/M"
_symmetry_group_IT_number 12
_symmetry_cell_setting 'monoclinic'
loop_
_space_group_symop_operation_xyz
x,y,z
-x,y,-z
-x,-y,-z
x,-y,z
1/2+x,1/2+y,z
1/2-x,1/2+y,-z
1/2-x,1/2-y,-z
1/2+x,1/2-y,z
loop_
_atom_site_type_symbol
_atom_site_label
_atom_site_fract_x
_atom_site_fract_y
_atom_site_fract_z
Si Si1 0.137032 0.325286 0.941619
Si Si2 0.904722 0.326574 0.344639
Si Si3 0.844639 0.828059 0.182595
Si Si4 0.997122 0.171926 0.914370
Si Si5 0.304135 0.326079 0.497473
Si Si6 0.966421 0.325631 0.825366
Si Si7 0.684734 0.173933 0.026498
Si Si8 0.299497 0.173830 0.329071
O O1 0.134836 0.500000 0.938679
O O2 0.172574 0.254364 0.860257
O O3 0.060365 0.261679 0.007298
O O4 0.171548 0.286909 0.972814
O O5 0.895490 0.500000 0.361127
O O6 0.875521 0.239839 0.420190
O O7 0.858236 0.289881 0.327688
O O8 0.982995 0.297885 0.265832
O O9 0.810150 0.760415 0.264411
O O10 0.926151 0.809136 0.126151
O O11 0.830519 0.000000 0.189592
O O12 0.993185 0.232927 0.855505
O O13 0.980271 0.000000 0.930408
O O14 0.303120 0.500000 0.490141
O O15 0.250000 0.250000 0.500000
O O16 0.272878 0.297195 0.582865
O O17 0.971952 0.500000 0.834137
O O18 0.886191 0.292099 0.884821
O O19 0.694064 0.000000 0.021265
O O20 0.750000 0.250000 0.000000
O O21 0.305327 0.000000 0.314103
#
# Coordination Sequence:
#
# PCOD9177418 Si02
#       8
#     8   8   8   8   8   8   8   8
#     4  10  21  34  47  62  82 114 149 177 215 267
#     4   9  16  27  43  61  84 115 151 187 217 253
#     4  11  21  29  41  63  89 115 147 187 219 249
#     4  10  19  29  41  62  89 114 145 185 221 249
#     4   9  17  27  39  57  82 115 153 187 219 254
#     4   9  17  30  46  65  88 117 152 180 216 268
#     4   9  19  34  51  68  86 111 142 180 223 267
#     4   9  17  28  41  57  82 121 155 179 214 256
#
# _framework density 14.710773
#
# number of rings (size 3 to 8) (size 9 to 14) (size 15 to 20)
#    0.000    2.500    1.250    3.375    0.000    8.500 
#    0.000    0.000    0.000    0.000    0.000    0.000 
#    0.000    1.000    0.000   11.250    0.000    5.000 
#
# Total GULP energy -178273.648130 kJ/mol
# GULP energy per Si atom -5571.051504 kJ/mol
# Density = 1.467729 g / cm^3
# Si number density = 14.710773 Si / 1000 Ang^3
#
#
#
# Elastic Constant Matrix: (Units=GPa)
#
#
# Indices 1 2 3 4 5 6 
#
# 1 50.2575 34.4033 46.6477 -0.0039 -7.1154 0.0057
# 2 34.4033 55.7937 65.1173 -0.0045 2.2609 0.0103
# 3 46.6477 65.1173 137.8342 -0.0003 2.4413 0.0021
# 4 -0.0039 -0.0045 -0.0003 28.5384 -0.0016 -1.0066
# 5 -7.1154 2.2609 2.4413 -0.0016 11.9089 -0.0015
# 6 0.0057 0.0103 0.0021 -1.0066 -0.0015 17.3190
#
#
#
# Elastic Compliance Matrix: (Units=1/GPa)
#
#
# Indices 1 2 3 4 5 6 
#
# 1 0.044917 -0.023617 -0.004615 0.000004 0.032267 0.000003
# 2 -0.023617 0.052536 -0.016460 0.000003 -0.020711 -0.000023
# 3 -0.004615 -0.016460 0.016647 -0.000003 -0.003045 0.000009
# 4 0.000004 0.000003 -0.000003 0.035112 0.000007 0.002041
# 5 0.032267 -0.020711 -0.003045 0.000007 0.107806 0.000012
# 6 0.000003 -0.000023 0.000009 0.002041 0.000012 0.057859
#
#
# Mechanical properties :
#
#
# Convention : Reuss Voigt Hill
#
# Bulk Modulus (GPa) = 40.46194 59.58024 50.02109
# Shear Modulus (GPa) = 12.12124 18.06774 15.09449
#
# Velocity S-wave (km/s) = 2.87360 3.50837 3.20673
# Velocity P-wave (km/s) = 6.21086 7.54987 6.91286
#
# Compressibility (1/GPa) = 0.02471459
#
# Stress axis : x y z
#
# Youngs Moduli (GPa) = 22.26351 19.03469 60.07061
#
# Poissons Ratio (x) = 0.44955 0.27723
# Poissons Ratio (y) = 0.52581 0.98875
# Poissons Ratio (z) = 0.10275 0.31331
#
# Static dielectric constant tensor:
#      x y z
#    x 1.458490 0.000000 -0.008760 
#    y 0.000000 1.489820 0.000000 
#    z -0.008760 0.000000 1.525120 
# 
# From -- ./inp_files/326790.got.cif
#   From: 2010.05.17/outbox.cif.g08.bks.cpg/sg12_164_cif.got.tgz:326790.got - 2010.06.03 13:09:07.
