data_PCOD9177309
_publ_section_title
;
Structure prediction by ZEFSAII (Michael W. Deem and Ramdas Pophale) SiO2 
 PCOD9177309
Probable space group: C 2/M
;
_chemical_formula_sum "Si O2"
_cell_formula_units_Z 56
_cell_length_a 30.260832
_cell_length_b 7.851810
_cell_length_c 13.842503
_cell_angle_alpha 90.000000
_cell_angle_beta 102.218212
_cell_angle_gamma 90.000000
_cell_volume 3214.510143
_symmetry_space_group_name_H-M "C 2/M"
_symmetry_group_IT_number 12
_symmetry_cell_setting 'monoclinic'
loop_
_space_group_symop_operation_xyz
x,y,z
-x,y,-z
-x,-y,-z
x,-y,z
1/2+x,1/2+y,z
1/2-x,1/2+y,-z
1/2-x,1/2-y,-z
1/2+x,1/2-y,z
loop_
_atom_site_type_symbol
_atom_site_label
_atom_site_fract_x
_atom_site_fract_y
_atom_site_fract_z
Si Si1 0.443127 0.697112 0.066601
Si Si2 0.201164 0.698300 0.853964
Si Si3 0.018287 0.707957 0.611373
Si Si4 0.531470 0.206468 0.216520
Si Si5 0.300100 0.300015 0.929082
Si Si6 0.887524 0.694135 0.862428
Si Si7 0.393736 0.792739 0.242076
O O1 0.439250 0.500000 0.037525
O O2 0.494290 0.738524 0.120308
O O3 0.414705 0.732021 0.150536
O O4 0.420889 0.802222 0.970465
O O5 0.203958 0.500000 0.828214
O O6 0.251975 0.768650 0.867823
O O7 0.157866 0.770448 0.777582
O O8 0.190215 0.712311 0.963521
O O9 0.017486 0.500000 0.610332
O O10 0.069801 0.758865 0.660328
O O11 0.000000 0.767299 0.500000
O O12 0.987159 0.761936 0.687703
O O13 0.581096 0.267414 0.208262
O O14 0.532189 0.000000 0.216361
O O15 0.294266 0.500000 0.948838
O O16 0.341517 0.281003 0.875326
O O17 0.875926 0.500000 0.833253
O O18 0.393131 0.000000 0.239283
#
# Coordination Sequence:
#
# PCOD9177309 Si02
#       7
#     8   8   8   8   8   8   8
#     4  11  20  28  41  63  88 115 148 182 212 248
#     4   9  17  29  43  60  86 119 150 180 216 258
#     4   8  14  27  48  71  88 103 135 184 225 258
#     4   9  19  32  45  61  84 116 147 175 216 267
#     4  10  19  28  41  62  86 115 153 188 214 245
#     4  11  20  30  42  58  85 121 152 176 212 259
#     4   9  16  28  46  65  88 118 145 173 217 265
#
# _framework density 17.421005999999998
#
# number of rings (size 3 to 8) (size 9 to 14) (size 15 to 20)
#    0.000    2.429    1.429    3.429    0.000    3.429 
#    0.000    0.000    0.000    6.857    0.000    1.000 
#    0.000    0.000    0.000    0.000    0.000    0.000 
#
# Total GULP energy -156052.676555 kJ/mol
# GULP energy per Si atom -5573.309877 kJ/mol
# Density = 1.738136 g / cm^3
# Si number density = 17.421006 Si / 1000 Ang^3
#
#
#
# Elastic Constant Matrix: (Units=GPa)
#
#
# Indices 1 2 3 4 5 6 
#
# 1 142.6978 1.7894 49.2319 0.0000 16.7900 0.0000
# 2 1.7894 27.9646 -3.3199 0.0000 -0.2187 0.0000
# 3 49.2319 -3.3199 78.3778 0.0000 12.7666 0.0000
# 4 0.0000 0.0000 0.0000 1.3616 0.0000 2.0968
# 5 16.7900 -0.2187 12.7666 0.0000 16.2675 0.0000
# 6 0.0000 0.0000 0.0000 2.0968 0.0000 17.0218
#
#
#
# Elastic Compliance Matrix: (Units=1/GPa)
#
#
# Indices 1 2 3 4 5 6 
#
# 1 0.009446 -0.001248 -0.005040 0.000000 -0.005811 0.000000
# 2 -0.001248 0.036115 0.002322 0.000000 -0.000048 0.000000
# 3 -0.005040 0.002322 0.017394 0.000000 -0.008418 0.000000
# 4 0.000000 0.000000 0.000000 0.906385 0.000000 -0.111652
# 5 -0.005811 -0.000048 -0.008418 0.000000 0.074075 0.000000
# 6 0.000000 0.000000 0.000000 -0.111652 0.000000 0.072502
#
#
# Mechanical properties :
#
#
# Convention : Reuss Voigt Hill
#
# Bulk Modulus (GPa) = 18.17457 38.27145 28.22301
# Shear Modulus (GPa) = 4.37755 20.35276 12.36516
#
# Velocity S-wave (km/s) = 1.58690 3.42173 2.66707
# Velocity P-wave (km/s) = 3.71657 6.13411 5.07150
#
# Compressibility (1/GPa) = 0.05502192
#
# Stress axis : x y z
#
# Youngs Moduli (GPa) = 105.86575 27.68959 57.49181
#
# Poissons Ratio (x) = 0.03456 0.28974
# Poissons Ratio (y) = 0.13214 -0.13348
# Poissons Ratio (z) = 0.53353 -0.06429
#
# Static dielectric constant tensor:
#      x y z
#    x 1.647210 0.000000 0.016130 
#    y 0.000000 1.627830 0.000000 
#    z 0.016130 0.000000 1.565430 
# 
# From -- ./inp_files/247891.got.cif
#   From: 2010.05.17/outbox.cif.g08.bks.cpg/sg12_124_cif.got.tgz:247891.got - 2010.06.03 13:09:07.
