data_PCOD9177745
_publ_section_title
;
Structure prediction by ZEFSAII (Michael W. Deem and Ramdas Pophale) SiO2 
 PCOD9177745
Probable space group: C 2/M
;
_chemical_formula_sum "Si O2"
_cell_formula_units_Z 60
_cell_length_a 31.401269
_cell_length_b 14.477502
_cell_length_c 19.921552
_cell_angle_alpha 90.000000
_cell_angle_beta 18.493254
_cell_angle_gamma 90.000000
_cell_volume 2872.682276
_symmetry_space_group_name_H-M "C 2/M"
_symmetry_group_IT_number 12
_symmetry_cell_setting 'monoclinic'
loop_
_space_group_symop_operation_xyz
x,y,z
-x,y,-z
-x,-y,-z
x,-y,z
1/2+x,1/2+y,z
1/2-x,1/2+y,-z
1/2-x,1/2-y,-z
1/2+x,1/2-y,z
loop_
_atom_site_type_symbol
_atom_site_label
_atom_site_fract_x
_atom_site_fract_y
_atom_site_fract_z
Si Si1 0.700105 0.111235 0.497945
Si Si2 0.602600 0.719195 0.897399
Si Si3 0.006680 0.388360 0.293852
Si Si4 0.207582 0.105436 0.084837
Si Si5 0.903796 0.111235 0.294253
Si Si6 0.810009 0.713218 0.689990
Si Si7 0.000000 0.835245 0.500000
Si Si8 0.107746 0.888360 0.091722
O O1 0.804397 0.155359 0.289211
O O2 0.553659 0.138447 0.689058
O O3 0.755751 0.137752 0.488499
O O4 0.707910 0.000000 0.482128
O O5 0.707199 0.765714 0.792800
O O6 0.500000 0.770781 0.000000
O O7 0.508389 0.655359 0.085218
O O8 0.005373 0.500000 0.297477
O O9 0.906132 0.349437 0.500154
O O10 0.155185 0.354626 0.090160
O O11 0.095767 0.108228 0.308468
O O12 0.145872 0.145373 0.108784
O O13 0.241463 0.000000 0.017075
O O14 0.960909 0.138446 0.281808
O O15 0.912015 0.000000 0.278020
O O16 0.903870 0.774931 0.596128
O O17 0.718704 0.650565 0.875011
O O18 0.111077 0.000000 0.086070
#
# Coordination Sequence:
#
# PCOD9177745 Si02
#       8
#     8   8   8   8   8   8   4   8
#     4   8  12  19  36  65  98 128 155 182 215 261
#     4   8  13  22  37  61  98 136 159 173 203 266
#     4   9  17  30  49  74 103 131 156 186 229 280
#     4  10  22  39  55  67  84 117 161 206 247 286
#     4   8  12  19  36  65  98 128 155 182 215 261
#     4  10  19  29  48  78 106 129 151 185 234 283
#     4  12  25  38  51  66  86 120 166 210 245 278
#     4   9  17  30  49  74 103 131 156 186 229 280
#
# _framework density 20.886403999999999
#
# number of rings (size 3 to 8) (size 9 to 14) (size 15 to 20)
#    0.000    2.933    0.000    1.800    0.000    6.933 
#    0.000    2.667    0.000    1.600    0.000    7.467 
#    0.000    7.467    0.000    0.000    0.000    0.000 
#
# Total GULP energy -167081.016818 kJ/mol
# GULP energy per Si atom -5569.367227 kJ/mol
# Density = 2.083887 g / cm^3
# Si number density = 20.886404 Si / 1000 Ang^3
#
#
#
# Elastic Constant Matrix: (Units=GPa)
#
#
# Indices 1 2 3 4 5 6 
#
# 1 493.3556 15.4634 -199.5431 0.0010 224.4908 0.0000
# 2 15.4634 49.6290 -9.8479 0.0001 -11.7860 0.0000
# 3 -199.5431 -9.8479 329.9513 -0.0008 -300.6052 0.0001
# 4 0.0010 0.0001 -0.0008 103.2078 0.0009 45.7515
# 5 224.4908 -11.7860 -300.6052 0.0009 342.9546 -0.0001
# 6 0.0000 0.0000 0.0001 45.7515 -0.0001 4.9704
#
#
#
# Elastic Compliance Matrix: (Units=1/GPa)
#
#
# Indices 1 2 3 4 5 6 
#
# 1 0.002988 -0.001548 -0.000345 0.000000 -0.002312 0.000000
# 2 -0.001548 0.024005 0.007223 0.000000 0.008170 0.000000
# 3 -0.000345 0.007223 0.017224 0.000000 0.015571 0.000000
# 4 0.000000 0.000000 0.000000 -0.003145 0.000000 0.028953
# 5 -0.002312 0.008170 0.015571 0.000000 0.018358 0.000000
# 6 0.000000 0.000000 0.000000 0.028953 0.000000 -0.065313
#
#
# Mechanical properties :
#
#
# Convention : Reuss Voigt Hill
#
# Bulk Modulus (GPa) = 18.22299 53.89784 36.06041
# Shear Modulus (GPa) = 2856.99278 161.35079 1509.17179
#
# Velocity S-wave (km/s) = 37.02488 8.79882 26.90967
# Velocity P-wave (km/s) = 42.85478 11.36165 31.34980
#
# Compressibility (1/GPa) = 0.05487573
#
# Stress axis : x y z
#
# Youngs Moduli (GPa) = 334.71688 41.65723 58.05927
#
# Poissons Ratio (x) = 0.06450 0.02005
# Poissons Ratio (y) = 0.51827 -0.41938
# Poissons Ratio (z) = 0.11561 -0.30090
#
# Static dielectric constant tensor:
#      x y z
#    x 1.856080 0.000000 -0.066940 
#    y 0.000000 1.708010 0.000000 
#    z -0.066940 0.000000 1.712340 
# 
# From -- ./inp_files/296986.got.cif
#   From: 2010.05.17/outbox.cif.g08.bks.cpg/sg12_149_cif.got.tgz:296986.got - 2010.06.03 13:09:07.
