data_PCOD9177339
_publ_section_title
;
Structure prediction by ZEFSAII (Michael W. Deem and Ramdas Pophale) SiO2 
 PCOD9177339
Probable space group: C 2/M
;
_chemical_formula_sum "Si O2"
_cell_formula_units_Z 48
_cell_length_a 20.774574
_cell_length_b 10.042573
_cell_length_c 28.524502
_cell_angle_alpha 90.000000
_cell_angle_beta 22.817464
_cell_angle_gamma 90.000000
_cell_volume 2307.805178
_symmetry_space_group_name_H-M "C 2/M"
_symmetry_group_IT_number 12
_symmetry_cell_setting 'monoclinic'
loop_
_space_group_symop_operation_xyz
x,y,z
-x,y,-z
-x,-y,-z
x,-y,z
1/2+x,1/2+y,z
1/2-x,1/2+y,-z
1/2-x,1/2-y,-z
1/2+x,1/2-y,z
loop_
_atom_site_type_symbol
_atom_site_label
_atom_site_fract_x
_atom_site_fract_y
_atom_site_fract_z
Si Si1 0.169527 0.849355 0.414309
Si Si2 0.685634 0.147314 0.481727
Si Si3 0.451976 0.660703 0.184266
Si Si4 0.419130 0.659666 0.102198
Si Si5 0.893439 0.347729 0.741764
Si Si6 0.420222 0.648184 0.802734
O O1 0.135359 0.775478 0.485909
O O2 0.295511 0.750369 0.303734
O O3 0.000000 0.856544 0.500000
O O4 0.235941 0.000000 0.375605
O O5 0.586130 0.158998 0.597136
O O6 0.884561 0.142853 0.344007
O O7 0.630588 0.000000 0.499944
O O8 0.417259 0.500000 0.208390
O O9 0.487975 0.701777 0.106545
O O10 0.578321 0.682003 0.142889
O O11 0.441817 0.500000 0.086821
O O12 0.222695 0.684246 0.225198
O O13 0.500000 0.712689 0.000000
O O14 0.857272 0.500000 0.779181
O O15 0.849125 0.255369 0.815000
O O16 0.350413 0.500000 0.843313
#
# Coordination Sequence:
#
# PCOD9177339 Si02
#       6
#     8   8   8   8   8   8
#     4  10  19  28  42  70 104 134 164 201 248 297
#     4   9  18  31  47  70 100 136 173 201 235 290
#     4   9  18  34  54  72  95 131 170 206 246 296
#     4   9  18  34  56  78  97 124 170 221 257 288
#     4  10  19  31  51  77 102 132 170 210 249 291
#     4   9  18  31  48  73 104 135 164 199 247 301
#
# _framework density 20.798981999999999
#
# number of rings (size 3 to 8) (size 9 to 14) (size 15 to 20)
#    0.000    2.667    0.000    3.000    0.000    6.000 
#    0.000    1.667    0.000    2.000    0.000    0.000 
#    0.000    0.000    0.000    0.000    0.000    0.000 
#
# Total GULP energy -133612.215644 kJ/mol
# GULP energy per Si atom -5567.175652 kJ/mol
# Density = 2.075164 g / cm^3
# Si number density = 20.798982 Si / 1000 Ang^3
#
#
#
# Elastic Constant Matrix: (Units=GPa)
#
#
# Indices 1 2 3 4 5 6 
#
# 1 98.6938 41.3923 15.6368 0.0002 37.5865 0.0025
# 2 41.3923 72.8007 10.9397 0.0015 16.6147 -0.0043
# 3 15.6368 10.9397 61.0102 -0.0297 19.7635 -0.0004
# 4 0.0002 0.0015 -0.0297 2.8582 -0.0010 4.5423
# 5 37.5865 16.6147 19.7635 -0.0010 31.5349 -0.0006
# 6 0.0025 -0.0043 -0.0004 4.5423 -0.0006 29.6263
#
#
#
# Elastic Compliance Matrix: (Units=1/GPa)
#
#
# Indices 1 2 3 4 5 6 
#
# 1 0.022090 -0.007477 0.003679 0.000049 -0.024696 -0.000011
# 2 -0.007477 0.018145 -0.001414 -0.000038 0.000238 0.000009
# 3 0.003679 -0.001414 0.021181 0.000285 -0.016914 -0.000044
# 4 0.000049 -0.000038 0.000285 0.462591 -0.000204 -0.070925
# 5 -0.024696 0.000238 -0.016914 -0.000204 0.071621 0.000035
# 6 -0.000011 0.000009 -0.000044 -0.070925 0.000035 0.044628
#
#
# Mechanical properties :
#
#
# Convention : Reuss Voigt Hill
#
# Bulk Modulus (GPa) = 19.61082 40.93803 30.27443
# Shear Modulus (GPa) = 7.48863 23.77293 15.63078
#
# Velocity S-wave (km/s) = 1.89955 3.38447 2.74435
# Velocity P-wave (km/s) = 3.77628 5.91594 4.96279
#
# Compressibility (1/GPa) = 0.05099225
#
# Stress axis : x y z
#
# Youngs Moduli (GPa) = 45.26856 55.11031 47.21295
#
# Poissons Ratio (x) = 0.41204 -0.17369
# Poissons Ratio (y) = 0.33846 0.06678
# Poissons Ratio (z) = -0.16654 0.07795
#
# Static dielectric constant tensor:
#      x y z
#    x 1.786860 0.000000 -0.002330 
#    y 0.000000 1.743350 0.000000 
#    z -0.002330 0.000000 1.785720 
# 
# From -- ./inp_files/249382.got.cif
#   From: 2010.05.17/outbox.cif.g08.bks.cpg/sg12_125_cif.got.tgz:249382.got - 2010.06.03 13:09:07.
