data_PCOD9177732
_publ_section_title
;
Structure prediction by ZEFSAII (Michael W. Deem and Ramdas Pophale) SiO2 
 PCOD9177732
Probable space group: C 2/M
;
_chemical_formula_sum "Si O2"
_cell_formula_units_Z 26
_cell_length_a 28.432054
_cell_length_b 5.308137
_cell_length_c 13.975481
_cell_angle_alpha 90.000000
_cell_angle_beta 28.155640
_cell_angle_gamma 90.000000
_cell_volume 995.263138
_symmetry_space_group_name_H-M "C 2/M"
_symmetry_group_IT_number 12
_symmetry_cell_setting 'monoclinic'
loop_
_space_group_symop_operation_xyz
x,y,z
-x,y,-z
-x,-y,-z
x,-y,z
1/2+x,1/2+y,z
1/2-x,1/2+y,-z
1/2-x,1/2-y,-z
1/2+x,1/2-y,z
loop_
_atom_site_type_symbol
_atom_site_label
_atom_site_fract_x
_atom_site_fract_y
_atom_site_fract_z
Si Si1 0.156744 0.000000 0.954016
Si Si2 0.876777 0.500000 0.286384
Si Si3 0.097146 0.000000 0.478253
Si Si4 0.817741 0.000000 0.881103
Si Si5 0.379582 0.000000 0.497621
Si Si6 0.812386 0.500000 0.198027
Si Si7 0.000000 0.000000 0.000000
O O1 0.278995 0.000000 0.742023
O O2 0.132276 0.247234 0.936323
O O3 0.125806 0.000000 0.119320
O O4 0.840021 0.500000 0.460840
O O5 0.802374 0.500000 0.329585
O O6 0.935132 0.766778 0.168707
O O7 0.113292 0.000000 0.336209
O O8 0.056513 0.258657 0.590945
O O9 0.207726 0.000000 0.330729
O O10 0.750000 0.250000 0.000000
#
# Coordination Sequence:
#
# PCOD9177732 Si02
#       7
#     4   4   4   4   4   4   2
#     4  10  19  29  47  79 116 137 170 182 235 290
#     4  11  22  38  57  70  99 126 172 219 270 292
#     4  10  19  29  47  79 116 137 170 182 235 290
#     4  12  16  30  46  68 116 160 156 200 210 274
#     4  10  19  31  48  75 103 139 164 202 235 310
#     4  10  19  31  48  75 103 139 164 202 235 310
#     4  10  24  42  54  70  86 128 176 234 268 304
#
# _framework density 26.123745
#
# number of rings (size 3 to 8) (size 9 to 14) (size 15 to 20)
#    0.000    1.538    6.154    1.846    0.000    4.923 
#    0.000    0.000    0.000    0.000    0.000    0.000 
#    0.000  142.769    0.000    0.000    0.000    0.000 
#
# Total GULP energy -72496.628954 kJ/mol
# GULP energy per Si atom -5576.663766 kJ/mol
# Density = 2.606429 g / cm^3
# Si number density = 26.123745 Si / 1000 Ang^3
#
#
#
# Elastic Constant Matrix: (Units=GPa)
#
#
# Indices 1 2 3 4 5 6 
#
# 1 118.2836 39.1589 56.2150 -0.0001 28.7557 0.0008
# 2 39.1589 309.5832 25.9591 -0.0011 17.1074 0.0011
# 3 56.2150 25.9591 101.2882 0.0000 42.5032 0.0001
# 4 -0.0001 -0.0011 0.0000 18.5475 -0.0003 12.4554
# 5 28.7557 17.1074 42.5032 -0.0003 60.0169 0.0002
# 6 0.0008 0.0011 0.0001 12.4554 0.0002 51.0333
#
#
#
# Elastic Compliance Matrix: (Units=1/GPa)
#
#
# Indices 1 2 3 4 5 6 
#
# 1 0.011828 -0.000940 -0.005774 0.000000 -0.001310 0.000000
# 2 -0.000940 0.003386 -0.000185 0.000000 -0.000384 0.000000
# 3 -0.005774 -0.000185 0.016991 0.000000 -0.009214 0.000000
# 4 0.000000 0.000000 0.000000 0.064485 0.000000 -0.015738
# 5 -0.001310 -0.000384 -0.009214 0.000000 0.023924 0.000000
# 6 0.000000 0.000000 0.000000 -0.015738 0.000000 0.023436
#
#
# Mechanical properties :
#
#
# Convention : Reuss Voigt Hill
#
# Bulk Modulus (GPa) = 54.32608 85.75787 70.04198
# Shear Modulus (GPa) = 30.49097 53.10766 41.79931
#
# Velocity S-wave (km/s) = 3.42010 4.51369 4.00440
# Velocity P-wave (km/s) = 6.03630 7.75006 6.94623
#
# Compressibility (1/GPa) = 0.01840737
#
# Stress axis : x y z
#
# Youngs Moduli (GPa) = 84.54576 295.35725 58.85440
#
# Poissons Ratio (x) = 0.27750 0.33982
# Poissons Ratio (y) = 0.07943 0.01090
# Poissons Ratio (z) = 0.48816 0.05472
#
# Static dielectric constant tensor:
#      x y z
#    x 2.089630 0.000000 -0.079460 
#    y 0.000000 2.102730 0.000000 
#    z -0.079460 0.000000 2.078340 
# 
# From -- ./inp_files/185298.got.cif
#   From: 2010.05.17/outbox.cif.g08.bks.cpg/sg12_93_cif.got.tgz:185298.got - 2010.06.03 13:09:07.
