data_PCOD9177575
_publ_section_title
;
Structure prediction by ZEFSAII (Michael W. Deem and Ramdas Pophale) SiO2 
 PCOD9177575
Probable space group: C 2/M
;
_chemical_formula_sum "Si O2"
_cell_formula_units_Z 56
_cell_length_a 29.802877
_cell_length_b 9.057018
_cell_length_c 19.264798
_cell_angle_alpha 90.000000
_cell_angle_beta 38.470182
_cell_angle_gamma 90.000000
_cell_volume 3234.991578
_symmetry_space_group_name_H-M "C 2/M"
_symmetry_group_IT_number 12
_symmetry_cell_setting 'monoclinic'
loop_
_space_group_symop_operation_xyz
x,y,z
-x,y,-z
-x,-y,-z
x,-y,z
1/2+x,1/2+y,z
1/2-x,1/2+y,-z
1/2-x,1/2-y,-z
1/2+x,1/2-y,z
loop_
_atom_site_type_symbol
_atom_site_label
_atom_site_fract_x
_atom_site_fract_y
_atom_site_fract_z
Si Si1 0.735715 0.329884 0.223162
Si Si2 0.409525 0.822825 0.341491
Si Si3 0.097859 0.668928 0.925476
Si Si4 0.932208 0.677672 0.887042
Si Si5 0.304486 0.176398 0.591828
Si Si6 0.281365 0.323266 0.031136
Si Si7 0.140843 0.174383 0.739165
O O1 0.716309 0.500000 0.233168
O O2 0.818867 0.328360 0.149255
O O3 0.691340 0.259710 0.340052
O O4 0.736628 0.235031 0.152003
O O5 0.494534 0.789602 0.242296
O O6 0.364014 0.776590 0.463743
O O7 0.378961 0.751968 0.308478
O O8 0.402392 0.000000 0.343853
O O9 0.079787 0.500000 0.929950
O O10 0.095243 0.765543 0.859852
O O11 0.055819 0.715046 0.045838
O O12 0.917884 0.500000 0.902148
O O13 0.862885 0.764291 0.943890
O O14 0.225022 0.203559 0.655624
O O15 0.310159 0.000000 0.596535
O O16 0.279822 0.500000 0.029582
O O17 0.250000 0.250000 0.000000
O O18 0.131073 0.000000 0.744614
#
# Coordination Sequence:
#
# PCOD9177575 Si02
#       7
#     8   8   8   8   8   8   8
#     4   9  17  31  52  77 102 130 164 203 246 293
#     4  10  20  33  49  68  98 138 176 212 252 298
#     4   8  15  29  47  65  91 127 166 206 252 301
#     4   9  19  35  52  73 100 132 168 205 250 305
#     4   9  18  32  49  71  99 136 177 214 251 291
#     4  11  21  35  58  84 107 128 154 195 244 299
#     4  10  19  29  44  68  97 129 175 224 258 290
#
# _framework density 17.31071
#
# number of rings (size 3 to 8) (size 9 to 14) (size 15 to 20)
#    0.000    2.571    0.000    3.429    0.000    5.714 
#    0.000    2.857    0.000    0.857    0.000    6.000 
#    0.000    0.000    0.000    0.000    0.000    0.000 
#
# Total GULP energy -156197.902713 kJ/mol
# GULP energy per Si atom -5578.496525 kJ/mol
# Density = 1.727131 g / cm^3
# Si number density = 17.310710 Si / 1000 Ang^3
#
#
#
# Elastic Constant Matrix: (Units=GPa)
#
#
# Indices 1 2 3 4 5 6 
#
# 1 78.7482 60.8121 73.2935 -0.0004 24.2328 -0.0013
# 2 60.8121 83.3181 63.4590 0.0025 14.8290 -0.0015
# 3 73.2935 63.4590 116.5430 0.0007 18.5133 0.0016
# 4 -0.0004 0.0025 0.0007 21.0847 0.0000 8.1569
# 5 24.2328 14.8290 18.5133 0.0000 21.4969 0.0004
# 6 -0.0013 -0.0015 0.0016 8.1569 0.0004 25.3496
#
#
#
# Elastic Compliance Matrix: (Units=1/GPa)
#
#
# Indices 1 2 3 4 5 6 
#
# 1 0.057021 -0.021204 -0.019031 0.000003 -0.033262 0.000002
# 2 -0.021204 0.028916 -0.003520 -0.000005 0.006987 0.000002
# 3 -0.019031 -0.003520 0.021631 0.000000 0.005252 -0.000003
# 4 0.000003 -0.000005 0.000000 0.054171 -0.000001 -0.017431
# 5 -0.033262 0.006987 0.005252 -0.000001 0.074671 -0.000003
# 6 0.000002 0.000002 -0.000003 -0.017431 -0.000003 0.045057
#
#
# Mechanical properties :
#
#
# Convention : Reuss Voigt Hill
#
# Bulk Modulus (GPa) = 49.85278 74.85983 62.35630
# Shear Modulus (GPa) = 13.30982 18.98922 16.14952
#
# Velocity S-wave (km/s) = 2.77587 3.31564 3.05769
# Velocity P-wave (km/s) = 6.25582 7.61555 6.96893
#
# Compressibility (1/GPa) = 0.02005906
#
# Stress axis : x y z
#
# Youngs Moduli (GPa) = 17.53740 34.58335 46.22916
#
# Poissons Ratio (x) = 0.73329 0.87978
# Poissons Ratio (y) = 0.37186 0.16273
# Poissons Ratio (z) = 0.33375 0.12173
#
# Static dielectric constant tensor:
#      x y z
#    x 1.566040 0.000000 -0.010660 
#    y 0.000000 1.580600 0.000000 
#    z -0.010660 0.000000 1.608080 
# 
# From -- ./inp_files/287327.got.cif
#   From: 2010.05.17/outbox.cif.g08.bks.cpg/sg12_144_cif.got.tgz:287327.got - 2010.06.03 13:09:07.
