data_PCOD9177885
_publ_section_title
;
Structure prediction by ZEFSAII (Michael W. Deem and Ramdas Pophale) SiO2 
 PCOD9177885
Probable space group: C 2/M
;
_chemical_formula_sum "Si O2"
_cell_formula_units_Z 64
_cell_length_a 29.380048
_cell_length_b 7.668601
_cell_length_c 14.894535
_cell_angle_alpha 90.000000
_cell_angle_beta 70.159979
_cell_angle_gamma 90.000000
_cell_volume 3156.609435
_symmetry_space_group_name_H-M "C 2/M"
_symmetry_group_IT_number 12
_symmetry_cell_setting 'monoclinic'
loop_
_space_group_symop_operation_xyz
x,y,z
-x,y,-z
-x,-y,-z
x,-y,z
1/2+x,1/2+y,z
1/2-x,1/2+y,-z
1/2-x,1/2-y,-z
1/2+x,1/2-y,z
loop_
_atom_site_type_symbol
_atom_site_label
_atom_site_fract_x
_atom_site_fract_y
_atom_site_fract_z
Si Si1 0.472867 0.211284 0.302124
Si Si2 0.905324 0.296911 0.192386
Si Si3 0.318432 0.294415 0.378387
Si Si4 0.444585 0.209690 0.510819
Si Si5 0.140372 0.798945 0.301660
Si Si6 0.450642 0.297776 0.988771
Si Si7 0.921027 0.793626 0.815599
Si Si8 0.707962 0.288117 0.409278
O O1 0.447822 0.274306 0.228184
O O2 0.441698 0.265043 0.409018
O O3 0.527862 0.271942 0.269449
O O4 0.473404 0.000000 0.301731
O O5 0.914593 0.500000 0.170310
O O6 0.856869 0.281785 0.283203
O O7 0.909816 0.210088 0.092793
O O8 0.327776 0.500000 0.375381
O O9 0.318713 0.226474 0.481223
O O10 0.263796 0.263139 0.381142
O O11 0.500000 0.246525 0.500000
O O12 0.405747 0.295762 0.600862
O O13 0.437908 0.000000 0.522255
O O14 0.120957 0.720125 0.221080
O O15 0.182767 0.721972 0.335289
O O16 0.153742 0.000000 0.274539
O O17 0.461960 0.500000 0.961050
O O18 0.500000 0.221979 0.000000
O O19 0.431524 0.219561 0.907952
O O20 0.911019 0.000000 0.831510
O O21 0.705390 0.500000 0.411314
#
# Coordination Sequence:
#
# PCOD9177885 Si02
#       8
#     8   8   8   8   8   8   8   8
#     4  10  20  32  46  69 102 138 173 208 251 302
#     4  11  22  34  53  78 105 137 174 220 267 310
#     4  10  20  35  57  82 107 137 172 212 261 315
#     4  10  19  30  44  66 101 140 172 205 246 296
#     4  10  20  33  51  75 102 137 175 212 256 306
#     4  10  20  35  53  74 103 139 178 221 265 309
#     4  10  20  33  50  72 100 136 175 212 254 302
#     4   9  19  36  56  80 110 138 170 213 260 311
#
# _framework density 20.274919000000001
#
# number of rings (size 3 to 8) (size 9 to 14) (size 15 to 20)
#    0.000    2.000    2.500    1.500    0.000    3.000 
#    0.000    0.000    0.000    0.750    0.000    0.000 
#    0.000    0.000    0.000    0.000    0.000    0.000 
#
# Total GULP energy -178582.547734 kJ/mol
# GULP energy per Si atom -5580.704617 kJ/mol
# Density = 2.022877 g / cm^3
# Si number density = 20.274919 Si / 1000 Ang^3
#
#
#
# Elastic Constant Matrix: (Units=GPa)
#
#
# Indices 1 2 3 4 5 6 
#
# 1 89.7310 -0.0911 40.3428 0.0000 29.2909 0.0000
# 2 -0.0911 42.2015 2.7864 0.0000 5.4893 0.0000
# 3 40.3428 2.7864 102.8027 0.0000 28.7268 0.0000
# 4 0.0000 0.0000 0.0000 -6.3190 0.0000 -0.8179
# 5 29.2909 5.4893 28.7268 0.0000 40.9949 0.0000
# 6 0.0000 0.0000 0.0000 -0.8179 0.0000 11.9296
#
#
#
# Elastic Compliance Matrix: (Units=1/GPa)
#
#
# Indices 1 2 3 4 5 6 
#
# 1 0.015696 0.001423 -0.003744 0.000000 -0.008782 0.000000
# 2 0.001423 0.024253 -0.000030 0.000000 -0.004243 0.000000
# 3 -0.003744 -0.000030 0.012993 0.000000 -0.006425 0.000000
# 4 0.000000 0.000000 0.000000 -0.156862 0.000000 -0.010755
# 5 -0.008782 -0.004243 -0.006425 0.000000 0.035738 0.000000
# 6 0.000000 0.000000 0.000000 -0.010755 0.000000 0.083088
#
#
# Mechanical properties :
#
#
# Convention : Reuss Voigt Hill
#
# Bulk Modulus (GPa) = 20.72986 35.64572 28.18779
# Shear Modulus (GPa) = 140.10111 22.10092 81.10101
#
# Velocity S-wave (km/s) = 8.32170 3.30519 6.33147
# Velocity P-wave (km/s) = 10.12822 5.67319 8.20871
#
# Compressibility (1/GPa) = 0.04823959
#
# Stress axis : x y z
#
# Youngs Moduli (GPa) = 63.71128 41.23231 76.96439
#
# Poissons Ratio (x) = -0.05869 0.28817
# Poissons Ratio (y) = -0.09068 0.00232
# Poissons Ratio (z) = 0.23855 0.00124
#
# Static dielectric constant tensor:
#      x y z
#    x 1.737010 0.000000 0.058080 
#    y 0.000000 1.748310 0.000000 
#    z 0.058080 0.000000 1.740530 
# 
# From -- ./inp_files/243755.got.cif
#   From: 2010.05.17/outbox.cif.g08.bks.cpg/sg12_122_cif.got.tgz:243755.got - 2010.06.03 13:09:07.
