data_PCOD9177907
_publ_section_title
;
Structure prediction by ZEFSAII (Michael W. Deem and Ramdas Pophale) SiO2 
 PCOD9177907
Probable space group: C 2/M
;
_chemical_formula_sum "Si O2"
_cell_formula_units_Z 48
_cell_length_a 29.176011
_cell_length_b 7.584195
_cell_length_c 11.830938
_cell_angle_alpha 90.000000
_cell_angle_beta 76.462311
_cell_angle_gamma 90.000000
_cell_volume 2545.173627
_symmetry_space_group_name_H-M "C 2/M"
_symmetry_group_IT_number 12
_symmetry_cell_setting 'monoclinic'
loop_
_space_group_symop_operation_xyz
x,y,z
-x,y,-z
-x,-y,-z
x,-y,z
1/2+x,1/2+y,z
1/2-x,1/2+y,-z
1/2-x,1/2-y,-z
1/2+x,1/2-y,z
loop_
_atom_site_type_symbol
_atom_site_label
_atom_site_fract_x
_atom_site_fract_y
_atom_site_fract_z
Si Si1 0.269807 0.794687 0.169662
Si Si2 0.889172 0.283274 0.473975
Si Si3 0.704035 0.211729 0.600450
Si Si4 0.407563 0.787279 0.719821
Si Si5 0.681184 0.291275 0.081486
Si Si6 0.990779 0.296169 0.369754
O O1 0.287103 0.718226 0.278146
O O2 0.221712 0.718938 0.143114
O O3 0.259492 0.000000 0.198315
O O4 0.308427 0.783709 0.048301
O O5 0.890087 0.500000 0.473744
O O6 0.842906 0.222611 0.435100
O O7 0.889988 0.228879 0.605413
O O8 0.938256 0.221749 0.388706
O O9 0.750000 0.250000 0.500000
O O10 0.698257 0.000000 0.610555
O O11 0.369566 0.740784 0.835777
O O12 0.460933 0.719294 0.708191
O O13 0.410757 0.000000 0.712764
O O14 0.688660 0.500000 0.066863
O O15 0.988057 0.500000 0.333600
O O16 0.000000 0.297284 0.500000
#
# Coordination Sequence:
#
# PCOD9177907 Si02
#       6
#     8   8   8   8   8   8
#     4   9  19  33  45  61  86 115 146 178 212 249
#     4   8  14  25  43  67  91 115 142 172 209 253
#     4  10  19  30  46  67  91 116 141 172 210 256
#     4   9  15  25  45  69  90 112 140 175 213 253
#     4  10  19  30  45  63  85 113 145 182 217 251
#     4   7  11  21  39  64  89 111 139 174 208 244
#
# _framework density 18.859223
#
# number of rings (size 3 to 8) (size 9 to 14) (size 15 to 20)
#    0.000    3.167    0.000    3.500    0.000    1.333 
#    0.000    0.000    0.000    6.500    0.000    7.000 
#    0.000    0.000    0.000    0.000    0.000    0.000 
#
# Total GULP energy -133705.412409 kJ/mol
# GULP energy per Si atom -5571.058850 kJ/mol
# Density = 1.881630 g / cm^3
# Si number density = 18.859223 Si / 1000 Ang^3
#
#
#
# Elastic Constant Matrix: (Units=GPa)
#
#
# Indices 1 2 3 4 5 6 
#
# 1 155.2344 -4.1268 77.0825 0.0000 -14.3783 0.0000
# 2 -4.1268 39.6113 -11.4196 0.0000 7.5359 0.0000
# 3 77.0825 -11.4196 101.5878 0.0000 -10.0253 0.0000
# 4 0.0000 0.0000 0.0000 6.3457 0.0000 -7.3129
# 5 -14.3783 7.5359 -10.0253 0.0000 32.9352 0.0000
# 6 0.0000 0.0000 0.0000 -7.3129 0.0000 8.5697
#
#
#
# Elastic Compliance Matrix: (Units=1/GPa)
#
#
# Indices 1 2 3 4 5 6 
#
# 1 0.010596 -0.001687 -0.007975 0.000000 0.002584 0.000000
# 2 -0.001687 0.027265 0.003770 0.000000 -0.005827 0.000000
# 3 -0.007975 0.003770 0.016382 0.000000 0.000643 0.000000
# 4 0.000000 0.000000 0.000000 9.507241 0.000000 8.112973
# 5 0.002584 -0.005827 0.000643 0.000000 0.033020 0.000000
# 6 0.000000 0.000000 0.000000 8.112973 0.000000 7.039869
#
#
# Mechanical properties :
#
#
# Convention : Reuss Voigt Hill
#
# Bulk Modulus (GPa) = 23.55185 46.61173 35.08179
# Shear Modulus (GPa) = 0.30011 25.22994 12.76503
#
# Velocity S-wave (km/s) = 0.39935 3.66157 2.60447
# Velocity P-wave (km/s) = 3.56763 6.53034 5.26181
#
# Compressibility (1/GPa) = 0.04245952
#
# Stress axis : x y z
#
# Youngs Moduli (GPa) = 94.37200 36.67704 61.04257
#
# Poissons Ratio (x) = 0.06187 0.48681
# Poissons Ratio (y) = 0.15919 -0.23011
# Poissons Ratio (z) = 0.75260 -0.13826
#
# Static dielectric constant tensor:
#      x y z
#    x 1.685240 0.000000 -0.008440 
#    y 0.000000 1.722020 0.000000 
#    z -0.008440 0.000000 1.630960 
# 
# From -- ./inp_files/179179.got.cif
#   From: 2010.05.17/outbox.cif.g08.bks.cpg/sg12_90_cif.got.tgz:179179.got - 2010.06.03 13:09:07.
