data_PCOD9177579
_publ_section_title
;
Structure prediction by ZEFSAII (Michael W. Deem and Ramdas Pophale) SiO2 
 PCOD9177579
Probable space group: C 2/M
;
_chemical_formula_sum "Si O2"
_cell_formula_units_Z 64
_cell_length_a 27.046124
_cell_length_b 8.581419
_cell_length_c 17.192503
_cell_angle_alpha 90.000000
_cell_angle_beta 58.385865
_cell_angle_gamma 90.000000
_cell_volume 3398.112089
_symmetry_space_group_name_H-M "C 2/M"
_symmetry_group_IT_number 12
_symmetry_cell_setting 'monoclinic'
loop_
_space_group_symop_operation_xyz
x,y,z
-x,y,-z
-x,-y,-z
x,-y,z
1/2+x,1/2+y,z
1/2-x,1/2+y,-z
1/2-x,1/2-y,-z
1/2+x,1/2-y,z
loop_
_atom_site_type_symbol
_atom_site_label
_atom_site_fract_x
_atom_site_fract_y
_atom_site_fract_z
Si Si1 0.850180 0.688490 0.267223
Si Si2 0.899341 0.317679 0.764525
Si Si3 0.279377 0.678965 0.577353
Si Si4 0.814372 0.314102 0.966731
Si Si5 0.617518 0.186057 0.596666
Si Si6 0.174508 0.818897 0.874802
Si Si7 0.010757 0.691503 0.580843
Si Si8 0.194302 0.675515 0.294141
O O1 0.850818 0.500000 0.260379
O O2 0.785088 0.735954 0.348237
O O3 0.890085 0.737932 0.307190
O O4 0.858619 0.757164 0.174466
O O5 0.910929 0.500000 0.773843
O O6 0.863507 0.251030 0.866821
O O7 0.854729 0.313095 0.729612
O O8 0.959275 0.254018 0.680818
O O9 0.275852 0.500000 0.556520
O O10 0.317965 0.771021 0.484581
O O11 0.311836 0.700520 0.632956
O O12 0.810816 0.500000 0.959302
O O13 0.750000 0.250000 0.000000
O O14 0.832565 0.273358 0.039436
O O15 0.570699 0.242354 0.572186
O O16 0.613017 0.000000 0.601787
O O17 0.243139 0.806929 0.797584
O O18 0.161114 0.000000 0.898310
O O19 0.010054 0.500000 0.579784
O O20 0.000000 0.739844 0.500000
O O21 0.191470 0.500000 0.331186
#
# Coordination Sequence:
#
# PCOD9177579 Si02
#       8
#     8   8   8   8   8   8   8   8
#     4   9  19  33  48  71 101 132 168 210 259 308
#     4   9  17  30  49  75 103 132 170 212 252 296
#     4  10  19  29  44  69 100 132 165 205 255 307
#     4  11  20  32  51  77 110 140 169 208 256 309
#     4  10  19  32  51  72  96 130 172 216 257 303
#     4  10  19  32  50  75 102 132 168 204 254 310
#     4   9  17  30  52  78 101 130 172 216 253 293
#     4   9  16  29  47  68  97 130 164 203 246 300
#
# _framework density 18.833985999999999
#
# number of rings (size 3 to 8) (size 9 to 14) (size 15 to 20)
#    0.000    2.375    1.250    2.250    0.000    3.500 
#    0.000    0.000    0.000    5.625    0.000    5.250 
#    0.000    0.000    0.000    0.000    0.000    0.000 
#
# Total GULP energy -178310.252500 kJ/mol
# GULP energy per Si atom -5572.195391 kJ/mol
# Density = 1.879112 g / cm^3
# Si number density = 18.833986 Si / 1000 Ang^3
#
#
#
# Elastic Constant Matrix: (Units=GPa)
#
#
# Indices 1 2 3 4 5 6 
#
# 1 59.6329 13.8812 40.3141 0.0000 14.4248 -0.0001
# 2 13.8812 12.3064 16.8212 0.0001 2.2120 -0.0001
# 3 40.3141 16.8212 111.4258 0.0000 12.8848 0.0000
# 4 0.0000 0.0001 0.0000 21.0264 0.0000 5.0542
# 5 14.4248 2.2120 12.8848 0.0000 25.9103 0.0000
# 6 -0.0001 -0.0001 0.0000 5.0542 0.0000 11.7295
#
#
#
# Elastic Compliance Matrix: (Units=1/GPa)
#
#
# Indices 1 2 3 4 5 6 
#
# 1 0.028498 -0.022441 -0.005634 0.000000 -0.011148 0.000000
# 2 -0.022441 0.120087 -0.010895 -0.000001 0.007659 0.000002
# 3 -0.005634 -0.010895 0.012931 0.000000 -0.002364 0.000000
# 4 0.000000 -0.000001 0.000000 0.053054 0.000000 -0.022861
# 5 -0.011148 0.007659 -0.002364 0.000000 0.045323 0.000000
# 6 0.000000 0.000002 0.000000 -0.022861 0.000000 0.095106
#
#
# Mechanical properties :
#
#
# Convention : Reuss Voigt Hill
#
# Bulk Modulus (GPa) = 11.96511 36.15536 24.06024
# Shear Modulus (GPa) = 10.85076 19.22315 15.03695
#
# Velocity S-wave (km/s) = 2.40287 3.19825 2.82865
# Velocity P-wave (km/s) = 3.75035 5.73384 4.84469
#
# Compressibility (1/GPa) = 0.08357630
#
# Stress axis : x y z
#
# Youngs Moduli (GPa) = 35.08966 8.32732 77.33297
#
# Poissons Ratio (x) = 0.18687 0.43569
# Poissons Ratio (y) = 0.78744 0.84257
# Poissons Ratio (z) = 0.19769 0.09073
#
# Static dielectric constant tensor:
#      x y z
#    x 1.674620 0.000000 0.015440 
#    y 0.000000 1.675020 0.000000 
#    z 0.015440 0.000000 1.677910 
# 
# From -- ./inp_files/249086.got.cif
#   From: 2010.05.17/outbox.cif.g08.bks.cpg/sg12_125_cif.got.tgz:249086.got - 2010.06.03 13:09:07.
