data_PCOD9177347
_publ_section_title
;
Structure prediction by ZEFSAII (Michael W. Deem and Ramdas Pophale) SiO2 
 PCOD9177347
Probable space group: C 2/M
;
_chemical_formula_sum "Si O2"
_cell_formula_units_Z 56
_cell_length_a 22.206615
_cell_length_b 9.203126
_cell_length_c 18.842921
_cell_angle_alpha 90.000000
_cell_angle_beta 61.438425
_cell_angle_gamma 90.000000
_cell_volume 3382.289090
_symmetry_space_group_name_H-M "C 2/M"
_symmetry_group_IT_number 12
_symmetry_cell_setting 'monoclinic'
loop_
_space_group_symop_operation_xyz
x,y,z
-x,y,-z
-x,-y,-z
x,-y,z
1/2+x,1/2+y,z
1/2-x,1/2+y,-z
1/2-x,1/2-y,-z
1/2+x,1/2-y,z
loop_
_atom_site_type_symbol
_atom_site_label
_atom_site_fract_x
_atom_site_fract_y
_atom_site_fract_z
Si Si1 0.751733 0.673967 0.075713
Si Si2 0.058961 0.168750 0.566609
Si Si3 0.361427 0.829488 0.766734
Si Si4 0.888322 0.826734 0.043013
Si Si5 0.979675 0.330456 0.275314
Si Si6 0.982957 0.172023 0.126072
Si Si7 0.399062 0.669766 0.608675
O O1 0.749712 0.500000 0.070579
O O2 0.688295 0.734126 0.156920
O O3 0.821455 0.730049 0.072858
O O4 0.750000 0.750000 0.000000
O O5 0.101779 0.216865 0.473224
O O6 0.062548 0.258840 0.636536
O O7 0.979147 0.174343 0.587032
O O8 0.075010 0.000000 0.571035
O O9 0.035550 0.500000 0.720013
O O10 0.439522 0.814105 0.750674
O O11 0.360238 0.769007 0.687009
O O12 0.927675 0.802711 0.095018
O O13 0.872502 0.000000 0.046765
O O14 0.943067 0.791368 0.950023
O O15 0.156832 0.500000 0.219976
O O16 0.968405 0.256238 0.206091
O O17 0.983798 0.000000 0.140337
O O18 0.378103 0.500000 0.625257
#
# Coordination Sequence:
#
# PCOD9177347 Si02
#       7
#     8   8   8   8   8   8   8
#     4  12  24  36  51  71  96 127 160 196 235 277
#     4   8  14  25  42  63  91 125 158 192 234 281
#     4  10  20  32  46  68  98 131 162 195 236 280
#     4   9  19  36  54  72  93 121 158 196 235 282
#     4  10  19  28  43  70 100 127 159 197 236 276
#     4   9  18  33  53  72  93 123 156 192 237 284
#     4   8  14  26  43  64  90 123 160 195 232 279
#
# _framework density 16.556835
#
# number of rings (size 3 to 8) (size 9 to 14) (size 15 to 20)
#    0.000    2.571    0.000    4.714    0.000    5.714 
#    0.000    4.286    0.000    0.000    0.000    1.000 
#    0.000    0.000    0.000    0.000    0.000    0.000 
#
# Total GULP energy -156099.158702 kJ/mol
# GULP energy per Si atom -5574.969954 kJ/mol
# Density = 1.651915 g / cm^3
# Si number density = 16.556835 Si / 1000 Ang^3
#
#
#
# Elastic Constant Matrix: (Units=GPa)
#
#
# Indices 1 2 3 4 5 6 
#
# 1 15.9489 27.6700 18.8240 0.0000 3.7621 0.0000
# 2 27.6700 90.4780 72.8241 0.0000 8.8752 0.0000
# 3 18.8240 72.8241 139.7574 0.0000 24.5342 0.0000
# 4 0.0000 0.0000 0.0000 27.4128 0.0000 3.0653
# 5 3.7621 8.8752 24.5342 0.0000 20.9061 0.0000
# 6 0.0000 0.0000 0.0000 3.0653 0.0000 21.3728
#
#
#
# Elastic Compliance Matrix: (Units=1/GPa)
#
#
# Indices 1 2 3 4 5 6 
#
# 1 0.139965 -0.048731 0.009232 0.000000 -0.015333 0.000000
# 2 -0.048731 0.036342 -0.014112 0.000000 0.009901 0.000000
# 3 0.009232 -0.014112 0.015750 0.000000 -0.014153 0.000000
# 4 0.000000 0.000000 0.000000 0.037074 0.000000 -0.005317
# 5 -0.015333 0.009901 -0.014153 0.000000 0.062998 0.000000
# 6 0.000000 0.000000 0.000000 -0.005317 0.000000 0.047551
#
#
# Mechanical properties :
#
#
# Convention : Reuss Voigt Hill
#
# Bulk Modulus (GPa) = 11.78742 53.86895 32.82819
# Shear Modulus (GPa) = 10.52235 22.39609 16.45922
#
# Velocity S-wave (km/s) = 2.52371 3.68187 3.15636
# Velocity P-wave (km/s) = 3.95309 7.11908 5.75796
#
# Compressibility (1/GPa) = 0.08483618
#
# Stress axis : x y z
#
# Youngs Moduli (GPa) = 7.14466 27.51624 63.49375
#
# Poissons Ratio (x) = 1.34089 -0.58619
# Poissons Ratio (y) = 0.34816 0.89600
# Poissons Ratio (z) = -0.06596 0.38830
#
# Static dielectric constant tensor:
#      x y z
#    x 1.548300 0.000000 0.004310 
#    y 0.000000 1.546760 0.000000 
#    z 0.004310 0.000000 1.563760 
# 
# From -- ./inp_files/287415.got.cif
#   From: 2010.05.17/outbox.cif.g08.bks.cpg/sg12_144_cif.got.tgz:287415.got - 2010.06.03 13:09:07.
