data_PCOD9177548
_publ_section_title
;
Structure prediction by ZEFSAII (Michael W. Deem and Ramdas Pophale) SiO2 
 PCOD9177548
Probable space group: C 2/M
;
_chemical_formula_sum "Si O2"
_cell_formula_units_Z 48
_cell_length_a 24.743824
_cell_length_b 7.719600
_cell_length_c 15.165617
_cell_angle_alpha 90.000000
_cell_angle_beta 111.260904
_cell_angle_gamma 90.000000
_cell_volume 2699.660351
_symmetry_space_group_name_H-M "C 2/M"
_symmetry_group_IT_number 12
_symmetry_cell_setting 'monoclinic'
loop_
_space_group_symop_operation_xyz
x,y,z
-x,y,-z
-x,-y,-z
x,-y,z
1/2+x,1/2+y,z
1/2-x,1/2+y,-z
1/2-x,1/2-y,-z
1/2+x,1/2-y,z
loop_
_atom_site_type_symbol
_atom_site_label
_atom_site_fract_x
_atom_site_fract_y
_atom_site_fract_z
Si Si1 0.225475 0.795015 0.358100
Si Si2 0.558024 0.798225 0.973410
Si Si3 0.483643 0.213234 0.773333
Si Si4 0.840625 0.798413 0.506773
Si Si5 0.530010 0.201198 0.431617
Si Si6 0.873579 0.709244 0.825327
O O1 0.187456 0.727334 0.418887
O O2 0.289502 0.718376 0.405039
O O3 0.188506 0.760228 0.249173
O O4 0.231648 0.000000 0.373880
O O5 0.536300 0.726343 0.867259
O O6 0.572613 0.000000 0.966380
O O7 0.500000 0.795605 0.000000
O O8 0.607494 0.724475 0.066757
O O9 0.485360 0.274423 0.673915
O O10 0.423392 0.265917 0.785154
O O11 0.483581 0.000000 0.774083
O O12 0.900563 0.708862 0.518938
O O13 0.854138 0.000000 0.528423
O O14 0.500000 0.280457 0.500000
O O15 0.511625 0.000000 0.417089
O O16 0.876356 0.500000 0.829872
#
# Coordination Sequence:
#
# PCOD9177548 Si02
#       6
#     8   8   8   8   8   8
#     4  10  19  29  44  65  90 116 143 179 224 267
#     4   7  11  19  35  60  84 110 144 175 206 250
#     4   8  13  23  39  60  88 116 144 179 210 248
#     4  10  20  32  45  62  86 118 152 181 215 260
#     4  10  19  30  46  67  90 118 150 182 217 253
#     4   9  14  23  42  64  86 114 145 175 212 259
#
# _framework density 17.780014999999999
#
# number of rings (size 3 to 8) (size 9 to 14) (size 15 to 20)
#    0.000    3.000    1.667    3.000    0.000    1.667 
#    0.000    0.000    0.000    5.500    0.000    1.167 
#    0.000    0.000    0.000    0.000    0.000    0.000 
#
# Total GULP energy -133637.618645 kJ/mol
# GULP energy per Si atom -5568.234110 kJ/mol
# Density = 1.773955 g / cm^3
# Si number density = 17.780015 Si / 1000 Ang^3
#
#
#
# Elastic Constant Matrix: (Units=GPa)
#
#
# Indices 1 2 3 4 5 6 
#
# 1 47.8950 -3.2877 54.3563 0.0000 0.2566 0.0000
# 2 -3.2877 30.8310 -0.3539 0.0000 -5.4542 0.0000
# 3 54.3563 -0.3539 165.3826 0.0000 19.2703 0.0000
# 4 0.0000 0.0000 0.0000 9.0215 0.0000 6.4925
# 5 0.2566 -5.4542 19.2703 0.0000 25.4787 0.0000
# 6 0.0000 0.0000 0.0000 6.4925 0.0000 8.4596
#
#
#
# Elastic Compliance Matrix: (Units=1/GPa)
#
#
# Indices 1 2 3 4 5 6 
#
# 1 0.036064 0.005595 -0.013092 0.000000 0.010736 0.000000
# 2 0.005595 0.034687 -0.002877 0.000000 0.009545 0.000000
# 3 -0.013092 -0.002877 0.011405 0.000000 -0.009110 0.000000
# 4 0.000000 0.000000 0.000000 0.247600 0.000000 -0.190025
# 5 0.010736 0.009545 -0.009110 0.000000 0.048074 0.000000
# 6 0.000000 0.000000 0.000000 -0.190025 0.000000 0.264047
#
#
# Mechanical properties :
#
#
# Convention : Reuss Voigt Hill
#
# Bulk Modulus (GPa) = 16.28463 38.39310 27.33887
# Shear Modulus (GPa) = 7.31964 21.48488 14.40226
#
# Velocity S-wave (km/s) = 2.03119 3.47994 2.84918
# Velocity P-wave (km/s) = 3.83142 6.14710 5.12185
#
# Compressibility (1/GPa) = 0.06140759
#
# Stress axis : x y z
#
# Youngs Moduli (GPa) = 27.72855 28.82921 87.68163
#
# Poissons Ratio (x) = -0.16129 1.14794
# Poissons Ratio (y) = -0.15514 0.25224
# Poissons Ratio (z) = 0.36303 0.08294
#
# Static dielectric constant tensor:
#      x y z
#    x 1.572650 0.000000 0.015010 
#    y 0.000000 1.648630 0.000000 
#    z 0.015010 0.000000 1.671300 
# 
# From -- ./inp_files/236591.got.cif
#   From: 2010.05.17/outbox.cif.g08.bks.cpg/sg12_119_cif.got.tgz:236591.got - 2010.06.03 13:09:07.
