data_PCOD9177311
_publ_section_title
;
Structure prediction by ZEFSAII (Michael W. Deem and Ramdas Pophale) SiO2 
 PCOD9177311
Probable space group: C 2/M
;
_chemical_formula_sum "Si O2"
_cell_formula_units_Z 64
_cell_length_a 25.502892
_cell_length_b 8.469956
_cell_length_c 24.549414
_cell_angle_alpha 90.000000
_cell_angle_beta 41.081742
_cell_angle_gamma 90.000000
_cell_volume 3484.707803
_symmetry_space_group_name_H-M "C 2/M"
_symmetry_group_IT_number 12
_symmetry_cell_setting 'monoclinic'
loop_
_space_group_symop_operation_xyz
x,y,z
-x,y,-z
-x,-y,-z
x,-y,z
1/2+x,1/2+y,z
1/2-x,1/2+y,-z
1/2-x,1/2-y,-z
1/2+x,1/2-y,z
loop_
_atom_site_type_symbol
_atom_site_label
_atom_site_fract_x
_atom_site_fract_y
_atom_site_fract_z
Si Si1 0.515114 0.813061 0.350846
Si Si2 0.305585 0.688007 0.787390
Si Si3 0.262426 0.179816 0.431685
Si Si4 0.620212 0.317634 0.742597
Si Si5 0.612875 0.321538 0.469586
Si Si6 0.490441 0.692035 0.763103
Si Si7 0.756539 0.312157 0.712986
Si Si8 0.694864 0.689874 0.091331
O O1 0.600448 0.728463 0.290029
O O2 0.459771 0.771093 0.445839
O O3 0.481479 0.756285 0.318041
O O4 0.526691 0.000000 0.339466
O O5 0.296021 0.500000 0.790540
O O6 0.261274 0.769196 0.772226
O O7 0.278861 0.741070 0.868598
O O8 0.250000 0.250000 0.500000
O O9 0.318621 0.298936 0.355216
O O10 0.179243 0.173675 0.465092
O O11 0.294942 0.000000 0.406939
O O12 0.603723 0.500000 0.769284
O O13 0.540404 0.251547 0.776743
O O14 0.674913 0.248083 0.748460
O O15 0.587517 0.500000 0.476372
O O16 0.663721 0.252425 0.379430
O O17 0.496235 0.500000 0.756082
O O18 0.397826 0.737562 0.842079
O O19 0.756748 0.500000 0.704940
O O20 0.695896 0.500000 0.090146
O O21 0.750000 0.750000 0.000000
#
# Coordination Sequence:
#
# PCOD9177311 Si02
#       8
#     8   8   8   8   8   8   8   8
#     4  11  21  32  49  75 102 131 174 227 265 296
#     4  10  21  38  56  75 102 137 168 201 253 315
#     4  10  19  28  41  62  91 128 172 216 258 298
#     4   9  18  32  50  70  98 133 169 208 251 297
#     4  10  20  33  46  64  96 139 178 214 258 307
#     4   9  18  34  53  76 106 139 168 202 256 315
#     4  10  20  34  52  76 101 132 177 222 253 288
#     4   9  19  35  58  84 107 129 159 198 246 304
#
# _framework density 18.365959
#
# number of rings (size 3 to 8) (size 9 to 14) (size 15 to 20)
#    0.000    2.250    0.000    4.125    0.000    8.500 
#    0.000    2.500    0.000    0.750    0.000    5.250 
#    0.000    0.000    0.000    0.000    0.000    0.000 
#
# Total GULP energy -178358.869609 kJ/mol
# GULP energy per Si atom -5573.714675 kJ/mol
# Density = 1.832416 g / cm^3
# Si number density = 18.365959 Si / 1000 Ang^3
#
#
#
# Elastic Constant Matrix: (Units=GPa)
#
#
# Indices 1 2 3 4 5 6 
#
# 1 100.9497 -7.7946 42.7803 -0.0005 21.7788 -0.0001
# 2 -7.7946 20.1348 2.4078 0.0010 4.5904 -0.0013
# 3 42.7803 2.4078 68.5743 0.0034 20.5079 -0.0033
# 4 -0.0005 0.0010 0.0034 25.7046 -0.0018 4.4223
# 5 21.7788 4.5904 20.5079 -0.0018 20.4095 0.0013
# 6 -0.0001 -0.0013 -0.0033 4.4223 0.0013 15.8323
#
#
#
# Elastic Compliance Matrix: (Units=1/GPa)
#
#
# Indices 1 2 3 4 5 6 
#
# 1 0.016297 0.010063 -0.006637 0.000000 -0.012984 0.000001
# 2 0.010063 0.058842 -0.001679 -0.000005 -0.022285 0.000008
# 3 -0.006637 -0.001679 0.023662 -0.000006 -0.016316 0.000008
# 4 0.000000 -0.000005 -0.000006 0.040867 0.000011 -0.011415
# 5 -0.012984 -0.022285 -0.016316 0.000011 0.084259 -0.000015
# 6 0.000001 0.000008 0.000008 -0.011415 -0.000015 0.066351
#
#
# Mechanical properties :
#
#
# Convention : Reuss Voigt Hill
#
# Bulk Modulus (GPa) = 9.77581 29.38287 19.57934
# Shear Modulus (GPa) = 15.58204 22.54028 19.06116
#
# Velocity S-wave (km/s) = 2.91592 3.50706 3.22507
# Velocity P-wave (km/s) = 4.08303 5.69496 4.95499
#
# Compressibility (1/GPa) = 0.10229330
#
# Stress axis : x y z
#
# Youngs Moduli (GPa) = 61.36206 16.99465 42.26258
#
# Poissons Ratio (x) = -0.17101 0.28050
# Poissons Ratio (y) = -0.61746 0.07097
# Poissons Ratio (z) = 0.40726 0.02854
#
# Static dielectric constant tensor:
#      x y z
#    x 1.696850 0.000000 -0.005220 
#    y 0.000000 1.649690 0.000000 
#    z -0.005220 0.000000 1.580460 
# 
# From -- ./inp_files/348514.got.cif
#   From: 2010.05.17/outbox.cif.g08.bks.cpg/sg12_175_cif.got.tgz:348514.got - 2010.06.03 13:09:07.
