data_PCOD9177589
_publ_section_title
;
Structure prediction by ZEFSAII (Michael W. Deem and Ramdas Pophale) SiO2 
 PCOD9177589
Probable space group: C 2/M
;
_chemical_formula_sum "Si O2"
_cell_formula_units_Z 64
_cell_length_a 24.393176
_cell_length_b 7.399044
_cell_length_c 13.885081
_cell_angle_alpha 90.000000
_cell_angle_beta 79.714312
_cell_angle_gamma 90.000000
_cell_volume 2465.791969
_symmetry_space_group_name_H-M "C 2/M"
_symmetry_group_IT_number 12
_symmetry_cell_setting 'monoclinic'
loop_
_space_group_symop_operation_xyz
x,y,z
-x,y,-z
-x,-y,-z
x,-y,z
1/2+x,1/2+y,z
1/2-x,1/2+y,-z
1/2-x,1/2-y,-z
1/2+x,1/2-y,z
loop_
_atom_site_type_symbol
_atom_site_label
_atom_site_fract_x
_atom_site_fract_y
_atom_site_fract_z
Si Si1 0.239228 0.220171 0.149426
Si Si2 0.326635 0.715300 0.638929
Si Si3 0.634443 0.281276 0.071790
Si Si4 0.946956 0.296933 0.070503
Si Si5 0.932227 0.216719 0.713499
Si Si6 0.347199 0.221997 0.210348
Si Si7 0.036238 0.290518 0.575330
Si Si8 0.340681 0.784206 0.425083
O O1 0.210352 0.276291 0.259720
O O2 0.197302 0.279636 0.078256
O O3 0.302467 0.281661 0.143915
O O4 0.239209 0.000000 0.145922
O O5 0.327438 0.500000 0.647588
O O6 0.389415 0.780432 0.643366
O O7 0.308920 0.751127 0.535247
O O8 0.634224 0.500000 0.061706
O O9 0.597314 0.236741 0.177581
O O10 0.601317 0.196686 0.994773
O O11 0.964814 0.500000 0.093073
O O12 0.910445 0.216585 0.169061
O O13 0.000000 0.210292 0.000000
O O14 0.994092 0.285382 0.678181
O O15 0.935091 0.000000 0.708743
O O16 0.325662 0.278858 0.322656
O O17 0.348548 0.000000 0.207718
O O18 0.045948 0.500000 0.548284
O O19 0.096647 0.212011 0.576012
O O20 0.000000 0.207385 0.500000
O O21 0.341949 0.000000 0.415605
#
# Coordination Sequence:
#
# PCOD9177589 Si02
#       8
#     8   8   8   8   8   8   8   8
#     4   8  16  34  58  80 105 139 178 219 263 317
#     4   9  17  31  51  75 103 135 174 216 257 306
#     4   9  19  36  58  82 104 134 175 222 273 316
#     4  10  22  38  57  82 110 140 176 217 263 321
#     4   9  18  31  48  72 101 134 174 214 259 314
#     4   9  19  36  55  76 105 143 183 218 262 321
#     4  10  19  29  44  70 104 140 178 219 259 300
#     4  10  20  32  48  73 105 143 179 213 260 312
#
# _framework density 25.95515
#
# number of rings (size 3 to 8) (size 9 to 14) (size 15 to 20)
#    0.000    2.750    1.250    1.500    1.750    2.500 
#    0.000    2.500    0.000    1.500    0.000    0.000 
#    0.000    0.000    0.000    0.000    0.000    0.000 
#
# Total GULP energy -178752.403343 kJ/mol
# GULP energy per Si atom -5586.012604 kJ/mol
# Density = 2.589607 g / cm^3
# Si number density = 25.955150 Si / 1000 Ang^3
#
#
#
# Elastic Constant Matrix: (Units=GPa)
#
#
# Indices 1 2 3 4 5 6 
#
# 1 98.2116 -3.4073 18.4979 0.0000 -1.9216 0.0000
# 2 -3.4073 90.1348 -1.4027 0.0000 0.8976 0.0000
# 3 18.4979 -1.4027 93.5627 0.0000 5.1907 0.0000
# 4 0.0000 0.0000 0.0000 13.0687 0.0000 9.2039
# 5 -1.9216 0.8976 5.1907 0.0000 43.4926 0.0000
# 6 0.0000 0.0000 0.0000 9.2039 0.0000 -5.3522
#
#
#
# Elastic Compliance Matrix: (Units=1/GPa)
#
#
# Indices 1 2 3 4 5 6 
#
# 1 0.010610 0.000361 -0.002132 0.000000 0.000716 0.000000
# 2 0.000361 0.011112 0.000108 0.000000 -0.000226 0.000000
# 3 -0.002132 0.000108 0.011191 0.000000 -0.001432 0.000000
# 4 0.000000 0.000000 0.000000 0.034606 0.000000 0.059511
# 5 0.000716 -0.000226 -0.001432 0.000000 0.023200 0.000000
# 6 0.000000 0.000000 0.000000 0.059511 0.000000 -0.084501
#
#
# Mechanical properties :
#
#
# Convention : Reuss Voigt Hill
#
# Bulk Modulus (GPa) = 33.79973 34.36499 34.08236
# Shear Modulus (GPa) = 257.63792 28.12324 142.88058
#
# Velocity S-wave (km/s) = 9.97388 3.29528 7.42755
# Velocity P-wave (km/s) = 12.07014 5.26757 9.31224
#
# Compressibility (1/GPa) = 0.02958603
#
# Stress axis : x y z
#
# Youngs Moduli (GPa) = 94.24914 89.99225 89.36082
#
# Poissons Ratio (x) = -0.03247 0.19052
# Poissons Ratio (y) = -0.03400 -0.00963
# Poissons Ratio (z) = 0.20094 -0.00970
#
# Static dielectric constant tensor:
#      x y z
#    x 2.040220 0.000000 -0.033070 
#    y 0.000000 2.031670 0.000000 
#    z -0.033070 0.000000 2.107800 
# 
# From -- ./inp_files/238791.got.cif
#   From: 2010.05.17/outbox.cif.g08.bks.cpg/sg12_120_cif.got.tgz:238791.got - 2010.06.03 13:09:07.
