data_PCOD9177261
_publ_section_title
;
Structure prediction by ZEFSAII (Michael W. Deem and Ramdas Pophale) SiO2 
 PCOD9177261
Probable space group: C 2/M
;
_chemical_formula_sum "Si O2"
_cell_formula_units_Z 48
_cell_length_a 24.980619
_cell_length_b 7.665625
_cell_length_c 15.952498
_cell_angle_alpha 90.000000
_cell_angle_beta 75.258335
_cell_angle_gamma 90.000000
_cell_volume 2954.222479
_symmetry_space_group_name_H-M "C 2/M"
_symmetry_group_IT_number 12
_symmetry_cell_setting 'monoclinic'
loop_
_space_group_symop_operation_xyz
x,y,z
-x,y,-z
-x,-y,-z
x,-y,z
1/2+x,1/2+y,z
1/2-x,1/2+y,-z
1/2-x,1/2-y,-z
1/2+x,1/2-y,z
loop_
_atom_site_type_symbol
_atom_site_label
_atom_site_fract_x
_atom_site_fract_y
_atom_site_fract_z
Si Si1 0.408843 0.000000 0.560511
Si Si2 0.774805 0.796804 0.854197
Si Si3 0.671482 0.206958 0.993562
Si Si4 0.521588 0.000000 0.626763
Si Si5 0.454345 0.710306 0.952618
Si Si6 0.637740 0.294126 0.311740
Si Si7 0.974237 0.795481 0.753475
O O1 0.376221 0.828814 0.604567
O O2 0.466289 0.000000 0.590748
O O3 0.426897 0.000000 0.456796
O O4 0.715745 0.723467 0.907936
O O5 0.809353 0.726843 0.762053
O O6 0.766350 0.000000 0.837840
O O7 0.812943 0.785082 0.922190
O O8 0.681007 0.000000 0.997681
O O9 0.607850 0.238059 0.998761
O O10 0.515829 0.170866 0.686807
O O11 0.455936 0.500000 0.951614
O O12 0.467018 0.764664 0.852186
O O13 0.500000 0.774404 0.000000
O O14 0.643643 0.500000 0.330342
O O15 0.585207 0.282046 0.269336
O O16 0.990184 0.000000 0.745475
#
# Coordination Sequence:
#
# PCOD9177261 Si02
#       7
#     4   8   8   4   8   8   8
#     4   9  18  28  42  66  88 116 151 182 232 277
#     4   9  17  29  42  63  92 123 154 184 224 274
#     4  10  19  27  43  66  89 120 158 192 223 264
#     4   9  18  30  43  62  90 116 149 194 222 274
#     4  10  20  33  46  62  90 127 161 193 227 268
#     4   9  16  27  44  62  90 121 148 182 223 277
#     4   9  17  29  45  62  85 122 156 184 224 272
#
# _framework density 16.247931000000001
#
# number of rings (size 3 to 8) (size 9 to 14) (size 15 to 20)
#    0.000    2.667    1.667    0.500    2.333    1.667 
#    0.000    3.333    0.000    0.000    0.000    0.000 
#    0.000    1.333    0.667    0.000    0.000    0.000 
#
# Total GULP energy -133689.555452 kJ/mol
# GULP energy per Si atom -5570.398144 kJ/mol
# Density = 1.621095 g / cm^3
# Si number density = 16.247931 Si / 1000 Ang^3
#
#
#
# Elastic Constant Matrix: (Units=GPa)
#
#
# Indices 1 2 3 4 5 6 
#
# 1 70.7610 14.4380 49.4813 0.0000 -18.0763 0.0000
# 2 14.4380 62.4889 50.6301 0.0000 -13.8800 0.0000
# 3 49.4813 50.6301 114.7830 0.0000 -41.5348 0.0000
# 4 0.0000 0.0000 0.0000 20.9047 0.0000 -5.0699
# 5 -18.0763 -13.8800 -41.5348 0.0000 27.2929 0.0000
# 6 0.0000 0.0000 0.0000 -5.0699 0.0000 11.9316
#
#
#
# Elastic Compliance Matrix: (Units=1/GPa)
#
#
# Indices 1 2 3 4 5 6 
#
# 1 0.020818 0.003956 -0.011133 0.000000 -0.001142 0.000000
# 2 0.003956 0.026693 -0.016958 0.000000 -0.009611 0.000000
# 3 -0.011133 -0.016958 0.033834 0.000000 0.035492 0.000000
# 4 0.000000 0.000000 0.000000 0.053332 0.000000 0.022662
# 5 -0.001142 -0.009611 0.035492 0.000000 0.085008 0.000000
# 6 0.000000 0.000000 0.000000 0.022662 0.000000 0.093440
#
#
# Mechanical properties :
#
#
# Convention : Reuss Voigt Hill
#
# Bulk Modulus (GPa) = 30.23180 53.01462 41.62321
# Shear Modulus (GPa) = 13.42572 20.92474 17.17523
#
# Velocity S-wave (km/s) = 2.87767 3.59254 3.25479
# Velocity P-wave (km/s) = 5.44869 7.06455 6.30857
#
# Compressibility (1/GPa) = 0.03307775
#
# Stress axis : x y z
#
# Youngs Moduli (GPa) = 48.03568 37.46243 29.55600
#
# Poissons Ratio (x) = -0.14821 0.32903
# Poissons Ratio (y) = -0.19004 0.50120
# Poissons Ratio (z) = 0.53476 0.63527
#
# Static dielectric constant tensor:
#      x y z
#    x 1.532500 0.000000 -0.030780 
#    y 0.000000 1.583630 0.000000 
#    z -0.030780 0.000000 1.544950 
# 
# From -- ./inp_files/173006.got.cif
#   From: 2010.05.17/outbox.cif.g08.bks.cpg/sg12_87_cif.got.tgz:173006.got - 2010.06.03 13:09:07.
