data_PCOD9177948
_publ_section_title
;
Structure prediction by ZEFSAII (Michael W. Deem and Ramdas Pophale) SiO2 
 PCOD9177948
Probable space group: C 2/M
;
_chemical_formula_sum "Si O2"
_cell_formula_units_Z 64
_cell_length_a 28.839736
_cell_length_b 8.840690
_cell_length_c 15.093088
_cell_angle_alpha 90.000000
_cell_angle_beta 92.163329
_cell_angle_gamma 90.000000
_cell_volume 3845.438824
_symmetry_space_group_name_H-M "C 2/M"
_symmetry_group_IT_number 12
_symmetry_cell_setting 'monoclinic'
loop_
_space_group_symop_operation_xyz
x,y,z
-x,y,-z
-x,-y,-z
x,-y,z
1/2+x,1/2+y,z
1/2-x,1/2+y,-z
1/2-x,1/2-y,-z
1/2+x,1/2-y,z
loop_
_atom_site_type_symbol
_atom_site_label
_atom_site_fract_x
_atom_site_fract_y
_atom_site_fract_z
Si Si1 0.693845 0.680429 0.745885
Si Si2 0.346668 0.674073 0.510974
Si Si3 0.333785 0.681168 0.776772
Si Si4 0.919034 0.173695 0.680580
Si Si5 0.390789 0.820427 0.344799
Si Si6 0.772353 0.678209 0.619245
Si Si7 0.506742 0.181604 0.601939
Si Si8 0.743275 0.679272 0.095405
O O1 0.695160 0.500000 0.754488
O O2 0.642001 0.740031 0.728951
O O3 0.722649 0.719691 0.657751
O O4 0.720801 0.753304 0.830233
O O5 0.344435 0.500000 0.479776
O O6 0.382291 0.680632 0.596450
O O7 0.368174 0.779887 0.437940
O O8 0.296551 0.726516 0.543290
O O9 0.327581 0.500000 0.754313
O O10 0.387856 0.714351 0.763979
O O11 0.305681 0.783763 0.705445
O O12 0.308417 0.705814 0.868125
O O13 0.963150 0.271256 0.657858
O O14 0.934159 0.000000 0.690177
O O15 0.444008 0.766723 0.355020
O O16 0.389764 0.000000 0.330700
O O17 0.773515 0.500000 0.598642
O O18 0.500000 0.238314 0.500000
O O19 0.508806 0.000000 0.597255
O O20 0.750204 0.500000 0.091508
O O21 0.750000 0.750000 0.000000
#
# Coordination Sequence:
#
# PCOD9177948 Si02
#       8
#     8   8   8   8   8   8   8   8
#     4  10  21  36  51  71  99 129 164 203 245 295
#     4  10  19  30  45  66  92 126 168 209 247 290
#     4   8  16  30  47  72 102 130 159 197 241 289
#     4   9  17  29  47  69  94 127 168 209 249 287
#     4  11  22  34  48  66  93 130 170 210 254 296
#     4   9  17  29  46  66  91 125 163 202 242 287
#     4  10  20  33  47  67  95 128 170 217 259 295
#     4  10  19  34  57  82 109 134 160 194 238 294
#
# _framework density 16.643094000000001
#
# number of rings (size 3 to 8) (size 9 to 14) (size 15 to 20)
#    0.000    2.375    1.250    2.625    0.000    5.750 
#    0.000    0.000    0.000    0.000    0.000    0.875 
#    0.000    7.000    0.000    0.000    0.000    0.000 
#
# Total GULP energy -178413.042326 kJ/mol
# GULP energy per Si atom -5575.407573 kJ/mol
# Density = 1.660521 g / cm^3
# Si number density = 16.643094 Si / 1000 Ang^3
#
#
#
# Elastic Constant Matrix: (Units=GPa)
#
#
# Indices 1 2 3 4 5 6 
#
# 1 131.7773 32.0387 41.3741 0.0000 -1.3287 0.0000
# 2 32.0387 33.8244 21.7384 0.0000 0.0483 0.0000
# 3 41.3741 21.7384 76.8294 0.0000 -10.6727 0.0000
# 4 0.0000 0.0000 0.0000 24.4709 0.0000 -2.0257
# 5 -1.3287 0.0483 -10.6727 0.0000 17.3161 0.0000
# 6 0.0000 0.0000 0.0000 -2.0257 0.0000 27.0331
#
#
#
# Elastic Compliance Matrix: (Units=1/GPa)
#
#
# Indices 1 2 3 4 5 6 
#
# 1 0.010609 -0.007631 -0.003760 0.000000 -0.001482 0.000000
# 2 -0.007631 0.042417 -0.008738 0.000000 -0.006090 0.000000
# 3 -0.003760 -0.008738 0.019113 0.000000 0.011516 0.000000
# 4 0.000000 0.000000 0.000000 0.041120 0.000000 0.003081
# 5 -0.001482 -0.006090 0.011516 0.000000 0.064751 0.000000
# 6 0.000000 0.000000 0.000000 0.003081 0.000000 0.037223
#
#
# Mechanical properties :
#
#
# Convention : Reuss Voigt Hill
#
# Bulk Modulus (GPa) = 31.36664 48.08151 39.72407
# Shear Modulus (GPa) = 18.78868 23.58270 21.18569
#
# Velocity S-wave (km/s) = 3.36358 3.76834 3.57170
# Velocity P-wave (km/s) = 5.82859 6.92000 6.39761
#
# Compressibility (1/GPa) = 0.03188100
#
# Stress axis : x y z
#
# Youngs Moduli (GPa) = 94.25588 23.57557 52.32027
#
# Poissons Ratio (x) = 0.17989 0.19674
# Poissons Ratio (y) = 0.71922 0.45719
# Poissons Ratio (z) = 0.35443 0.20601
#
# Static dielectric constant tensor:
#      x y z
#    x 1.586740 0.000000 0.001410 
#    y 0.000000 1.558840 0.000000 
#    z 0.001410 0.000000 1.561590 
# 
# From -- ./inp_files/244085.got.cif
#   From: 2010.05.17/outbox.cif.g08.bks.cpg/sg12_123_cif.got.tgz:244085.got - 2010.06.03 13:09:07.
