data_PCOD9177790
_publ_section_title
;
Structure prediction by ZEFSAII (Michael W. Deem and Ramdas Pophale) SiO2 
 PCOD9177790
Probable space group: C 2/M
;
_chemical_formula_sum "Si O2"
_cell_formula_units_Z 56
_cell_length_a 27.730108
_cell_length_b 9.255801
_cell_length_c 17.978483
_cell_angle_alpha 90.000000
_cell_angle_beta 53.446185
_cell_angle_gamma 90.000000
_cell_volume 3706.766262
_symmetry_space_group_name_H-M "C 2/M"
_symmetry_group_IT_number 12
_symmetry_cell_setting 'monoclinic'
loop_
_space_group_symop_operation_xyz
x,y,z
-x,y,-z
-x,-y,-z
x,-y,z
1/2+x,1/2+y,z
1/2-x,1/2+y,-z
1/2-x,1/2-y,-z
1/2+x,1/2-y,z
loop_
_atom_site_type_symbol
_atom_site_label
_atom_site_fract_x
_atom_site_fract_y
_atom_site_fract_z
Si Si1 0.040864 0.826147 0.033538
Si Si2 0.985011 0.832994 0.779263
Si Si3 0.402408 0.173849 0.604545
Si Si4 0.795150 0.172953 0.777890
Si Si5 0.659170 0.332302 0.100049
Si Si6 0.833769 0.672765 0.057999
Si Si7 0.485788 0.826643 0.393091
O O1 0.008844 0.783992 0.140779
O O2 0.050822 0.000000 0.028631
O O3 0.105041 0.747912 0.971749
O O4 0.000000 0.794888 0.000000
O O5 0.016068 0.742541 0.686179
O O6 0.913223 0.826236 0.831085
O O7 0.003621 0.000000 0.756684
O O8 0.339709 0.247290 0.681217
O O9 0.452340 0.214604 0.621043
O O10 0.431920 0.214401 0.498366
O O11 0.396851 0.000000 0.611625
O O12 0.815866 0.211220 0.842849
O O13 0.724591 0.207633 0.838864
O O14 0.802351 0.000000 0.763772
O O15 0.676193 0.500000 0.070148
O O16 0.678415 0.232443 0.014029
O O17 0.840643 0.500000 0.049066
O O18 0.486048 0.000000 0.387078
#
# Coordination Sequence:
#
# PCOD9177790 Si02
#       7
#     8   8   8   8   8   8   8
#     4   9  19  36  53  68  90 118 148 185 228 277
#     4   9  16  27  46  68  88 115 152 186 220 265
#     4   9  18  29  42  61  89 125 160 188 217 260
#     4  10  19  30  42  62  92 124 156 188 221 258
#     4   9  17  29  42  60  90 125 158 184 211 262
#     4  10  20  30  44  67  92 117 149 189 228 267
#     4   9  17  29  42  62  91 121 154 190 225 259
#
# _framework density 15.107507999999999
#
# number of rings (size 3 to 8) (size 9 to 14) (size 15 to 20)
#    0.000    2.714    1.429    2.571    0.000    4.857 
#    0.000    1.429    0.000    0.000    0.000    1.000 
#    0.000    0.000    0.000    0.000    0.000    0.000 
#
# Total GULP energy -156010.043704 kJ/mol
# GULP energy per Si atom -5571.787275 kJ/mol
# Density = 1.507312 g / cm^3
# Si number density = 15.107508 Si / 1000 Ang^3
#
#
#
# Elastic Constant Matrix: (Units=GPa)
#
#
# Indices 1 2 3 4 5 6 
#
# 1 60.9696 27.1370 54.9167 0.0000 10.7118 -0.0001
# 2 27.1370 33.2729 53.7256 -0.0002 -1.4829 -0.0002
# 3 54.9167 53.7256 140.0773 0.0000 -0.2476 0.0000
# 4 0.0000 -0.0002 0.0000 30.5401 0.0000 -0.8190
# 5 10.7118 -1.4829 -0.2476 0.0000 18.6768 0.0000
# 6 -0.0001 -0.0002 0.0000 -0.8190 0.0000 14.9522
#
#
#
# Elastic Compliance Matrix: (Units=1/GPa)
#
#
# Indices 1 2 3 4 5 6 
#
# 1 0.033991 -0.018607 -0.006227 0.000000 -0.021055 0.000000
# 2 -0.018607 0.089780 -0.027109 0.000001 0.017441 0.000001
# 3 -0.006227 -0.027109 0.019981 0.000000 0.001684 0.000000
# 4 0.000000 0.000001 0.000000 0.032792 0.000000 0.001796
# 5 -0.021055 0.017441 0.001684 0.000000 0.067025 0.000000
# 6 0.000000 0.000001 0.000000 0.001796 0.000000 0.066978
#
#
# Mechanical properties :
#
#
# Convention : Reuss Voigt Hill
#
# Bulk Modulus (GPa) = 25.08363 56.20871 40.64617
# Shear Modulus (GPa) = 11.68987 19.40319 15.54653
#
# Velocity S-wave (km/s) = 2.78471 3.58766 3.21138
# Velocity P-wave (km/s) = 5.19412 7.37891 6.38072
#
# Compressibility (1/GPa) = 0.03986664
#
# Stress axis : x y z
#
# Youngs Moduli (GPa) = 29.41951 11.13834 50.04879
#
# Poissons Ratio (x) = 0.20725 0.31164
# Poissons Ratio (y) = 0.54740 1.35677
# Poissons Ratio (z) = 0.18319 0.30195
#
# Static dielectric constant tensor:
#      x y z
#    x 1.488640 0.000000 -0.001920 
#    y 0.000000 1.504830 0.000000 
#    z -0.001920 0.000000 1.505460 
# 
# From -- ./inp_files/244291.got.cif
#   From: 2010.05.17/outbox.cif.g08.bks.cpg/sg12_123_cif.got.tgz:244291.got - 2010.06.03 13:09:07.
