data_PCOD9177391
_publ_section_title
;
Structure prediction by ZEFSAII (Michael W. Deem and Ramdas Pophale) SiO2 
 PCOD9177391
Probable space group: C 2/M
;
_chemical_formula_sum "Si O2"
_cell_formula_units_Z 56
_cell_length_a 26.687112
_cell_length_b 7.256689
_cell_length_c 12.802682
_cell_angle_alpha 90.000000
_cell_angle_beta 93.020599
_cell_angle_gamma 90.000000
_cell_volume 2475.923620
_symmetry_space_group_name_H-M "C 2/M"
_symmetry_group_IT_number 12
_symmetry_cell_setting 'monoclinic'
loop_
_space_group_symop_operation_xyz
x,y,z
-x,y,-z
-x,-y,-z
x,-y,z
1/2+x,1/2+y,z
1/2-x,1/2+y,-z
1/2-x,1/2-y,-z
1/2+x,1/2-y,z
loop_
_atom_site_type_symbol
_atom_site_label
_atom_site_fract_x
_atom_site_fract_y
_atom_site_fract_z
Si Si1 0.140059 0.775463 0.394607
Si Si2 0.629334 0.275056 0.950710
Si Si3 0.835898 0.776259 0.375975
Si Si4 0.024090 0.223906 0.392901
Si Si5 0.338168 0.709807 0.830732
Si Si6 0.067378 0.776071 0.750298
Si Si7 0.274476 0.277895 0.173775
O O1 0.166165 0.713482 0.504812
O O2 0.160566 0.710272 0.285439
O O3 0.081637 0.721047 0.391743
O O4 0.142949 0.000000 0.397713
O O5 0.629107 0.500000 0.953117
O O6 0.585309 0.217963 0.867083
O O7 0.681300 0.221274 0.899604
O O8 0.630281 0.209597 0.069912
O O9 0.888794 0.723337 0.327180
O O10 0.792206 0.719009 0.291737
O O11 0.835640 0.000000 0.376074
O O12 0.986565 0.283777 0.297150
O O13 0.000000 0.280818 0.500000
O O14 0.024398 0.000000 0.392615
O O15 0.356393 0.500000 0.820894
O O16 0.280308 0.708246 0.859202
O O17 0.067289 0.000000 0.750427
O O18 0.272493 0.500000 0.171747
#
# Coordination Sequence:
#
# PCOD9177391 Si02
#       7
#     8   8   8   8   8   8   8
#     4   9  16  24  35  56  86 112 132 161 207 251
#     4   8  15  27  41  57  79 108 139 168 202 241
#     4   8  13  23  38  57  78 102 135 173 205 233
#     4   9  13  19  35  57  80 107 138 166 194 238
#     4  10  19  29  40  58  88 116 132 161 211 251
#     4   8  12  20  36  56  77 104 138 170 196 232
#     4   9  17  29  46  61  75 105 149 179 193 228
#
# _framework density 22.617819999999998
#
# number of rings (size 3 to 8) (size 9 to 14) (size 15 to 20)
#    0.000    3.286    1.429    2.143    0.000    0.571 
#    0.000    0.714    0.000    4.286    0.000    0.000 
#    0.000    7.429    0.000    0.571    0.000    0.000 
#
# Total GULP energy -156277.347870 kJ/mol
# GULP energy per Si atom -5581.333853 kJ/mol
# Density = 2.256634 g / cm^3
# Si number density = 22.617820 Si / 1000 Ang^3
#
#
#
# Elastic Constant Matrix: (Units=GPa)
#
#
# Indices 1 2 3 4 5 6 
#
# 1 25.4336 -7.6521 9.2731 0.0000 20.7444 0.0000
# 2 -7.6521 101.4487 6.9479 0.0000 -0.7761 0.0000
# 3 9.2731 6.9479 169.2311 0.0000 37.3196 0.0000
# 4 0.0000 0.0000 0.0000 -23.4790 0.0000 -1.0528
# 5 20.7444 -0.7761 37.3196 0.0000 30.1710 0.0000
# 6 0.0000 0.0000 0.0000 -1.0528 0.0000 -5.4050
#
#
#
# Elastic Compliance Matrix: (Units=1/GPa)
#
#
# Indices 1 2 3 4 5 6 
#
# 1 0.115953 0.006969 0.014991 0.000000 -0.098088 0.000000
# 2 0.006969 0.010328 0.000264 0.000000 -0.004853 0.000000
# 3 0.014991 0.000264 0.010105 0.000000 -0.022799 0.000000
# 4 0.000000 0.000000 0.000000 -0.042966 0.000000 0.008369
# 5 -0.098088 -0.004853 -0.022799 0.000000 0.128663 0.000000
# 6 0.000000 0.000000 0.000000 0.008369 0.000000 -0.186644
#
#
# Mechanical properties :
#
#
# Convention : Reuss Voigt Hill
#
# Bulk Modulus (GPa) = 5.52994 34.80571 20.16783
# Shear Modulus (GPa) = 97.52981 19.42703 58.47842
#
# Velocity S-wave (km/s) = 6.57377 2.93392 5.09030
# Velocity P-wave (km/s) = 7.75045 5.18645 6.59427
#
# Compressibility (1/GPa) = 0.18083371
#
# Stress axis : x y z
#
# Youngs Moduli (GPa) = 8.62419 96.82766 98.96533
#
# Poissons Ratio (x) = -0.67479 -1.48360
# Poissons Ratio (y) = -0.06010 -0.02616
# Poissons Ratio (z) = -0.12929 -0.02559
#
# Static dielectric constant tensor:
#      x y z
#    x 1.771440 0.000000 0.016900 
#    y 0.000000 1.940930 0.000000 
#    z 0.016900 0.000000 1.855150 
# 
# From -- ./inp_files/173926.got.cif
#   From: 2010.05.17/outbox.cif.g08.bks.cpg/sg12_87_cif.got.tgz:173926.got - 2010.06.03 13:09:07.
