data_PCOD9177124
_publ_section_title
;
Structure prediction by ZEFSAII (Michael W. Deem and Ramdas Pophale) SiO2 
 PCOD9177124
Probable space group: C 2/M
;
_chemical_formula_sum "Si O2"
_cell_formula_units_Z 50
_cell_length_a 22.841087
_cell_length_b 14.605566
_cell_length_c 10.536232
_cell_angle_alpha 90.000000
_cell_angle_beta 132.185750
_cell_angle_gamma 90.000000
_cell_volume 2604.486247
_symmetry_space_group_name_H-M "C 2/M"
_symmetry_group_IT_number 12
_symmetry_cell_setting 'monoclinic'
loop_
_space_group_symop_operation_xyz
x,y,z
-x,y,-z
-x,-y,-z
x,-y,z
1/2+x,1/2+y,z
1/2-x,1/2+y,-z
1/2-x,1/2-y,-z
1/2+x,1/2-y,z
loop_
_atom_site_type_symbol
_atom_site_label
_atom_site_fract_x
_atom_site_fract_y
_atom_site_fract_z
Si Si1 0.642928 0.287225 0.631288
Si Si2 0.500000 0.500000 0.000000
Si Si3 0.064004 0.283856 0.757959
Si Si4 0.451577 0.672585 0.758730
Si Si5 0.588370 0.144532 0.175059
Si Si6 0.404288 0.897930 0.525354
Si Si7 0.804227 0.393201 0.908882
O O1 0.586879 0.279185 0.672637
O O2 0.600494 0.331209 0.446209
O O3 0.654670 0.179596 0.612718
O O4 0.721616 0.340947 0.778453
O O5 0.468315 0.580269 0.855394
O O6 0.032131 0.221063 0.826241
O O7 0.991315 0.354089 0.628703
O O8 0.139197 0.342411 0.908848
O O9 0.411487 0.746928 0.793747
O O10 0.603983 0.100504 0.334642
O O11 0.650119 0.116081 0.158875
O O12 0.500000 0.120024 0.000000
O O13 0.396397 0.000000 0.461904
O O14 0.794238 0.500000 0.924675
#
# Coordination Sequence:
#
# PCOD9177124 Si02
#       7
#     8   2   8   8   8   8   8
#     4  10  24  40  57  87 139 164 197 256 319 368
#     4  12  20  36  66  96 110 160 230 248 296 388
#     4  10  20  41  62  87 122 165 209 261 310 362
#     4  10  21  39  65  90 119 164 206 269 308 360
#     4  10  18  38  60  87 121 149 203 264 323 358
#     4  10  20  35  65  95 115 159 211 265 312 364
#     4  12  23  36  63  93 122 171 207 253 315 383
#
# _framework density 19.197644
#
# number of rings (size 3 to 8) (size 9 to 14) (size 15 to 20)
#    0.000    1.920    4.000    3.360    1.120    5.120 
#    1.440    0.800   10.560    0.000    0.000    0.000 
#    0.000    0.000    0.000    0.000    0.000    0.000 
#
# Total GULP energy -139245.521893 kJ/mol
# GULP energy per Si atom -5569.820876 kJ/mol
# Density = 1.915395 g / cm^3
# Si number density = 19.197644 Si / 1000 Ang^3
#
#
#
# Elastic Constant Matrix: (Units=GPa)
#
#
# Indices 1 2 3 4 5 6 
#
# 1 56.8772 13.0297 16.7386 0.0000 0.2118 0.0000
# 2 13.0297 171.2272 53.9363 0.0000 13.7956 0.0000
# 3 16.7386 53.9363 77.0452 0.0000 8.4592 0.0000
# 4 0.0000 0.0000 0.0000 16.3346 0.0000 -7.0657
# 5 0.2118 13.7956 8.4592 0.0000 29.4338 0.0000
# 6 0.0000 0.0000 0.0000 -7.0657 0.0000 -6.4733
#
#
#
# Elastic Compliance Matrix: (Units=1/GPa)
#
#
# Indices 1 2 3 4 5 6 
#
# 1 0.018824 -0.000252 -0.004038 0.000000 0.001144 0.000000
# 2 -0.000252 0.007620 -0.005047 0.000000 -0.002119 0.000000
# 3 -0.004038 -0.005047 0.017685 0.000000 -0.002688 0.000000
# 4 0.000000 0.000000 0.000000 0.041585 0.000000 -0.045391
# 5 0.001144 -0.002119 -0.002688 0.000000 0.035732 0.000000
# 6 0.000000 0.000000 0.000000 -0.045391 0.000000 -0.104935
#
#
# Mechanical properties :
#
#
# Convention : Reuss Voigt Hill
#
# Bulk Modulus (GPa) = 39.28773 52.50654 45.89713
# Shear Modulus (GPa) = 114.49269 22.62199 68.55734
#
# Velocity S-wave (km/s) = 7.73100 3.43647 5.98238
# Velocity P-wave (km/s) = 10.01002 6.56930 8.46629
#
# Compressibility (1/GPa) = 0.02545324
#
# Stress axis : x y z
#
# Youngs Moduli (GPa) = 53.12425 131.23525 56.54498
#
# Poissons Ratio (x) = 0.03313 0.22835
# Poissons Ratio (y) = 0.01341 0.28538
# Poissons Ratio (z) = 0.21454 0.66233
#
# Static dielectric constant tensor:
#      x y z
#    x 1.678460 0.000000 -0.030350 
#    y 0.000000 1.664520 0.000000 
#    z -0.030350 0.000000 1.699210 
# 
# From -- ./inp_files/176528.got.cif
#   From: 2010.05.17/outbox.cif.g08.bks.cpg/sg12_89_cif.got.tgz:176528.got - 2010.06.03 13:09:07.
