data_PCOD9177428
_publ_section_title
;
Structure prediction by ZEFSAII (Michael W. Deem and Ramdas Pophale) SiO2 
 PCOD9177428
Probable space group: C 2/M
;
_chemical_formula_sum "Si O2"
_cell_formula_units_Z 40
_cell_length_a 21.107930
_cell_length_b 7.305254
_cell_length_c 22.182063
_cell_angle_alpha 90.000000
_cell_angle_beta 143.980338
_cell_angle_gamma 90.000000
_cell_volume 2011.437957
_symmetry_space_group_name_H-M "C 2/M"
_symmetry_group_IT_number 12
_symmetry_cell_setting 'monoclinic'
loop_
_space_group_symop_operation_xyz
x,y,z
-x,y,-z
-x,-y,-z
x,-y,z
1/2+x,1/2+y,z
1/2-x,1/2+y,-z
1/2-x,1/2-y,-z
1/2+x,1/2-y,z
loop_
_atom_site_type_symbol
_atom_site_label
_atom_site_fract_x
_atom_site_fract_y
_atom_site_fract_z
Si Si1 0.234451 0.276812 0.283243
Si Si2 0.726573 0.782008 0.051588
Si Si3 0.928721 0.216047 0.506303
Si Si4 0.000338 0.276771 0.930036
Si Si5 0.372193 0.723411 0.271205
O O1 0.235570 0.500000 0.285445
O O2 0.311691 0.212328 0.396994
O O3 0.110940 0.217859 0.186670
O O4 0.291937 0.226208 0.264309
O O5 0.819599 0.714596 0.168419
O O6 0.723301 0.000000 0.058174
O O7 0.750000 0.750000 0.000000
O O8 0.609364 0.713621 0.981962
O O9 0.000000 0.232205 0.500000
O O10 0.007636 0.287974 0.619019
O O11 0.914704 0.000000 0.507270
O O12 0.999974 0.500000 0.929023
O O13 0.000000 0.223356 0.000000
O O14 0.376304 0.500000 0.274585
#
# Coordination Sequence:
#
# PCOD9177428 Si02
#       5
#     8   8   8   8   8
#     4   8  11  17  32  56  80  98 124 166 208 238
#     4  10  19  29  42  60  84 112 138 164 199 243
#     4   7  10  15  27  50  79 102 119 153 206 246
#     4   9  14  22  38  59  80 103 133 170 207 237
#     4   8  12  20  34  54  79 104 128 159 201 241
#
# _framework density 19.88627
#
# number of rings (size 3 to 8) (size 9 to 14) (size 15 to 20)
#    0.000    3.600    2.000    2.400    0.000    0.000 
#    0.000    0.000    0.000    1.800    0.000    0.000 
#    0.000    7.200    0.000    0.000    0.000    0.000 
#
# Total GULP energy -111422.688183 kJ/mol
# GULP energy per Si atom -5571.134409 kJ/mol
# Density = 1.984101 g / cm^3
# Si number density = 19.886270 Si / 1000 Ang^3
#
#
#
# Elastic Constant Matrix: (Units=GPa)
#
#
# Indices 1 2 3 4 5 6 
#
# 1 93.4500 0.4856 92.2292 0.0000 2.1838 0.0000
# 2 0.4856 77.8446 13.4121 0.0000 3.5476 0.0000
# 3 92.2292 13.4121 271.8231 0.0000 11.9254 0.0000
# 4 0.0000 0.0000 0.0000 -15.3595 0.0000 -16.6401
# 5 2.1838 3.5476 11.9254 0.0000 21.8305 0.0000
# 6 0.0000 0.0000 0.0000 -16.6401 0.0000 -15.1387
#
#
#
# Elastic Compliance Matrix: (Units=1/GPa)
#
#
# Indices 1 2 3 4 5 6 
#
# 1 0.016180 0.000802 -0.005587 0.000000 0.001303 0.000000
# 2 0.000802 0.013065 -0.000840 0.000000 -0.001744 0.000000
# 3 -0.005587 -0.000840 0.005722 0.000000 -0.002431 0.000000
# 4 0.000000 0.000000 0.000000 0.341202 0.000000 -0.375040
# 5 0.001303 -0.001744 -0.002431 0.000000 0.047288 0.000000
# 6 0.000000 0.000000 0.000000 -0.375040 0.000000 0.346178
#
#
# Mechanical properties :
#
#
# Convention : Reuss Voigt Hill
#
# Bulk Modulus (GPa) = 42.16133 72.81906 57.49020
# Shear Modulus (GPa) = 6.33882 20.73250 13.53566
#
# Velocity S-wave (km/s) = 1.78730 3.23236 2.61176
# Velocity P-wave (km/s) = 5.05040 7.11535 6.16987
#
# Compressibility (1/GPa) = 0.02371842
#
# Stress axis : x y z
#
# Youngs Moduli (GPa) = 61.80524 76.53812 174.74967
#
# Poissons Ratio (x) = -0.06140 0.97625
# Poissons Ratio (y) = -0.04958 0.14685
# Poissons Ratio (z) = 0.34528 0.06432
#
# Static dielectric constant tensor:
#      x y z
#    x 1.633060 0.000000 0.015380 
#    y 0.000000 1.787190 0.000000 
#    z 0.015380 0.000000 1.759730 
# 
# From -- ./inp_files/163681.got.cif
#   From: 2010.05.17/outbox.cif.g08.bks.cpg/sg12_82_cif.got.tgz:163681.got - 2010.06.03 13:09:07.
