data_PCOD9177557
_publ_section_title
;
Structure prediction by ZEFSAII (Michael W. Deem and Ramdas Pophale) SiO2 
 PCOD9177557
Probable space group: C 2/M
;
_chemical_formula_sum "Si O2"
_cell_formula_units_Z 64
_cell_length_a 9.810019
_cell_length_b 22.997423
_cell_length_c 14.816603
_cell_angle_alpha 90.000000
_cell_angle_beta 63.414190
_cell_angle_gamma 90.000000
_cell_volume 2989.261782
_symmetry_space_group_name_H-M "C 2/M"
_symmetry_group_IT_number 12
_symmetry_cell_setting 'monoclinic'
loop_
_space_group_symop_operation_xyz
x,y,z
-x,y,-z
-x,-y,-z
x,-y,z
1/2+x,1/2+y,z
1/2-x,1/2+y,-z
1/2-x,1/2-y,-z
1/2+x,1/2-y,z
loop_
_atom_site_type_symbol
_atom_site_label
_atom_site_fract_x
_atom_site_fract_y
_atom_site_fract_z
Si Si1 0.464659 0.163128 0.631468
Si Si2 0.252054 0.435962 0.249328
Si Si3 0.083982 0.773223 0.069950
Si Si4 0.100840 0.801966 0.346139
Si Si5 0.581596 0.832683 0.800103
Si Si6 0.567065 0.406471 0.082630
Si Si7 0.285098 0.318316 0.489079
Si Si8 0.116019 0.435942 0.084879
O O1 0.328265 0.116539 0.673742
O O2 0.409203 0.230979 0.643068
O O3 0.538478 0.154829 0.709478
O O4 0.618053 0.154435 0.525194
O O5 0.211200 0.500000 0.297421
O O6 0.435033 0.431767 0.185067
O O7 0.187948 0.432832 0.165014
O O8 0.080784 0.838934 0.101847
O O9 0.998669 0.728719 0.158781
O O10 0.250000 0.750000 0.000000
O O11 0.000000 0.772217 0.000000
O O12 0.238363 0.822208 0.241857
O O13 0.151596 0.827365 0.428597
O O14 0.929834 0.825318 0.380468
O O15 0.503285 0.882855 0.883393
O O16 0.500000 0.412133 0.000000
O O17 0.738675 0.430326 0.024493
O O18 0.250000 0.250000 0.500000
O O19 0.046017 0.500000 0.095137
#
# Coordination Sequence:
#
# PCOD9177557 Si02
#       8
#     8   8   8   8   8   8   8   8
#     4   9  17  28  45  67  96 116 148 191 239 290
#     4   9  16  25  41  64  90 120 154 196 240 278
#     4  11  22  33  48  70 102 131 162 202 248 294
#     4   9  16  27  46  66  93 117 144 186 235 288
#     4  10  19  29  44  67  91 124 157 194 235 286
#     4   9  16  27  42  62  88 118 154 200 240 281
#     4   8  15  28  44  68  90 115 143 180 231 288
#     4   9  16  27  41  59  85 119 160 198 233 270
#
# _framework density 21.409967999999999
#
# number of rings (size 3 to 8) (size 9 to 14) (size 15 to 20)
#    0.000    2.750    1.250    1.125    3.500    1.500 
#    0.000    0.000    0.000    1.125    0.000   12.250 
#    0.000    0.000    0.000    0.000    0.000    0.000 
#
# Total GULP energy -178434.851603 kJ/mol
# GULP energy per Si atom -5576.089113 kJ/mol
# Density = 2.136124 g / cm^3
# Si number density = 21.409968 Si / 1000 Ang^3
#
#
#
# Elastic Constant Matrix: (Units=GPa)
#
#
# Indices 1 2 3 4 5 6 
#
# 1 84.0454 24.0138 40.7659 0.0000 -31.5171 0.0000
# 2 24.0138 112.4301 50.7869 0.0000 -34.1579 0.0000
# 3 40.7659 50.7869 110.2352 0.0000 -50.1056 0.0000
# 4 0.0000 0.0000 0.0000 8.9396 0.0000 1.0510
# 5 -31.5171 -34.1579 -50.1056 0.0000 44.4806 0.0000
# 6 0.0000 0.0000 0.0000 1.0510 0.0000 13.0768
#
#
#
# Elastic Compliance Matrix: (Units=1/GPa)
#
#
# Indices 1 2 3 4 5 6 
#
# 1 0.016346 0.000273 -0.001662 0.000000 0.009920 0.000000
# 2 0.000273 0.011997 -0.002772 0.000000 0.006284 0.000000
# 3 -0.001662 -0.002772 0.019387 0.000000 0.018532 0.000000
# 4 0.000000 0.000000 0.000000 0.112929 0.000000 -0.009076
# 5 0.009920 0.006284 0.018532 0.000000 0.055212 0.000000
# 6 0.000000 0.000000 0.000000 -0.009076 0.000000 0.077201
#
#
# Mechanical properties :
#
#
# Convention : Reuss Voigt Hill
#
# Bulk Modulus (GPa) = 25.37492 59.76043 42.56767
# Shear Modulus (GPa) = 15.89671 26.04233 20.96952
#
# Velocity S-wave (km/s) = 2.72783 3.49143 3.13298
# Velocity P-wave (km/s) = 4.66894 6.65030 5.74567
#
# Compressibility (1/GPa) = 0.03940900
#
# Stress axis : x y z
#
# Youngs Moduli (GPa) = 61.17548 83.35083 51.58187
#
# Poissons Ratio (x) = -0.02277 0.08572
# Poissons Ratio (y) = -0.01671 0.14299
# Poissons Ratio (z) = 0.10166 0.23106
#
# Static dielectric constant tensor:
#      x y z
#    x 2.048260 0.000000 0.279530 
#    y 0.000000 1.741530 0.000000 
#    z 0.279530 0.000000 2.164490 
# 
# From -- ./inp_files/265401.got.cif
#   From: 2010.05.17/outbox.cif.g08.bks.cpg/sg12_133_cif.got.tgz:265401.got - 2010.06.03 13:09:07.
