data_PCOD9177705
_publ_section_title
;
Structure prediction by ZEFSAII (Michael W. Deem and Ramdas Pophale) SiO2 
 PCOD9177705
Probable space group: C 2/M
;
_chemical_formula_sum "Si O2"
_cell_formula_units_Z 56
_cell_length_a 8.053672
_cell_length_b 22.030713
_cell_length_c 19.157237
_cell_angle_alpha 90.000000
_cell_angle_beta 113.540665
_cell_angle_gamma 90.000000
_cell_volume 3116.154591
_symmetry_space_group_name_H-M "C 2/M"
_symmetry_group_IT_number 12
_symmetry_cell_setting 'monoclinic'
loop_
_space_group_symop_operation_xyz
x,y,z
-x,y,-z
-x,-y,-z
x,-y,z
1/2+x,1/2+y,z
1/2-x,1/2+y,-z
1/2-x,1/2-y,-z
1/2+x,1/2-y,z
loop_
_atom_site_type_symbol
_atom_site_label
_atom_site_fract_x
_atom_site_fract_y
_atom_site_fract_z
Si Si1 0.391787 0.873339 0.730722
Si Si2 0.265605 0.683247 0.591814
Si Si3 0.015773 0.252475 0.829702
Si Si4 0.718484 0.429096 0.180441
Si Si5 0.041483 0.867933 0.749970
Si Si6 0.142479 0.676357 0.420545
Si Si7 0.163411 0.181994 0.080278
O O1 0.444970 0.805522 0.767281
O O2 0.575670 0.911891 0.763859
O O3 0.228778 0.895327 0.752798
O O4 0.325580 0.865766 0.640438
O O5 0.415916 0.650817 0.663534
O O6 0.248986 0.660531 0.509287
O O7 0.305873 0.754947 0.591965
O O8 0.070416 0.675756 0.595661
O O9 0.087337 0.195315 0.797116
O O10 0.147468 0.286778 0.907009
O O11 0.870821 0.218221 0.853363
O O12 0.701105 0.500000 0.164643
O O13 0.577274 0.408094 0.216833
O O14 0.681459 0.387659 0.106195
O O15 0.000000 0.189589 0.000000
#
# Coordination Sequence:
#
# PCOD9177705 Si02
#       7
#     8   8   8   8   8   8   8
#     4  11  20  34  58  81 114 152 184 233 280 331
#     4  10  19  29  46  80 121 152 181 225 282 341
#     4  10  19  32  51  88 118 138 180 220 279 352
#     4  10  24  41  57  82 108 148 202 237 273 326
#     4  11  20  34  58  81 114 152 184 233 280 331
#     4  10  19  29  46  80 121 152 181 225 282 341
#     4  10  20  35  58  83 114 148 174 228 286 343
#
# _framework density 17.970867999999999
#
# number of rings (size 3 to 8) (size 9 to 14) (size 15 to 20)
#    0.000    1.714    4.286    1.286    0.000    2.571 
#    0.000    0.000    0.000    1.714    0.000    6.000 
#    0.000    0.000    0.000    0.000    0.000    0.000 
#
# Total GULP energy -156079.684357 kJ/mol
# GULP energy per Si atom -5574.274441 kJ/mol
# Density = 1.792997 g / cm^3
# Si number density = 17.970868 Si / 1000 Ang^3
#
#
#
# Elastic Constant Matrix: (Units=GPa)
#
#
# Indices 1 2 3 4 5 6 
#
# 1 85.2399 26.4396 2.8559 0.0000 0.7338 0.0000
# 2 26.4396 87.2212 15.5927 0.0000 2.6675 0.0000
# 3 2.8559 15.5927 60.5271 0.0000 11.4257 0.0000
# 4 0.0000 0.0000 0.0000 10.1136 0.0000 -0.8824
# 5 0.7338 2.6675 11.4257 0.0000 16.6445 0.0000
# 6 0.0000 0.0000 0.0000 -0.8824 0.0000 15.7348
#
#
#
# Elastic Compliance Matrix: (Units=1/GPa)
#
#
# Indices 1 2 3 4 5 6 
#
# 1 0.012960 -0.004005 0.000467 0.000000 -0.000250 0.000000
# 2 -0.004005 0.013257 -0.003284 0.000000 0.000306 0.000000
# 3 0.000467 -0.003284 0.019818 0.000000 -0.013098 0.000000
# 4 0.000000 0.000000 0.000000 0.099363 0.000000 0.005572
# 5 -0.000250 0.000306 -0.013098 0.000000 0.069033 0.000000
# 6 0.000000 0.000000 0.000000 0.005572 0.000000 0.063866
#
#
# Mechanical properties :
#
#
# Convention : Reuss Voigt Hill
#
# Bulk Modulus (GPa) = 30.87116 35.86274 33.36695
# Shear Modulus (GPa) = 16.51600 21.03859 18.77729
#
# Velocity S-wave (km/s) = 3.03486 3.42527 3.23596
# Velocity P-wave (km/s) = 5.43105 5.97015 5.70697
#
# Compressibility (1/GPa) = 0.03239269
#
# Stress axis : x y z
#
# Youngs Moduli (GPa) = 77.15918 75.43329 50.45893
#
# Poissons Ratio (x) = 0.30208 -0.02359
# Poissons Ratio (y) = 0.30899 0.16571
# Poissons Ratio (z) = -0.03607 0.24772
#
# Static dielectric constant tensor:
#      x y z
#    x 1.698660 0.000000 0.006670 
#    y 0.000000 1.584370 0.000000 
#    z 0.006670 0.000000 1.620540 
# 
# From -- ./inp_files/301467.got.cif
#   From: 2010.05.17/outbox.cif.g08.bks.cpg/sg12_151_cif.got.tgz:301467.got - 2010.06.03 13:09:07.
