data_PCOD9177943
_publ_section_title
;
Structure prediction by ZEFSAII (Michael W. Deem and Ramdas Pophale) SiO2 
 PCOD9177943
Probable space group: C 2/M
;
_chemical_formula_sum "Si O2"
_cell_formula_units_Z 64
_cell_length_a 23.545586
_cell_length_b 9.484874
_cell_length_c 22.473819
_cell_angle_alpha 90.000000
_cell_angle_beta 142.183475
_cell_angle_gamma 90.000000
_cell_volume 3077.329503
_symmetry_space_group_name_H-M "C 2/M"
_symmetry_group_IT_number 12
_symmetry_cell_setting 'monoclinic'
loop_
_space_group_symop_operation_xyz
x,y,z
-x,y,-z
-x,-y,-z
x,-y,z
1/2+x,1/2+y,z
1/2-x,1/2+y,-z
1/2-x,1/2-y,-z
1/2+x,1/2-y,z
loop_
_atom_site_type_symbol
_atom_site_label
_atom_site_fract_x
_atom_site_fract_y
_atom_site_fract_z
Si Si1 0.271564 0.155092 0.961506
Si Si2 0.065037 0.156874 0.743373
Si Si3 0.306064 0.331624 0.361225
Si Si4 0.945396 0.166678 0.758433
Si Si5 0.666709 0.658547 0.086525
Si Si6 0.379766 0.665608 0.825754
Si Si7 0.236217 0.667824 0.427601
Si Si8 0.621366 0.837909 0.684820
O O1 0.173751 0.143394 0.846793
O O2 0.337959 0.231437 0.970178
O O3 0.303750 0.000000 0.005924
O O4 0.250000 0.250000 0.000000
O O5 0.058435 0.264150 0.683181
O O6 0.020872 0.198338 0.770392
O O7 0.029319 0.000000 0.697681
O O8 0.309776 0.500000 0.354547
O O9 0.205061 0.268838 0.260348
O O10 0.310525 0.304828 0.436037
O O11 0.374323 0.251146 0.372672
O O12 0.958251 0.181511 0.840366
O O13 0.860806 0.269681 0.675007
O O14 0.921610 0.000000 0.730054
O O15 0.650284 0.500000 0.050547
O O16 0.602721 0.687906 0.090286
O O17 0.772602 0.660938 0.200857
O O18 0.348757 0.500000 0.795998
O O19 0.232932 0.500000 0.433929
O O20 0.250000 0.750000 0.500000
O O21 0.595583 0.000000 0.653172
#
# Coordination Sequence:
#
# PCOD9177943 Si02
#       8
#     8   8   8   8   8   8   8   8
#     4  10  19  30  45  66  91 120 154 190 230 275
#     4   9  18  31  48  70  95 123 154 190 232 277
#     4   9  16  26  42  65  91 117 150 190 228 266
#     4   9  17  31  50  71  96 124 153 188 231 277
#     4   8  14  25  41  63  88 113 145 185 225 265
#     4   8  14  25  43  66  90 116 147 184 226 270
#     4  10  20  32  48  71  97 126 157 190 229 273
#     4   9  16  26  43  66  91 119 151 189 231 271
#
# _framework density 20.797252
#
# number of rings (size 3 to 8) (size 9 to 14) (size 15 to 20)
#    0.000    3.000    0.000    2.250    0.000    5.500 
#    0.000    0.000    0.000    1.500    0.000   10.500 
#    0.000    0.000    0.000    0.000    0.000    0.000 
#
# Total GULP energy -178236.237593 kJ/mol
# GULP energy per Si atom -5569.882425 kJ/mol
# Density = 2.074992 g / cm^3
# Si number density = 20.797252 Si / 1000 Ang^3
#
#
#
# Elastic Constant Matrix: (Units=GPa)
#
#
# Indices 1 2 3 4 5 6 
#
# 1 155.3714 84.9541 35.8169 0.0000 -58.2139 0.0000
# 2 84.9541 136.6446 51.7928 0.0000 -53.8353 0.0000
# 3 35.8169 51.7928 26.3595 0.0000 -26.6941 0.0000
# 4 0.0000 0.0000 0.0000 21.4968 0.0000 -14.2524
# 5 -58.2139 -53.8353 -26.6941 0.0000 38.3700 0.0000
# 6 0.0000 0.0000 0.0000 -14.2524 0.0000 26.7318
#
#
#
# Elastic Compliance Matrix: (Units=1/GPa)
#
#
# Indices 1 2 3 4 5 6 
#
# 1 0.016623 -0.005698 0.020485 0.000000 0.031477 0.000000
# 2 -0.005698 0.030764 -0.060066 0.000000 -0.007270 0.000000
# 3 0.020485 -0.060066 0.251302 0.000000 0.121636 0.000000
# 4 0.000000 0.000000 0.000000 0.071953 0.000000 0.038363
# 5 0.031477 -0.007270 0.121636 0.000000 0.148241 0.000000
# 6 0.000000 0.000000 0.000000 0.038363 0.000000 0.057862
#
#
# Mechanical properties :
#
#
# Convention : Reuss Voigt Hill
#
# Bulk Modulus (GPa) = 4.80464 73.72257 39.26360
# Shear Modulus (GPa) = 6.78722 27.04050 16.91386
#
# Velocity S-wave (km/s) = 1.80848 3.60973 2.85489
# Velocity P-wave (km/s) = 2.58380 7.27315 5.45778
#
# Compressibility (1/GPa) = 0.20813204
#
# Stress axis : x y z
#
# Youngs Moduli (GPa) = 60.15712 32.50599 3.97927
#
# Poissons Ratio (x) = 0.18522 -0.08152
# Poissons Ratio (y) = 0.34279 0.23902
# Poissons Ratio (z) = -1.23235 1.95249
#
# Static dielectric constant tensor:
#      x y z
#    x 1.787470 0.000000 -0.000980 
#    y 0.000000 1.725280 0.000000 
#    z -0.000980 0.000000 1.815990 
# 
# From -- ./inp_files/319806.got.cif
#   From: 2010.05.17/outbox.cif.g08.bks.cpg/sg12_160_cif.got.tgz:319806.got - 2010.06.03 13:09:07.
