data_PCOD9177559
_publ_section_title
;
Structure prediction by ZEFSAII (Michael W. Deem and Ramdas Pophale) SiO2 
 PCOD9177559
Probable space group: C 2/M
;
_chemical_formula_sum "Si O2"
_cell_formula_units_Z 64
_cell_length_a 29.265447
_cell_length_b 9.096281
_cell_length_c 21.583224
_cell_angle_alpha 90.000000
_cell_angle_beta 132.234238
_cell_angle_gamma 90.000000
_cell_volume 4254.059470
_symmetry_space_group_name_H-M "C 2/M"
_symmetry_group_IT_number 12
_symmetry_cell_setting 'monoclinic'
loop_
_space_group_symop_operation_xyz
x,y,z
-x,y,-z
-x,-y,-z
x,-y,z
1/2+x,1/2+y,z
1/2-x,1/2+y,-z
1/2-x,1/2-y,-z
1/2+x,1/2-y,z
loop_
_atom_site_type_symbol
_atom_site_label
_atom_site_fract_x
_atom_site_fract_y
_atom_site_fract_z
Si Si1 0.996802 0.176726 0.098208
Si Si2 0.899435 0.823284 0.901811
Si Si3 0.700311 0.177074 0.999651
Si Si4 0.439812 0.176680 0.162640
Si Si5 0.448087 0.668686 0.507015
Si Si6 0.860646 0.822216 0.322345
Si Si7 0.039216 0.324212 0.675842
Si Si8 0.278739 0.176684 0.837807
O O1 0.983430 0.250814 0.151254
O O2 0.060264 0.218947 0.121553
O O3 0.996365 0.000000 0.103824
O O4 0.941655 0.216171 0.000010
O O5 0.833471 0.749164 0.848815
O O6 0.893434 0.000000 0.896211
O O7 0.630934 0.219481 0.916942
O O8 0.705257 0.000000 0.999570
O O9 0.750000 0.250000 0.000000
O O10 0.712707 0.218963 0.082261
O O11 0.456036 0.217222 0.247802
O O12 0.443571 0.000000 0.160640
O O13 0.500000 0.668751 0.500000
O O14 0.441017 0.500000 0.521635
O O15 0.387162 0.717715 0.414461
O O16 0.476385 0.767210 0.586714
O O17 0.904436 0.748223 0.310967
O O18 0.789706 0.782502 0.246965
O O19 0.867011 0.000000 0.322648
O O20 0.043413 0.500000 0.674401
O O21 0.284214 0.000000 0.839239
#
# Coordination Sequence:
#
# PCOD9177559 Si02
#       8
#     8   8   8   8   8   8   8   8
#     4   9  18  32  49  67  88 117 152 188 226 270
#     4   9  18  32  48  68  91 114 148 192 230 265
#     4  10  20  31  42  60  89 123 155 182 211 255
#     4  10  20  32  44  65  94 120 151 189 224 262
#     4   8  15  29  46  63  87 118 151 189 228 265
#     4   9  18  31  46  66  92 121 155 190 221 264
#     4  10  19  29  44  67  94 121 152 190 227 265
#     4  10  19  31  47  67  90 120 155 185 220 269
#
# _framework density 15.044453000000001
#
# number of rings (size 3 to 8) (size 9 to 14) (size 15 to 20)
#    0.000    2.625    1.250    2.625    0.000    5.250 
#    0.000    1.250    0.000    0.000    0.000    0.875 
#    0.000    0.000    0.000    0.000    0.000    0.000 
#
# Total GULP energy -178352.028315 kJ/mol
# GULP energy per Si atom -5573.500885 kJ/mol
# Density = 1.501021 g / cm^3
# Si number density = 15.044453 Si / 1000 Ang^3
#
#
#
# Elastic Constant Matrix: (Units=GPa)
#
#
# Indices 1 2 3 4 5 6 
#
# 1 116.9465 38.1538 75.1329 0.0000 0.9897 0.0000
# 2 38.1538 21.3208 39.6436 0.0000 -0.1339 0.0000
# 3 75.1329 39.6436 139.1900 0.0000 2.6879 0.0000
# 4 0.0000 0.0000 0.0000 22.0557 0.0000 -0.1944
# 5 0.9897 -0.1339 2.6879 0.0000 9.2853 0.0000
# 6 0.0000 0.0000 0.0000 -0.1944 0.0000 28.9444
#
#
#
# Elastic Compliance Matrix: (Units=1/GPa)
#
#
# Indices 1 2 3 4 5 6 
#
# 1 0.020711 -0.034809 -0.001220 0.000000 -0.002356 0.000000
# 2 -0.034809 0.159087 -0.026787 0.000000 0.013759 0.000000
# 3 -0.001220 -0.026787 0.015564 0.000000 -0.004762 0.000000
# 4 0.000000 0.000000 0.000000 0.045342 0.000000 0.000305
# 5 -0.002356 0.013759 -0.004762 0.000000 0.109525 0.000000
# 6 0.000000 0.000000 0.000000 0.000305 0.000000 0.034551
#
#
# Mechanical properties :
#
#
# Convention : Reuss Voigt Hill
#
# Bulk Modulus (GPa) = 14.34090 64.81310 39.57700
# Shear Modulus (GPa) = 9.36934 20.35891 14.86413
#
# Velocity S-wave (km/s) = 2.49826 3.68265 3.14668
# Velocity P-wave (km/s) = 4.22786 7.82669 6.29015
#
# Compressibility (1/GPa) = 0.06973064
#
# Stress axis : x y z
#
# Youngs Moduli (GPa) = 48.28344 6.28587 64.25044
#
# Poissons Ratio (x) = 0.21881 0.07837
# Poissons Ratio (y) = 1.68071 1.72106
# Poissons Ratio (z) = 0.05890 0.16838
#
# Static dielectric constant tensor:
#      x y z
#    x 1.471230 0.000000 0.005160 
#    y 0.000000 1.504090 0.000000 
#    z 0.005160 0.000000 1.510140 
# 
# From -- ./inp_files/326937.got.cif
#   From: 2010.05.17/outbox.cif.g08.bks.cpg/sg12_164_cif.got.tgz:326937.got - 2010.06.03 13:09:07.
