data_PCOD9177256
_publ_section_title
;
Structure prediction by ZEFSAII (Michael W. Deem and Ramdas Pophale) SiO2 
 PCOD9177256
Probable space group: C 2/M
;
_chemical_formula_sum "Si O2"
_cell_formula_units_Z 64
_cell_length_a 25.303885
_cell_length_b 7.258008
_cell_length_c 22.763923
_cell_angle_alpha 90.000000
_cell_angle_beta 46.805659
_cell_angle_gamma 90.000000
_cell_volume 3047.901097
_symmetry_space_group_name_H-M "C 2/M"
_symmetry_group_IT_number 12
_symmetry_cell_setting 'monoclinic'
loop_
_space_group_symop_operation_xyz
x,y,z
-x,y,-z
-x,-y,-z
x,-y,z
1/2+x,1/2+y,z
1/2-x,1/2+y,-z
1/2-x,1/2-y,-z
1/2+x,1/2-y,z
loop_
_atom_site_type_symbol
_atom_site_label
_atom_site_fract_x
_atom_site_fract_y
_atom_site_fract_z
Si Si1 0.554411 0.721690 0.776570
Si Si2 0.637112 0.224911 0.272374
Si Si3 0.500314 0.212789 0.695375
Si Si4 0.280516 0.276323 0.354565
Si Si5 0.858978 0.724012 0.479046
Si Si6 0.585856 0.789098 0.437036
Si Si7 0.444708 0.724483 0.091925
Si Si8 0.779004 0.776455 0.220181
O O1 0.555988 0.500000 0.775681
O O2 0.502362 0.779223 0.763803
O O3 0.636738 0.784503 0.700182
O O4 0.535033 0.780810 0.857159
O O5 0.574759 0.287827 0.274632
O O6 0.610301 0.287739 0.356834
O O7 0.721465 0.280315 0.214016
O O8 0.637677 0.000000 0.268264
O O9 0.578543 0.289063 0.613437
O O10 0.501778 0.000000 0.674492
O O11 0.280430 0.500000 0.355199
O O12 0.224781 0.216348 0.448028
O O13 0.259800 0.222919 0.302763
O O14 0.856338 0.500000 0.475801
O O15 0.890298 0.782927 0.518688
O O16 0.500000 0.791683 0.500000
O O17 0.613447 0.000000 0.416119
O O18 0.444944 0.500000 0.091040
O O19 0.361354 0.781675 0.145763
O O20 0.500000 0.786329 0.000000
O O21 0.778973 0.000000 0.221230
#
# Coordination Sequence:
#
# PCOD9177256 Si02
#       8
#     8   8   8   8   8   8   8   8
#     4   9  18  31  44  59  82 111 138 165 204 251
#     4   9  14  20  33  56  84 108 132 167 210 244
#     4  10  19  27  38  60  88 116 142 166 195 238
#     4   8  13  22  37  56  79 106 138 176 211 239
#     4   9  14  20  33  55  82 109 138 174 210 234
#     4   9  12  16  28  49  78 105 131 170 210 234
#     4   8  14  26  46  68  82  96 129 175 213 245
#     4   8  12  19  35  60  86 103 122 169 225 247
#
# _framework density 20.998055999999998
#
# number of rings (size 3 to 8) (size 9 to 14) (size 15 to 20)
#    0.000    3.250    2.500    1.500    0.000    0.500 
#    0.000    0.000    0.000    1.125    0.000    5.250 
#    0.000    0.000    0.000    0.000    0.000    0.000 
#
# Total GULP energy -178240.855187 kJ/mol
# GULP energy per Si atom -5570.026725 kJ/mol
# Density = 2.095026 g / cm^3
# Si number density = 20.998056 Si / 1000 Ang^3
#
#
#
# Elastic Constant Matrix: (Units=GPa)
#
#
# Indices 1 2 3 4 5 6 
#
# 1 123.8162 -5.6921 73.0186 -0.0085 10.0018 0.0049
# 2 -5.6921 88.6731 -1.2205 -0.0488 -3.4104 0.0094
# 3 73.0186 -1.2205 126.1378 0.0406 -5.8447 -0.0151
# 4 -0.0085 -0.0488 0.0406 -60.7597 -0.0200 22.0198
# 5 10.0018 -3.4104 -5.8447 -0.0200 18.4262 0.0049
# 6 0.0049 0.0094 -0.0151 22.0198 0.0049 -13.1119
#
#
#
# Elastic Compliance Matrix: (Units=1/GPa)
#
#
# Indices 1 2 3 4 5 6 
#
# 1 0.013964 0.000386 -0.008553 -0.000001 -0.010222 0.000010
# 2 0.000386 0.011374 -0.000026 -0.000017 0.001888 -0.000019
# 3 -0.008553 -0.000026 0.013289 0.000004 0.008853 -0.000008
# 4 -0.000001 -0.000017 0.000004 -0.042051 -0.000028 -0.070619
# 5 -0.010222 0.001888 0.008853 -0.000028 0.062976 -0.000036
# 6 0.000010 -0.000019 -0.000008 -0.070619 -0.000036 -0.194862
#
#
# Mechanical properties :
#
#
# Convention : Reuss Voigt Hill
#
# Bulk Modulus (GPa) = 44.96277 52.31546 48.63911
# Shear Modulus (GPa) = -44.83958 7.07898 -18.88030
#
# Velocity S-wave (km/s) = -4.62607 1.83809 -3.00183
# Velocity P-wave (km/s) = 2.65983 5.42893 3.34653
#
# Compressibility (1/GPa) = 0.02224062
#
# Stress axis : x y z
#
# Youngs Moduli (GPa) = 71.61180 87.91699 75.24878
#
# Poissons Ratio (x) = -0.03389 0.64364
# Poissons Ratio (y) = -0.02761 0.00193
# Poissons Ratio (z) = 0.61253 0.00225
#
# Static dielectric constant tensor:
#      x y z
#    x 1.783150 -0.000010 -0.030580 
#    y -0.000010 1.869030 0.000000 
#    z -0.030580 0.000000 1.735280 
# 
# From -- ./inp_files/324759.got.cif
#   From: 2010.05.17/outbox.cif.g08.bks.cpg/sg12_163_cif.got.tgz:324759.got - 2010.06.03 13:09:07.
