data_PCOD9177226
_publ_section_title
;
Structure prediction by ZEFSAII (Michael W. Deem and Ramdas Pophale) SiO2 
 PCOD9177226
Probable space group: C 2/M
;
_chemical_formula_sum "Si O2"
_cell_formula_units_Z 36
_cell_length_a 15.215347
_cell_length_b 14.153245
_cell_length_c 7.297919
_cell_angle_alpha 90.000000
_cell_angle_beta 77.110874
_cell_angle_gamma 90.000000
_cell_volume 1531.983279
_symmetry_space_group_name_H-M "C 2/M"
_symmetry_group_IT_number 12
_symmetry_cell_setting 'monoclinic'
loop_
_space_group_symop_operation_xyz
x,y,z
-x,y,-z
-x,-y,-z
x,-y,z
1/2+x,1/2+y,z
1/2-x,1/2+y,-z
1/2-x,1/2-y,-z
1/2+x,1/2-y,z
loop_
_atom_site_type_symbol
_atom_site_label
_atom_site_fract_x
_atom_site_fract_y
_atom_site_fract_z
Si Si1 0.048022 0.209344 0.216005
Si Si2 0.440083 0.500000 0.711554
Si Si3 0.818816 0.294856 0.107817
Si Si4 0.891773 0.500000 0.516618
Si Si5 0.629362 0.787979 0.515718
Si Si6 0.221443 0.500000 0.806786
O O1 0.032509 0.097687 0.202550
O O2 0.089500 0.252539 0.014842
O O3 0.119946 0.215169 0.353041
O O4 0.966600 0.271912 0.334007
O O5 0.500000 0.500000 0.500000
O O6 0.330562 0.500000 0.730059
O O7 0.750000 0.250000 0.000000
O O8 0.808639 0.275969 0.331106
O O9 0.808218 0.405577 0.079968
O O10 0.862632 0.392046 0.581655
O O11 0.843690 0.500000 0.340068
O O12 0.000000 0.500000 0.500000
#
# Coordination Sequence:
#
# PCOD9177226 Si02
#       6
#     8   4   8   4   8   4
#     4  11  22  41  68  93 132 177 229 274 344 399
#     4  12  22  44  69  95 136 183 225 286 331 399
#     4  11  23  42  64  95 140 172 222 283 341 400
#     4  10  18  40  67  96 140 166 217 284 337 399
#     4  10  22  39  66 100 128 176 223 277 336 414
#     4  10  24  42  67 105 139 175 230 288 338 410
#
# _framework density 23.498949
#
# number of rings (size 3 to 8) (size 9 to 14) (size 15 to 20)
#    0.000    1.333    6.667    0.667    0.000    2.667 
#    0.000    8.889    0.000    0.000    0.000    0.000 
#    0.000    0.000    0.000    0.000    0.000    0.000 
#
# Total GULP energy -100252.994618 kJ/mol
# GULP energy per Si atom -5569.610812 kJ/mol
# Density = 2.344546 g / cm^3
# Si number density = 23.498949 Si / 1000 Ang^3
#
#
#
# Elastic Constant Matrix: (Units=GPa)
#
#
# Indices 1 2 3 4 5 6 
#
# 1 70.7185 -29.1254 3.3694 0.0000 7.2498 0.0000
# 2 -29.1254 178.0543 29.7269 0.0000 -15.2568 0.0000
# 3 3.3694 29.7269 131.0175 0.0000 -9.7290 0.0000
# 4 0.0000 0.0000 0.0000 31.9920 0.0000 1.2272
# 5 7.2498 -15.2568 -9.7290 0.0000 44.9228 0.0000
# 6 0.0000 0.0000 0.0000 1.2272 0.0000 25.0271
#
#
#
# Elastic Compliance Matrix: (Units=1/GPa)
#
#
# Indices 1 2 3 4 5 6 
#
# 1 0.015436 0.002551 -0.001114 0.000000 -0.001866 0.000000
# 2 0.002551 0.006393 -0.001408 0.000000 0.001455 0.000000
# 3 -0.001114 -0.001408 0.008089 0.000000 0.001453 0.000000
# 4 0.000000 0.000000 0.000000 0.031317 0.000000 -0.001536
# 5 -0.001866 0.001455 0.001453 0.000000 0.023370 0.000000
# 6 0.000000 0.000000 0.000000 -0.001536 0.000000 0.040032
#
#
# Mechanical properties :
#
#
# Convention : Reuss Voigt Hill
#
# Bulk Modulus (GPa) = 33.36156 43.08135 38.22146
# Shear Modulus (GPa) = 37.15509 45.44301 41.29905
#
# Velocity S-wave (km/s) = 3.98067 4.40231 4.19678
# Velocity P-wave (km/s) = 5.94605 6.64932 6.30749
#
# Compressibility (1/GPa) = 0.02997462
#
# Stress axis : x y z
#
# Youngs Moduli (GPa) = 64.78523 156.41380 123.62994
#
# Poissons Ratio (x) = -0.39902 0.13777
# Poissons Ratio (y) = -0.16527 0.17409
# Poissons Ratio (z) = 0.07219 0.22026
#
# Static dielectric constant tensor:
#      x y z
#    x 2.175990 0.000000 0.045650 
#    y 0.000000 1.523150 0.000000 
#    z 0.045650 0.000000 1.877060 
# 
# From -- ./inp_files/58566.got.cif
#   From: 2010.05.17/outbox.cif.g08.bks.cpg/sg12_30_cif.got.tgz:58566.got - 2010.06.03 13:09:07.
