data_PCOD9177501
_publ_section_title
;
Structure prediction by ZEFSAII (Michael W. Deem and Ramdas Pophale) SiO2 
 PCOD9177501
Probable space group: C 2/M
;
_chemical_formula_sum "Si O2"
_cell_formula_units_Z 56
_cell_length_a 28.355813
_cell_length_b 8.675855
_cell_length_c 15.016236
_cell_angle_alpha 90.000000
_cell_angle_beta 103.923754
_cell_angle_gamma 90.000000
_cell_volume 3585.611889
_symmetry_space_group_name_H-M "C 2/M"
_symmetry_group_IT_number 12
_symmetry_cell_setting 'monoclinic'
loop_
_space_group_symop_operation_xyz
x,y,z
-x,y,-z
-x,-y,-z
x,-y,z
1/2+x,1/2+y,z
1/2-x,1/2+y,-z
1/2-x,1/2-y,-z
1/2+x,1/2-y,z
loop_
_atom_site_type_symbol
_atom_site_label
_atom_site_fract_x
_atom_site_fract_y
_atom_site_fract_z
Si Si1 0.877520 0.817451 0.213850
Si Si2 0.068290 0.685471 0.603554
Si Si3 0.544189 0.817421 0.882588
Si Si4 0.196220 0.815580 0.968127
Si Si5 0.380214 0.183094 0.929542
Si Si6 0.064759 0.687772 0.211954
Si Si7 0.541462 0.187720 0.397138
O O1 0.888960 0.746144 0.314802
O O2 0.923618 0.773829 0.173541
O O3 0.831512 0.761342 0.134737
O O4 0.873805 0.000000 0.221165
O O5 0.069181 0.500000 0.605633
O O6 0.068039 0.735778 0.500226
O O7 0.015334 0.732642 0.618936
O O8 0.488209 0.771761 0.851634
O O9 0.546784 0.000000 0.860679
O O10 0.570792 0.798597 0.989013
O O11 0.197877 0.000000 0.966694
O O12 0.250000 0.750000 0.000000
O O13 0.162659 0.763790 0.035707
O O14 0.393409 0.240154 0.836709
O O15 0.369597 0.000000 0.922086
O O16 0.067149 0.500000 0.212938
O O17 0.064342 0.739947 0.314359
O O18 0.541568 0.000000 0.396056
#
# Coordination Sequence:
#
# PCOD9177501 Si02
#       7
#     8   8   8   8   8   8   8
#     4  10  19  29  43  65  91 116 144 183 229 268
#     4   9  15  26  43  62  86 121 160 190 215 248
#     4   9  15  25  41  61  87 121 156 182 205 247
#     4  10  21  36  51  67  88 112 142 183 229 275
#     4   9  17  27  44  68  90 115 148 182 219 262
#     4   9  14  23  41  65  91 120 154 186 210 243
#     4   8  14  23  40  64  89 120 159 193 212 236
#
# _framework density 15.617977
#
# number of rings (size 3 to 8) (size 9 to 14) (size 15 to 20)
#    0.000    2.857    1.429    2.143    0.000    3.429 
#    0.000    2.143    0.000    3.429    0.000    1.000 
#    0.000    0.000    0.000    0.000    0.000    0.000 
#
# Total GULP energy -155909.811938 kJ/mol
# GULP energy per Si atom -5568.207569 kJ/mol
# Density = 1.558243 g / cm^3
# Si number density = 15.617977 Si / 1000 Ang^3
#
#
#
# Elastic Constant Matrix: (Units=GPa)
#
#
# Indices 1 2 3 4 5 6 
#
# 1 83.0551 19.3605 70.5076 0.0000 3.8727 0.0000
# 2 19.3605 12.5840 28.7749 0.0000 0.3926 0.0000
# 3 70.5076 28.7749 126.6286 0.0000 -5.1591 0.0000
# 4 0.0000 0.0000 0.0000 14.1518 0.0000 3.9627
# 5 3.8727 0.3926 -5.1591 0.0000 17.8899 0.0000
# 6 0.0000 0.0000 0.0000 3.9627 0.0000 12.2029
#
#
#
# Elastic Compliance Matrix: (Units=1/GPa)
#
#
# Indices 1 2 3 4 5 6 
#
# 1 0.025031 -0.011617 -0.011645 0.000000 -0.008522 0.000000
# 2 -0.011617 0.174691 -0.033677 0.000000 -0.011031 0.000000
# 3 -0.011645 -0.033677 0.022430 0.000000 0.009728 0.000000
# 4 0.000000 0.000000 0.000000 0.077730 0.000000 -0.025241
# 5 -0.008522 -0.011031 0.009728 0.000000 0.060790 0.000000
# 6 0.000000 0.000000 0.000000 -0.025241 0.000000 0.090145
#
#
# Mechanical properties :
#
#
# Convention : Reuss Voigt Hill
#
# Bulk Modulus (GPa) = 9.23587 51.06150 30.14869
# Shear Modulus (GPa) = 8.32241 15.75723 12.03982
#
# Velocity S-wave (km/s) = 2.31091 3.17979 2.77951
# Velocity P-wave (km/s) = 3.61204 6.80047 5.44487
#
# Compressibility (1/GPa) = 0.10827350
#
# Stress axis : x y z
#
# Youngs Moduli (GPa) = 39.95012 5.72439 44.58278
#
# Poissons Ratio (x) = 0.06650 0.51916
# Poissons Ratio (y) = 0.46411 1.50143
# Poissons Ratio (z) = 0.46521 0.19278
#
# Static dielectric constant tensor:
#      x y z
#    x 1.492570 0.000000 -0.008030 
#    y 0.000000 1.531860 0.000000 
#    z -0.008030 0.000000 1.564770 
# 
# From -- ./inp_files/247928.got.cif
#   From: 2010.05.17/outbox.cif.g08.bks.cpg/sg12_124_cif.got.tgz:247928.got - 2010.06.03 13:09:07.
