data_PCOD9177547
_publ_section_title
;
Structure prediction by ZEFSAII (Michael W. Deem and Ramdas Pophale) SiO2 
 PCOD9177547
Probable space group: C 2/M
;
_chemical_formula_sum "Si O2"
_cell_formula_units_Z 56
_cell_length_a 24.610723
_cell_length_b 9.186884
_cell_length_c 18.323003
_cell_angle_alpha 90.000000
_cell_angle_beta 115.829565
_cell_angle_gamma 90.000000
_cell_volume 3728.869272
_symmetry_space_group_name_H-M "C 2/M"
_symmetry_group_IT_number 12
_symmetry_cell_setting 'monoclinic'
loop_
_space_group_symop_operation_xyz
x,y,z
-x,y,-z
-x,-y,-z
x,-y,z
1/2+x,1/2+y,z
1/2-x,1/2+y,-z
1/2-x,1/2-y,-z
1/2+x,1/2-y,z
loop_
_atom_site_type_symbol
_atom_site_label
_atom_site_fract_x
_atom_site_fract_y
_atom_site_fract_z
Si Si1 0.660257 0.172780 0.987016
Si Si2 0.170427 0.327394 0.388110
Si Si3 0.570879 0.325345 0.045396
Si Si4 0.798856 0.673680 0.439346
Si Si5 0.205102 0.172313 0.872195
Si Si6 0.643921 0.326584 0.231265
Si Si7 0.783649 0.327685 0.270351
O O1 0.666822 0.246697 0.911881
O O2 0.652004 0.000000 0.975327
O O3 0.608234 0.244601 0.004740
O O4 0.724478 0.198318 0.065391
O O5 0.168937 0.500000 0.376577
O O6 0.157718 0.296741 0.466398
O O7 0.238350 0.266666 0.416442
O O8 0.133195 0.250883 0.302281
O O9 0.579455 0.500000 0.042376
O O10 0.598903 0.283715 0.140276
O O11 0.500000 0.293998 0.000000
O O12 0.783356 0.500000 0.433645
O O13 0.817673 0.701440 0.366953
O O14 0.195078 0.236416 0.786111
O O15 0.194382 0.000000 0.868466
O O16 0.640322 0.500000 0.239924
O O17 0.712635 0.295412 0.244739
O O18 0.787787 0.500000 0.256478
#
# Coordination Sequence:
#
# PCOD9177547 Si02
#       7
#     8   8   8   8   8   8   8
#     4  10  20  32  46  64  87 114 145 183 225 261
#     4   9  15  23  37  55  78 109 145 177 208 251
#     4  10  20  34  50  65  85 116 152 188 224 262
#     4   8  15  25  35  53  81 113 142 172 210 252
#     4  10  19  29  44  65  88 114 147 181 215 262
#     4   9  17  28  41  58  83 113 145 179 218 260
#     4   9  15  25  41  59  84 115 144 176 214 255
#
# _framework density 15.017958
#
# number of rings (size 3 to 8) (size 9 to 14) (size 15 to 20)
#    0.000    2.714    1.429    2.143    0.000    4.857 
#    0.000    0.000    0.000    0.000    0.000    0.000 
#    0.000    1.143    0.000   13.143    0.000    4.286 
#
# Total GULP energy -155878.635242 kJ/mol
# GULP energy per Si atom -5567.094116 kJ/mol
# Density = 1.498378 g / cm^3
# Si number density = 15.017958 Si / 1000 Ang^3
#
#
#
# Elastic Constant Matrix: (Units=GPa)
#
#
# Indices 1 2 3 4 5 6 
#
# 1 60.2795 42.4662 58.9176 0.0000 -14.6766 0.0000
# 2 42.4662 44.3395 54.5793 0.0000 -17.0819 0.0000
# 3 58.9176 54.5793 136.0252 0.0000 -35.6563 0.0000
# 4 0.0000 0.0000 0.0000 26.4804 0.0000 -8.7085
# 5 -14.6766 -17.0819 -35.6563 0.0000 21.7974 0.0000
# 6 0.0000 0.0000 0.0000 -8.7085 0.0000 17.9923
#
#
#
# Elastic Compliance Matrix: (Units=1/GPa)
#
#
# Indices 1 2 3 4 5 6 
#
# 1 0.055021 -0.047900 -0.008300 0.000000 -0.014068 0.000000
# 2 -0.047900 0.087526 -0.008485 0.000000 0.022461 0.000000
# 3 -0.008300 -0.008485 0.019508 0.000000 0.019674 0.000000
# 4 0.000000 0.000000 0.000000 0.044913 0.000000 0.021738
# 5 -0.014068 0.022461 0.019674 0.000000 0.086189 0.000000
# 6 0.000000 0.000000 0.000000 0.021738 0.000000 0.066101
#
#
# Mechanical properties :
#
#
# Convention : Reuss Voigt Hill
#
# Bulk Modulus (GPa) = 30.59289 61.39670 45.99480
# Shear Modulus (GPa) = 10.00955 18.89944 14.45449
#
# Velocity S-wave (km/s) = 2.58448 3.55132 3.10575
# Velocity P-wave (km/s) = 5.41490 7.60176 6.59954
#
# Compressibility (1/GPa) = 0.03268733
#
# Stress axis : x y z
#
# Youngs Moduli (GPa) = 18.17475 11.42513 51.26074
#
# Poissons Ratio (x) = 0.54726 0.42546
# Poissons Ratio (y) = 0.87056 0.43493
# Poissons Ratio (z) = 0.15085 0.09694
#
# Static dielectric constant tensor:
#      x y z
#    x 1.458550 0.000000 -0.019170 
#    y 0.000000 1.497960 0.000000 
#    z -0.019170 0.000000 1.537850 
# 
# From -- ./inp_files/287882.got.cif
#   From: 2010.05.17/outbox.cif.g08.bks.cpg/sg12_144_cif.got.tgz:287882.got - 2010.06.03 13:09:07.
