data_PCOD9177832
_publ_section_title
;
Structure prediction by ZEFSAII (Michael W. Deem and Ramdas Pophale) SiO2 
 PCOD9177832
Probable space group: C 2/M
;
_chemical_formula_sum "Si O2"
_cell_formula_units_Z 64
_cell_length_a 31.497246
_cell_length_b 7.457534
_cell_length_c 14.391454
_cell_angle_alpha 90.000000
_cell_angle_beta 96.492066
_cell_angle_gamma 90.000000
_cell_volume 3358.757328
_symmetry_space_group_name_H-M "C 2/M"
_symmetry_group_IT_number 12
_symmetry_cell_setting 'monoclinic'
loop_
_space_group_symop_operation_xyz
x,y,z
-x,y,-z
-x,-y,-z
x,-y,z
1/2+x,1/2+y,z
1/2-x,1/2+y,-z
1/2-x,1/2-y,-z
1/2+x,1/2-y,z
loop_
_atom_site_type_symbol
_atom_site_label
_atom_site_fract_x
_atom_site_fract_y
_atom_site_fract_z
Si Si1 0.733601 0.285689 0.391338
Si Si2 0.552034 0.781655 0.914971
Si Si3 0.061145 0.208204 0.324794
Si Si4 0.452950 0.783875 0.880895
Si Si5 0.401875 0.220611 0.259535
Si Si6 0.646374 0.282686 0.441502
Si Si7 0.320525 0.788358 0.342892
Si Si8 0.521535 0.203860 0.596580
O O1 0.731791 0.500000 0.377053
O O2 0.750000 0.250000 0.500000
O O3 0.684844 0.220114 0.383043
O O4 0.772202 0.214030 0.337206
O O5 0.502734 0.726457 0.887345
O O6 0.581619 0.722751 0.837507
O O7 0.552037 0.000000 0.914140
O O8 0.564097 0.725434 0.022561
O O9 0.070339 0.222450 0.217733
O O10 0.100327 0.280215 0.395412
O O11 0.016295 0.299803 0.337200
O O12 0.055268 0.000000 0.346688
O O13 0.452696 0.000000 0.880119
O O14 0.354962 0.281901 0.278213
O O15 0.436566 0.282037 0.345010
O O16 0.402630 0.000000 0.260859
O O17 0.645918 0.500000 0.438652
O O18 0.658340 0.230820 0.549427
O O19 0.316347 0.000000 0.323851
O O20 0.500000 0.288212 0.500000
O O21 0.533276 0.000000 0.572848
#
# Coordination Sequence:
#
# PCOD9177832 Si02
#       8
#     8   8   8   8   8   8   8   8
#     4   8  14  26  42  60  81 106 137 171 206 241
#     4   8  14  26  46  65  80 103 135 173 219 255
#     4  11  21  30  41  60  86 116 144 172 206 243
#     4   9  16  29  48  63  77 105 142 176 212 253
#     4   9  15  25  42  65  87 104 130 171 213 248
#     4   9  18  30  41  56  86 120 141 164 204 248
#     4   9  16  26  45  68  84 103 138 178 206 238
#     4  10  19  30  44  60  83 116 146 170 200 241
#
# _framework density 19.054666999999998
#
# number of rings (size 3 to 8) (size 9 to 14) (size 15 to 20)
#    0.000    2.875    1.250    1.875    0.000    2.250 
#    0.000    1.875    0.000    0.000    0.000    0.875 
#    0.000    0.000    0.000    0.000    0.000    0.000 
#
# Total GULP energy -178351.099269 kJ/mol
# GULP energy per Si atom -5573.471852 kJ/mol
# Density = 1.901130 g / cm^3
# Si number density = 19.054667 Si / 1000 Ang^3
#
#
#
# Elastic Constant Matrix: (Units=GPa)
#
#
# Indices 1 2 3 4 5 6 
#
# 1 69.0235 3.1171 3.9883 0.0000 -33.7821 0.0000
# 2 3.1171 59.9372 -3.0656 0.0000 -2.5988 0.0000
# 3 3.9883 -3.0656 73.1589 0.0000 -27.1437 0.0000
# 4 0.0000 0.0000 0.0000 -19.6668 0.0000 -10.4968
# 5 -33.7821 -2.5988 -27.1437 0.0000 31.3339 0.0000
# 6 0.0000 0.0000 0.0000 -10.4968 0.0000 -4.1715
#
#
#
# Elastic Compliance Matrix: (Units=1/GPa)
#
#
# Indices 1 2 3 4 5 6 
#
# 1 0.050926 0.002059 0.026149 0.000000 0.077728 0.000000
# 2 0.002059 0.016989 0.002868 0.000000 0.006113 0.000000
# 3 0.026149 0.002868 0.033764 0.000000 0.057678 0.000000
# 4 0.000000 0.000000 0.000000 0.148225 0.000000 -0.372980
# 5 0.077728 0.006113 0.057678 0.000000 0.166188 0.000000
# 6 0.000000 0.000000 0.000000 -0.372980 0.000000 0.698812
#
#
# Mechanical properties :
#
#
# Convention : Reuss Voigt Hill
#
# Bulk Modulus (GPa) = 6.10385 23.35545 14.72965
# Shear Modulus (GPa) = 4.51524 14.70443 9.60983
#
# Velocity S-wave (km/s) = 1.54103 2.78096 2.24816
# Velocity P-wave (km/s) = 2.52520 4.75345 3.80605
#
# Compressibility (1/GPa) = 0.16383090
#
# Stress axis : x y z
#
# Youngs Moduli (GPa) = 19.63620 58.86228 29.61771
#
# Poissons Ratio (x) = -0.12121 -0.77447
# Poissons Ratio (y) = -0.04043 -0.08494
# Poissons Ratio (z) = -0.51347 -0.16881
#
# Static dielectric constant tensor:
#      x y z
#    x 1.687820 0.000000 -0.033930 
#    y 0.000000 1.343270 0.000000 
#    z -0.033930 0.000000 1.667840 
# 
# From -- ./inp_files/248393.got.cif
#   From: 2010.05.17/outbox.cif.g08.bks.cpg/sg12_125_cif.got.tgz:248393.got - 2010.06.03 13:09:07.
