data_PCOD9177843
_publ_section_title
;
Structure prediction by ZEFSAII (Michael W. Deem and Ramdas Pophale) SiO2 
 PCOD9177843
Probable space group: C 2/M
;
_chemical_formula_sum "Si O2"
_cell_formula_units_Z 64
_cell_length_a 20.835905
_cell_length_b 26.532307
_cell_length_c 8.877036
_cell_angle_alpha 90.000000
_cell_angle_beta 115.216880
_cell_angle_gamma 90.000000
_cell_volume 4439.772423
_symmetry_space_group_name_H-M "C 2/M"
_symmetry_group_IT_number 12
_symmetry_cell_setting 'monoclinic'
loop_
_space_group_symop_operation_xyz
x,y,z
-x,y,-z
-x,-y,-z
x,-y,z
1/2+x,1/2+y,z
1/2-x,1/2+y,-z
1/2-x,1/2-y,-z
1/2+x,1/2-y,z
loop_
_atom_site_type_symbol
_atom_site_label
_atom_site_fract_x
_atom_site_fract_y
_atom_site_fract_z
Si Si1 0.922319 0.258297 0.354072
Si Si2 0.162536 0.647361 0.233700
Si Si3 0.709145 0.696125 0.786167
Si Si4 0.576828 0.940646 0.006072
Si Si5 0.077681 0.741703 0.009433
Si Si6 0.709145 0.696125 0.132123
Si Si7 0.662537 0.147361 0.591373
Si Si8 0.923173 0.559354 0.352417
O O1 0.870048 0.211589 0.340451
O O2 0.886180 0.308754 0.383973
O O3 0.000000 0.252474 0.500000
O O4 0.924232 0.262266 0.174232
O O5 0.243263 0.659850 0.267117
O O6 0.113820 0.691246 0.111614
O O7 0.154711 0.648751 0.404711
O O8 0.134808 0.594954 0.139591
O O9 0.750000 0.750000 0.826656
O O10 0.708912 0.678058 0.958912
O O11 0.574570 0.932046 0.824570
O O12 0.590030 0.000000 0.046111
O O13 0.500000 0.928384 0.000000
O O14 0.129952 0.788412 0.100355
O O15 0.000000 0.747526 0.000000
O O16 0.756737 0.659850 0.280591
O O17 0.634809 0.094953 0.630026
O O18 0.909971 0.500000 0.366052
O O19 0.000000 0.571617 0.500000
#
# Coordination Sequence:
#
# PCOD9177843 Si02
#       8
#     8   8   8   8   8   8   8   8
#     4  10  19  30  44  62  86 114 144 177 210 249
#     4  11  20  29  44  63  85 113 144 177 211 251
#     4   8  16  30  44  59  82 111 141 174 210 247
#     4  10  20  33  47  62  83 111 143 179 215 250
#     4  10  19  30  44  62  86 114 144 177 210 249
#     4   8  16  30  44  59  82 111 141 174 210 247
#     4  11  20  29  44  63  85 113 144 177 211 251
#     4  10  20  33  47  62  83 111 143 179 215 250
#
# _framework density 14.415153
#
# number of rings (size 3 to 8) (size 9 to 14) (size 15 to 20)
#    0.000    2.250    0.000    6.000    0.000    7.000 
#    0.000    0.000    0.000    0.000    0.000    0.000 
#    0.000    1.000    0.000    3.250    0.000    4.000 
#
# Total GULP energy -178433.237419 kJ/mol
# GULP energy per Si atom -5576.038669 kJ/mol
# Density = 1.438234 g / cm^3
# Si number density = 14.415153 Si / 1000 Ang^3
#
#
#
# Elastic Constant Matrix: (Units=GPa)
#
#
# Indices 1 2 3 4 5 6 
#
# 1 97.1291 37.6957 47.7674 0.0000 1.7996 0.0000
# 2 37.6957 51.1066 43.0600 0.0000 -3.8870 0.0000
# 3 47.7674 43.0600 91.9707 0.0000 1.9374 0.0000
# 4 0.0000 0.0000 0.0000 19.5003 0.0000 2.9358
# 5 1.7996 -3.8870 1.9374 0.0000 23.3392 0.0000
# 6 0.0000 0.0000 0.0000 2.9358 0.0000 23.5516
#
#
#
# Elastic Compliance Matrix: (Units=1/GPa)
#
#
# Indices 1 2 3 4 5 6 
#
# 1 0.015557 -0.008046 -0.004267 0.000000 -0.002185 0.000000
# 2 -0.008046 0.037539 -0.013565 0.000000 0.007998 0.000000
# 3 -0.004267 -0.013565 0.019515 0.000000 -0.003550 0.000000
# 4 0.000000 0.000000 0.000000 0.052262 0.000000 -0.006515
# 5 -0.002185 0.007998 -0.003550 0.000000 0.044642 0.000000
# 6 0.000000 0.000000 0.000000 -0.006515 0.000000 0.043272
#
#
# Mechanical properties :
#
#
# Convention : Reuss Voigt Hill
#
# Bulk Modulus (GPa) = 47.94929 55.25028 51.59979
# Shear Modulus (GPa) = 18.41653 20.72378 19.57015
#
# Velocity S-wave (km/s) = 3.57820 3.79573 3.68857
# Velocity P-wave (km/s) = 7.09977 7.59087 7.34942
#
# Compressibility (1/GPa) = 0.02085536
#
# Stress axis : x y z
#
# Youngs Moduli (GPa) = 64.27935 26.63874 51.24225
#
# Poissons Ratio (x) = 0.21433 0.21865
# Poissons Ratio (y) = 0.51718 0.69512
# Poissons Ratio (z) = 0.27428 0.36136
#
# Static dielectric constant tensor:
#      x y z
#    x 1.485600 0.000000 0.003140 
#    y 0.000000 1.459280 0.000000 
#    z 0.003140 0.000000 1.481260 
# 
# From -- ./inp_files/90430.got.cif
#   From: 2010.05.17/outbox.cif.g08.bks.cpg/sg12_46_cif.got.tgz:90430.got - 2010.06.03 13:09:07.
