data_PCOD9177354
_publ_section_title
;
Structure prediction by ZEFSAII (Michael W. Deem and Ramdas Pophale) SiO2 
 PCOD9177354
Probable space group: C 2/M
;
_chemical_formula_sum "Si O2"
_cell_formula_units_Z 64
_cell_length_a 21.854409
_cell_length_b 21.069835
_cell_length_c 18.427834
_cell_angle_alpha 90.000000
_cell_angle_beta 31.397515
_cell_angle_gamma 90.000000
_cell_volume 4420.683116
_symmetry_space_group_name_H-M "C 2/M"
_symmetry_group_IT_number 12
_symmetry_cell_setting 'monoclinic'
loop_
_space_group_symop_operation_xyz
x,y,z
-x,y,-z
-x,-y,-z
x,-y,z
1/2+x,1/2+y,z
1/2-x,1/2+y,-z
1/2-x,1/2-y,-z
1/2+x,1/2-y,z
loop_
_atom_site_type_symbol
_atom_site_label
_atom_site_fract_x
_atom_site_fract_y
_atom_site_fract_z
Si Si1 0.098221 0.721848 0.224556
Si Si2 0.648045 0.675766 0.047859
Si Si3 0.230261 0.724157 0.636494
Si Si4 0.528701 0.425372 0.260032
Si Si5 0.820213 0.926626 0.354643
Si Si6 0.473408 0.327563 0.443071
Si Si7 0.445351 0.324331 0.133410
Si Si8 0.365158 0.166055 0.408448
O O1 0.119740 0.770917 0.136734
O O2 0.045858 0.765307 0.342141
O O3 0.998727 0.673740 0.297464
O O4 0.221635 0.687743 0.113801
O O5 0.627562 0.609439 0.110923
O O6 0.550979 0.682762 0.083952
O O7 0.335364 0.687496 0.569938
O O8 0.138439 0.762584 0.778624
O O9 0.295811 0.778156 0.521988
O O10 0.159965 0.680623 0.650425
O O11 0.550173 0.500000 0.250211
O O12 0.410774 0.418531 0.330399
O O13 0.510107 0.384988 0.352189
O O14 0.869792 0.883607 0.239431
O O15 0.696457 0.898537 0.505370
O O16 0.815812 0.000000 0.339792
O O17 0.500000 0.340272 0.500000
O O18 0.500000 0.334843 0.000000
#
# Coordination Sequence:
#
# PCOD9177354 Si02
#       8
#     8   8   8   8   8   8   8   8
#     4   9  17  29  46  66  92 117 145 188 225 266
#     4   9  17  30  45  67  91 117 151 183 223 264
#     4   9  16  28  44  66  90 113 149 183 225 270
#     4   9  17  31  48  65  88 119 154 190 221 256
#     4   9  17  30  48  67  87 115 158 195 217 255
#     4  10  19  28  44  70  96 120 144 181 228 273
#     4  10  19  28  45  68  94 123 144 179 226 273
#     4   9  14  28  49  64  84 115 147 192 229 253
#
# _framework density 14.477401
#
# number of rings (size 3 to 8) (size 9 to 14) (size 15 to 20)
#    0.000    2.750    2.500    0.000    1.750    0.500 
#    0.000    0.625    0.000    0.000    0.000    0.875 
#    0.000    2.000    0.000    0.000    0.000    0.000 
#
# Total GULP energy -178147.750131 kJ/mol
# GULP energy per Si atom -5567.117192 kJ/mol
# Density = 1.444445 g / cm^3
# Si number density = 14.477401 Si / 1000 Ang^3
#
#
#
# Elastic Constant Matrix: (Units=GPa)
#
#
# Indices 1 2 3 4 5 6 
#
# 1 46.9037 30.3317 24.4854 -0.0002 8.6231 0.0001
# 2 30.3317 75.9095 43.6125 -0.0004 -1.4376 0.0002
# 3 24.4854 43.6125 76.4306 -0.0005 -5.9612 0.0003
# 4 -0.0002 -0.0004 -0.0005 12.2364 0.0003 -3.0009
# 5 8.6231 -1.4376 -5.9612 0.0003 26.6677 -0.0002
# 6 0.0001 0.0002 0.0003 -3.0009 -0.0002 14.0853
#
#
#
# Elastic Compliance Matrix: (Units=1/GPa)
#
#
# Indices 1 2 3 4 5 6 
#
# 1 0.033267 -0.010181 -0.005831 0.000000 -0.012609 0.000000
# 2 -0.010181 0.022771 -0.009546 0.000000 0.002386 0.000000
# 3 -0.005831 -0.009546 0.020870 0.000000 0.006036 0.000000
# 4 0.000000 0.000000 0.000000 0.086228 -0.000001 0.018371
# 5 -0.012609 0.002386 0.006036 -0.000001 0.043054 0.000000
# 6 0.000000 0.000000 0.000000 0.018371 0.000000 0.074910
#
#
# Mechanical properties :
#
#
# Convention : Reuss Voigt Hill
#
# Bulk Modulus (GPa) = 38.77330 44.01143 41.39237
# Shear Modulus (GPa) = 14.67080 17.31884 15.99482
#
# Velocity S-wave (km/s) = 3.18678 3.46246 3.32748
# Velocity P-wave (km/s) = 6.35459 6.81549 6.58907
#
# Compressibility (1/GPa) = 0.02579094
#
# Stress axis : x y z
#
# Youngs Moduli (GPa) = 30.06026 43.91485 47.91622
#
# Poissons Ratio (x) = 0.44710 0.27941
# Poissons Ratio (y) = 0.30605 0.45741
# Poissons Ratio (z) = 0.17529 0.41921
#
# Static dielectric constant tensor:
#      x y z
#    x 1.465370 0.000000 -0.008050 
#    y 0.000000 1.468710 0.000000 
#    z -0.008050 0.000000 1.479400 
# 
# From -- ./inp_files/168467.got.cif
#   From: 2010.05.17/outbox.cif.g08.bks.cpg/sg12_85_cif.got.tgz:168467.got - 2010.06.03 13:09:07.
