data_PCOD9177299
_publ_section_title
;
Structure prediction by ZEFSAII (Michael W. Deem and Ramdas Pophale) SiO2 
 PCOD9177299
Probable space group: C 2/M
;
_chemical_formula_sum "Si O2"
_cell_formula_units_Z 64
_cell_length_a 28.587688
_cell_length_b 8.926194
_cell_length_c 16.579994
_cell_angle_alpha 90.000000
_cell_angle_beta 87.258253
_cell_angle_gamma 90.000000
_cell_volume 4226.027287
_symmetry_space_group_name_H-M "C 2/M"
_symmetry_group_IT_number 12
_symmetry_cell_setting 'monoclinic'
loop_
_space_group_symop_operation_xyz
x,y,z
-x,y,-z
-x,-y,-z
x,-y,z
1/2+x,1/2+y,z
1/2-x,1/2+y,-z
1/2-x,1/2-y,-z
1/2+x,1/2-y,z
loop_
_atom_site_type_symbol
_atom_site_label
_atom_site_fract_x
_atom_site_fract_y
_atom_site_fract_z
Si Si1 0.288284 0.672347 0.106570
Si Si2 0.349104 0.678291 0.784479
Si Si3 0.419380 0.181222 0.652117
Si Si4 0.213835 0.179083 0.566448
Si Si5 0.517469 0.174181 0.591656
Si Si6 0.319528 0.172471 0.947855
Si Si7 0.243553 0.678015 0.731977
Si Si8 0.615056 0.181866 0.526373
O O1 0.300826 0.500000 0.121365
O O2 0.234778 0.673690 0.077394
O O3 0.286189 0.767498 0.188436
O O4 0.319441 0.742889 0.033116
O O5 0.354245 0.500000 0.789102
O O6 0.388757 0.748746 0.725084
O O7 0.347648 0.747875 0.873965
O O8 0.298106 0.708933 0.748564
O O9 0.473430 0.236938 0.644645
O O10 0.396338 0.214967 0.566628
O O11 0.419896 0.000000 0.659019
O O12 0.250000 0.250000 0.500000
O O13 0.228574 0.234043 0.653838
O O14 0.162496 0.241231 0.549734
O O15 0.215119 0.000000 0.561035
O O16 0.500000 0.174828 0.500000
O O17 0.570089 0.235153 0.582614
O O18 0.521926 0.000000 0.615093
O O19 0.333632 0.000000 0.955835
O O20 0.238301 0.500000 0.720597
O O21 0.618535 0.000000 0.532741
#
# Coordination Sequence:
#
# PCOD9177299 Si02
#       8
#     8   8   8   8   8   8   8   8
#     4   9  16  27  43  62  84 110 142 179 217 255
#     4  10  19  28  40  61  89 117 145 180 219 258
#     4   9  16  27  45  66  87 113 144 176 214 263
#     4  12  24  35  46  62  86 116 151 187 222 257
#     4   7  12  25  45  66  84 106 139 176 214 259
#     4   9  16  26  41  60  83 113 145 175 211 257
#     4  10  20  33  46  61  84 116 153 186 217 255
#     4   9  17  31  49  65  84 112 146 183 220 257
#
# _framework density 15.144246000000001
#
# number of rings (size 3 to 8) (size 9 to 14) (size 15 to 20)
#    0.000    2.625    0.000    4.875    0.000    7.000 
#    0.000    0.625    0.000    2.250    0.000    0.000 
#    0.000    1.000    0.000   10.750    0.000    5.250 
#
# Total GULP energy -178277.676106 kJ/mol
# GULP energy per Si atom -5571.177378 kJ/mol
# Density = 1.510978 g / cm^3
# Si number density = 15.144246 Si / 1000 Ang^3
#
#
#
# Elastic Constant Matrix: (Units=GPa)
#
#
# Indices 1 2 3 4 5 6 
#
# 1 89.0180 43.1540 55.3005 0.0000 -24.3609 0.0000
# 2 43.1540 63.4940 47.2333 0.0000 -13.7000 0.0000
# 3 55.3005 47.2333 110.4374 0.0000 -30.3653 0.0000
# 4 0.0000 0.0000 0.0000 26.5779 0.0000 -2.4897
# 5 -24.3609 -13.7000 -30.3653 0.0000 24.2242 0.0000
# 6 0.0000 0.0000 0.0000 -2.4897 0.0000 16.3413
#
#
#
# Elastic Compliance Matrix: (Units=1/GPa)
#
#
# Indices 1 2 3 4 5 6 
#
# 1 0.020999 -0.009267 -0.003336 0.000000 0.011695 0.000000
# 2 -0.009267 0.027205 -0.008129 0.000000 -0.004123 0.000000
# 3 -0.003336 -0.008129 0.018335 0.000000 0.015031 0.000000
# 4 0.000000 0.000000 0.000000 0.038170 0.000000 0.005815
# 5 0.011695 -0.004123 0.015031 0.000000 0.069551 0.000000
# 6 0.000000 0.000000 0.000000 0.005815 0.000000 0.062081
#
#
# Mechanical properties :
#
#
# Convention : Reuss Voigt Hill
#
# Bulk Modulus (GPa) = 39.87964 61.59165 50.73565
# Shear Modulus (GPa) = 17.47254 21.24612 19.35933
#
# Velocity S-wave (km/s) = 3.40036 3.74962 3.57925
# Velocity P-wave (km/s) = 6.46583 7.71391 7.11728
#
# Compressibility (1/GPa) = 0.02507545
#
# Stress axis : x y z
#
# Youngs Moduli (GPa) = 47.62131 36.75754 54.54099
#
# Poissons Ratio (x) = 0.34063 0.18196
# Poissons Ratio (y) = 0.44131 0.44335
# Poissons Ratio (z) = 0.15887 0.29879
#
# Static dielectric constant tensor:
#      x y z
#    x 1.501980 0.000000 -0.016510 
#    y 0.000000 1.507320 0.000000 
#    z -0.016510 0.000000 1.490960 
# 
# From -- ./inp_files/243930.got.cif
#   From: 2010.05.17/outbox.cif.g08.bks.cpg/sg12_122_cif.got.tgz:243930.got - 2010.06.03 13:09:07.
