data_PCOD9177359
_publ_section_title
;
Structure prediction by ZEFSAII (Michael W. Deem and Ramdas Pophale) SiO2 
 PCOD9177359
Probable space group: C 2/M
;
_chemical_formula_sum "Si O2"
_cell_formula_units_Z 40
_cell_length_a 25.288341
_cell_length_b 14.527404
_cell_length_c 11.183670
_cell_angle_alpha 90.000000
_cell_angle_beta 21.649039
_cell_angle_gamma 90.000000
_cell_volume 1515.741493
_symmetry_space_group_name_H-M "C 2/M"
_symmetry_group_IT_number 12
_symmetry_cell_setting 'monoclinic'
loop_
_space_group_symop_operation_xyz
x,y,z
-x,y,-z
-x,-y,-z
x,-y,z
1/2+x,1/2+y,z
1/2-x,1/2+y,-z
1/2-x,1/2-y,-z
1/2+x,1/2-y,z
loop_
_atom_site_type_symbol
_atom_site_label
_atom_site_fract_x
_atom_site_fract_y
_atom_site_fract_z
Si Si1 0.106413 0.302475 0.666977
Si Si2 0.362328 0.607137 0.993648
Si Si3 0.607882 0.400307 0.661483
Si Si4 0.456689 0.108192 0.768621
Si Si5 0.253537 0.105117 0.998353
O O1 0.243941 0.361325 0.338648
O O2 0.171437 0.200342 0.546377
O O3 0.999603 0.320370 0.779934
O O4 0.000000 0.325466 0.000000
O O5 0.329394 0.500000 0.042896
O O6 0.349963 0.648687 0.885080
O O7 0.514738 0.609949 0.736617
O O8 0.683404 0.500000 0.501972
O O9 0.500000 0.406286 0.000000
O O10 0.311598 0.137978 0.004811
O O11 0.596350 0.106295 0.390085
O O12 0.444992 0.000000 0.830045
O O13 0.205974 0.000000 0.122343
#
# Coordination Sequence:
#
# PCOD9177359 Si02
#       5
#     8   8   8   8   8
#     4  10  19  28  45  70  96 119 148 188 230 269
#     4   9  17  31  50  70  92 119 151 186 225 269
#     4   9  19  34  48  63  88 124 161 189 217 263
#     4   8  13  23  40  66  95 117 142 181 226 266
#     4   7  11  22  42  64  87 117 149 179 214 262
#
# _framework density 26.389724000000001
#
# number of rings (size 3 to 8) (size 9 to 14) (size 15 to 20)
#    0.000    3.400    0.000    3.000    0.000    4.800 
#    0.000    1.000    0.000    2.400    0.000   11.200 
#    0.000    0.000    0.000    2.400    0.000    0.000 
#
# Total GULP energy -111547.368584 kJ/mol
# GULP energy per Si atom -5577.368429 kJ/mol
# Density = 2.632966 g / cm^3
# Si number density = 26.389724 Si / 1000 Ang^3
#
#
#
# Elastic Constant Matrix: (Units=GPa)
#
#
# Indices 1 2 3 4 5 6 
#
# 1 91.7641 -0.3017 6.1388 0.0000 1.1738 0.0000
# 2 -0.3017 117.3891 1.4265 0.0000 12.3957 0.0000
# 3 6.1388 1.4265 132.4174 0.0000 3.7039 0.0000
# 4 0.0000 0.0000 0.0000 20.2288 0.0000 19.0200
# 5 1.1738 12.3957 3.7039 0.0000 11.9360 0.0000
# 6 0.0000 0.0000 0.0000 19.0200 0.0000 36.3615
#
#
#
# Elastic Compliance Matrix: (Units=1/GPa)
#
#
# Indices 1 2 3 4 5 6 
#
# 1 0.010944 0.000148 -0.000479 0.000000 -0.001081 0.000000
# 2 0.000148 0.009574 0.000170 0.000000 -0.010010 0.000000
# 3 -0.000479 0.000170 0.007642 0.000000 -0.002501 0.000000
# 4 0.000000 0.000000 0.000000 0.097278 0.000000 -0.050884
# 5 -0.001081 -0.010010 -0.002501 0.000000 0.095058 0.000000
# 6 0.000000 0.000000 0.000000 -0.050884 0.000000 0.054118
#
#
# Mechanical properties :
#
#
# Convention : Reuss Voigt Hill
#
# Bulk Modulus (GPa) = 35.92088 39.56640 37.74364
# Shear Modulus (GPa) = 17.59234 35.99240 26.79237
#
# Velocity S-wave (km/s) = 2.58473 3.69708 3.18977
# Velocity P-wave (km/s) = 4.74858 5.76630 5.28201
#
# Compressibility (1/GPa) = 0.02783896
#
# Stress axis : x y z
#
# Youngs Moduli (GPa) = 91.37547 104.44940 130.85246
#
# Poissons Ratio (x) = -0.01547 0.06264
# Poissons Ratio (y) = -0.01354 -0.02224
# Poissons Ratio (z) = 0.04374 -0.01776
#
# Static dielectric constant tensor:
#      x y z
#    x 2.218040 0.000000 -0.012590 
#    y 0.000000 2.060330 0.000000 
#    z -0.012590 0.000000 2.064040 
# 
# From -- ./inp_files/129292.got.cif
#   From: 2010.05.17/outbox.cif.g08.bks.cpg/sg12_65_cif.got.tgz:129292.got - 2010.06.03 13:09:07.
