data_PCOD9177214
_publ_section_title
;
Structure prediction by ZEFSAII (Michael W. Deem and Ramdas Pophale) SiO2 
 PCOD9177214
Probable space group: C 2/M
;
_chemical_formula_sum "Si O2"
_cell_formula_units_Z 36
_cell_length_a 15.298769
_cell_length_b 12.838954
_cell_length_c 6.871804
_cell_angle_alpha 90.000000
_cell_angle_beta 89.999984
_cell_angle_gamma 90.000000
_cell_volume 1349.761057
_symmetry_space_group_name_H-M "C 2/M"
_symmetry_group_IT_number 12
_symmetry_cell_setting 'monoclinic'
loop_
_space_group_symop_operation_xyz
x,y,z
-x,y,-z
-x,-y,-z
x,-y,z
1/2+x,1/2+y,z
1/2-x,1/2+y,-z
1/2-x,1/2-y,-z
1/2+x,1/2-y,z
loop_
_atom_site_type_symbol
_atom_site_label
_atom_site_fract_x
_atom_site_fract_y
_atom_site_fract_z
Si Si1 0.336032 0.616373 0.415622
Si Si2 0.500000 0.000000 0.500000
Si Si3 0.866765 0.838054 0.965940
Si Si4 0.633235 0.838054 0.465940
Si Si5 0.000000 0.000000 0.000000
Si Si6 0.163968 0.383627 0.915622
O O1 0.353838 0.500000 0.484443
O O2 0.368255 0.627748 0.194692
O O3 0.372796 0.713272 0.537736
O O4 0.231068 0.632365 0.400622
O O5 0.556971 0.908539 0.386610
O O6 0.872796 0.713272 0.962264
O O7 0.768932 0.867635 0.900621
O O8 0.943029 0.908539 0.886610
O O9 0.631745 0.872252 0.694692
O O10 0.146162 0.500000 0.984443
#
# Coordination Sequence:
#
# PCOD9177214 Si02
#       6
#     8   2   8   8   2   8
#     4  10  18  40  61  90 109 164 199 241 275 390
#     4  12  20  40  54  94 120 162 176 268 300 352
#     4  10  22  34  68  84 123 153 204 238 310 337
#     4  10  22  34  68  84 123 153 204 238 310 337
#     4  12  20  40  54  94 120 162 176 268 300 352
#     4  10  18  40  61  90 109 164 199 241 275 390
#
# _framework density 26.671389000000001
#
# number of rings (size 3 to 8) (size 9 to 14) (size 15 to 20)
#    0.000    1.778    4.444    0.000    0.000    0.000 
#    0.000   18.889    0.000    0.000    0.000    0.000 
#    0.000    0.000    0.000    0.000    0.000    0.000 
#
# Total GULP energy -100358.955562 kJ/mol
# GULP energy per Si atom -5575.497531 kJ/mol
# Density = 2.661068 g / cm^3
# Si number density = 26.671389 Si / 1000 Ang^3
#
#
#
# Elastic Constant Matrix: (Units=GPa)
#
#
# Indices 1 2 3 4 5 6 
#
# 1 111.2396 70.8239 26.2127 0.0000 0.0001 0.0000
# 2 70.8239 329.5766 19.4900 0.0000 0.0000 0.0000
# 3 26.2127 19.4900 58.6994 0.0000 0.0000 0.0000
# 4 0.0000 0.0000 0.0000 7.9611 0.0000 -0.0001
# 5 0.0001 0.0000 0.0000 0.0000 21.4343 0.0000
# 6 0.0000 0.0000 0.0000 -0.0001 0.0000 39.3882
#
#
#
# Elastic Compliance Matrix: (Units=1/GPa)
#
#
# Indices 1 2 3 4 5 6 
#
# 1 0.011417 -0.002195 -0.004369 0.000000 0.000000 0.000000
# 2 -0.002195 0.003517 -0.000188 0.000000 0.000000 0.000000
# 3 -0.004369 -0.000188 0.019049 0.000000 0.000000 0.000000
# 4 0.000000 0.000000 0.000000 0.125610 0.000000 0.000000
# 5 0.000000 0.000000 0.000000 0.000000 0.046654 0.000000
# 6 0.000000 0.000000 0.000000 0.000000 0.000000 0.025388
#
#
# Mechanical properties :
#
#
# Convention : Reuss Voigt Hill
#
# Bulk Modulus (GPa) = 48.83005 81.39653 65.11329
# Shear Modulus (GPa) = 19.84393 39.28932 29.56663
#
# Velocity S-wave (km/s) = 2.73062 3.84225 3.33310
# Velocity P-wave (km/s) = 5.31879 7.09002 6.26729
#
# Compressibility (1/GPa) = 0.02047919
#
# Stress axis : x y z
#
# Youngs Moduli (GPa) = 87.59084 284.33516 52.49501
#
# Poissons Ratio (x) = 0.62411 0.22937
# Poissons Ratio (y) = 0.19226 0.00985
# Poissons Ratio (z) = 0.38272 0.05333
#
# Static dielectric constant tensor:
#      x y z
#    x 2.176470 0.000000 0.000000 
#    y 0.000000 2.045110 0.000000 
#    z 0.000000 0.000000 2.257940 
# 
# From -- ./inp_files/58568.got.cif
#   From: 2010.05.17/outbox.cif.g08.bks.cpg/sg12_30_cif.got.tgz:58568.got - 2010.06.03 13:09:07.
