data_PCOD9177207
_publ_section_title
;
Structure prediction by ZEFSAII (Michael W. Deem and Ramdas Pophale) SiO2 
 PCOD9177207
Probable space group: C 2/M
;
_chemical_formula_sum "Si O2"
_cell_formula_units_Z 48
_cell_length_a 15.743268
_cell_length_b 27.685843
_cell_length_c 7.091256
_cell_angle_alpha 90.000000
_cell_angle_beta 41.990952
_cell_angle_gamma 90.000000
_cell_volume 2067.809464
_symmetry_space_group_name_H-M "C 2/M"
_symmetry_group_IT_number 12
_symmetry_cell_setting 'monoclinic'
loop_
_space_group_symop_operation_xyz
x,y,z
-x,y,-z
-x,-y,-z
x,-y,z
1/2+x,1/2+y,z
1/2-x,1/2+y,-z
1/2-x,1/2-y,-z
1/2+x,1/2-y,z
loop_
_atom_site_type_symbol
_atom_site_label
_atom_site_fract_x
_atom_site_fract_y
_atom_site_fract_z
Si Si1 0.378776 0.676892 0.954513
Si Si2 0.351336 0.772000 0.180063
Si Si3 0.658576 0.350158 0.544710
Si Si4 0.375343 0.552151 0.588847
Si Si5 0.023449 0.558107 0.739743
Si Si6 0.194933 0.406875 0.156039
O O1 0.349526 0.733961 0.010716
O O2 0.360753 0.660166 0.202580
O O3 0.280496 0.641437 0.013393
O O4 0.528141 0.669928 0.665290
O O5 0.250000 0.750000 0.500000
O O6 0.285425 0.823614 0.263788
O O7 0.500000 0.774356 0.000000
O O8 0.660031 0.406382 0.496792
O O9 0.386699 0.500000 0.478816
O O10 0.074173 0.591315 0.216994
O O11 0.275137 0.552019 0.921942
O O12 0.010568 0.500000 0.722306
O O13 0.154352 0.576983 0.432260
O O14 0.000000 0.564539 0.000000
O O15 0.000000 0.064617 0.500000
#
# Coordination Sequence:
#
# PCOD9177207 Si02
#       6
#     8   8   8   8   8   8
#     4  10  20  39  68 100 142 185 237 306 367 443
#     4  10  18  39  69 103 141 192 241 303 375 438
#     4  10  21  41  66 100 146 190 242 302 366 435
#     4  11  23  41  65  94 137 193 242 299 362 422
#     4  10  23  45  69  94 136 194 250 309 373 436
#     4  11  22  42  66  99 144 182 241 307 358 430
#
# _framework density 23.212969999999999
#
# number of rings (size 3 to 8) (size 9 to 14) (size 15 to 20)
#    0.000    1.667    5.000    2.000    2.333    0.000 
#   12.000    4.167    3.667    0.500    0.000    0.000 
#    0.000    0.000    0.000    0.000    0.000    0.000 
#
# Total GULP energy -133855.157062 kJ/mol
# GULP energy per Si atom -5577.298211 kJ/mol
# Density = 2.316014 g / cm^3
# Si number density = 23.212970 Si / 1000 Ang^3
#
#
#
# Elastic Constant Matrix: (Units=GPa)
#
#
# Indices 1 2 3 4 5 6 
#
# 1 98.7580 51.8924 33.7123 0.0000 -10.1481 0.0000
# 2 51.8924 121.5925 -1.1556 0.0000 -19.1858 0.0000
# 3 33.7123 -1.1556 91.2822 0.0000 -19.2384 0.0000
# 4 0.0000 0.0000 0.0000 30.9229 0.0000 -0.9750
# 5 -10.1481 -19.1858 -19.2384 0.0000 38.0540 0.0000
# 6 0.0000 0.0000 0.0000 -0.9750 0.0000 49.1539
#
#
#
# Elastic Compliance Matrix: (Units=1/GPa)
#
#
# Indices 1 2 3 4 5 6 
#
# 1 0.015904 -0.007282 -0.006543 0.000000 -0.002738 0.000000
# 2 -0.007282 0.012386 0.004200 0.000000 0.006426 0.000000
# 3 -0.006543 0.004200 0.015114 0.000000 0.008014 0.000000
# 4 0.000000 0.000000 0.000000 0.032359 0.000000 0.000642
# 5 -0.002738 0.006426 0.008014 0.000000 0.032840 0.000000
# 6 0.000000 0.000000 0.000000 0.000642 0.000000 0.020357
#
#
# Mechanical properties :
#
#
# Convention : Reuss Voigt Hill
#
# Bulk Modulus (GPa) = 41.39890 53.39232 47.39561
# Shear Modulus (GPa) = 31.99828 38.77173 35.38500
#
# Velocity S-wave (km/s) = 3.71680 4.09132 3.90855
# Velocity P-wave (km/s) = 6.02433 6.73569 6.38992
#
# Compressibility (1/GPa) = 0.02415523
#
# Stress axis : x y z
#
# Youngs Moduli (GPa) = 62.87714 80.73839 66.16574
#
# Poissons Ratio (x) = 0.58790 0.43291
# Poissons Ratio (y) = 0.45784 -0.27792
# Poissons Ratio (z) = 0.41140 -0.33913
#
# Static dielectric constant tensor:
#      x y z
#    x 1.917290 0.000000 0.001880 
#    y 0.000000 1.928010 0.000000 
#    z 0.001880 0.000000 1.880590 
# 
# From -- ./inp_files/91367.got.cif
#   From: 2010.05.17/outbox.cif.g08.bks.cpg/sg12_46_cif.got.tgz:91367.got - 2010.06.03 13:09:07.
