data_PCOD9177928
_publ_section_title
;
Structure prediction by ZEFSAII (Michael W. Deem and Ramdas Pophale) SiO2 
 PCOD9177928
Probable space group: C 2/M
;
_chemical_formula_sum "Si O2"
_cell_formula_units_Z 64
_cell_length_a 6.984812
_cell_length_b 17.684502
_cell_length_c 22.091609
_cell_angle_alpha 90.000000
_cell_angle_beta 101.218199
_cell_angle_gamma 90.000000
_cell_volume 2676.681646
_symmetry_space_group_name_H-M "C 2/M"
_symmetry_group_IT_number 12
_symmetry_cell_setting 'monoclinic'
loop_
_space_group_symop_operation_xyz
x,y,z
-x,y,-z
-x,-y,-z
x,-y,z
1/2+x,1/2+y,z
1/2-x,1/2+y,-z
1/2-x,1/2-y,-z
1/2+x,1/2-y,z
loop_
_atom_site_type_symbol
_atom_site_label
_atom_site_fract_x
_atom_site_fract_y
_atom_site_fract_z
Si Si1 0.731357 0.908330 0.514894
Si Si2 0.269911 0.088416 0.352271
Si Si3 0.234464 0.412241 0.887595
Si Si4 0.753258 0.846588 0.256853
Si Si5 0.261795 0.085414 0.867708
Si Si6 0.706340 0.170621 0.765967
Si Si7 0.230153 0.338529 0.011067
Si Si8 0.746682 0.088774 0.383685
O O1 0.500000 0.891322 0.500000
O O2 0.800657 0.884403 0.585812
O O3 0.810028 0.882737 0.454296
O O4 0.749922 0.000000 0.515456
O O5 0.206431 0.136042 0.290223
O O6 0.508380 0.091718 0.369665
O O7 0.220184 0.000000 0.341025
O O8 0.282925 0.500000 0.880446
O O9 0.292445 0.360871 0.833851
O O10 0.306590 0.382601 0.956917
O O11 0.997400 0.407566 0.876810
O O12 0.816327 0.897288 0.203994
O O13 0.518734 0.854736 0.246585
O O14 0.791534 0.760536 0.240180
O O15 0.818539 0.868931 0.328180
O O16 0.219321 0.000000 0.883311
O O17 0.194325 0.139052 0.918019
O O18 0.250000 0.250000 0.000000
O O19 0.000000 0.356733 0.000000
O O20 0.798193 0.000000 0.381739
#
# Coordination Sequence:
#
# PCOD9177928 Si02
#       8
#     8   8   8   8   8   8   8   8
#     4   7  10  18  35  60  85 105 134 181 224 250
#     4   8  13  23  41  63  84 109 144 183 218 252
#     4   9  17  30  49  70  88 112 151 190 216 245
#     4  10  19  30  45  65  90 117 144 178 219 262
#     4   9  17  30  49  70  88 112 151 190 216 245
#     4  10  19  30  45  65  90 117 144 178 219 262
#     4  10  19  31  49  71  95 120 144 176 218 262
#     4   8  13  23  41  63  84 109 144 183 218 252
#
# _framework density 23.9102
#
# number of rings (size 3 to 8) (size 9 to 14) (size 15 to 20)
#    0.000    3.125    0.000    3.375    0.000    4.500 
#    0.000    0.625    0.000    6.000    0.000    0.000 
#    0.000    3.000    0.000    0.000    0.000    0.000 
#
# Total GULP energy -178853.237959 kJ/mol
# GULP energy per Si atom -5589.163686 kJ/mol
# Density = 2.385578 g / cm^3
# Si number density = 23.910200 Si / 1000 Ang^3
#
#
#
# Elastic Constant Matrix: (Units=GPa)
#
#
# Indices 1 2 3 4 5 6 
#
# 1 92.5049 -16.1533 33.1592 0.0000 -9.1093 0.0000
# 2 -16.1533 84.8776 77.1108 0.0000 -12.9132 0.0000
# 3 33.1592 77.1108 225.0073 0.0000 -13.2865 0.0000
# 4 0.0000 0.0000 0.0000 5.5480 0.0000 -35.0979
# 5 -9.1093 -12.9132 -13.2865 0.0000 44.3929 0.0000
# 6 0.0000 0.0000 0.0000 -35.0979 0.0000 8.2059
#
#
#
# Elastic Compliance Matrix: (Units=1/GPa)
#
#
# Indices 1 2 3 4 5 6 
#
# 1 0.013934 0.007081 -0.004265 0.000000 0.003642 0.000000
# 2 0.007081 0.021189 -0.007996 0.000000 0.005223 0.000000
# 3 -0.004265 -0.007996 0.007761 0.000000 -0.000878 0.000000
# 4 0.000000 0.000000 0.000000 -0.006917 0.000000 -0.029585
# 5 0.003642 0.005223 -0.000878 0.000000 0.024530 0.000000
# 6 0.000000 0.000000 0.000000 -0.029585 0.000000 -0.004677
#
#
# Mechanical properties :
#
#
# Convention : Reuss Voigt Hill
#
# Bulk Modulus (GPa) = 30.74771 65.62478 48.18624
# Shear Modulus (GPa) = 64.91572 32.18092 48.54832
#
# Velocity S-wave (km/s) = 5.21620 3.67264 4.51093
# Velocity P-wave (km/s) = 7.01184 6.74465 6.87954
#
# Compressibility (1/GPa) = 0.03252275
#
# Stress axis : x y z
#
# Youngs Moduli (GPa) = 71.76598 47.19511 128.84302
#
# Poissons Ratio (x) = -0.33418 0.54951
# Poissons Ratio (y) = -0.50816 1.03029
# Poissons Ratio (z) = 0.30608 0.37739
#
# Static dielectric constant tensor:
#      x y z
#    x 1.781460 0.000000 -0.348860 
#    y 0.000000 1.831490 0.000000 
#    z -0.348860 0.000000 1.374090 
# 
# From -- ./inp_files/305830.got.cif
#   From: 2010.05.17/outbox.cif.g08.bks.cpg/sg12_153_cif.got.tgz:305830.got - 2010.06.03 13:09:07.
