data_PCOD9177821
_publ_section_title
;
Structure prediction by ZEFSAII (Michael W. Deem and Ramdas Pophale) SiO2 
 PCOD9177821
Probable space group: C 2/M
;
_chemical_formula_sum "Si O2"
_cell_formula_units_Z 64
_cell_length_a 29.738203
_cell_length_b 7.644550
_cell_length_c 14.726985
_cell_angle_alpha 90.000000
_cell_angle_beta 106.772528
_cell_angle_gamma 90.000000
_cell_volume 3205.532697
_symmetry_space_group_name_H-M "C 2/M"
_symmetry_group_IT_number 12
_symmetry_cell_setting 'monoclinic'
loop_
_space_group_symop_operation_xyz
x,y,z
-x,y,-z
-x,-y,-z
x,-y,z
1/2+x,1/2+y,z
1/2-x,1/2+y,-z
1/2-x,1/2-y,-z
1/2+x,1/2-y,z
loop_
_atom_site_type_symbol
_atom_site_label
_atom_site_fract_x
_atom_site_fract_y
_atom_site_fract_z
Si Si1 0.898326 0.798622 0.284024
Si Si2 0.995655 0.792621 0.393947
Si Si3 0.843378 0.789498 0.764499
Si Si4 0.700633 0.292632 0.081250
Si Si5 0.906887 0.292662 0.642268
Si Si6 0.850776 0.712904 0.436886
Si Si7 0.751848 0.209525 0.607286
Si Si8 0.805647 0.787606 0.129226
O O1 0.950510 0.719519 0.313162
O O2 0.885308 0.789226 0.382556
O O3 0.852725 0.722526 0.206446
O O4 0.901157 0.000000 0.254107
O O5 0.000000 0.721416 0.500000
O O6 0.043231 0.772474 0.364905
O O7 0.986557 0.000000 0.398655
O O8 0.834430 0.724642 0.861657
O O9 0.889623 0.749866 0.733336
O O10 0.798561 0.720785 0.681286
O O11 0.840422 0.000000 0.766200
O O12 0.692936 0.500000 0.069835
O O13 0.755237 0.266836 0.140642
O O14 0.694518 0.223465 0.975584
O O15 0.908537 0.500000 0.635819
O O16 0.867681 0.230577 0.546572
O O17 0.852289 0.500000 0.433477
O O18 0.798095 0.772847 0.384350
O O19 0.750000 0.250000 0.500000
O O20 0.752413 0.000000 0.618347
O O21 0.805628 0.000000 0.131005
#
# Coordination Sequence:
#
# PCOD9177821 Si02
#       8
#     8   8   8   8   8   8   8   8
#     4  10  20  33  52  76 100 130 167 209 253 298
#     4  10  20  35  53  72  99 134 172 211 253 303
#     4  10  20  33  51  71  98 138 174 203 245 303
#     4   9  18  34  55  78 106 137 168 204 250 304
#     4  11  22  34  50  72 100 132 170 213 252 296
#     4  10  20  32  46  69 101 133 165 203 247 296
#     4  10  19  30  43  64  95 130 164 195 232 284
#     4   9  18  33  54  81 107 131 166 211 254 297
#
# _framework density 19.965479999999999
#
# number of rings (size 3 to 8) (size 9 to 14) (size 15 to 20)
#    0.000    2.125    2.500    1.125    0.000    3.750 
#    0.000    0.000    0.000    0.750    0.000    5.250 
#    0.000    0.000    0.000    0.000    0.000    0.000 
#
# Total GULP energy -178503.340342 kJ/mol
# GULP energy per Si atom -5578.229386 kJ/mol
# Density = 1.992004 g / cm^3
# Si number density = 19.965480 Si / 1000 Ang^3
#
#
#
# Elastic Constant Matrix: (Units=GPa)
#
#
# Indices 1 2 3 4 5 6 
#
# 1 127.2572 -6.7720 38.0855 0.0000 -11.8017 0.0000
# 2 -6.7720 35.7852 -5.6539 0.0000 3.3369 0.0000
# 3 38.0855 -5.6539 70.5950 0.0000 -8.2079 0.0000
# 4 0.0000 0.0000 0.0000 9.3294 0.0000 -0.5308
# 5 -11.8017 3.3369 -8.2079 0.0000 27.9155 0.0000
# 6 0.0000 0.0000 0.0000 -0.5308 0.0000 15.4196
#
#
#
# Elastic Compliance Matrix: (Units=1/GPa)
#
#
# Indices 1 2 3 4 5 6 
#
# 1 0.009575 0.000816 -0.004805 0.000000 0.002538 0.000000
# 2 0.000816 0.028587 0.001545 0.000000 -0.002618 0.000000
# 3 -0.004805 0.001545 0.017212 0.000000 0.002845 0.000000
# 4 0.000000 0.000000 0.000000 0.107399 0.000000 0.003697
# 5 0.002538 -0.002618 0.002845 0.000000 0.038045 0.000000
# 6 0.000000 0.000000 0.000000 0.003697 0.000000 0.064980
#
#
# Mechanical properties :
#
#
# Convention : Reuss Voigt Hill
#
# Bulk Modulus (GPa) = 19.80754 31.66184 25.73469
# Shear Modulus (GPa) = 17.39041 24.39807 20.89424
#
# Velocity S-wave (km/s) = 2.95451 3.49952 3.23850
# Velocity P-wave (km/s) = 4.64557 5.67641 5.18666
#
# Compressibility (1/GPa) = 0.05048583
#
# Stress axis : x y z
#
# Youngs Moduli (GPa) = 104.43904 34.98072 58.09845
#
# Poissons Ratio (x) = -0.02855 0.27918
# Poissons Ratio (y) = -0.08524 -0.08975
# Poissons Ratio (z) = 0.50185 -0.05404
#
# Static dielectric constant tensor:
#      x y z
#    x 1.736850 0.000000 0.005530 
#    y 0.000000 1.739300 0.000000 
#    z 0.005530 0.000000 1.727580 
# 
# From -- ./inp_files/244108.got.cif
#   From: 2010.05.17/outbox.cif.g08.bks.cpg/sg12_123_cif.got.tgz:244108.got - 2010.06.03 13:09:07.
