data_PCOD9177432
_publ_section_title
;
Structure prediction by ZEFSAII (Michael W. Deem and Ramdas Pophale) SiO2 
 PCOD9177432
Probable space group: C 2/M
;
_chemical_formula_sum "Si O2"
_cell_formula_units_Z 64
_cell_length_a 34.859448
_cell_length_b 13.911670
_cell_length_c 9.133571
_cell_angle_alpha 90.000000
_cell_angle_beta 90.000000
_cell_angle_gamma 90.000000
_cell_volume 4429.353908
_symmetry_space_group_name_H-M "C 2/M"
_symmetry_group_IT_number 12
_symmetry_cell_setting 'monoclinic'
loop_
_space_group_symop_operation_xyz
x,y,z
-x,y,-z
-x,-y,-z
x,-y,z
1/2+x,1/2+y,z
1/2-x,1/2+y,-z
1/2-x,1/2-y,-z
1/2+x,1/2-y,z
loop_
_atom_site_type_symbol
_atom_site_label
_atom_site_fract_x
_atom_site_fract_y
_atom_site_fract_z
Si Si1 0.117730 0.614818 0.423983
Si Si2 0.770872 0.111462 0.924710
Si Si3 0.038687 0.383063 0.918859
Si Si4 0.461313 0.116937 0.418859
Si Si5 0.882270 0.614818 0.923983
Si Si6 0.309945 0.212607 0.424297
Si Si7 0.729128 0.611462 0.424710
Si Si8 0.809945 0.287393 0.075703
O O1 0.122479 0.500000 0.449077
O O2 0.077333 0.644404 0.496271
O O3 0.116783 0.630617 0.250000
O O4 0.152921 0.669956 0.497383
O O5 0.777227 0.122982 0.750000
O O6 0.727047 0.144597 0.953570
O O7 0.776012 0.000000 0.962860
O O8 0.798098 0.183776 0.012208
O O9 0.037818 0.500000 0.919086
O O10 0.039521 0.351988 0.750000
O O11 0.077333 0.355596 0.003730
O O12 0.000000 0.350631 0.000000
O O13 0.500000 0.149369 0.500000
O O14 0.462182 0.000000 0.419086
O O15 0.877521 0.500000 0.949076
O O16 0.847079 0.669956 0.997383
O O17 0.298098 0.316223 0.487792
O O18 0.272953 0.144596 0.453570
O O19 0.315652 0.216516 0.250000
O O20 0.723987 0.500000 0.462860
#
# Coordination Sequence:
#
# PCOD9177432 Si02
#       8
#     8   8   8   8   8   8   8   8
#     4  10  19  29  42  61  86 116 148 180 214 254
#     4   9  18  32  47  62  84 114 145 178 217 259
#     4   9  16  26  40  58  82 112 144 176 211 252
#     4   9  16  26  40  58  82 112 144 176 211 252
#     4  10  19  29  42  61  86 116 148 180 214 254
#     4  10  19  30  45  65  87 111 143 181 218 257
#     4   9  18  32  47  62  84 114 145 178 217 259
#     4  10  19  30  45  65  87 111 143 181 218 257
#
# _framework density 14.449059
#
# number of rings (size 3 to 8) (size 9 to 14) (size 15 to 20)
#    0.000    2.500    0.000    3.000    0.000    7.000 
#    0.000    0.000    0.000    0.000    0.000    0.000 
#    0.000    1.000    0.000    3.750    0.000    5.750 
#
# Total GULP energy -178429.847236 kJ/mol
# GULP energy per Si atom -5575.932726 kJ/mol
# Density = 1.441617 g / cm^3
# Si number density = 14.449059 Si / 1000 Ang^3
#
#
#
# Elastic Constant Matrix: (Units=GPa)
#
#
# Indices 1 2 3 4 5 6 
#
# 1 149.9131 56.5513 92.7391 0.0000 -0.4307 0.0000
# 2 56.5513 71.2264 56.7531 0.0000 -0.0190 0.0000
# 3 92.7391 56.7531 105.5991 0.0000 4.6084 0.0000
# 4 0.0000 0.0000 0.0000 19.9558 0.0000 0.0071
# 5 -0.4307 -0.0190 4.6084 0.0000 30.3965 0.0000
# 6 0.0000 0.0000 0.0000 0.0071 0.0000 20.0308
#
#
#
# Elastic Compliance Matrix: (Units=1/GPa)
#
#
# Indices 1 2 3 4 5 6 
#
# 1 0.014967 -0.002342 -0.011974 0.000000 0.002026 0.000000
# 2 -0.002342 0.025046 -0.011479 0.000000 0.001723 0.000000
# 3 -0.011974 -0.011479 0.026337 0.000000 -0.004170 0.000000
# 4 0.000000 0.000000 0.000000 0.050111 0.000000 -0.000018
# 5 0.002026 0.001723 -0.004170 0.000000 0.033560 0.000000
# 6 0.000000 0.000000 0.000000 -0.000018 0.000000 0.049923
#
#
# Mechanical properties :
#
#
# Convention : Reuss Voigt Hill
#
# Bulk Modulus (GPa) = 67.75199 82.09176 74.92187
# Shear Modulus (GPa) = 19.49645 22.12296 20.80971
#
# Velocity S-wave (km/s) = 3.67730 3.91717 3.79913
# Velocity P-wave (km/s) = 8.06363 8.79755 8.43857
#
# Compressibility (1/GPa) = 0.01475971
#
# Stress axis : x y z
#
# Youngs Moduli (GPa) = 66.81189 39.92601 37.96869
#
# Poissons Ratio (x) = 0.09350 0.45466
# Poissons Ratio (y) = 0.15646 0.43586
# Poissons Ratio (z) = 0.80004 0.45833
#
# Static dielectric constant tensor:
#      x y z
#    x 1.459660 0.000000 -0.001850 
#    y 0.000000 1.447810 0.000000 
#    z -0.001850 0.000000 1.479310 
# 
# From -- ./inp_files/111239.got.cif
#   From: 2010.05.17/outbox.cif.g08.bks.cpg/sg12_56_cif.got.tgz:111239.got - 2010.06.03 13:09:07.
