data_PCOD9177770
_publ_section_title
;
Structure prediction by ZEFSAII (Michael W. Deem and Ramdas Pophale) SiO2 
 PCOD9177770
Probable space group: C 2/M
;
_chemical_formula_sum "Si O2"
_cell_formula_units_Z 58
_cell_length_a 25.608632
_cell_length_b 13.669051
_cell_length_c 8.611530
_cell_angle_alpha 90.000000
_cell_angle_beta 61.207540
_cell_angle_gamma 90.000000
_cell_volume 2641.755372
_symmetry_space_group_name_H-M "C 2/M"
_symmetry_group_IT_number 12
_symmetry_cell_setting 'monoclinic'
loop_
_space_group_symop_operation_xyz
x,y,z
-x,y,-z
-x,-y,-z
x,-y,z
1/2+x,1/2+y,z
1/2-x,1/2+y,-z
1/2-x,1/2-y,-z
1/2+x,1/2-y,z
loop_
_atom_site_type_symbol
_atom_site_label
_atom_site_fract_x
_atom_site_fract_y
_atom_site_fract_z
Si Si1 0.568158 0.295387 0.223471
Si Si2 0.366046 0.776015 0.308552
Si Si3 0.287750 0.893347 0.951009
Si Si4 0.000000 0.500000 0.500000
Si Si5 0.055870 0.391025 0.034802
Si Si6 0.602269 0.843675 0.414071
Si Si7 0.694726 0.702279 0.878508
Si Si8 0.464543 0.608070 0.214015
O O1 0.582614 0.262700 0.376764
O O2 0.515603 0.370281 0.267653
O O3 0.547455 0.194144 0.170437
O O4 0.629569 0.321631 0.046166
O O5 0.389413 0.856331 0.150289
O O6 0.361476 0.829498 0.479050
O O7 0.313869 0.719431 0.292147
O O8 0.417113 0.694638 0.265028
O O9 0.352473 0.884200 0.780258
O O10 0.240491 0.875420 0.881183
O O11 0.279823 0.000000 0.032625
O O12 0.283499 0.805332 0.078868
O O13 0.046100 0.414840 0.502965
O O14 0.061739 0.500000 0.096244
O O15 0.000000 0.392633 0.000000
O O16 0.438043 0.500000 0.274577
O O17 0.500000 0.608805 0.000000
#
# Coordination Sequence:
#
# PCOD9177770 Si02
#       8
#     8   8   8   2   8   8   8   8
#     4  10  19  39  53  86 115 157 196 244 289 354
#     4  11  21  39  52  90 120 155 195 242 293 363
#     4  10  21  43  61  89 113 152 199 255 293 359
#     4  12  24  36  52  94 118 180 184 224 296 384
#     4  10  19  29  51  76 116 155 192 236 292 345
#     4  11  25  35  60  80 130 154 195 232 301 369
#     4   9  21  37  66  81 114 154 200 247 308 336
#     4  11  20  35  59  84 117 150 200 250 292 334
#
# _framework density 21.955099000000001
#
# number of rings (size 3 to 8) (size 9 to 14) (size 15 to 20)
#    0.000    1.655    4.828    0.828    1.931    4.966 
#    0.000    1.379    0.000    3.310    0.000    0.000 
#    0.000    0.000    0.000    0.000    0.000    0.000 
#
# Total GULP energy -161779.003954 kJ/mol
# GULP energy per Si atom -5578.586343 kJ/mol
# Density = 2.190513 g / cm^3
# Si number density = 21.955099 Si / 1000 Ang^3
#
#
#
# Elastic Constant Matrix: (Units=GPa)
#
#
# Indices 1 2 3 4 5 6 
#
# 1 101.0236 6.9450 -2.9776 0.0000 21.1021 0.0000
# 2 6.9450 70.2144 -9.4268 0.0000 -11.3721 0.0000
# 3 -2.9776 -9.4268 43.3315 0.0000 20.0317 0.0000
# 4 0.0000 0.0000 0.0000 12.2103 0.0000 4.6389
# 5 21.1021 -11.3721 20.0317 0.0000 32.1191 0.0000
# 6 0.0000 0.0000 0.0000 4.6389 0.0000 19.6556
#
#
#
# Elastic Compliance Matrix: (Units=1/GPa)
#
#
# Indices 1 2 3 4 5 6 
#
# 1 0.013145 -0.002627 0.006680 0.000000 -0.013732 0.000000
# 2 -0.002627 0.015674 -0.000188 0.000000 0.007393 0.000000
# 3 0.006680 -0.000188 0.035908 0.000000 -0.026850 0.000000
# 4 0.000000 0.000000 0.000000 0.089965 0.000000 -0.021232
# 5 -0.013732 0.007393 -0.026850 0.000000 0.059519 0.000000
# 6 0.000000 0.000000 0.000000 -0.021232 0.000000 0.055887
#
#
# Mechanical properties :
#
#
# Convention : Reuss Voigt Hill
#
# Bulk Modulus (GPa) = 13.80163 22.62786 18.21475
# Shear Modulus (GPa) = 17.45067 27.46561 22.45814
#
# Velocity S-wave (km/s) = 2.82234 3.54077 3.20177
# Velocity P-wave (km/s) = 4.11348 5.20047 4.68858
#
# Compressibility (1/GPa) = 0.07245521
#
# Stress axis : x y z
#
# Youngs Moduli (GPa) = 76.07670 63.79945 27.84856
#
# Poissons Ratio (x) = 0.16763 -0.18603
# Poissons Ratio (y) = 0.19989 0.00525
# Poissons Ratio (z) = -0.50819 0.01202
#
# Static dielectric constant tensor:
#      x y z
#    x 1.843180 0.000000 -0.005390 
#    y 0.000000 1.817480 0.000000 
#    z -0.005390 0.000000 1.913840 
# 
# From -- ./inp_files/104039.got.cif
#   From: 2010.05.17/outbox.cif.g08.bks.cpg/sg12_53_cif.got.tgz:104039.got - 2010.06.03 13:09:07.
