data_PCOD9177648
_publ_section_title
;
Structure prediction by ZEFSAII (Michael W. Deem and Ramdas Pophale) SiO2 
 PCOD9177648
Probable space group: C 2/M
;
_chemical_formula_sum "Si O2"
_cell_formula_units_Z 48
_cell_length_a 30.967761
_cell_length_b 9.263225
_cell_length_c 10.385211
_cell_angle_alpha 90.000000
_cell_angle_beta 102.680732
_cell_angle_gamma 90.000000
_cell_volume 2906.450190
_symmetry_space_group_name_H-M "C 2/M"
_symmetry_group_IT_number 12
_symmetry_cell_setting 'monoclinic'
loop_
_space_group_symop_operation_xyz
x,y,z
-x,y,-z
-x,-y,-z
x,-y,z
1/2+x,1/2+y,z
1/2-x,1/2+y,-z
1/2-x,1/2-y,-z
1/2+x,1/2-y,z
loop_
_atom_site_type_symbol
_atom_site_label
_atom_site_fract_x
_atom_site_fract_y
_atom_site_fract_z
Si Si1 0.612675 0.170384 0.284408
Si Si2 0.297911 0.333451 0.678232
Si Si3 0.965576 0.828105 0.362484
Si Si4 0.476296 0.328400 0.849430
Si Si5 0.879673 0.670409 0.401496
Si Si6 0.290126 0.333413 0.360284
O O1 0.656557 0.251007 0.263530
O O2 0.568547 0.239847 0.198315
O O3 0.611670 0.189621 0.439256
O O4 0.615349 0.000000 0.260465
O O5 0.299048 0.500000 0.720416
O O6 0.293358 0.333241 0.518975
O O7 0.254969 0.250101 0.702112
O O8 0.920837 0.740345 0.354875
O O9 0.000000 0.795388 0.500000
O O10 0.990215 0.795463 0.245337
O O11 0.956072 0.000000 0.361654
O O12 0.466071 0.500000 0.835133
O O13 0.500000 0.299554 0.000000
O O14 0.875917 0.500000 0.374512
O O15 0.833757 0.750971 0.341294
O O16 0.289144 0.500000 0.318248
#
# Coordination Sequence:
#
# PCOD9177648 Si02
#       6
#     8   8   8   8   8   8
#     4  10  19  30  46  69  97 129 165 203 245 292
#     4   9  16  26  42  64  94 129 163 199 243 292
#     4  10  19  32  51  72  95 127 166 204 246 294
#     4  10  21  36  52  71  97 129 166 207 249 293
#     4  10  19  29  45  70  99 129 163 202 245 291
#     4   9  16  26  41  64  96 129 161 199 244 291
#
# _framework density 16.514990000000001
#
# number of rings (size 3 to 8) (size 9 to 14) (size 15 to 20)
#    0.000    2.333    1.667    2.000    0.000    6.667 
#    0.000    0.000    0.000    0.000    0.000    1.167 
#    0.000    0.000    0.000    0.000    0.000    0.000 
#
# Total GULP energy -133869.902859 kJ/mol
# GULP energy per Si atom -5577.912619 kJ/mol
# Density = 1.647740 g / cm^3
# Si number density = 16.514990 Si / 1000 Ang^3
#
#
#
# Elastic Constant Matrix: (Units=GPa)
#
#
# Indices 1 2 3 4 5 6 
#
# 1 180.3673 116.1111 52.4572 0.0000 26.4683 0.0000
# 2 116.1111 133.8893 48.7831 0.0000 22.8507 0.0000
# 3 52.4572 48.7831 51.9662 0.0000 0.8071 0.0000
# 4 0.0000 0.0000 0.0000 11.1667 0.0000 7.2326
# 5 26.4683 22.8507 0.8071 0.0000 16.6858 0.0000
# 6 0.0000 0.0000 0.0000 7.2326 0.0000 38.5768
#
#
#
# Elastic Compliance Matrix: (Units=1/GPa)
#
#
# Indices 1 2 3 4 5 6 
#
# 1 0.014374 -0.008034 -0.006790 0.000000 -0.011471 0.000000
# 2 -0.008034 0.021491 -0.011815 0.000000 -0.016116 0.000000
# 3 -0.006790 -0.011815 0.036798 0.000000 0.025171 0.000000
# 4 0.000000 0.000000 0.000000 0.101930 0.000000 -0.019110
# 5 -0.011471 -0.016116 0.025171 0.000000 0.098980 0.000000
# 6 0.000000 0.000000 0.000000 -0.019110 0.000000 0.029505
#
#
# Mechanical properties :
#
#
# Convention : Reuss Voigt Hill
#
# Bulk Modulus (GPa) = 51.58451 88.99173 70.28812
# Shear Modulus (GPa) = 13.78104 23.21063 18.49584
#
# Velocity S-wave (km/s) = 2.89183 3.75297 3.35018
# Velocity P-wave (km/s) = 6.51560 8.53124 7.59062
#
# Compressibility (1/GPa) = 0.01938566
#
# Stress axis : x y z
#
# Youngs Moduli (GPa) = 69.57000 46.53078 27.17558
#
# Poissons Ratio (x) = 0.37381 0.18452
# Poissons Ratio (y) = 0.55890 0.32108
# Poissons Ratio (z) = 0.47239 0.54975
#
# Static dielectric constant tensor:
#      x y z
#    x 1.534200 0.000000 -0.001200 
#    y 0.000000 1.551630 0.000000 
#    z -0.001200 0.000000 1.526960 
# 
# From -- ./inp_files/185749.got.cif
#   From: 2010.05.17/outbox.cif.g08.bks.cpg/sg12_93_cif.got.tgz:185749.got - 2010.06.03 13:09:07.
