data_PCOD9177615
_publ_section_title
;
Structure prediction by ZEFSAII (Michael W. Deem and Ramdas Pophale) SiO2 
 PCOD9177615
Probable space group: C 2/M
;
_chemical_formula_sum "Si O2"
_cell_formula_units_Z 56
_cell_length_a 24.483539
_cell_length_b 9.275951
_cell_length_c 22.812503
_cell_angle_alpha 90.000000
_cell_angle_beta 45.154488
_cell_angle_gamma 90.000000
_cell_volume 3673.317159
_symmetry_space_group_name_H-M "C 2/M"
_symmetry_group_IT_number 12
_symmetry_cell_setting 'monoclinic'
loop_
_space_group_symop_operation_xyz
x,y,z
-x,y,-z
-x,-y,-z
x,-y,z
1/2+x,1/2+y,z
1/2-x,1/2+y,-z
1/2-x,1/2-y,-z
1/2+x,1/2-y,z
loop_
_atom_site_type_symbol
_atom_site_label
_atom_site_fract_x
_atom_site_fract_y
_atom_site_fract_z
Si Si1 0.274118 0.832447 0.892305
Si Si2 0.072909 0.672463 0.282506
Si Si3 0.528762 0.670270 0.544446
Si Si4 0.333988 0.170494 0.503007
Si Si5 0.012220 0.672120 0.778208
Si Si6 0.360305 0.167632 0.953535
Si Si7 0.656292 0.670197 0.629417
O O1 0.338978 0.781660 0.797403
O O2 0.317231 0.824216 0.922895
O O3 0.258988 0.000000 0.892282
O O4 0.194152 0.749876 0.960012
O O5 0.072220 0.500000 0.294721
O O6 0.032038 0.759750 0.364559
O O7 0.025352 0.693398 0.258002
O O8 0.500000 0.688480 0.500000
O O9 0.537643 0.500000 0.549748
O O10 0.608769 0.752581 0.495600
O O11 0.346639 0.246257 0.430445
O O12 0.243688 0.186888 0.586049
O O13 0.351338 0.000000 0.485011
O O14 0.024803 0.500000 0.775120
O O15 0.091114 0.759725 0.719228
O O16 0.947002 0.718782 0.874282
O O17 0.364073 0.000000 0.966646
O O18 0.642121 0.500000 0.631121
#
# Coordination Sequence:
#
# PCOD9177615 Si02
#       7
#     8   8   8   8   8   8   8
#     4   8  14  24  37  55  80 110 144 179 210 250
#     4   9  17  29  44  61  83 115 152 183 218 265
#     4  11  23  35  47  66  89 113 150 195 229 261
#     4  10  20  33  47  64  87 116 149 183 224 270
#     4   9  16  26  41  62  89 119 149 179 213 260
#     4   8  14  23  35  55  83 114 144 173 208 252
#     4  10  19  29  45  68  90 114 148 186 220 261
#
# _framework density 15.245077
#
# number of rings (size 3 to 8) (size 9 to 14) (size 15 to 20)
#    0.000    2.714    1.429    3.000    0.000    4.000 
#    0.000    2.857    0.000    0.000    0.000    0.000 
#    0.000    1.143    0.000   12.571    0.000    9.714 
#
# Total GULP energy -155931.520763 kJ/mol
# GULP energy per Si atom -5568.982884 kJ/mol
# Density = 1.521038 g / cm^3
# Si number density = 15.245077 Si / 1000 Ang^3
#
#
#
# Elastic Constant Matrix: (Units=GPa)
#
#
# Indices 1 2 3 4 5 6 
#
# 1 57.4843 47.0734 42.5758 0.0001 -17.9577 0.0000
# 2 47.0734 80.2234 60.4412 -0.0002 -20.5537 0.0002
# 3 42.5758 60.4412 97.7677 0.0001 -38.4616 -0.0001
# 4 0.0001 -0.0002 0.0001 28.6575 0.0000 -7.1392
# 5 -17.9577 -20.5537 -38.4616 0.0000 26.6815 0.0000
# 6 0.0000 0.0002 -0.0001 -7.1392 0.0000 19.5041
#
#
#
# Elastic Compliance Matrix: (Units=1/GPa)
#
#
# Indices 1 2 3 4 5 6 
#
# 1 0.035440 -0.017814 -0.001006 0.000000 0.008680 0.000000
# 2 -0.017814 0.032787 -0.016845 0.000000 -0.011014 0.000000
# 3 -0.001006 -0.016845 0.036287 0.000000 0.038654 0.000000
# 4 0.000000 0.000000 0.000000 0.038396 0.000000 0.014054
# 5 0.008680 -0.011014 0.038654 0.000000 0.090557 0.000000
# 6 0.000000 0.000000 0.000000 0.014054 0.000000 0.056416
#
#
# Mechanical properties :
#
#
# Convention : Reuss Voigt Hill
#
# Bulk Modulus (GPa) = 30.13470 59.51736 44.82603
# Shear Modulus (GPa) = 13.43093 20.66095 17.04594
#
# Velocity S-wave (km/s) = 2.97139 3.68537 3.34747
# Velocity P-wave (km/s) = 5.61978 7.56534 6.66395
#
# Compressibility (1/GPa) = 0.03318433
#
# Stress axis : x y z
#
# Youngs Moduli (GPa) = 28.21639 30.49973 27.55808
#
# Poissons Ratio (x) = 0.54331 0.02773
# Poissons Ratio (y) = 0.50264 0.46422
# Poissons Ratio (z) = 0.02840 0.51377
#
# Static dielectric constant tensor:
#      x y z
#    x 1.493120 0.000000 -0.033990 
#    y 0.000000 1.507630 0.000000 
#    z -0.033990 0.000000 1.522780 
# 
# From -- ./inp_files/320270.got.cif
#   From: 2010.05.17/outbox.cif.g08.bks.cpg/sg12_161_cif.got.tgz:320270.got - 2010.06.03 13:09:07.
