data_PCOD9177836
_publ_section_title
;
Structure prediction by ZEFSAII (Michael W. Deem and Ramdas Pophale) SiO2 
 PCOD9177836
Probable space group: C 2/M
;
_chemical_formula_sum "Si O2"
_cell_formula_units_Z 48
_cell_length_a 14.305255
_cell_length_b 7.283984
_cell_length_c 18.133248
_cell_angle_alpha 90.000000
_cell_angle_beta 71.782967
_cell_angle_gamma 90.000000
_cell_volume 1794.768947
_symmetry_space_group_name_H-M "C 2/M"
_symmetry_group_IT_number 12
_symmetry_cell_setting 'monoclinic'
loop_
_space_group_symop_operation_xyz
x,y,z
-x,y,-z
-x,-y,-z
x,-y,z
1/2+x,1/2+y,z
1/2-x,1/2+y,-z
1/2-x,1/2-y,-z
1/2+x,1/2-y,z
loop_
_atom_site_type_symbol
_atom_site_label
_atom_site_fract_x
_atom_site_fract_y
_atom_site_fract_z
Si Si1 0.140196 0.285622 0.429925
Si Si2 0.673215 0.214488 0.262606
Si Si3 0.272845 0.789947 0.907168
Si Si4 0.097696 0.722462 0.754410
Si Si5 0.371298 0.222169 0.409194
Si Si6 0.948130 0.718292 0.083844
O O1 0.112411 0.500000 0.431676
O O2 0.127041 0.209082 0.350506
O O3 0.257756 0.275298 0.419899
O O4 0.096683 0.211839 0.517930
O O5 0.667071 0.288714 0.179714
O O6 0.790025 0.220455 0.255232
O O7 0.643322 0.000000 0.265556
O O8 0.164532 0.757507 0.903093
O O9 0.305575 0.000000 0.901953
O O10 0.250000 0.750000 0.000000
O O11 0.097564 0.500000 0.755495
O O12 0.071576 0.780958 0.678545
O O13 0.031738 0.786186 0.839124
O O14 0.373629 0.000000 0.411406
O O15 0.966639 0.500000 0.079618
O O16 0.000000 0.798317 0.000000
#
# Coordination Sequence:
#
# PCOD9177836 Si02
#       6
#     8   8   8   8   8   8
#     4   8  12  18  28  43  65  92 120 148 181 223
#     4   8  14  23  34  49  70  97 126 155 190 232
#     4  10  19  30  44  61  82 108 138 171 206 243
#     4   8  13  21  33  50  72  98 127 156 188 227
#     4   8  12  17  27  44  66  92 120 149 181 220
#     4   9  17  29  44  61  83 111 140 169 202 240
#
# _framework density 26.744391
#
# number of rings (size 3 to 8) (size 9 to 14) (size 15 to 20)
#    0.000    3.500    0.000    0.500    0.000    1.000 
#    0.000    0.000    0.000    0.000    0.000    0.000 
#    0.000    1.333    0.000   17.000    0.000    6.667 
#
# Total GULP energy -133606.112957 kJ/mol
# GULP energy per Si atom -5566.921373 kJ/mol
# Density = 2.668352 g / cm^3
# Si number density = 26.744391 Si / 1000 Ang^3
#
#
#
# Elastic Constant Matrix: (Units=GPa)
#
#
# Indices 1 2 3 4 5 6 
#
# 1 103.2539 -11.1318 32.1474 0.0000 29.7957 0.0000
# 2 -11.1318 123.7370 17.5492 0.0000 4.1456 0.0000
# 3 32.1474 17.5492 409.9503 0.0000 47.7906 0.0000
# 4 0.0000 0.0000 0.0000 74.8817 0.0000 37.6504
# 5 29.7957 4.1456 47.7906 0.0000 27.7654 0.0000
# 6 0.0000 0.0000 0.0000 37.6504 0.0000 1.8914
#
#
#
# Elastic Compliance Matrix: (Units=1/GPa)
#
#
# Indices 1 2 3 4 5 6 
#
# 1 0.014634 0.001784 0.000798 0.000000 -0.017343 0.000000
# 2 0.001784 0.008362 -0.000162 0.000000 -0.002885 0.000000
# 3 0.000798 -0.000162 0.003103 0.000000 -0.006174 0.000000
# 4 0.000000 0.000000 0.000000 -0.001482 0.000000 0.029508
# 5 -0.017343 -0.002885 -0.006174 0.000000 0.065685 0.000000
# 6 0.000000 0.000000 0.000000 0.029508 0.000000 -0.058688
#
#
# Mechanical properties :
#
#
# Convention : Reuss Voigt Hill
#
# Bulk Modulus (GPa) = 32.32035 79.34120 55.83077
# Shear Modulus (GPa) = 134.82521 60.79946 97.81234
#
# Velocity S-wave (km/s) = 7.10788 4.77314 6.05412
# Velocity P-wave (km/s) = 8.91481 7.75294 8.35410
#
# Compressibility (1/GPa) = 0.03094026
#
# Stress axis : x y z
#
# Youngs Moduli (GPa) = 68.33610 119.59207 322.22927
#
# Poissons Ratio (x) = -0.21340 -0.25711
# Poissons Ratio (y) = -0.12194 0.05205
# Poissons Ratio (z) = -0.05453 0.01932
#
# Static dielectric constant tensor:
#      x y z
#    x 2.262420 0.000000 -0.103040 
#    y 0.000000 1.896470 0.000000 
#    z -0.103040 0.000000 2.283930 
# 
# From -- ./inp_files/229328.got.cif
#   From: 2010.05.17/outbox.cif.g08.bks.cpg/sg12_115_cif.got.tgz:229328.got - 2010.06.03 13:09:07.
