data_PCOD9177403
_publ_section_title
;
Structure prediction by ZEFSAII (Michael W. Deem and Ramdas Pophale) SiO2 
 PCOD9177403
Probable space group: C 2/M
;
_chemical_formula_sum "Si O2"
_cell_formula_units_Z 56
_cell_length_a 28.645130
_cell_length_b 7.635261
_cell_length_c 14.438755
_cell_angle_alpha 90.000000
_cell_angle_beta 58.877909
_cell_angle_gamma 90.000000
_cell_volume 2703.414430
_symmetry_space_group_name_H-M "C 2/M"
_symmetry_group_IT_number 12
_symmetry_cell_setting 'monoclinic'
loop_
_space_group_symop_operation_xyz
x,y,z
-x,y,-z
-x,-y,-z
x,-y,z
1/2+x,1/2+y,z
1/2-x,1/2+y,-z
1/2-x,1/2-y,-z
1/2+x,1/2-y,z
loop_
_atom_site_type_symbol
_atom_site_label
_atom_site_fract_x
_atom_site_fract_y
_atom_site_fract_z
Si Si1 0.568039 0.707894 0.734825
Si Si2 0.830894 0.786651 0.877585
Si Si3 0.065855 0.786735 0.334509
Si Si4 0.438972 0.712980 0.456550
Si Si5 0.137373 0.297448 0.841063
Si Si6 0.228690 0.294715 0.872008
Si Si7 0.464631 0.698539 0.941494
O O1 0.558346 0.500000 0.736704
O O2 0.586092 0.772142 0.615334
O O3 0.610635 0.727398 0.774494
O O4 0.508532 0.780707 0.826504
O O5 0.891084 0.729385 0.786414
O O6 0.787429 0.726480 0.843890
O O7 0.829347 0.000000 0.883120
O O8 0.808557 0.720470 0.997880
O O9 0.082351 0.728319 0.421537
O O10 0.002999 0.738175 0.385423
O O11 0.066712 0.000000 0.332229
O O12 0.435919 0.500000 0.463014
O O13 0.147306 0.500000 0.812582
O O14 0.192832 0.217006 0.825363
O O15 0.091238 0.284355 0.968712
O O16 0.236756 0.500000 0.843287
O O17 0.450707 0.500000 0.925630
O O18 0.500000 0.687516 0.000000
#
# Coordination Sequence:
#
# PCOD9177403 Si02
#       7
#     8   8   8   8   8   8   8
#     4   9  17  28  43  63  89 115 141 178 218 256
#     4   9  17  30  50  69  85 112 150 184 218 262
#     4   8  14  25  45  70  90 110 139 179 226 266
#     4   8  14  25  42  69  96 110 133 180 228 262
#     4  10  19  29  41  58  87 121 148 176 212 256
#     4   9  19  32  43  64  93 118 146 182 220 256
#     4   8  15  26  39  58  83 110 143 177 209 248
#
# _framework density 20.714545999999999
#
# number of rings (size 3 to 8) (size 9 to 14) (size 15 to 20)
#    0.000    3.286    0.000    2.143    2.000    3.714 
#    0.000    0.000    0.000    1.714    0.000    2.000 
#    0.000    0.000    0.000    0.000    0.000    0.143 
#
# Total GULP energy -155945.809226 kJ/mol
# GULP energy per Si atom -5569.493187 kJ/mol
# Density = 2.066740 g / cm^3
# Si number density = 20.714546 Si / 1000 Ang^3
#
#
#
# Elastic Constant Matrix: (Units=GPa)
#
#
# Indices 1 2 3 4 5 6 
#
# 1 63.6467 -6.3918 -8.5719 0.0000 14.4094 0.0000
# 2 -6.3918 35.3444 -6.2015 0.0001 1.1249 0.0000
# 3 -8.5719 -6.2015 20.7612 0.0000 7.1310 0.0000
# 4 0.0000 0.0001 0.0000 24.1058 0.0000 28.1778
# 5 14.4094 1.1249 7.1310 0.0000 30.1293 0.0000
# 6 0.0000 0.0000 0.0000 28.1778 0.0000 45.4705
#
#
#
# Elastic Compliance Matrix: (Units=1/GPa)
#
#
# Indices 1 2 3 4 5 6 
#
# 1 0.021940 0.007285 0.016254 0.000000 -0.014612 0.000000
# 2 0.007285 0.032622 0.015638 0.000000 -0.008403 0.000000
# 3 0.016254 0.015638 0.067943 0.000000 -0.024438 0.000000
# 4 0.000000 0.000000 0.000000 0.150508 0.000000 -0.093269
# 5 -0.014612 -0.008403 -0.024438 0.000000 0.046276 0.000000
# 6 0.000000 0.000000 0.000000 -0.093269 0.000000 0.079791
#
#
# Mechanical properties :
#
#
# Convention : Reuss Voigt Hill
#
# Bulk Modulus (GPa) = 4.97865 8.60243 6.79054
# Shear Modulus (GPa) = 12.89726 29.33562 21.11644
#
# Velocity S-wave (km/s) = 2.49794 3.76731 3.19627
# Velocity P-wave (km/s) = 3.27540 4.80472 4.11179
#
# Compressibility (1/GPa) = 0.20085781
#
# Stress axis : x y z
#
# Youngs Moduli (GPa) = 45.57800 30.65444 14.71830
#
# Poissons Ratio (x) = -0.22331 -0.23923
# Poissons Ratio (y) = -0.33202 -0.23017
# Poissons Ratio (z) = -0.74081 -0.47938
#
# Static dielectric constant tensor:
#      x y z
#    x 1.795740 0.000000 0.038850 
#    y 0.000000 1.782080 0.000000 
#    z 0.038850 0.000000 1.752390 
# 
# From -- ./inp_files/248153.got.cif
#   From: 2010.05.17/outbox.cif.g08.bks.cpg/sg12_125_cif.got.tgz:248153.got - 2010.06.03 13:09:07.
