data_PCOD9177808
_publ_section_title
;
Structure prediction by ZEFSAII (Michael W. Deem and Ramdas Pophale) SiO2 
 PCOD9177808
Probable space group: C 2/M
;
_chemical_formula_sum "Si O2"
_cell_formula_units_Z 64
_cell_length_a 28.583333
_cell_length_b 9.053050
_cell_length_c 16.895923
_cell_angle_alpha 90.000000
_cell_angle_beta 118.803910
_cell_angle_gamma 90.000000
_cell_volume 3831.153363
_symmetry_space_group_name_H-M "C 2/M"
_symmetry_group_IT_number 12
_symmetry_cell_setting 'monoclinic'
loop_
_space_group_symop_operation_xyz
x,y,z
-x,y,-z
-x,-y,-z
x,-y,z
1/2+x,1/2+y,z
1/2-x,1/2+y,-z
1/2-x,1/2-y,-z
1/2+x,1/2-y,z
loop_
_atom_site_type_symbol
_atom_site_label
_atom_site_fract_x
_atom_site_fract_y
_atom_site_fract_z
Si Si1 0.053624 0.676222 0.871819
Si Si2 0.467130 0.832948 0.555680
Si Si3 0.329103 0.177480 0.607010
Si Si4 0.428110 0.177128 0.788569
Si Si5 0.062667 0.176837 0.717704
Si Si6 0.564584 0.670375 0.042926
Si Si7 0.124856 0.822913 0.610169
Si Si8 0.719752 0.676822 0.588370
O O1 0.059656 0.500000 0.874944
O O2 0.077259 0.750798 0.812910
O O3 0.989789 0.710306 0.819443
O O4 0.076219 0.742587 0.971681
O O5 0.500000 0.841653 0.500000
O O6 0.505024 0.740604 0.644221
O O7 0.412786 0.754355 0.485728
O O8 0.458580 0.000000 0.578783
O O9 0.386495 0.223795 0.687088
O O10 0.310354 0.250984 0.510623
O O11 0.282063 0.215553 0.631641
O O12 0.329824 0.000000 0.597247
O O13 0.414090 0.252727 0.860512
O O14 0.423969 0.000000 0.794306
O O15 0.103244 0.217599 0.679453
O O16 0.060316 0.000000 0.721870
O O17 0.418988 0.500000 0.949186
O O18 0.500000 0.673801 0.000000
O O19 0.185753 0.784468 0.638482
O O20 0.117845 0.000000 0.597667
O O21 0.716774 0.500000 0.577183
#
# Coordination Sequence:
#
# PCOD9177808 Si02
#       8
#     8   8   8   8   8   8   8   8
#     4  10  19  30  45  67  96 124 151 182 221 268
#     4   9  17  28  41  58  82 113 150 188 222 261
#     4   9  18  32  48  68  92 118 152 192 231 272
#     4   9  18  31  47  67  92 121 149 182 226 272
#     4  10  19  30  43  62  90 120 154 188 223 268
#     4   9  17  30  47  68  92 119 150 182 220 268
#     4   9  18  31  45  62  86 120 154 189 230 269
#     4   9  18  32  48  66  90 120 155 193 232 269
#
# _framework density 16.705151999999998
#
# number of rings (size 3 to 8) (size 9 to 14) (size 15 to 20)
#    0.000    2.750    0.000    1.500    1.750    5.000 
#    0.000    0.000    0.000    0.000    0.000    0.875 
#    0.000    0.000    0.000    0.000    0.000    0.000 
#
# Total GULP energy -178333.493539 kJ/mol
# GULP energy per Si atom -5572.921673 kJ/mol
# Density = 1.666713 g / cm^3
# Si number density = 16.705152 Si / 1000 Ang^3
#
#
#
# Elastic Constant Matrix: (Units=GPa)
#
#
# Indices 1 2 3 4 5 6 
#
# 1 59.6937 18.0678 4.8873 0.0000 -15.0366 0.0000
# 2 18.0678 30.4192 14.8014 0.0000 -12.4804 0.0000
# 3 4.8873 14.8014 43.5276 0.0000 -14.4177 0.0000
# 4 0.0000 0.0000 0.0000 26.9352 0.0000 -5.7217
# 5 -15.0366 -12.4804 -14.4177 0.0000 24.4528 0.0000
# 6 0.0000 0.0000 0.0000 -5.7217 0.0000 14.1943
#
#
#
# Elastic Compliance Matrix: (Units=1/GPa)
#
#
# Indices 1 2 3 4 5 6 
#
# 1 0.022536 -0.011273 0.004955 0.000000 0.011026 0.000000
# 2 -0.011273 0.050147 -0.011936 0.000000 0.011625 0.000000
# 3 0.004955 -0.011936 0.031649 0.000000 0.015616 0.000000
# 4 0.000000 0.000000 0.000000 0.040603 0.000000 0.016367
# 5 0.011026 0.011625 0.015616 0.000000 0.062816 0.000000
# 6 0.000000 0.000000 0.000000 0.016367 0.000000 0.077048
#
#
# Mechanical properties :
#
#
# Convention : Reuss Voigt Hill
#
# Bulk Modulus (GPa) = 14.74403 23.23929 18.99166
# Shear Modulus (GPa) = 14.53855 19.50873 17.02364
#
# Velocity S-wave (km/s) = 2.95329 3.42106 3.19574
# Velocity P-wave (km/s) = 4.52487 5.43567 5.00105
#
# Compressibility (1/GPa) = 0.06782407
#
# Stress axis : x y z
#
# Youngs Moduli (GPa) = 44.37366 19.94143 31.59688
#
# Poissons Ratio (x) = 0.22479 -0.15656
# Poissons Ratio (y) = 0.50021 0.37714
# Poissons Ratio (z) = -0.21987 0.23802
#
# Static dielectric constant tensor:
#      x y z
#    x 1.599140 0.000000 -0.019960 
#    y 0.000000 1.558690 0.000000 
#    z -0.019960 0.000000 1.542520 
# 
# From -- ./inp_files/249232.got.cif
#   From: 2010.05.17/outbox.cif.g08.bks.cpg/sg12_125_cif.got.tgz:249232.got - 2010.06.03 13:09:07.
