data_PCOD9177747
_publ_section_title
;
Structure prediction by ZEFSAII (Michael W. Deem and Ramdas Pophale) SiO2 
 PCOD9177747
Probable space group: C 2/M
;
_chemical_formula_sum "Si O2"
_cell_formula_units_Z 48
_cell_length_a 27.758943
_cell_length_b 8.443000
_cell_length_c 10.468196
_cell_angle_alpha 90.000000
_cell_angle_beta 106.897361
_cell_angle_gamma 90.000000
_cell_volume 2347.496586
_symmetry_space_group_name_H-M "C 2/M"
_symmetry_group_IT_number 12
_symmetry_cell_setting 'monoclinic'
loop_
_space_group_symop_operation_xyz
x,y,z
-x,y,-z
-x,-y,-z
x,-y,z
1/2+x,1/2+y,z
1/2-x,1/2+y,-z
1/2-x,1/2-y,-z
1/2+x,1/2-y,z
loop_
_atom_site_type_symbol
_atom_site_label
_atom_site_fract_x
_atom_site_fract_y
_atom_site_fract_z
Si Si1 0.636056 0.311412 0.280896
Si Si2 0.480431 0.500000 0.629378
Si Si3 0.247390 0.189079 0.351975
Si Si4 0.544842 0.500000 0.925632
Si Si5 0.648345 0.314297 0.595713
Si Si6 0.553378 0.826082 0.469694
Si Si7 0.561055 0.173520 0.031594
O O1 0.625058 0.500000 0.254180
O O2 0.690906 0.274718 0.260852
O O3 0.646041 0.286703 0.439582
O O4 0.593025 0.204904 0.184633
O O5 0.500000 0.500000 0.500000
O O6 0.521508 0.500000 0.768604
O O7 0.451788 0.666731 0.619114
O O8 0.250000 0.250000 0.500000
O O9 0.296101 0.262045 0.320252
O O10 0.252530 0.000000 0.358181
O O11 0.500000 0.500000 0.000000
O O12 0.572971 0.333727 0.963562
O O13 0.640475 0.500000 0.614058
O O14 0.599842 0.213416 0.600293
O O15 0.500000 0.834448 0.500000
O O16 0.561524 0.000000 0.417082
O O17 0.574195 0.000000 0.989102
O O18 0.500000 0.172237 0.000000
#
# Coordination Sequence:
#
# PCOD9177747 Si02
#       7
#     8   4   8   4   8   8   8
#     4   9  18  31  47  67 104 150 185 227 278 335
#     4  10  22  40  58  78 110 154 188 230 281 336
#     4   9  17  29  43  67  99 139 189 230 275 339
#     4  10  22  36  54  76 116 140 186 238 273 326
#     4  10  19  29  49  72 102 146 187 230 286 341
#     4  10  21  35  53  78 107 144 187 234 283 332
#     4  10  21  32  47  73 103 145 185 220 275 332
#
# _framework density 20.447316000000001
#
# number of rings (size 3 to 8) (size 9 to 14) (size 15 to 20)
#    0.000    2.333    1.667    2.000    4.667    4.667 
#    0.000    0.000    0.000    0.000    0.000    0.000 
#    0.000    5.333    1.333    0.000    0.000    0.000 
#
# Total GULP energy -133613.440767 kJ/mol
# GULP energy per Si atom -5567.226699 kJ/mol
# Density = 2.040078 g / cm^3
# Si number density = 20.447316 Si / 1000 Ang^3
#
#
#
# Elastic Constant Matrix: (Units=GPa)
#
#
# Indices 1 2 3 4 5 6 
#
# 1 112.8667 25.0634 11.1951 0.0000 26.0843 0.0000
# 2 25.0634 170.3773 25.6615 0.0000 13.1164 0.0000
# 3 11.1951 25.6615 48.5567 0.0000 11.3185 0.0000
# 4 0.0000 0.0000 0.0000 14.7052 0.0000 9.5815
# 5 26.0843 13.1164 11.3185 0.0000 21.6825 0.0000
# 6 0.0000 0.0000 0.0000 9.5815 0.0000 25.9115
#
#
#
# Elastic Compliance Matrix: (Units=1/GPa)
#
#
# Indices 1 2 3 4 5 6 
#
# 1 0.012399 -0.000833 0.001071 0.000000 -0.014971 0.000000
# 2 -0.000833 0.006543 -0.002934 0.000000 -0.001425 0.000000
# 3 0.001071 -0.002934 0.024803 0.000000 -0.012461 0.000000
# 4 0.000000 0.000000 0.000000 0.089588 0.000000 -0.033128
# 5 -0.014971 -0.001425 -0.012461 0.000000 0.071498 0.000000
# 6 0.000000 0.000000 0.000000 -0.033128 0.000000 0.050843
#
#
# Mechanical properties :
#
#
# Convention : Reuss Voigt Hill
#
# Bulk Modulus (GPa) = 26.07292 50.62676 38.34984
# Shear Modulus (GPa) = 18.25825 30.45190 24.35507
#
# Velocity S-wave (km/s) = 2.99145 3.86331 3.45500
# Velocity P-wave (km/s) = 4.97098 6.68682 5.89170
#
# Compressibility (1/GPa) = 0.03835397
#
# Stress axis : x y z
#
# Youngs Moduli (GPa) = 80.65411 152.82522 40.31815
#
# Poissons Ratio (x) = 0.12726 -0.04319
# Poissons Ratio (y) = 0.06716 0.11829
# Poissons Ratio (z) = -0.08640 0.44838
#
# Static dielectric constant tensor:
#      x y z
#    x 1.871820 0.000000 0.029640 
#    y 0.000000 1.776530 0.000000 
#    z 0.029640 0.000000 1.706770 
# 
# From -- ./inp_files/185980.got.cif
#   From: 2010.05.17/outbox.cif.g08.bks.cpg/sg12_93_cif.got.tgz:185980.got - 2010.06.03 13:09:07.
