data_PCOD9177205
_publ_section_title
;
Structure prediction by ZEFSAII (Michael W. Deem and Ramdas Pophale) SiO2 
 PCOD9177205
Probable space group: C 2/M
;
_chemical_formula_sum "Si O2"
_cell_formula_units_Z 32
_cell_length_a 14.353830
_cell_length_b 18.665736
_cell_length_c 10.736806
_cell_angle_alpha 90.000000
_cell_angle_beta 149.941551
_cell_angle_gamma 90.000000
_cell_volume 1440.868959
_symmetry_space_group_name_H-M "C 2/M"
_symmetry_group_IT_number 12
_symmetry_cell_setting 'monoclinic'
loop_
_space_group_symop_operation_xyz
x,y,z
-x,y,-z
-x,-y,-z
x,-y,z
1/2+x,1/2+y,z
1/2-x,1/2+y,-z
1/2-x,1/2-y,-z
1/2+x,1/2-y,z
loop_
_atom_site_type_symbol
_atom_site_label
_atom_site_fract_x
_atom_site_fract_y
_atom_site_fract_z
Si Si1 0.298065 0.624256 0.588392
Si Si2 0.785032 0.000000 0.200323
Si Si3 0.781737 0.844593 0.286304
Si Si4 0.405554 0.500000 0.072153
Si Si5 0.133565 0.500000 0.537411
Si Si6 0.000000 0.233949 0.000000
O O1 0.260913 0.657295 0.411473
O O2 0.468781 0.569595 0.763931
O O3 0.140720 0.571812 0.463300
O O4 0.367282 0.683044 0.765133
O O5 0.715136 0.076191 0.168420
O O6 0.768953 0.000000 0.032417
O O7 0.000000 0.000000 0.500000
O O8 0.639298 0.783186 0.078682
O O9 0.000000 0.835151 0.500000
O O10 0.321687 0.500000 0.838288
O O11 0.000000 0.500000 0.500000
#
# Coordination Sequence:
#
# PCOD9177205 Si02
#       6
#     8   4   8   4   4   4
#     4  11  21  44  65  92 134 169 217 269 327 387
#     4  10  18  39  68  92 116 162 227 270 314 373
#     4  11  24  43  67  95 129 179 220 268 328 383
#     4  11  18  41  74  86 120 171 211 273 325 361
#     4  11  24  39  70 100 123 169 225 279 320 383
#     4  12  26  40  62  98 142 176 210 266 326 404
#
# _framework density 22.208822000000001
#
# number of rings (size 3 to 8) (size 9 to 14) (size 15 to 20)
#    0.000    1.000    7.500    2.250    0.000    4.500 
#    0.000    0.000    0.000    0.000    0.000    0.000 
#    0.000    0.000    0.000    0.000    0.000    0.000 
#
# Total GULP energy -89353.398267 kJ/mol
# GULP energy per Si atom -5584.587392 kJ/mol
# Density = 2.215827 g / cm^3
# Si number density = 22.208822 Si / 1000 Ang^3
#
#
#
# Elastic Constant Matrix: (Units=GPa)
#
#
# Indices 1 2 3 4 5 6 
#
# 1 123.3421 34.6622 22.9271 0.0000 12.2833 0.0000
# 2 34.6622 153.0723 17.0911 0.0000 21.0476 0.0000
# 3 22.9271 17.0911 43.0552 0.0000 14.7968 0.0000
# 4 0.0000 0.0000 0.0000 -1.4778 0.0000 -9.0120
# 5 12.2833 21.0476 14.7968 0.0000 44.9728 0.0000
# 6 0.0000 0.0000 0.0000 -9.0120 0.0000 -7.1255
#
#
#
# Elastic Compliance Matrix: (Units=1/GPa)
#
#
# Indices 1 2 3 4 5 6 
#
# 1 0.009382 -0.001595 -0.004215 0.000000 -0.000429 0.000000
# 2 -0.001595 0.007388 -0.001178 0.000000 -0.002634 0.000000
# 3 -0.004215 -0.001178 0.028585 0.000000 -0.007702 0.000000
# 4 0.000000 0.000000 0.000000 0.100805 0.000000 -0.127493
# 5 -0.000429 -0.002634 -0.007702 0.000000 0.026120 0.000000
# 6 0.000000 0.000000 0.000000 -0.127493 0.000000 0.020906
#
#
# Mechanical properties :
#
#
# Convention : Reuss Voigt Hill
#
# Bulk Modulus (GPa) = 31.86873 52.09228 41.98050
# Shear Modulus (GPa) = 22.97562 23.59318 23.28440
#
# Velocity S-wave (km/s) = 3.21990 3.26288 3.24146
# Velocity P-wave (km/s) = 5.31078 6.14018 5.74048
#
# Compressibility (1/GPa) = 0.03137872
#
# Stress axis : x y z
#
# Youngs Moduli (GPa) = 106.58677 135.35911 34.98281
#
# Poissons Ratio (x) = 0.21587 0.14747
# Poissons Ratio (y) = 0.16999 0.04121
# Poissons Ratio (z) = 0.44931 0.15946
#
# Static dielectric constant tensor:
#      x y z
#    x 1.854910 0.000000 0.064590 
#    y 0.000000 1.809470 0.000000 
#    z 0.064590 0.000000 1.915220 
# 
# From -- ./inp_files/60605.got.cif
#   From: 2010.05.17/outbox.cif.g08.bks.cpg/sg12_31_cif.got.tgz:60605.got - 2010.06.03 13:09:07.
