data_PCOD9177505
_publ_section_title
;
Structure prediction by ZEFSAII (Michael W. Deem and Ramdas Pophale) SiO2 
 PCOD9177505
Probable space group: C 2/M
;
_chemical_formula_sum "Si O2"
_cell_formula_units_Z 64
_cell_length_a 14.293162
_cell_length_b 9.621881
_cell_length_c 22.826308
_cell_angle_alpha 90.000000
_cell_angle_beta 110.353255
_cell_angle_gamma 90.000000
_cell_volume 2943.241162
_symmetry_space_group_name_H-M "C 2/M"
_symmetry_group_IT_number 12
_symmetry_cell_setting 'monoclinic'
loop_
_space_group_symop_operation_xyz
x,y,z
-x,y,-z
-x,-y,-z
x,-y,z
1/2+x,1/2+y,z
1/2-x,1/2+y,-z
1/2-x,1/2-y,-z
1/2+x,1/2-y,z
loop_
_atom_site_type_symbol
_atom_site_label
_atom_site_fract_x
_atom_site_fract_y
_atom_site_fract_z
Si Si1 0.643596 0.340055 0.073783
Si Si2 0.769096 0.655493 0.804166
Si Si3 0.086934 0.158692 0.937840
Si Si4 0.151545 0.841198 0.572110
Si Si5 0.952212 0.842947 0.198102
Si Si6 0.922075 0.841300 0.569313
Si Si7 0.982540 0.657950 0.686341
Si Si8 0.213030 0.341899 0.688907
O O1 0.682234 0.500000 0.085106
O O2 0.690523 0.237749 0.130914
O O3 0.527327 0.348049 0.065784
O O4 0.646888 0.286627 0.007273
O O5 0.811748 0.500000 0.807473
O O6 0.651452 0.640511 0.790408
O O7 0.775262 0.750882 0.748395
O O8 0.077987 0.222399 0.871388
O O9 0.123703 0.000000 0.936707
O O10 0.143321 0.804799 0.501843
O O11 0.208213 0.733853 0.625511
O O12 0.037031 0.842476 0.571141
O O13 0.188419 0.000000 0.586144
O O14 0.016679 0.745905 0.253837
O O15 0.994104 0.000000 0.197834
O O16 0.920836 0.735417 0.622433
O O17 0.899210 0.000000 0.582388
O O18 0.950259 0.500000 0.688258
O O19 0.098103 0.654231 0.688158
O O20 0.248396 0.500000 0.693074
#
# Coordination Sequence:
#
# PCOD9177505 Si02
#       8
#     8   8   8   8   8   8   8   8
#     4   9  17  32  52  69  87 112 145 183 220 261
#     4  10  19  29  43  65  92 119 146 179 220 264
#     4   8  16  32  52  69  85 113 149 181 216 261
#     4   8  13  21  33  50  74 106 144 181 216 257
#     4   9  17  30  46  63  87 119 151 179 214 265
#     4   8  13  21  33  49  73 109 146 176 213 262
#     4   9  16  24  35  55  82 110 143 183 222 255
#     4   9  16  25  37  54  79 112 147 181 218 258
#
# _framework density 21.744736
#
# number of rings (size 3 to 8) (size 9 to 14) (size 15 to 20)
#    0.000    3.250    0.000    2.625    0.000    4.500 
#    0.000    5.000    0.000    0.000    0.000    0.000 
#    0.000    1.000    0.000    3.000    0.000    5.750 
#
# Total GULP energy -178497.524464 kJ/mol
# GULP energy per Si atom -5578.047639 kJ/mol
# Density = 2.169524 g / cm^3
# Si number density = 21.744736 Si / 1000 Ang^3
#
#
#
# Elastic Constant Matrix: (Units=GPa)
#
#
# Indices 1 2 3 4 5 6 
#
# 1 55.8159 6.7763 0.0095 0.0000 -15.7004 0.0000
# 2 6.7763 167.6146 145.7368 0.0000 9.0203 0.0000
# 3 0.0095 145.7368 228.3212 0.0000 -15.0536 0.0000
# 4 0.0000 0.0000 0.0000 7.2543 0.0000 -7.6282
# 5 -15.7004 9.0203 -15.0536 0.0000 54.8661 0.0000
# 6 0.0000 0.0000 0.0000 -7.6282 0.0000 -1.3831
#
#
#
# Elastic Compliance Matrix: (Units=1/GPa)
#
#
# Indices 1 2 3 4 5 6 
#
# 1 0.020384 -0.003649 0.002803 0.000000 0.007202 0.000000
# 2 -0.003649 0.015327 -0.010202 0.000000 -0.006363 0.000000
# 3 0.002803 -0.010202 0.011259 0.000000 0.005569 0.000000
# 4 0.000000 0.000000 0.000000 0.020273 0.000000 -0.111812
# 5 0.007202 -0.006363 0.005569 0.000000 0.022861 0.000000
# 6 0.000000 0.000000 0.000000 -0.111812 0.000000 -0.106332
#
#
# Mechanical properties :
#
#
# Convention : Reuss Voigt Hill
#
# Bulk Modulus (GPa) = 40.20300 84.08854 62.14577
# Shear Modulus (GPa) = 353.08047 32.09607 192.58827
#
# Velocity S-wave (km/s) = 12.75647 3.84609 9.42125
# Velocity P-wave (km/s) = 15.34598 7.64709 12.12388
#
# Compressibility (1/GPa) = 0.02487376
#
# Stress axis : x y z
#
# Youngs Moduli (GPa) = 49.05697 65.24514 88.81766
#
# Poissons Ratio (x) = 0.23807 -0.24896
# Poissons Ratio (y) = 0.17900 0.90616
# Poissons Ratio (z) = -0.13751 0.66566
#
# Static dielectric constant tensor:
#      x y z
#    x 1.846970 0.000000 -0.003440 
#    y 0.000000 1.773240 0.000000 
#    z -0.003440 0.000000 1.792280 
# 
# From -- ./inp_files/345600.got.cif
#   From: 2010.05.17/outbox.cif.g08.bks.cpg/sg12_173_cif.got.tgz:345600.got - 2010.06.03 13:09:07.
