data_PCOD9177346
_publ_section_title
;
Structure prediction by ZEFSAII (Michael W. Deem and Ramdas Pophale) SiO2 
 PCOD9177346
Probable space group: C 2/M
;
_chemical_formula_sum "Si O2"
_cell_formula_units_Z 44
_cell_length_a 5.048941
_cell_length_b 23.979045
_cell_length_c 22.129674
_cell_angle_alpha 90.000000
_cell_angle_beta 103.585367
_cell_angle_gamma 90.000000
_cell_volume 2604.251078
_symmetry_space_group_name_H-M "C 2/M"
_symmetry_group_IT_number 12
_symmetry_cell_setting 'monoclinic'
loop_
_space_group_symop_operation_xyz
x,y,z
-x,y,-z
-x,-y,-z
x,-y,z
1/2+x,1/2+y,z
1/2-x,1/2+y,-z
1/2-x,1/2-y,-z
1/2+x,1/2-y,z
loop_
_atom_site_type_symbol
_atom_site_label
_atom_site_fract_x
_atom_site_fract_y
_atom_site_fract_z
Si Si1 0.829677 0.121122 0.391374
Si Si2 0.855347 0.500000 0.307977
Si Si3 0.497412 0.711701 0.934762
Si Si4 0.500000 0.290351 0.500000
Si Si5 0.558985 0.500000 0.609038
Si Si6 0.739982 0.620665 0.304578
Si Si7 0.747697 0.288902 0.200244
O O1 0.508642 0.124924 0.361154
O O2 0.929993 0.169511 0.440314
O O3 0.982411 0.125195 0.335043
O O4 0.905219 0.059495 0.420922
O O5 0.721638 0.500000 0.368443
O O6 0.755449 0.558666 0.276634
O O7 0.182039 0.500000 0.330767
O O8 0.795840 0.735174 0.935236
O O9 0.368731 0.684620 0.868276
O O10 0.500000 0.681786 0.000000
O O11 0.250000 0.250000 0.500000
O O12 0.746077 0.667734 0.254458
O O13 0.542479 0.237968 0.204542
#
# Coordination Sequence:
#
# PCOD9177346 Si02
#       7
#     8   4   8   4   4   8   8
#     4  10  21  36  53  69  90 118 150 191 226 262
#     4   8  16  30  48  69  91 114 144 182 226 270
#     4   8  14  25  39  57  86 119 148 181 217 254
#     4  12  26  39  50  69  96 126 154 174 218 288
#     4   8  16  33  54  72  84 106 149 192 228 256
#     4  10  19  33  51  70  92 118 149 188 228 262
#     4  10  19  28  43  69  94 119 152 183 220 271
#
# _framework density 16.895451000000001
#
# number of rings (size 3 to 8) (size 9 to 14) (size 15 to 20)
#    0.000    2.545    0.000    2.182    0.000    4.727 
#    0.000    0.000    0.000    7.636    0.000    0.636 
#    0.000    0.000    0.000   42.000    0.000    0.000 
#
# Total GULP energy -122554.992636 kJ/mol
# GULP energy per Si atom -5570.681483 kJ/mol
# Density = 1.685700 g / cm^3
# Si number density = 16.895451 Si / 1000 Ang^3
#
#
#
# Elastic Constant Matrix: (Units=GPa)
#
#
# Indices 1 2 3 4 5 6 
#
# 1 73.9067 3.4671 -5.6929 0.0000 0.8720 0.0000
# 2 3.4671 90.3586 39.7067 0.0000 -0.6844 0.0000
# 3 -5.6929 39.7067 58.9236 0.0000 -1.8738 0.0000
# 4 0.0000 0.0000 0.0000 -5.2231 0.0000 1.4451
# 5 0.8720 -0.6844 -1.8738 0.0000 16.9635 0.0000
# 6 0.0000 0.0000 0.0000 1.4451 0.0000 19.5253
#
#
#
# Elastic Compliance Matrix: (Units=1/GPa)
#
#
# Indices 1 2 3 4 5 6 
#
# 1 0.013794 -0.001579 0.002381 0.000000 -0.000510 0.000000
# 2 -0.001579 0.015909 -0.010888 0.000000 -0.000480 0.000000
# 3 0.002381 -0.010888 0.024607 0.000000 0.002156 0.000000
# 4 0.000000 0.000000 0.000000 -0.187616 0.000000 0.013886
# 5 -0.000510 -0.000480 0.002156 0.000000 0.059195 0.000000
# 6 0.000000 0.000000 0.000000 0.013886 0.000000 0.050188
#
#
# Mechanical properties :
#
#
# Convention : Reuss Voigt Hill
#
# Bulk Modulus (GPa) = 29.29443 33.12783 31.21113
# Shear Modulus (GPa) = 655.37949 18.63368 337.00659
#
# Velocity S-wave (km/s) = 19.71662 3.32457 14.13856
# Velocity P-wave (km/s) = 23.14526 5.86405 16.88328
#
# Compressibility (1/GPa) = 0.03413618
#
# Stress axis : x y z
#
# Youngs Moduli (GPa) = 72.49494 62.85911 40.63903
#
# Poissons Ratio (x) = 0.09928 -0.09675
# Poissons Ratio (y) = 0.11449 0.44248
# Poissons Ratio (z) = -0.17259 0.68442
#
# Static dielectric constant tensor:
#      x y z
#    x 1.568670 0.000000 -0.001240 
#    y 0.000000 1.575930 0.000000 
#    z -0.001240 0.000000 1.589840 
# 
# From -- ./inp_files/297735.got.cif
#   From: 2010.05.17/outbox.cif.g08.bks.cpg/sg12_149_cif.got.tgz:297735.got - 2010.06.03 13:09:07.
