data_PCOD9177799
_publ_section_title
;
Structure prediction by ZEFSAII (Michael W. Deem and Ramdas Pophale) SiO2 
 PCOD9177799
Probable space group: C 2/M
;
_chemical_formula_sum "Si O2"
_cell_formula_units_Z 64
_cell_length_a 22.443985
_cell_length_b 7.305611
_cell_length_c 17.506964
_cell_angle_alpha 90.000000
_cell_angle_beta 85.656110
_cell_angle_gamma 90.000000
_cell_volume 2862.318812
_symmetry_space_group_name_H-M "C 2/M"
_symmetry_group_IT_number 12
_symmetry_cell_setting 'monoclinic'
loop_
_space_group_symop_operation_xyz
x,y,z
-x,y,-z
-x,-y,-z
x,-y,z
1/2+x,1/2+y,z
1/2-x,1/2+y,-z
1/2-x,1/2-y,-z
1/2+x,1/2-y,z
loop_
_atom_site_type_symbol
_atom_site_label
_atom_site_fract_x
_atom_site_fract_y
_atom_site_fract_z
Si Si1 0.894165 0.222599 0.256187
Si Si2 0.300628 0.209688 0.892866
Si Si3 0.129096 0.779334 0.256591
Si Si4 0.329424 0.724563 0.119255
Si Si5 0.912974 0.206228 0.982629
Si Si6 0.074733 0.222690 0.415041
Si Si7 0.483383 0.722810 0.836777
Si Si8 0.563760 0.722792 0.586437
O O1 0.840609 0.278187 0.205684
O O2 0.899912 0.284397 0.342883
O O3 0.954438 0.277845 0.205762
O O4 0.893871 0.000000 0.258182
O O5 0.316878 0.214211 0.801276
O O6 0.234090 0.284944 0.907623
O O7 0.354596 0.303291 0.932584
O O8 0.301653 0.000000 0.918295
O O9 0.119717 0.717587 0.344348
O O10 0.069396 0.724728 0.216034
O O11 0.131593 0.000000 0.256270
O O12 0.328775 0.500000 0.116071
O O13 0.384716 0.787721 0.061635
O O14 0.964256 0.286671 0.923258
O O15 0.931323 0.000000 0.001202
O O16 0.086332 0.281432 0.500823
O O17 0.006330 0.274839 0.401174
O O18 0.075179 0.000000 0.414807
O O19 0.483440 0.500000 0.840263
O O20 0.564261 0.500000 0.586651
#
# Coordination Sequence:
#
# PCOD9177799 Si02
#       8
#     8   8   8   8   8   8   8   8
#     4   9  14  22  36  58  91 118 133 162 211 261
#     4  10  19  30  43  61  83 110 146 182 211 242
#     4   9  15  26  44  66  89 110 136 174 213 249
#     4   9  18  28  39  57  83 114 144 173 208 252
#     4   9  17  30  46  64  84 106 137 180 220 251
#     4   8  12  19  35  62  92 113 131 163 209 254
#     4   8  13  21  37  61  86 107 129 162 211 255
#     4   8  12  18  33  60  93 117 129 158 211 258
#
# _framework density 22.359493000000001
#
# number of rings (size 3 to 8) (size 9 to 14) (size 15 to 20)
#    0.000    3.250    1.250    2.250    0.000    0.500 
#    0.000    3.125    0.000    0.750    0.000   15.750 
#    0.000    0.000    0.000    0.000    0.000    0.125 
#
# Total GULP energy -178580.870071 kJ/mol
# GULP energy per Si atom -5580.652190 kJ/mol
# Density = 2.230860 g / cm^3
# Si number density = 22.359493 Si / 1000 Ang^3
#
#
#
# Elastic Constant Matrix: (Units=GPa)
#
#
# Indices 1 2 3 4 5 6 
#
# 1 44.1275 2.4173 14.8020 0.0000 4.7386 0.0000
# 2 2.4173 93.8203 1.4981 0.0000 0.4755 0.0000
# 3 14.8020 1.4981 160.3154 0.0000 2.8399 0.0000
# 4 0.0000 0.0000 0.0000 4.6889 0.0000 -12.6846
# 5 4.7386 0.4755 2.8399 0.0000 29.5836 0.0000
# 6 0.0000 0.0000 0.0000 -12.6846 0.0000 10.8965
#
#
#
# Elastic Compliance Matrix: (Units=1/GPa)
#
#
# Indices 1 2 3 4 5 6 
#
# 1 0.023792 -0.000561 -0.002128 0.000000 -0.003598 0.000000
# 2 -0.000561 0.010674 -0.000047 0.000000 -0.000077 0.000000
# 3 -0.002128 -0.000047 0.006439 0.000000 -0.000277 0.000000
# 4 0.000000 0.000000 0.000000 -0.099234 0.000000 -0.115518
# 5 -0.003598 -0.000077 -0.000277 0.000000 0.034407 0.000000
# 6 0.000000 0.000000 0.000000 -0.115518 0.000000 -0.042702
#
#
# Mechanical properties :
#
#
# Convention : Reuss Voigt Hill
#
# Bulk Modulus (GPa) = 28.22009 37.29978 32.75993
# Shear Modulus (GPa) = -101.33471 27.67020 -36.83225
#
# Velocity S-wave (km/s) = -6.73937 3.52165 -4.06307
# Velocity P-wave (km/s) = 6.92172 5.76664 2.70704
#
# Compressibility (1/GPa) = 0.03543575
#
# Stress axis : x y z
#
# Youngs Moduli (GPa) = 42.03025 93.68330 155.29163
#
# Poissons Ratio (x) = 0.05254 0.33043
# Poissons Ratio (y) = 0.02357 0.00724
# Poissons Ratio (z) = 0.08943 0.00437
#
# Static dielectric constant tensor:
#      x y z
#    x 1.785240 0.000000 -0.003250 
#    y 0.000000 1.872260 0.000000 
#    z -0.003250 0.000000 1.857020 
# 
# From -- ./inp_files/287629.got.cif
#   From: 2010.05.17/outbox.cif.g08.bks.cpg/sg12_144_cif.got.tgz:287629.got - 2010.06.03 13:09:07.
