data_PCOD9177487
_publ_section_title
;
Structure prediction by ZEFSAII (Michael W. Deem and Ramdas Pophale) SiO2 
 PCOD9177487
Probable space group: C 2/M
;
_chemical_formula_sum "Si O2"
_cell_formula_units_Z 56
_cell_length_a 24.256236
_cell_length_b 7.507048
_cell_length_c 19.073729
_cell_angle_alpha 90.000000
_cell_angle_beta 127.237825
_cell_angle_gamma 90.000000
_cell_volume 2765.110746
_symmetry_space_group_name_H-M "C 2/M"
_symmetry_group_IT_number 12
_symmetry_cell_setting 'monoclinic'
loop_
_space_group_symop_operation_xyz
x,y,z
-x,y,-z
-x,-y,-z
x,-y,z
1/2+x,1/2+y,z
1/2-x,1/2+y,-z
1/2-x,1/2-y,-z
1/2+x,1/2-y,z
loop_
_atom_site_type_symbol
_atom_site_label
_atom_site_fract_x
_atom_site_fract_y
_atom_site_fract_z
Si Si1 0.783294 0.283575 0.782195
Si Si2 0.220029 0.206253 0.385162
Si Si3 0.371078 0.209489 0.495003
Si Si4 0.011292 0.795520 0.678021
Si Si5 0.066721 0.289736 0.090534
Si Si6 0.132260 0.784309 0.672892
Si Si7 0.569437 0.283004 0.257112
O O1 0.785096 0.500000 0.780248
O O2 0.780813 0.215781 0.700397
O O3 0.856408 0.220636 0.869587
O O4 0.709413 0.232328 0.757453
O O5 0.295711 0.282444 0.462157
O O6 0.144346 0.283090 0.343540
O O7 0.221087 0.000000 0.406867
O O8 0.438758 0.294940 0.580346
O O9 0.375435 0.228700 0.414015
O O10 0.372983 0.000000 0.512198
O O11 0.990787 0.718326 0.737716
O O12 0.071212 0.715809 0.675754
O O13 0.032108 0.000000 0.706766
O O14 0.068319 0.500000 0.075658
O O15 0.060125 0.269065 0.169367
O O16 0.000000 0.212561 0.000000
O O17 0.128899 0.000000 0.668923
O O18 0.572002 0.500000 0.261436
#
# Coordination Sequence:
#
# PCOD9177487 Si02
#       7
#     8   8   8   8   8   8   8
#     4   8  14  26  45  66  85 109 141 174 211 254
#     4   8  15  28  43  60  85 113 142 180 219 252
#     4  10  19  29  43  64  87 114 151 190 223 252
#     4  10  20  31  43  61  87 119 152 184 214 248
#     4   9  17  30  50  74  93 107 131 173 221 266
#     4   9  17  30  46  62  84 117 154 185 211 245
#     4   9  18  32  47  64  88 117 146 175 213 260
#
# _framework density 20.252354
#
# number of rings (size 3 to 8) (size 9 to 14) (size 15 to 20)
#    0.000    3.000    0.000    0.857    0.000    4.286 
#    0.000    0.000    0.000    0.857    0.000    0.000 
#    0.000    0.000    0.000    0.000    0.000    0.000 
#
# Total GULP energy -156065.571837 kJ/mol
# GULP energy per Si atom -5573.770423 kJ/mol
# Density = 2.020626 g / cm^3
# Si number density = 20.252354 Si / 1000 Ang^3
#
#
#
# Elastic Constant Matrix: (Units=GPa)
#
#
# Indices 1 2 3 4 5 6 
#
# 1 117.4385 5.8251 41.9563 0.0000 16.0861 0.0000
# 2 5.8251 62.7444 -4.6290 0.0000 5.3324 0.0001
# 3 41.9563 -4.6290 104.5561 0.0000 25.6335 0.0000
# 4 0.0000 0.0000 0.0000 -69.4320 0.0000 -15.3750
# 5 16.0861 5.3324 25.6335 0.0000 20.5124 0.0000
# 6 0.0000 0.0001 0.0000 -15.3750 0.0000 10.7458
#
#
#
# Elastic Compliance Matrix: (Units=1/GPa)
#
#
# Indices 1 2 3 4 5 6 
#
# 1 0.010224 -0.000866 -0.003216 0.000000 -0.003774 0.000000
# 2 -0.000866 0.016852 0.002885 0.000000 -0.007307 0.000000
# 3 -0.003216 0.002885 0.015207 0.000000 -0.017232 0.000000
# 4 0.000000 0.000000 0.000000 -0.010937 0.000000 -0.015649
# 5 -0.003774 -0.007307 -0.017232 0.000000 0.075144 0.000000
# 6 0.000000 0.000000 0.000000 -0.015649 0.000000 0.070669
#
#
# Mechanical properties :
#
#
# Convention : Reuss Voigt Hill
#
# Bulk Modulus (GPa) = 25.06908 41.22710 33.14809
# Shear Modulus (GPa) = 25.92713 8.47100 17.19907
#
# Velocity S-wave (km/s) = 3.58187 2.04739 2.91733
# Velocity P-wave (km/s) = 5.43246 5.09804 5.26790
#
# Compressibility (1/GPa) = 0.03988978
#
# Stress axis : x y z
#
# Youngs Moduli (GPa) = 97.81073 59.34060 65.75940
#
# Poissons Ratio (x) = 0.05137 0.21146
# Poissons Ratio (y) = 0.08467 -0.18971
# Poissons Ratio (z) = 0.31453 -0.17119
#
# Static dielectric constant tensor:
#      x y z
#    x 1.773110 0.000000 0.037610 
#    y 0.000000 1.787730 0.000000 
#    z 0.037610 0.000000 1.714310 
# 
# From -- ./inp_files/287337.got.cif
#   From: 2010.05.17/outbox.cif.g08.bks.cpg/sg12_144_cif.got.tgz:287337.got - 2010.06.03 13:09:07.
