data_PCOD9177469
_publ_section_title
;
Structure prediction by ZEFSAII (Michael W. Deem and Ramdas Pophale) SiO2 
 PCOD9177469
Probable space group: C 2/M
;
_chemical_formula_sum "Si O2"
_cell_formula_units_Z 48
_cell_length_a 23.494438
_cell_length_b 9.088848
_cell_length_c 17.952565
_cell_angle_alpha 90.000000
_cell_angle_beta 49.398368
_cell_angle_gamma 90.000000
_cell_volume 2910.628614
_symmetry_space_group_name_H-M "C 2/M"
_symmetry_group_IT_number 12
_symmetry_cell_setting 'monoclinic'
loop_
_space_group_symop_operation_xyz
x,y,z
-x,y,-z
-x,-y,-z
x,-y,z
1/2+x,1/2+y,z
1/2-x,1/2+y,-z
1/2-x,1/2-y,-z
1/2+x,1/2-y,z
loop_
_atom_site_type_symbol
_atom_site_label
_atom_site_fract_x
_atom_site_fract_y
_atom_site_fract_z
Si Si1 0.975015 0.823964 0.900930
Si Si2 0.621743 0.324185 0.875566
Si Si3 0.222262 0.665715 0.094894
Si Si4 0.543438 0.165803 0.240790
Si Si5 0.056056 0.822988 0.385444
Si Si6 0.228628 0.175132 0.243245
O O1 0.052791 0.796246 0.878248
O O2 0.975777 0.747114 0.820028
O O3 0.967391 0.000000 0.897220
O O4 0.909395 0.777807 0.015507
O O5 0.633239 0.500000 0.868918
O O6 0.698189 0.248574 0.782596
O O7 0.253456 0.500000 0.075910
O O8 0.133272 0.654213 0.164062
O O9 0.238763 0.767110 0.150876
O O10 0.250000 0.750000 0.000000
O O11 0.529346 0.250985 0.330465
O O12 0.511872 0.000000 0.269336
O O13 0.142132 0.780235 0.333754
O O14 0.000000 0.785314 0.500000
O O15 0.056607 0.000000 0.375014
O O16 0.233265 0.000000 0.245763
#
# Coordination Sequence:
#
# PCOD9177469 Si02
#       6
#     8   8   8   8   8   8
#     4   9  18  32  49  69  97 135 170 194 224 275
#     4   9  18  32  49  70  98 133 168 197 228 271
#     4  10  19  29  42  64  95 127 156 188 230 280
#     4  10  20  31  46  71  98 123 155 198 243 281
#     4   9  19  36  55  72  92 122 158 196 243 297
#     4  10  19  30  47  71  95 121 155 195 239 284
#
# _framework density 16.491282999999999
#
# number of rings (size 3 to 8) (size 9 to 14) (size 15 to 20)
#    0.000    2.500    0.000    3.500    0.000    7.000 
#    0.000    1.667    0.000    1.000    0.000    0.000 
#    0.000    0.000    0.000    0.000    0.000    0.000 
#
# Total GULP energy -133630.418139 kJ/mol
# GULP energy per Si atom -5567.934089 kJ/mol
# Density = 1.645375 g / cm^3
# Si number density = 16.491283 Si / 1000 Ang^3
#
#
#
# Elastic Constant Matrix: (Units=GPa)
#
#
# Indices 1 2 3 4 5 6 
#
# 1 88.1780 38.2128 49.4491 0.0003 -2.5669 -0.0005
# 2 38.2128 43.6572 44.0673 0.0006 1.7504 -0.0013
# 3 49.4491 44.0673 104.4854 0.0002 1.5967 -0.0005
# 4 0.0003 0.0006 0.0002 18.1843 0.0000 -2.1075
# 5 -2.5669 1.7504 1.5967 0.0000 25.6283 0.0002
# 6 -0.0005 -0.0013 -0.0005 -2.1075 0.0002 28.4148
#
#
#
# Elastic Compliance Matrix: (Units=1/GPa)
#
#
# Indices 1 2 3 4 5 6 
#
# 1 0.019190 -0.013416 -0.003470 0.000000 0.003055 0.000000
# 2 -0.013416 0.049338 -0.014401 -0.000001 -0.003816 0.000002
# 3 -0.003470 -0.014401 0.017293 0.000000 -0.000441 0.000000
# 4 0.000000 -0.000001 0.000000 0.055469 0.000000 0.004114
# 5 0.003055 -0.003816 -0.000441 0.000000 0.039613 0.000000
# 6 0.000000 0.000002 0.000000 0.004114 0.000000 0.035498
#
#
# Mechanical properties :
#
#
# Convention : Reuss Voigt Hill
#
# Bulk Modulus (GPa) = 43.01695 55.53099 49.27397
# Shear Modulus (GPa) = 17.43827 21.41823 19.42825
#
# Velocity S-wave (km/s) = 3.25533 3.60774 3.43606
# Velocity P-wave (km/s) = 6.34593 7.14846 6.75912
#
# Compressibility (1/GPa) = 0.02324665
#
# Stress axis : x y z
#
# Youngs Moduli (GPa) = 52.11132 20.26826 57.82586
#
# Poissons Ratio (x) = 0.27193 0.20065
# Poissons Ratio (y) = 0.69915 0.83274
# Poissons Ratio (z) = 0.18082 0.29188
#
# Static dielectric constant tensor:
#      x y z
#    x 1.580930 0.000000 -0.024000 
#    y 0.000000 1.576010 0.000000 
#    z -0.024000 0.000000 1.587470 
# 
# From -- ./inp_files/287267.got.cif
#   From: 2010.05.17/outbox.cif.g08.bks.cpg/sg12_144_cif.got.tgz:287267.got - 2010.06.03 13:09:07.
