data_PCOD9177868
_publ_section_title
;
Structure prediction by ZEFSAII (Michael W. Deem and Ramdas Pophale) SiO2 
 PCOD9177868
Probable space group: C 2/M
;
_chemical_formula_sum "Si O2"
_cell_formula_units_Z 48
_cell_length_a 28.507609
_cell_length_b 7.621904
_cell_length_c 12.245180
_cell_angle_alpha 90.000000
_cell_angle_beta 71.984718
_cell_angle_gamma 90.000000
_cell_volume 2530.219000
_symmetry_space_group_name_H-M "C 2/M"
_symmetry_group_IT_number 12
_symmetry_cell_setting 'monoclinic'
loop_
_space_group_symop_operation_xyz
x,y,z
-x,y,-z
-x,-y,-z
x,-y,z
1/2+x,1/2+y,z
1/2-x,1/2+y,-z
1/2-x,1/2-y,-z
1/2+x,1/2-y,z
loop_
_atom_site_type_symbol
_atom_site_label
_atom_site_fract_x
_atom_site_fract_y
_atom_site_fract_z
Si Si1 0.144017 0.786415 0.249196
Si Si2 0.694616 0.710651 0.998078
Si Si3 0.373126 0.208495 0.402390
Si Si4 0.681414 0.288593 0.761150
Si Si5 0.554930 0.293670 0.462844
Si Si6 0.215484 0.704858 0.388950
O O1 0.094277 0.723611 0.345487
O O2 0.189181 0.720672 0.290808
O O3 0.144531 0.000000 0.252592
O O4 0.155669 0.729213 0.117897
O O5 0.691026 0.500000 0.996286
O O6 0.683466 0.776860 0.884092
O O7 0.750000 0.750000 0.000000
O O8 0.365347 0.246625 0.280756
O O9 0.419693 0.276609 0.436683
O O10 0.324476 0.283719 0.499401
O O11 0.373661 0.000000 0.417396
O O12 0.685618 0.500000 0.762656
O O13 0.730273 0.217825 0.663801
O O14 0.500000 0.217329 0.500000
O O15 0.550564 0.500000 0.440872
O O16 0.221126 0.500000 0.413268
#
# Coordination Sequence:
#
# PCOD9177868 Si02
#       6
#     8   8   8   8   8   8
#     4   9  17  29  47  72  96 121 158 197 231 275
#     4  10  19  30  46  68  97 131 163 193 224 270
#     4  10  20  31  46  70  96 122 157 198 237 279
#     4  10  19  30  44  64  96 133 161 187 226 277
#     4   9  18  34  55  74  93 119 152 196 248 291
#     4   9  17  29  44  65  95 128 158 190 230 275
#
# _framework density 18.970689
#
# number of rings (size 3 to 8) (size 9 to 14) (size 15 to 20)
#    0.000    2.500    1.667    1.000    0.000    2.333 
#    0.000    0.000    0.000    1.000    0.000    7.000 
#    0.000    0.000    0.000    0.000    0.000    0.000 
#
# Total GULP energy -133795.046046 kJ/mol
# GULP energy per Si atom -5574.793585 kJ/mol
# Density = 1.892751 g / cm^3
# Si number density = 18.970689 Si / 1000 Ang^3
#
#
#
# Elastic Constant Matrix: (Units=GPa)
#
#
# Indices 1 2 3 4 5 6 
#
# 1 124.1267 -5.9841 65.8052 0.0000 4.3574 0.0000
# 2 -5.9841 39.8778 -5.0954 0.0000 -6.5534 0.0000
# 3 65.8052 -5.0954 93.3135 0.0000 23.4306 0.0000
# 4 0.0000 0.0000 0.0000 8.5299 0.0000 8.4472
# 5 4.3574 -6.5534 23.4306 0.0000 20.7735 0.0000
# 6 0.0000 0.0000 0.0000 8.4472 0.0000 12.7486
#
#
#
# Elastic Compliance Matrix: (Units=1/GPa)
#
#
# Indices 1 2 3 4 5 6 
#
# 1 0.015017 0.002667 -0.013763 0.000000 0.013214 0.000000
# 2 0.002667 0.026976 -0.003354 0.000000 0.011734 0.000000
# 3 -0.013763 -0.003354 0.027595 0.000000 -0.029296 0.000000
# 4 0.000000 0.000000 0.000000 0.340967 0.000000 -0.225925
# 5 0.013214 0.011734 -0.029296 0.000000 0.082111 0.000000
# 6 0.000000 0.000000 0.000000 -0.225925 0.000000 0.228138
#
#
# Mechanical properties :
#
#
# Convention : Reuss Voigt Hill
#
# Bulk Modulus (GPa) = 24.57657 40.75215 32.66436
# Shear Modulus (GPa) = 6.55078 21.91656 14.23367
#
# Velocity S-wave (km/s) = 1.86027 3.40264 2.74213
# Velocity P-wave (km/s) = 4.19491 6.07993 5.22316
#
# Compressibility (1/GPa) = 0.04068915
#
# Stress axis : x y z
#
# Youngs Moduli (GPa) = 66.59070 37.06932 36.23862
#
# Poissons Ratio (x) = -0.09885 0.49874
# Poissons Ratio (y) = -0.17757 0.12153
# Poissons Ratio (z) = 0.91646 0.12432
#
# Static dielectric constant tensor:
#      x y z
#    x 1.652990 0.000000 -0.006450 
#    y 0.000000 1.686640 0.000000 
#    z -0.006450 0.000000 1.709970 
# 
# From -- ./inp_files/172136.got.cif
#   From: 2010.05.17/outbox.cif.g08.bks.cpg/sg12_87_cif.got.tgz:172136.got - 2010.06.03 13:09:07.
