data_PCOD9177991
_publ_section_title
;
Structure prediction by ZEFSAII (Michael W. Deem and Ramdas Pophale) SiO2 
 PCOD9177991
Probable space group: C 2/M
;
_chemical_formula_sum "Si O2"
_cell_formula_units_Z 64
_cell_length_a 32.311766
_cell_length_b 8.394145
_cell_length_c 14.768259
_cell_angle_alpha 90.000000
_cell_angle_beta 88.866118
_cell_angle_gamma 90.000000
_cell_volume 4004.805350
_symmetry_space_group_name_H-M "C 2/M"
_symmetry_group_IT_number 12
_symmetry_cell_setting 'monoclinic'
loop_
_space_group_symop_operation_xyz
x,y,z
-x,y,-z
-x,-y,-z
x,-y,z
1/2+x,1/2+y,z
1/2-x,1/2+y,-z
1/2-x,1/2-y,-z
1/2+x,1/2-y,z
loop_
_atom_site_type_symbol
_atom_site_label
_atom_site_fract_x
_atom_site_fract_y
_atom_site_fract_z
Si Si1 0.754295 0.309320 0.396535
Si Si2 0.548594 0.807783 0.896507
Si Si3 0.084404 0.690513 0.284291
Si Si4 0.452307 0.806058 0.901040
Si Si5 0.422575 0.308041 0.291648
Si Si6 0.663783 0.307757 0.385705
Si Si7 0.342161 0.692010 0.404104
Si Si8 0.504444 0.307185 0.395393
O O1 0.756099 0.500000 0.395453
O O2 0.750000 0.250000 0.500000
O O3 0.710437 0.259271 0.354964
O O4 0.798385 0.243507 0.363138
O O5 0.500399 0.759335 0.885267
O O6 0.575016 0.742892 0.812554
O O7 0.549748 0.000000 0.894032
O O8 0.560761 0.755406 0.997478
O O9 0.084259 0.500000 0.282690
O O10 0.074622 0.749076 0.182704
O O11 0.127545 0.747842 0.323379
O O12 0.046564 0.746983 0.348869
O O13 0.451913 0.000000 0.901454
O O14 0.422521 0.500000 0.296005
O O15 0.381877 0.250949 0.346494
O O16 0.464461 0.252354 0.340140
O O17 0.662615 0.500000 0.386854
O O18 0.656404 0.254177 0.490569
O O19 0.342931 0.500000 0.406076
O O20 0.500000 0.257331 0.500000
O O21 0.505247 0.500000 0.393685
#
# Coordination Sequence:
#
# PCOD9177991 Si02
#       8
#     8   8   8   8   8   8   8   8
#     4   9  17  30  48  68  91 119 154 191 227 269
#     4   9  16  31  50  63  85 120 152 187 233 278
#     4  11  20  30  46  69  91 115 155 196 224 260
#     4   8  16  30  47  65  87 117 150 189 236 274
#     4  10  19  30  45  68  93 119 153 191 226 265
#     4   9  18  32  47  65  93 127 153 179 225 276
#     4   9  18  32  48  66  94 126 154 186 226 272
#     4  10  20  33  45  58  88 131 160 178 215 268
#
# _framework density 15.980801
#
# number of rings (size 3 to 8) (size 9 to 14) (size 15 to 20)
#    0.000    2.625    1.250    3.000    0.000    5.250 
#    0.000    3.750    0.000    0.000    0.000    0.875 
#    0.000    0.000    0.000    0.000    0.000    0.000 
#
# Total GULP energy -178306.093568 kJ/mol
# GULP energy per Si atom -5572.065424 kJ/mol
# Density = 1.594443 g / cm^3
# Si number density = 15.980801 Si / 1000 Ang^3
#
#
#
# Elastic Constant Matrix: (Units=GPa)
#
#
# Indices 1 2 3 4 5 6 
#
# 1 121.8624 13.2080 57.7895 0.0000 22.4084 0.0000
# 2 13.2080 4.9076 10.6368 0.0000 3.5538 0.0000
# 3 57.7895 10.6368 105.5424 0.0000 17.1829 0.0000
# 4 0.0000 0.0000 0.0000 19.1218 0.0000 -1.2163
# 5 22.4084 3.5538 17.1829 0.0000 13.3837 0.0000
# 6 0.0000 0.0000 0.0000 -1.2163 0.0000 24.5101
#
#
#
# Elastic Compliance Matrix: (Units=1/GPa)
#
#
# Indices 1 2 3 4 5 6 
#
# 1 0.014984 -0.021895 -0.003616 0.000000 -0.014632 0.000000
# 2 -0.021895 0.315927 -0.015375 0.000000 -0.027490 0.000000
# 3 -0.003616 -0.015375 0.014354 0.000000 -0.008292 0.000000
# 4 0.000000 0.000000 0.000000 0.052462 0.000000 0.002603
# 5 -0.014632 -0.027490 -0.008292 0.000000 0.117163 0.000000
# 6 0.000000 0.000000 0.000000 0.002603 0.000000 0.040929
#
#
# Mechanical properties :
#
#
# Convention : Reuss Voigt Hill
#
# Bulk Modulus (GPa) = 3.79518 43.95344 23.87431
# Shear Modulus (GPa) = 6.89253 21.44831 14.17042
#
# Velocity S-wave (km/s) = 2.07903 3.66748 2.98101
# Velocity P-wave (km/s) = 2.85362 6.74519 5.17884
#
# Compressibility (1/GPa) = 0.26349233
#
# Stress axis : x y z
#
# Youngs Moduli (GPa) = 66.73598 3.16529 69.66549
#
# Poissons Ratio (x) = 0.06931 0.25190
# Poissons Ratio (y) = 1.46121 1.07114
# Poissons Ratio (z) = 0.24130 0.04867
#
# Static dielectric constant tensor:
#      x y z
#    x 1.541480 0.000000 0.008810 
#    y 0.000000 1.555160 0.000000 
#    z 0.008810 0.000000 1.531310 
# 
# From -- ./inp_files/248394.got.cif
#   From: 2010.05.17/outbox.cif.g08.bks.cpg/sg12_125_cif.got.tgz:248394.got - 2010.06.03 13:09:07.
