data_PCOD9177516
_publ_section_title
;
Structure prediction by ZEFSAII (Michael W. Deem and Ramdas Pophale) SiO2 
 PCOD9177516
Probable space group: C 2/M
;
_chemical_formula_sum "Si O2"
_cell_formula_units_Z 56
_cell_length_a 27.547709
_cell_length_b 9.116958
_cell_length_c 16.371425
_cell_angle_alpha 90.000000
_cell_angle_beta 114.311623
_cell_angle_gamma 90.000000
_cell_volume 3747.077878
_symmetry_space_group_name_H-M "C 2/M"
_symmetry_group_IT_number 12
_symmetry_cell_setting 'monoclinic'
loop_
_space_group_symop_operation_xyz
x,y,z
-x,y,-z
-x,-y,-z
x,-y,z
1/2+x,1/2+y,z
1/2-x,1/2+y,-z
1/2-x,1/2-y,-z
1/2+x,1/2-y,z
loop_
_atom_site_type_symbol
_atom_site_label
_atom_site_fract_x
_atom_site_fract_y
_atom_site_fract_z
Si Si1 0.564099 0.824961 0.452665
Si Si2 0.146883 0.825173 0.813245
Si Si3 0.738722 0.826165 0.193054
Si Si4 0.257385 0.325728 0.633328
Si Si5 0.559186 0.175511 0.641315
Si Si6 0.832673 0.825656 0.533585
Si Si7 0.304501 0.175674 0.006680
O O1 0.503110 0.790195 0.387431
O O2 0.570438 0.791659 0.553694
O O3 0.608653 0.739695 0.433727
O O4 0.571230 0.000000 0.448205
O O5 0.202255 0.794870 0.802762
O O6 0.098615 0.762526 0.726943
O O7 0.143440 0.000000 0.821421
O O8 0.151373 0.746001 0.904244
O O9 0.730284 0.735745 0.268985
O O10 0.696633 0.795359 0.091154
O O11 0.736859 0.000000 0.209548
O O12 0.248842 0.500000 0.629941
O O13 0.204777 0.248602 0.560729
O O14 0.304274 0.294699 0.600592
O O15 0.566247 0.000000 0.656951
O O16 0.833188 0.000000 0.521703
O O17 0.302134 0.000000 0.016198
O O18 0.250000 0.250000 0.000000
#
# Coordination Sequence:
#
# PCOD9177516 Si02
#       7
#     8   8   8   8   8   8   8
#     4   9  18  32  48  65  87 117 150 183 219 258
#     4  10  19  29  43  66  93 120 149 179 216 261
#     4   9  18  30  44  65  91 117 147 182 217 257
#     4  10  20  31  45  65  88 118 151 180 217 262
#     4   9  18  31  46  66  90 116 149 183 216 259
#     4  10  20  32  45  64  90 117 148 185 219 256
#     4   9  17  29  44  63  88 117 147 180 219 261
#
# _framework density 14.944979
#
# number of rings (size 3 to 8) (size 9 to 14) (size 15 to 20)
#    0.000    2.571    0.000    4.286    0.000    8.571 
#    0.000    1.429    0.000    0.000    0.000    1.000 
#    0.000    8.000    0.000    0.000    0.000    0.000 
#
# Total GULP energy -156075.881192 kJ/mol
# GULP energy per Si atom -5574.138614 kJ/mol
# Density = 1.491096 g / cm^3
# Si number density = 14.944979 Si / 1000 Ang^3
#
#
#
# Elastic Constant Matrix: (Units=GPa)
#
#
# Indices 1 2 3 4 5 6 
#
# 1 62.4965 40.4008 38.0981 0.0000 5.1646 0.0000
# 2 40.4008 57.1977 62.4280 0.0000 0.6672 0.0000
# 3 38.0981 62.4280 127.3801 0.0000 7.1062 0.0000
# 4 0.0000 0.0000 0.0000 30.1833 0.0000 0.8420
# 5 5.1646 0.6672 7.1062 0.0000 18.1109 0.0000
# 6 0.0000 0.0000 0.0000 0.8420 0.0000 25.1328
#
#
#
# Elastic Compliance Matrix: (Units=1/GPa)
#
#
# Indices 1 2 3 4 5 6 
#
# 1 0.031530 -0.026777 0.004232 0.000000 -0.009665 0.000000
# 2 -0.026777 0.060974 -0.022671 0.000000 0.014285 0.000000
# 3 0.004232 -0.022671 0.018113 0.000000 -0.007479 0.000000
# 4 0.000000 0.000000 0.000000 0.033162 0.000000 -0.001111
# 5 -0.009665 0.014285 -0.007479 0.000000 0.060380 0.000000
# 6 0.000000 0.000000 0.000000 -0.001111 0.000000 0.039826
#
#
# Mechanical properties :
#
#
# Convention : Reuss Voigt Hill
#
# Bulk Modulus (GPa) = 49.54193 58.76977 54.15585
# Shear Modulus (GPa) = 14.65653 21.76190 18.20921
#
# Velocity S-wave (km/s) = 3.13501 3.82007 3.49437
# Velocity P-wave (km/s) = 6.80631 7.67247 7.25233
#
# Compressibility (1/GPa) = 0.02018492
#
# Stress axis : x y z
#
# Youngs Moduli (GPa) = 31.71631 16.40032 55.20897
#
# Poissons Ratio (x) = 0.43915 -0.23365
# Poissons Ratio (y) = 0.84926 1.25166
# Poissons Ratio (z) = -0.13423 0.37182
#
# Static dielectric constant tensor:
#      x y z
#    x 1.481450 0.000000 0.000300 
#    y 0.000000 1.493950 0.000000 
#    z 0.000300 0.000000 1.500980 
# 
# From -- ./inp_files/237458.got.cif
#   From: 2010.05.17/outbox.cif.g08.bks.cpg/sg12_119_cif.got.tgz:237458.got - 2010.06.03 13:09:07.
