data_PCOD9177591
_publ_section_title
;
Structure prediction by ZEFSAII (Michael W. Deem and Ramdas Pophale) SiO2 
 PCOD9177591
Probable space group: C 2/M
;
_chemical_formula_sum "Si O2"
_cell_formula_units_Z 56
_cell_length_a 21.490563
_cell_length_b 8.866053
_cell_length_c 17.774794
_cell_angle_alpha 90.000000
_cell_angle_beta 127.111208
_cell_angle_gamma 90.000000
_cell_volume 2700.814911
_symmetry_space_group_name_H-M "C 2/M"
_symmetry_group_IT_number 12
_symmetry_cell_setting 'monoclinic'
loop_
_space_group_symop_operation_xyz
x,y,z
-x,y,-z
-x,-y,-z
x,-y,z
1/2+x,1/2+y,z
1/2-x,1/2+y,-z
1/2-x,1/2-y,-z
1/2+x,1/2-y,z
loop_
_atom_site_type_symbol
_atom_site_label
_atom_site_fract_x
_atom_site_fract_y
_atom_site_fract_z
Si Si1 0.557400 0.833419 0.372755
Si Si2 0.714654 0.166517 0.403680
Si Si3 0.511033 0.680283 0.816098
Si Si4 0.648084 0.320786 0.216750
Si Si5 0.794787 0.317926 0.240401
Si Si6 0.909296 0.179785 0.449439
Si Si7 0.327747 0.819308 0.091637
O O1 0.626645 0.856487 0.364996
O O2 0.504263 0.725381 0.283087
O O3 0.597688 0.758911 0.474597
O O4 0.522735 0.000000 0.365023
O O5 0.750000 0.250000 0.500000
O O6 0.706713 0.274075 0.326895
O O7 0.748552 0.000000 0.413172
O O8 0.515136 0.500000 0.824220
O O9 0.439254 0.730207 0.820074
O O10 0.594787 0.754371 0.891736
O O11 0.640670 0.500000 0.206113
O O12 0.703213 0.270937 0.187050
O O13 0.797902 0.500000 0.251807
O O14 0.853029 0.244985 0.344206
O O15 0.823688 0.281181 0.177775
O O16 0.000000 0.211873 0.500000
O O17 0.900472 0.000000 0.446948
O O18 0.328052 0.000000 0.085515
O O19 0.250000 0.750000 0.000000
#
# Coordination Sequence:
#
# PCOD9177591 Si02
#       7
#     8   8   8   8   8   8   8
#     4  10  20  33  50  75 110 152 195 234 274 329
#     4  10  19  29  44  70 105 146 190 232 274 323
#     4  10  20  37  62  89 119 154 193 239 289 343
#     4   9  19  36  57  82 113 149 189 235 287 341
#     4  10  22  40  61  86 116 152 195 242 292 346
#     4  11  23  35  50  78 116 157 200 245 292 341
#     4  11  24  43  67  91 116 148 189 237 290 352
#
# _framework density 20.734484999999999
#
# number of rings (size 3 to 8) (size 9 to 14) (size 15 to 20)
#    0.000    1.857    0.000    3.857    0.000   10.857 
#    0.000    0.714    0.000    4.286    0.000    0.000 
#    0.000    0.000    0.000    0.000    0.000    0.000 
#
# Total GULP energy -155913.609054 kJ/mol
# GULP energy per Si atom -5568.343181 kJ/mol
# Density = 2.068729 g / cm^3
# Si number density = 20.734485 Si / 1000 Ang^3
#
#
#
# Elastic Constant Matrix: (Units=GPa)
#
#
# Indices 1 2 3 4 5 6 
#
# 1 158.9923 29.5579 39.4519 0.0000 23.8671 0.0000
# 2 29.5579 38.2446 15.0511 0.0000 12.7597 0.0000
# 3 39.4519 15.0511 44.1541 0.0000 26.2441 0.0000
# 4 0.0000 0.0000 0.0000 28.0072 0.0000 7.1979
# 5 23.8671 12.7597 26.2441 0.0000 27.9923 0.0000
# 6 0.0000 0.0000 0.0000 7.1979 0.0000 21.9718
#
#
#
# Elastic Compliance Matrix: (Units=1/GPa)
#
#
# Indices 1 2 3 4 5 6 
#
# 1 0.008641 -0.004323 -0.006864 0.000000 0.001039 0.000000
# 2 -0.004323 0.033471 -0.001511 0.000000 -0.010154 0.000000
# 3 -0.006864 -0.001511 0.057388 0.000000 -0.047262 0.000000
# 4 0.000000 0.000000 0.000000 0.038988 0.000000 -0.012772
# 5 0.001039 -0.010154 -0.047262 0.000000 0.083777 0.000000
# 6 0.000000 0.000000 0.000000 -0.012772 0.000000 0.049697
#
#
# Mechanical properties :
#
#
# Convention : Reuss Voigt Hill
#
# Bulk Modulus (GPa) = 13.49494 45.50141 29.49817
# Shear Modulus (GPa) = 15.52504 26.08293 20.80398
#
# Velocity S-wave (km/s) = 2.73931 3.55061 3.17101
# Velocity P-wave (km/s) = 4.06542 6.22909 5.25971
#
# Compressibility (1/GPa) = 0.07410186
#
# Stress axis : x y z
#
# Youngs Moduli (GPa) = 115.73188 29.87633 17.42526
#
# Poissons Ratio (x) = 0.12916 0.11961
# Poissons Ratio (y) = 0.50034 0.02634
# Poissons Ratio (z) = 0.79442 0.04516
#
# Static dielectric constant tensor:
#      x y z
#    x 1.907350 0.000000 0.001660 
#    y 0.000000 1.771510 0.000000 
#    z 0.001660 0.000000 1.723610 
# 
# From -- ./inp_files/288374.got.cif
#   From: 2010.05.17/outbox.cif.g08.bks.cpg/sg12_145_cif.got.tgz:288374.got - 2010.06.03 13:09:07.
