data_PCOD9177411
_publ_section_title
;
Structure prediction by ZEFSAII (Michael W. Deem and Ramdas Pophale) SiO2 
 PCOD9177411
Probable space group: C 2/M
;
_chemical_formula_sum "Si O2"
_cell_formula_units_Z 64
_cell_length_a 25.193457
_cell_length_b 8.941474
_cell_length_c 17.086627
_cell_angle_alpha 90.000000
_cell_angle_beta 71.324006
_cell_angle_gamma 90.000000
_cell_volume 3646.373669
_symmetry_space_group_name_H-M "C 2/M"
_symmetry_group_IT_number 12
_symmetry_cell_setting 'monoclinic'
loop_
_space_group_symop_operation_xyz
x,y,z
-x,y,-z
-x,-y,-z
x,-y,z
1/2+x,1/2+y,z
1/2-x,1/2+y,-z
1/2-x,1/2-y,-z
1/2+x,1/2-y,z
loop_
_atom_site_type_symbol
_atom_site_label
_atom_site_fract_x
_atom_site_fract_y
_atom_site_fract_z
Si Si1 0.516159 0.821796 0.403619
Si Si2 0.367912 0.680287 0.207673
Si Si3 0.241226 0.677035 0.242239
Si Si4 0.072797 0.823225 0.142081
Si Si5 0.234282 0.669548 0.928622
Si Si6 0.957646 0.822578 0.291277
Si Si7 0.101627 0.332091 0.967385
Si Si8 0.626586 0.679429 0.277895
O O1 0.500000 0.784496 0.500000
O O2 0.469126 0.767280 0.364715
O O3 0.573079 0.741195 0.349648
O O4 0.523510 0.000000 0.393861
O O5 0.368445 0.500000 0.199678
O O6 0.302383 0.726159 0.245795
O O7 0.403563 0.721997 0.266879
O O8 0.397661 0.745626 0.115763
O O9 0.235503 0.500000 0.256722
O O10 0.246920 0.722155 0.149118
O O11 0.183387 0.759027 0.290073
O O12 0.116200 0.774538 0.190832
O O13 0.011965 0.801508 0.209981
O O14 0.081729 0.000000 0.125106
O O15 0.076030 0.744427 0.056535
O O16 0.257379 0.500000 0.909856
O O17 0.167553 0.658595 0.955594
O O18 0.250000 0.750000 0.000000
O O19 0.954679 0.000000 0.310170
O O20 0.079217 0.500000 0.967769
O O21 0.626401 0.500000 0.278760
#
# Coordination Sequence:
#
# PCOD9177411 Si02
#       8
#     8   8   8   8   8   8   8   8
#     4  10  21  37  59  87 113 133 156 196 252 307
#     4   9  19  35  52  70  98 139 181 216 255 302
#     4  10  19  31  49  72  99 133 171 214 260 305
#     4   9  18  31  47  68  96 131 171 216 263 306
#     4  10  19  29  41  60  89 128 174 221 266 310
#     4   9  19  36  56  77 101 134 174 211 252 306
#     4  10  20  30  42  64  95 132 175 220 261 301
#     4  10  20  34  54  79 106 137 171 209 255 307
#
# _framework density 17.551684999999999
#
# number of rings (size 3 to 8) (size 9 to 14) (size 15 to 20)
#    0.000    2.375    0.000    3.375    0.000    8.500 
#    0.000    2.500    0.000    0.750    0.000    0.000 
#    0.000    0.000    0.000    0.000    0.000    0.000 
#
# Total GULP energy -178360.991975 kJ/mol
# GULP energy per Si atom -5573.780999 kJ/mol
# Density = 1.751174 g / cm^3
# Si number density = 17.551685 Si / 1000 Ang^3
#
#
#
# Elastic Constant Matrix: (Units=GPa)
#
#
# Indices 1 2 3 4 5 6 
#
# 1 108.4443 36.4497 49.6995 0.0000 14.9630 0.0000
# 2 36.4497 47.8888 38.5959 0.0000 8.9716 0.0000
# 3 49.6995 38.5959 89.1240 0.0000 15.8205 0.0000
# 4 0.0000 0.0000 0.0000 25.5446 0.0000 -0.9869
# 5 14.9630 8.9716 15.8205 0.0000 15.7187 0.0000
# 6 0.0000 0.0000 0.0000 -0.9869 0.0000 22.6695
#
#
#
# Elastic Compliance Matrix: (Units=1/GPa)
#
#
# Indices 1 2 3 4 5 6 
#
# 1 0.013981 -0.006313 -0.004066 0.000000 -0.005613 0.000000
# 2 -0.006313 0.035290 -0.011267 0.000000 -0.002793 0.000000
# 3 -0.004066 -0.011267 0.020136 0.000000 -0.009965 0.000000
# 4 0.000000 0.000000 0.000000 0.039213 0.000000 0.001707
# 5 -0.005613 -0.002793 -0.009965 0.000000 0.080586 0.000000
# 6 0.000000 0.000000 0.000000 0.001707 0.000000 0.044187
#
#
# Mechanical properties :
#
#
# Convention : Reuss Voigt Hill
#
# Bulk Modulus (GPa) = 38.29067 54.99412 46.64240
# Shear Modulus (GPa) = 17.51992 20.83401 19.17697
#
# Velocity S-wave (km/s) = 3.16284 3.44904 3.30904
# Velocity P-wave (km/s) = 5.93308 6.87472 6.42119
#
# Compressibility (1/GPa) = 0.02611602
#
# Stress axis : x y z
#
# Youngs Moduli (GPa) = 71.52454 28.33660 49.66253
#
# Poissons Ratio (x) = 0.17888 0.20195
# Poissons Ratio (y) = 0.45151 0.55953
# Poissons Ratio (z) = 0.29085 0.31926
#
# Static dielectric constant tensor:
#      x y z
#    x 1.646400 0.000000 -0.012840 
#    y 0.000000 1.603910 0.000000 
#    z -0.012840 0.000000 1.550430 
# 
# From -- ./inp_files/243845.got.cif
#   From: 2010.05.17/outbox.cif.g08.bks.cpg/sg12_122_cif.got.tgz:243845.got - 2010.06.03 13:09:07.
