data_PCOD9177113
_publ_section_title
;
Structure prediction by ZEFSAII (Michael W. Deem and Ramdas Pophale) SiO2 
 PCOD9177113
Probable space group: C 2/M
;
_chemical_formula_sum "Si O2"
_cell_formula_units_Z 48
_cell_length_a 22.171105
_cell_length_b 16.394195
_cell_length_c 16.654758
_cell_angle_alpha 90.000000
_cell_angle_beta 23.179061
_cell_angle_gamma 90.000000
_cell_volume 2382.744365
_symmetry_space_group_name_H-M "C 2/M"
_symmetry_group_IT_number 12
_symmetry_cell_setting 'monoclinic'
loop_
_space_group_symop_operation_xyz
x,y,z
-x,y,-z
-x,-y,-z
x,-y,z
1/2+x,1/2+y,z
1/2-x,1/2+y,-z
1/2-x,1/2-y,-z
1/2+x,1/2-y,z
loop_
_atom_site_type_symbol
_atom_site_label
_atom_site_fract_x
_atom_site_fract_y
_atom_site_fract_z
Si Si1 0.912401 0.177621 0.744782
Si Si2 0.094435 0.721468 0.084962
Si Si3 0.254264 0.500000 0.753618
Si Si4 0.097178 0.000000 0.257030
Si Si5 0.321168 0.903425 0.413678
Si Si6 0.913075 0.821627 0.177834
Si Si7 0.748244 0.843170 0.677329
O O1 0.919655 0.239428 0.809603
O O2 0.879358 0.085336 0.815814
O O3 0.080580 0.174711 0.501398
O O4 0.772633 0.200219 0.857930
O O5 0.982402 0.643963 0.218531
O O6 0.031033 0.785912 0.098829
O O7 0.421410 0.500000 0.504617
O O8 0.293036 0.500000 0.799543
O O9 0.177775 0.415883 0.817373
O O10 0.215229 0.869922 0.615420
O O11 0.244175 0.878478 0.422913
O O12 0.339413 0.000000 0.394816
O O13 0.838886 0.741699 0.226112
O O14 0.000000 0.868013 0.000000
#
# Coordination Sequence:
#
# PCOD9177113 Si02
#       7
#     8   8   4   4   8   8   8
#     4  10  19  35  61  83 119 151 190 234 285 359
#     4  10  21  38  58  89 112 152 201 238 290 351
#     4   9  18  32  52  87 118 146 180 222 293 359
#     4   9  20  30  51  90 123 142 177 227 294 359
#     4  11  21  39  62  83 113 155 202 247 284 340
#     4  11  23  38  57  86 118 155 199 243 290 343
#     4  10  18  38  59  83 117 158 189 231 294 352
#
# _framework density 20.144838
#
# number of rings (size 3 to 8) (size 9 to 14) (size 15 to 20)
#    0.000    1.833    4.167    1.000    3.500    0.333 
#    0.000    0.417    0.000    0.000    0.000    4.667 
#    0.000    0.000    0.000    0.000    0.000    0.000 
#
# Total GULP energy -134057.742914 kJ/mol
# GULP energy per Si atom -5585.739288 kJ/mol
# Density = 2.009899 g / cm^3
# Si number density = 20.144838 Si / 1000 Ang^3
#
#
#
# Elastic Constant Matrix: (Units=GPa)
#
#
# Indices 1 2 3 4 5 6 
#
# 1 64.1626 20.9981 57.0506 0.0004 -10.3244 -0.0002
# 2 20.9981 69.9392 21.6810 0.0006 2.0130 -0.0005
# 3 57.0506 21.6810 87.1186 0.0001 -10.3063 -0.0002
# 4 0.0004 0.0006 0.0001 2.3456 -0.0003 -4.8280
# 5 -10.3244 2.0130 -10.3063 -0.0003 42.0173 0.0003
# 6 -0.0002 -0.0005 -0.0002 -4.8280 0.0003 27.9764
#
#
#
# Elastic Compliance Matrix: (Units=1/GPa)
#
#
# Indices 1 2 3 4 5 6 
#
# 1 0.038942 -0.004380 -0.023950 -0.000005 0.003904 -0.000001
# 2 -0.004380 0.016110 -0.001400 -0.000005 -0.002192 -0.000001
# 3 -0.023950 -0.001400 0.027624 0.000004 0.000958 0.000001
# 4 -0.000005 -0.000005 0.000004 0.661208 0.000004 0.114106
# 5 0.003904 -0.002192 0.000958 0.000004 0.025099 0.000000
# 6 -0.000001 -0.000001 0.000001 0.114106 0.000000 0.055436
#
#
# Mechanical properties :
#
#
# Convention : Reuss Voigt Hill
#
# Bulk Modulus (GPa) = 43.07258 46.74217 44.90737
# Shear Modulus (GPa) = 5.60778 22.56721 14.08750
#
# Velocity S-wave (km/s) = 1.67026 3.35064 2.64732
# Velocity P-wave (km/s) = 5.01473 6.18243 5.62895
#
# Compressibility (1/GPa) = 0.02321663
#
# Stress axis : x y z
#
# Youngs Moduli (GPa) = 25.67914 62.07209 36.19999
#
# Poissons Ratio (x) = 0.27186 0.86698
# Poissons Ratio (y) = 0.11247 0.05070
# Poissons Ratio (z) = 0.61501 0.08693
#
# Static dielectric constant tensor:
#      x y z
#    x 1.706410 0.000000 -0.004920 
#    y 0.000000 1.726440 0.000000 
#    z -0.004920 0.000000 1.775590 
# 
# From -- ./inp_files/290534.got.cif
#   From: 2010.05.17/outbox.cif.g08.bks.cpg/sg12_146_cif.got.tgz:290534.got - 2010.06.03 13:09:07.
