data_PCOD9177679
_publ_section_title
;
Structure prediction by ZEFSAII (Michael W. Deem and Ramdas Pophale) SiO2 
 PCOD9177679
Probable space group: C 2/M
;
_chemical_formula_sum "Si O2"
_cell_formula_units_Z 56
_cell_length_a 20.689078
_cell_length_b 9.108573
_cell_length_c 24.982872
_cell_angle_alpha 90.000000
_cell_angle_beta 46.571259
_cell_angle_gamma 90.000000
_cell_volume 3419.069904
_symmetry_space_group_name_H-M "C 2/M"
_symmetry_group_IT_number 12
_symmetry_cell_setting 'monoclinic'
loop_
_space_group_symop_operation_xyz
x,y,z
-x,y,-z
-x,-y,-z
x,-y,z
1/2+x,1/2+y,z
1/2-x,1/2+y,-z
1/2-x,1/2-y,-z
1/2+x,1/2-y,z
loop_
_atom_site_type_symbol
_atom_site_label
_atom_site_fract_x
_atom_site_fract_y
_atom_site_fract_z
Si Si1 0.344565 0.325322 0.700999
Si Si2 0.217393 0.325264 0.464586
Si Si3 0.431024 0.328421 0.988947
Si Si4 0.792792 0.823524 0.150946
Si Si5 0.431169 0.825169 0.154250
Si Si6 0.293825 0.826363 0.317906
Si Si7 0.487806 0.175462 0.444427
O O1 0.346615 0.500000 0.707691
O O2 0.299560 0.246889 0.777686
O O3 0.280105 0.296500 0.686204
O O4 0.440058 0.260742 0.631660
O O5 0.227080 0.500000 0.462608
O O6 0.250000 0.250000 0.500000
O O7 0.271139 0.265170 0.382983
O O8 0.113125 0.292033 0.514499
O O9 0.430215 0.500000 0.974557
O O10 0.472260 0.233483 0.917679
O O11 0.500000 0.314667 0.000000
O O12 0.335577 0.287437 0.068683
O O13 0.863197 0.757209 0.153194
O O14 0.790557 0.000000 0.156790
O O15 0.389894 0.795924 0.236212
O O16 0.425379 0.000000 0.148520
O O17 0.289095 0.000000 0.332747
O O18 0.500000 0.214364 0.500000
O O19 0.503104 0.000000 0.430745
#
# Coordination Sequence:
#
# PCOD9177679 Si02
#       7
#     8   8   8   8   8   8   8
#     4  10  19  29  46  71  95 123 159 202 246 284
#     4  11  23  37  54  73  97 129 162 203 248 292
#     4   8  14  23  34  52  80 119 158 190 231 282
#     4   9  16  25  37  55  86 123 157 194 235 284
#     4   9  16  24  37  59  85 117 155 197 239 282
#     4   9  18  31  45  66  95 124 159 199 243 290
#     4  10  20  35  53  74  97 125 165 202 241 295
#
# _framework density 16.378723999999998
#
# number of rings (size 3 to 8) (size 9 to 14) (size 15 to 20)
#    0.000    2.571    1.429    3.429    0.000    7.429 
#    0.000    0.000    0.000    0.000    0.000    0.000 
#    0.000    1.143    0.000    3.714    0.000    6.143 
#
# Total GULP energy -155945.581872 kJ/mol
# GULP energy per Si atom -5569.485067 kJ/mol
# Density = 1.634145 g / cm^3
# Si number density = 16.378724 Si / 1000 Ang^3
#
#
#
# Elastic Constant Matrix: (Units=GPa)
#
#
# Indices 1 2 3 4 5 6 
#
# 1 46.1875 35.6064 43.8349 0.0000 0.6151 0.0000
# 2 35.6064 68.3758 88.0868 0.0000 -3.7023 0.0000
# 3 43.8349 88.0868 187.5601 0.0000 -15.9586 0.0000
# 4 0.0000 0.0000 0.0000 35.2638 0.0000 -0.4724
# 5 0.6151 -3.7023 -15.9586 0.0000 8.6664 0.0000
# 6 0.0000 0.0000 0.0000 -0.4724 0.0000 14.3552
#
#
#
# Elastic Compliance Matrix: (Units=1/GPa)
#
#
# Indices 1 2 3 4 5 6 
#
# 1 0.037241 -0.018986 -0.000832 0.000000 -0.012287 0.000000
# 2 -0.018986 0.049618 -0.020096 0.000000 -0.014461 0.000000
# 3 -0.000832 -0.020096 0.016884 0.000000 0.022565 0.000000
# 4 0.000000 0.000000 0.000000 0.028370 0.000000 0.000934
# 5 -0.012287 -0.014461 0.022565 0.000000 0.151633 0.000000
# 6 0.000000 0.000000 0.000000 0.000934 0.000000 0.069692
#
#
# Mechanical properties :
#
#
# Convention : Reuss Voigt Hill
#
# Bulk Modulus (GPa) = 41.81596 70.79772 56.30684
# Shear Modulus (GPa) = 11.33170 20.63010 15.98090
#
# Velocity S-wave (km/s) = 2.63317 3.55289 3.12703
# Velocity P-wave (km/s) = 5.90177 7.75564 6.89133
#
# Compressibility (1/GPa) = 0.02391431
#
# Stress axis : x y z
#
# Youngs Moduli (GPa) = 26.85206 20.15380 59.22707
#
# Poissons Ratio (x) = 0.38264 0.04930
# Poissons Ratio (y) = 0.50982 1.19024
# Poissons Ratio (z) = 0.02235 0.40501
#
# Static dielectric constant tensor:
#      x y z
#    x 1.520640 0.000000 -0.021220 
#    y 0.000000 1.542430 0.000000 
#    z -0.021220 0.000000 1.595790 
# 
# From -- ./inp_files/348486.got.cif
#   From: 2010.05.17/outbox.cif.g08.bks.cpg/sg12_175_cif.got.tgz:348486.got - 2010.06.03 13:09:07.
