data_PCOD9177937
_publ_section_title
;
Structure prediction by ZEFSAII (Michael W. Deem and Ramdas Pophale) SiO2 
 PCOD9177937
Probable space group: C 2/M
;
_chemical_formula_sum "Si O2"
_cell_formula_units_Z 58
_cell_length_a 27.574877
_cell_length_b 8.292737
_cell_length_c 25.293728
_cell_angle_alpha 90.000000
_cell_angle_beta 151.029801
_cell_angle_gamma 90.000000
_cell_volume 2801.481681
_symmetry_space_group_name_H-M "C 2/M"
_symmetry_group_IT_number 12
_symmetry_cell_setting 'monoclinic'
loop_
_space_group_symop_operation_xyz
x,y,z
-x,y,-z
-x,-y,-z
x,-y,z
1/2+x,1/2+y,z
1/2-x,1/2+y,-z
1/2-x,1/2-y,-z
1/2+x,1/2-y,z
loop_
_atom_site_type_symbol
_atom_site_label
_atom_site_fract_x
_atom_site_fract_y
_atom_site_fract_z
Si Si1 0.881577 0.684448 0.340812
Si Si2 0.111663 0.692657 0.825233
Si Si3 0.000000 0.000000 0.000000
Si Si4 0.658726 0.308326 0.981738
Si Si5 0.034793 0.186524 0.405543
Si Si6 0.191698 0.323434 0.118138
Si Si7 0.712056 0.190429 0.636415
Si Si8 0.088085 0.316668 0.134074
O O1 0.917066 0.500000 0.376555
O O2 0.963062 0.786760 0.387942
O O3 0.779624 0.694329 0.209555
O O4 0.848396 0.738271 0.367447
O O5 0.111034 0.500000 0.825679
O O6 0.224584 0.743126 0.915820
O O7 0.029200 0.751298 0.705186
O O8 0.099412 0.758158 0.872889
O O9 0.969652 0.145671 0.927888
O O10 0.655079 0.500000 0.984547
O O11 0.627680 0.221573 0.006047
O O12 0.137823 0.277096 0.517282
O O13 0.056876 0.000000 0.419771
O O14 0.237864 0.500000 0.154185
O O15 0.134541 0.327421 0.118865
O O16 0.816533 0.284875 0.737109
O O17 0.732184 0.000000 0.661348
O O18 0.046811 0.500000 0.105115
#
# Coordination Sequence:
#
# PCOD9177937 Si02
#       8
#     8   8   2   8   8   8   8   8
#     4  10  19  30  45  65  93 135 184 217 252 293
#     4  10  20  32  44  64  93 137 185 224 262 296
#     4  12  22  40  64  82 110 140 158 216 264 342
#     4  10  19  30  48  66  96 135 178 223 262 301
#     4  12  22  30  44  66  99 138 182 225 255 298
#     4  10  19  31  50  74 103 137 173 216 257 305
#     4  10  20  35  51  70 100 137 175 217 257 306
#     4  10  22  38  58  85 110 138 171 207 263 326
#
# _framework density 20.703330000000001
#
# number of rings (size 3 to 8) (size 9 to 14) (size 15 to 20)
#    0.000    1.655    2.069    3.931    1.931    4.414 
#    0.000    0.000    0.000    0.000    0.000    0.000 
#    0.000    1.103    1.931    0.414    0.000    0.276 
#
# Total GULP energy -161587.253198 kJ/mol
# GULP energy per Si atom -5571.974248 kJ/mol
# Density = 2.065621 g / cm^3
# Si number density = 20.703330 Si / 1000 Ang^3
#
#
#
# Elastic Constant Matrix: (Units=GPa)
#
#
# Indices 1 2 3 4 5 6 
#
# 1 18.8892 17.7247 6.0408 0.0000 -10.2683 0.0000
# 2 17.7247 97.9399 34.8264 0.0000 4.6234 0.0000
# 3 6.0408 34.8264 131.8032 0.0000 -13.8105 0.0000
# 4 0.0000 0.0000 0.0000 33.6650 0.0000 -2.5893
# 5 -10.2683 4.6234 -13.8105 0.0000 20.9438 0.0000
# 6 0.0000 0.0000 0.0000 -2.5893 0.0000 16.9845
#
#
#
# Elastic Compliance Matrix: (Units=1/GPa)
#
#
# Indices 1 2 3 4 5 6 
#
# 1 0.110438 -0.026197 0.008744 0.000000 0.065694 0.000000
# 2 -0.026197 0.017947 -0.005696 0.000000 -0.020562 0.000000
# 3 0.008744 -0.005696 0.009961 0.000000 0.012113 0.000000
# 4 0.000000 0.000000 0.000000 0.030057 0.000000 0.004582
# 5 0.065694 -0.020562 0.012113 0.000000 0.092481 0.000000
# 6 0.000000 0.000000 0.000000 0.004582 0.000000 0.059576
#
#
# Mechanical properties :
#
#
# Convention : Reuss Voigt Hill
#
# Bulk Modulus (GPa) = 10.86395 40.64623 25.75509
# Shear Modulus (GPa) = 12.58051 26.98802 19.78427
#
# Velocity S-wave (km/s) = 2.46774 3.61440 3.09464
# Velocity P-wave (km/s) = 3.65766 6.09047 5.02356
#
# Compressibility (1/GPa) = 0.09204757
#
# Stress axis : x y z
#
# Youngs Moduli (GPa) = 9.05489 55.71823 100.39590
#
# Poissons Ratio (x) = 1.45965 -0.87786
# Poissons Ratio (y) = 0.23721 0.57187
# Poissons Ratio (z) = -0.07918 0.31738
#
# Static dielectric constant tensor:
#      x y z
#    x 1.775260 0.000000 0.023310 
#    y 0.000000 1.718030 0.000000 
#    z 0.023310 0.000000 1.792040 
# 
# From -- ./inp_files/353100.got.cif
#   From: 2010.05.17/outbox.cif.g08.bks.cpg/sg12_177_cif.got.tgz:353100.got - 2010.06.03 13:09:07.
