data_PCOD9177816
_publ_section_title
;
Structure prediction by ZEFSAII (Michael W. Deem and Ramdas Pophale) SiO2 
 PCOD9177816
Probable space group: C 2/M
;
_chemical_formula_sum "Si O2"
_cell_formula_units_Z 64
_cell_length_a 15.057080
_cell_length_b 15.297400
_cell_length_c 15.103489
_cell_angle_alpha 90.000000
_cell_angle_beta 58.109801
_cell_angle_gamma 90.000000
_cell_volume 2953.759316
_symmetry_space_group_name_H-M "C 2/M"
_symmetry_group_IT_number 12
_symmetry_cell_setting 'monoclinic'
loop_
_space_group_symop_operation_xyz
x,y,z
-x,y,-z
-x,-y,-z
x,-y,z
1/2+x,1/2+y,z
1/2-x,1/2+y,-z
1/2-x,1/2-y,-z
1/2+x,1/2-y,z
loop_
_atom_site_type_symbol
_atom_site_label
_atom_site_fract_x
_atom_site_fract_y
_atom_site_fract_z
Si Si1 0.430721 0.672985 0.421288
Si Si2 0.593060 0.399288 0.748298
Si Si3 0.883340 0.629625 0.470686
Si Si4 0.372046 0.094573 0.675035
Si Si5 0.618711 0.394108 0.928294
Si Si6 0.671528 0.291403 0.260131
Si Si7 0.236171 0.903417 0.380099
Si Si8 0.160370 0.101835 0.095343
O O1 0.385141 0.659928 0.347075
O O2 0.395233 0.766554 0.475202
O O3 0.555081 0.672184 0.346015
O O4 0.377266 0.604034 0.513499
O O5 0.617401 0.500000 0.714463
O O6 0.646682 0.373839 0.812273
O O7 0.467039 0.397147 0.830510
O O8 0.841525 0.596801 0.587039
O O9 0.815067 0.609380 0.420672
O O10 0.001026 0.595810 0.393794
O O11 0.342972 0.187031 0.734678
O O12 0.338479 0.000000 0.731446
O O13 0.612314 0.500000 0.935758
O O14 0.500000 0.359681 0.000000
O O15 0.682470 0.369221 0.982365
O O16 0.743488 0.330058 0.300385
O O17 0.700917 0.335051 0.150983
O O18 0.250182 0.000000 0.333933
O O19 0.192089 0.000000 0.091350
#
# Coordination Sequence:
#
# PCOD9177816 Si02
#       8
#     8   8   8   8   8   8   8   8
#     4  10  19  30  43  63  96 126 152 182 224 266
#     4   8  13  22  37  60  88 121 154 181 216 263
#     4  10  20  35  48  64  84 115 160 201 227 256
#     4  10  19  35  53  63  81 115 160 205 237 254
#     4   7  10  18  35  57  84 118 152 181 210 251
#     4  10  20  30  44  68  94 123 152 183 222 274
#     4  12  22  31  45  66  95 126 153 181 223 275
#     4   8  13  23  38  60  93 124 147 177 216 265
#
# _framework density 21.667304000000001
#
# number of rings (size 3 to 8) (size 9 to 14) (size 15 to 20)
#    0.000    2.625    1.250    4.500    0.000    2.000 
#    0.000    0.000    0.000    0.000    0.000    0.875 
#    0.000   26.500    0.000    0.000    0.000    0.250 
#
# Total GULP energy -178666.149295 kJ/mol
# GULP energy per Si atom -5583.317165 kJ/mol
# Density = 2.161799 g / cm^3
# Si number density = 21.667304 Si / 1000 Ang^3
#
#
#
# Elastic Constant Matrix: (Units=GPa)
#
#
# Indices 1 2 3 4 5 6 
#
# 1 74.8213 12.4255 20.2689 0.0000 19.9279 0.0000
# 2 12.4255 110.7950 48.8386 0.0000 21.1752 0.0000
# 3 20.2689 48.8386 116.3277 0.0000 43.5523 0.0000
# 4 0.0000 0.0000 0.0000 22.0021 0.0000 10.4398
# 5 19.9279 21.1752 43.5523 0.0000 35.6684 0.0000
# 6 0.0000 0.0000 0.0000 10.4398 0.0000 13.3242
#
#
#
# Elastic Compliance Matrix: (Units=1/GPa)
#
#
# Indices 1 2 3 4 5 6 
#
# 1 0.015778 -0.000364 0.001148 0.000000 -0.010001 0.000000
# 2 -0.000364 0.011137 -0.004077 0.000000 -0.001430 0.000000
# 3 0.001148 -0.004077 0.017393 0.000000 -0.019459 0.000000
# 4 0.000000 0.000000 0.000000 0.072347 0.000000 -0.056685
# 5 -0.010001 -0.001430 -0.019459 0.000000 0.058232 0.000000
# 6 0.000000 0.000000 0.000000 -0.056685 0.000000 0.119466
#
#
# Mechanical properties :
#
#
# Convention : Reuss Voigt Hill
#
# Bulk Modulus (GPa) = 26.50947 51.66776 39.08861
# Shear Modulus (GPa) = 15.94829 28.89303 22.42066
#
# Velocity S-wave (km/s) = 2.71597 3.65565 3.22027
# Velocity P-wave (km/s) = 4.70071 6.45880 5.64858
#
# Compressibility (1/GPa) = 0.03772238
#
# Stress axis : x y z
#
# Youngs Moduli (GPa) = 63.37831 89.79157 57.49394
#
# Poissons Ratio (x) = 0.03270 -0.06600
# Poissons Ratio (y) = 0.02308 0.23439
# Poissons Ratio (z) = -0.07275 0.36605
#
# Static dielectric constant tensor:
#      x y z
#    x 1.840400 0.000000 0.001760 
#    y 0.000000 1.783090 0.000000 
#    z 0.001760 0.000000 1.807540 
# 
# From -- ./inp_files/269890.got.cif
#   From: 2010.05.17/outbox.cif.g08.bks.cpg/sg12_135_cif.got.tgz:269890.got - 2010.06.03 13:09:07.
