data_PCOD9177422
_publ_section_title
;
Structure prediction by ZEFSAII (Michael W. Deem and Ramdas Pophale) SiO2 
 PCOD9177422
Probable space group: C 2/M
;
_chemical_formula_sum "Si O2"
_cell_formula_units_Z 40
_cell_length_a 5.137015
_cell_length_b 30.264121
_cell_length_c 16.398397
_cell_angle_alpha 90.000000
_cell_angle_beta 58.081962
_cell_angle_gamma 90.000000
_cell_volume 2163.955711
_symmetry_space_group_name_H-M "C 2/M"
_symmetry_group_IT_number 12
_symmetry_cell_setting 'monoclinic'
loop_
_space_group_symop_operation_xyz
x,y,z
-x,y,-z
-x,-y,-z
x,-y,z
1/2+x,1/2+y,z
1/2-x,1/2+y,-z
1/2-x,1/2-y,-z
1/2+x,1/2-y,z
loop_
_atom_site_type_symbol
_atom_site_label
_atom_site_fract_x
_atom_site_fract_y
_atom_site_fract_z
Si Si1 0.645240 0.860504 0.065804
Si Si2 0.269850 0.553204 0.284294
Si Si3 0.926777 0.450872 0.107636
Si Si4 0.838973 0.273354 0.116875
Si Si5 0.085418 0.053890 0.394556
O O1 0.621212 0.909371 0.107462
O O2 0.440349 0.820863 0.135163
O O3 0.500000 0.865856 0.000000
O O4 0.000000 0.846909 0.000000
O O5 0.247671 0.500000 0.290730
O O6 0.571528 0.561527 0.180469
O O7 0.357067 0.568513 0.361205
O O8 0.931844 0.568548 0.316756
O O9 0.984317 0.500000 0.135383
O O10 0.000000 0.455405 0.000000
O O11 0.491265 0.262776 0.151133
O O12 0.000000 0.270955 0.000000
O O13 0.000000 0.067691 0.500000
O O14 0.076484 0.000000 0.395550
#
# Coordination Sequence:
#
# PCOD9177422 Si02
#       5
#     8   8   8   8   8
#     4  10  19  29  42  59  78 106 144 180 215 250
#     4   9  17  28  42  59  78 104 138 173 212 252
#     4   9  19  33  45  59  85 121 158 189 208 232
#     4   9  15  25  41  59  77  96 126 174 222 259
#     4   9  16  27  43  61  78  96 127 175 223 263
#
# _framework density 18.484665
#
# number of rings (size 3 to 8) (size 9 to 14) (size 15 to 20)
#    0.000    2.800    0.000    3.600    0.000    6.000 
#    0.000    6.000    0.000    0.000    0.000    0.000 
#    0.000    0.000    0.000    0.000    0.000   20.000 
#
# Total GULP energy -111356.108468 kJ/mol
# GULP energy per Si atom -5567.805423 kJ/mol
# Density = 1.844259 g / cm^3
# Si number density = 18.484665 Si / 1000 Ang^3
#
#
#
# Elastic Constant Matrix: (Units=GPa)
#
#
# Indices 1 2 3 4 5 6 
#
# 1 76.1412 15.1682 -2.4524 0.0000 3.6925 0.0000
# 2 15.1682 87.1143 -0.9997 0.0000 -2.5967 0.0000
# 3 -2.4524 -0.9997 56.5581 0.0000 5.0501 0.0000
# 4 0.0000 0.0000 0.0000 -0.7479 0.0000 -3.6926
# 5 3.6925 -2.5967 5.0501 0.0000 14.8151 0.0000
# 6 0.0000 0.0000 0.0000 -3.6926 0.0000 15.7357
#
#
#
# Elastic Compliance Matrix: (Units=1/GPa)
#
#
# Indices 1 2 3 4 5 6 
#
# 1 0.013872 -0.002530 0.000934 0.000000 -0.004219 0.000000
# 2 -0.002530 0.012001 -0.000146 0.000000 0.002784 0.000000
# 3 0.000934 -0.000146 0.018299 0.000000 -0.006496 0.000000
# 4 0.000000 0.000000 0.000000 -0.619438 0.000000 -0.145359
# 5 -0.004219 0.002784 -0.006496 0.000000 0.071253 0.000000
# 6 0.000000 0.000000 0.000000 -0.145359 0.000000 0.029440
#
#
# Mechanical properties :
#
#
# Convention : Reuss Voigt Hill
#
# Bulk Modulus (GPa) = 24.57853 27.02733 25.80293
# Shear Modulus (GPa) = -10.92836 19.83374 4.45269
#
# Velocity S-wave (km/s) = -2.43412 3.27920 1.55373
# Velocity P-wave (km/s) = 2.32930 5.38430 4.14827
#
# Compressibility (1/GPa) = 0.04068592
#
# Stress axis : x y z
#
# Youngs Moduli (GPa) = 72.08624 83.32577 54.64824
#
# Poissons Ratio (x) = 0.21085 -0.05102
# Poissons Ratio (y) = 0.18241 0.00799
# Poissons Ratio (z) = -0.06729 0.01218
#
# Static dielectric constant tensor:
#      x y z
#    x 1.711810 0.000000 0.042410 
#    y 0.000000 1.735020 0.000000 
#    z 0.042410 0.000000 1.698320 
# 
# From -- ./inp_files/253769.got.cif
#   From: 2010.05.17/outbox.cif.g08.bks.cpg/sg12_127_cif.got.tgz:253769.got - 2010.06.03 13:09:07.
