data_PCOD9177435
_publ_section_title
;
Structure prediction by ZEFSAII (Michael W. Deem and Ramdas Pophale) SiO2 
 PCOD9177435
Probable space group: C 2/M
;
_chemical_formula_sum "Si O2"
_cell_formula_units_Z 56
_cell_length_a 28.126228
_cell_length_b 7.787652
_cell_length_c 16.812449
_cell_angle_alpha 90.000000
_cell_angle_beta 113.935214
_cell_angle_gamma 90.000000
_cell_volume 3365.871079
_symmetry_space_group_name_H-M "C 2/M"
_symmetry_group_IT_number 12
_symmetry_cell_setting 'monoclinic'
loop_
_space_group_symop_operation_xyz
x,y,z
-x,y,-z
-x,-y,-z
x,-y,z
1/2+x,1/2+y,z
1/2-x,1/2+y,-z
1/2-x,1/2-y,-z
1/2+x,1/2-y,z
loop_
_atom_site_type_symbol
_atom_site_label
_atom_site_fract_x
_atom_site_fract_y
_atom_site_fract_z
Si Si1 0.193060 0.296990 0.044044
Si Si2 0.898663 0.711311 0.309148
Si Si3 0.058051 0.300700 0.500837
Si Si4 0.991015 0.293977 0.687209
Si Si5 0.807014 0.702391 0.135853
Si Si6 0.513369 0.293519 0.134050
Si Si7 0.917264 0.792550 0.964664
O O1 0.201403 0.500000 0.043317
O O2 0.246454 0.223678 0.115504
O O3 0.140858 0.264964 0.057259
O O4 0.186295 0.225953 0.949243
O O5 0.898700 0.500000 0.312188
O O6 0.905601 0.772680 0.404945
O O7 0.950599 0.763795 0.296185
O O8 0.847807 0.771395 0.227638
O O9 0.073777 0.500000 0.501460
O O10 0.000000 0.300438 0.500000
O O11 0.048946 0.225029 0.406944
O O12 0.991388 0.500000 0.678036
O O13 0.978692 0.255630 0.769715
O O14 0.818469 0.500000 0.138177
O O15 0.512713 0.500000 0.129739
O O16 0.557491 0.234889 0.101730
O O17 0.457702 0.234109 0.060816
O O18 0.917305 0.000000 0.964954
#
# Coordination Sequence:
#
# PCOD9177435 Si02
#       7
#     8   8   8   8   8   8   8
#     4  10  19  29  42  62  85 106 134 173 208 236
#     4   8  13  23  40  61  84 111 142 168 191 232
#     4   7  11  20  36  59  84 108 134 165 198 232
#     4   9  15  24  41  64  87 109 135 168 202 235
#     4   9  17  28  42  60  83 112 141 165 196 241
#     4   9  18  30  43  60  82 109 138 165 198 243
#     4   9  18  32  45  57  79 111 141 166 197 240
#
# _framework density 16.637595999999998
#
# number of rings (size 3 to 8) (size 9 to 14) (size 15 to 20)
#    0.000    3.286    0.000    3.857    0.000    2.857 
#    0.000    2.143    0.000    4.714    0.000    1.000 
#    0.000    0.000    0.000    0.000    0.000    0.000 
#
# Total GULP energy -155869.691766 kJ/mol
# GULP energy per Si atom -5566.774706 kJ/mol
# Density = 1.659973 g / cm^3
# Si number density = 16.637596 Si / 1000 Ang^3
#
#
#
# Elastic Constant Matrix: (Units=GPa)
#
#
# Indices 1 2 3 4 5 6 
#
# 1 79.2537 -5.7925 62.7321 0.0000 8.9644 0.0000
# 2 -5.7925 17.4273 5.4858 0.0000 2.4960 0.0000
# 3 62.7321 5.4858 166.8853 0.0000 10.4385 0.0000
# 4 0.0000 0.0000 0.0000 20.1611 0.0000 -11.6942
# 5 8.9644 2.4960 10.4385 0.0000 25.8665 0.0000
# 6 0.0000 0.0000 0.0000 -11.6942 0.0000 23.6769
#
#
#
# Elastic Compliance Matrix: (Units=1/GPa)
#
#
# Indices 1 2 3 4 5 6 
#
# 1 0.019746 0.009588 -0.007440 0.000000 -0.004766 0.000000
# 2 0.009588 0.063261 -0.005226 0.000000 -0.007318 0.000000
# 3 -0.007440 -0.005226 0.008995 0.000000 -0.000547 0.000000
# 4 0.000000 0.000000 0.000000 0.069515 0.000000 0.034334
# 5 -0.004766 -0.007318 -0.000547 0.000000 0.041239 0.000000
# 6 0.000000 0.000000 0.000000 0.034334 0.000000 0.059193
#
#
# Mechanical properties :
#
#
# Convention : Reuss Voigt Hill
#
# Bulk Modulus (GPa) = 11.64864 43.15745 27.40304
# Shear Modulus (GPa) = 16.85088 27.35030 22.10059
#
# Velocity S-wave (km/s) = 3.18593 4.05888 3.64861
# Velocity P-wave (km/s) = 4.53323 6.92547 5.85287
#
# Compressibility (1/GPa) = 0.08584696
#
# Stress axis : x y z
#
# Youngs Moduli (GPa) = 50.64225 15.80749 111.17625
#
# Poissons Ratio (x) = -0.15156 0.82712
# Poissons Ratio (y) = -0.48555 0.58099
# Poissons Ratio (z) = 0.37676 0.08261
#
# Static dielectric constant tensor:
#      x y z
#    x 1.531410 0.000000 0.003910 
#    y 0.000000 1.617220 0.000000 
#    z 0.003910 0.000000 1.606310 
# 
# From -- ./inp_files/243280.got.cif
#   From: 2010.05.17/outbox.cif.g08.bks.cpg/sg12_122_cif.got.tgz:243280.got - 2010.06.03 13:09:07.
