data_PCOD9177415
_publ_section_title
;
Structure prediction by ZEFSAII (Michael W. Deem and Ramdas Pophale) SiO2 
 PCOD9177415
Probable space group: C 2/M
;
_chemical_formula_sum "Si O2"
_cell_formula_units_Z 48
_cell_length_a 29.090723
_cell_length_b 7.487422
_cell_length_c 11.683901
_cell_angle_alpha 90.000000
_cell_angle_beta 100.729352
_cell_angle_gamma 90.000000
_cell_volume 2500.431794
_symmetry_space_group_name_H-M "C 2/M"
_symmetry_group_IT_number 12
_symmetry_cell_setting 'monoclinic'
loop_
_space_group_symop_operation_xyz
x,y,z
-x,y,-z
-x,-y,-z
x,-y,z
1/2+x,1/2+y,z
1/2-x,1/2+y,-z
1/2-x,1/2-y,-z
1/2+x,1/2-y,z
loop_
_atom_site_type_symbol
_atom_site_label
_atom_site_fract_x
_atom_site_fract_y
_atom_site_fract_z
Si Si1 0.858099 0.212212 0.482191
Si Si2 0.928552 0.718332 0.903840
Si Si3 0.162089 0.291888 0.265221
Si Si4 0.473931 0.217723 0.159949
Si Si5 0.955972 0.714380 0.406485
Si Si6 0.260603 0.286607 0.371432
O O1 0.854096 0.285558 0.609300
O O2 0.907388 0.248128 0.446687
O O3 0.813960 0.278671 0.385362
O O4 0.852480 0.000000 0.491885
O O5 0.927711 0.500000 0.901389
O O6 0.879528 0.784524 0.831021
O O7 0.972878 0.770938 0.846026
O O8 0.941270 0.773199 0.038822
O O9 0.166056 0.500000 0.235237
O O10 0.214801 0.214425 0.284977
O O11 0.458330 0.280531 0.277183
O O12 0.473463 0.000000 0.159668
O O13 0.960597 0.500000 0.402807
O O14 0.000000 0.782187 0.500000
O O15 0.260767 0.500000 0.352770
O O16 0.250000 0.250000 0.500000
#
# Coordination Sequence:
#
# PCOD9177415 Si02
#       6
#     8   8   8   8   8   8
#     4  10  19  29  41  61  90 117 138 168 212 253
#     4   8  13  23  42  65  85 104 130 172 217 248
#     4   9  15  26  46  67  84 107 142 177 209 247
#     4   8  14  24  39  63  89 106 129 171 216 248
#     4  10  19  30  45  64  85 111 143 174 204 246
#     4   8  15  26  40  60  84 109 138 172 208 246
#
# _framework density 19.196684000000001
#
# number of rings (size 3 to 8) (size 9 to 14) (size 15 to 20)
#    0.000    3.167    0.000    2.500    0.000    3.667 
#    0.000    0.000    0.000    2.000    0.000    3.500 
#    0.000    0.000    0.000    0.000    0.000    0.833 
#
# Total GULP energy -133699.476490 kJ/mol
# GULP energy per Si atom -5570.811520 kJ/mol
# Density = 1.915299 g / cm^3
# Si number density = 19.196684 Si / 1000 Ang^3
#
#
#
# Elastic Constant Matrix: (Units=GPa)
#
#
# Indices 1 2 3 4 5 6 
#
# 1 172.8346 -2.8411 71.9105 0.0000 41.0025 0.0000
# 2 -2.8411 53.9459 -0.8628 0.0000 4.7382 0.0000
# 3 71.9105 -0.8628 71.5518 0.0000 27.5686 0.0000
# 4 0.0000 0.0000 0.0000 -1.0875 0.0000 2.4356
# 5 41.0025 4.7382 27.5686 0.0000 40.7114 0.0000
# 6 0.0000 0.0000 0.0000 2.4356 0.0000 -5.0763
#
#
#
# Elastic Compliance Matrix: (Units=1/GPa)
#
#
# Indices 1 2 3 4 5 6 
#
# 1 0.010598 0.000841 -0.008782 0.000000 -0.004825 0.000000
# 2 0.000841 0.018906 0.000753 0.000000 -0.003558 0.000000
# 3 -0.008782 0.000753 0.026299 0.000000 -0.009051 0.000000
# 4 0.000000 0.000000 0.000000 12.341351 0.000000 5.921278
# 5 -0.004825 -0.003558 -0.009051 0.000000 0.035966 0.000000
# 6 0.000000 0.000000 0.000000 5.921278 0.000000 2.643987
#
#
# Mechanical properties :
#
#
# Convention : Reuss Voigt Hill
#
# Bulk Modulus (GPa) = 24.13847 48.30502 36.22174
# Shear Modulus (GPa) = 0.33101 22.25122 11.29112
#
# Velocity S-wave (km/s) = 0.41570 3.40828 2.42787
# Velocity P-wave (km/s) = 3.58218 6.38015 5.17389
#
# Compressibility (1/GPa) = 0.04142765
#
# Stress axis : x y z
#
# Youngs Moduli (GPa) = 94.35393 52.89335 38.02459
#
# Poissons Ratio (x) = -0.04451 0.33394
# Poissons Ratio (y) = -0.07940 -0.02864
# Poissons Ratio (z) = 0.82865 -0.03983
#
# Static dielectric constant tensor:
#      x y z
#    x 1.694840 0.000000 0.047570 
#    y 0.000000 1.738600 0.000000 
#    z 0.047570 0.000000 1.649520 
# 
# From -- ./inp_files/172289.got.cif
#   From: 2010.05.17/outbox.cif.g08.bks.cpg/sg12_87_cif.got.tgz:172289.got - 2010.06.03 13:09:07.
