data_PCOD9177026
_publ_section_title
;
Structure prediction by ZEFSAII (Michael W. Deem and Ramdas Pophale) SiO2 
 PCOD9177026
Probable space group: C 2/M
;
_chemical_formula_sum "Si O2"
_cell_formula_units_Z 40
_cell_length_a 23.776813
_cell_length_b 13.678485
_cell_length_c 9.080519
_cell_angle_alpha 90.000000
_cell_angle_beta 145.311031
_cell_angle_gamma 90.000000
_cell_volume 1680.765391
_symmetry_space_group_name_H-M "C 2/M"
_symmetry_group_IT_number 12
_symmetry_cell_setting 'monoclinic'
loop_
_space_group_symop_operation_xyz
x,y,z
-x,y,-z
-x,-y,-z
x,-y,z
1/2+x,1/2+y,z
1/2-x,1/2+y,-z
1/2-x,1/2-y,-z
1/2+x,1/2-y,z
loop_
_atom_site_type_symbol
_atom_site_label
_atom_site_fract_x
_atom_site_fract_y
_atom_site_fract_z
Si Si1 0.175652 0.891440 0.415841
Si Si2 0.096481 0.102935 0.568116
Si Si3 0.631290 0.215798 0.141300
Si Si4 0.461202 0.174411 0.575913
Si Si5 0.762334 0.170733 0.897246
O O1 0.163781 0.894194 0.566379
O O2 0.287798 0.859719 0.623457
O O3 0.111249 0.801999 0.214634
O O4 0.151326 0.000000 0.306254
O O5 0.041738 0.206363 0.443534
O O6 0.039722 0.000000 0.432979
O O7 0.161367 0.101011 0.855786
O O8 0.686662 0.276329 0.129789
O O9 0.539700 0.159265 0.874007
O O10 0.500000 0.138299 0.500000
O O11 0.350458 0.138066 0.372521
O O12 0.750000 0.250000 0.000000
#
# Coordination Sequence:
#
# PCOD9177026 Si02
#       5
#     8   8   8   8   8
#     4  10  22  40  58  83 119 155 191 235 289 342
#     4  10  20  36  57  86 121 148 184 239 288 342
#     4  11  21  38  62  83 115 157 189 238 289 337
#     4  11  19  34  60  87 111 148 192 230 285 345
#     4  10  18  37  57  83 112 148 190 228 284 341
#
# _framework density 23.798680999999998
#
# number of rings (size 3 to 8) (size 9 to 14) (size 15 to 20)
#    0.000    1.600    8.000    0.000    0.000    2.800 
#    0.000    3.000    0.000    4.800    0.000    0.000 
#    0.000    0.000    0.000    0.000    0.000    0.000 
#
# Total GULP energy -111629.146767 kJ/mol
# GULP energy per Si atom -5581.457338 kJ/mol
# Density = 2.374451 g / cm^3
# Si number density = 23.798681 Si / 1000 Ang^3
#
#
#
# Elastic Constant Matrix: (Units=GPa)
#
#
# Indices 1 2 3 4 5 6 
#
# 1 67.8918 5.0879 16.8650 0.0000 4.7355 0.0000
# 2 5.0879 45.3212 -30.1631 0.0000 -10.1013 0.0000
# 3 16.8650 -30.1631 111.4408 0.0000 9.6755 0.0000
# 4 0.0000 0.0000 0.0000 9.2438 0.0000 -2.8845
# 5 4.7355 -10.1013 9.6755 0.0000 32.5126 0.0000
# 6 0.0000 0.0000 0.0000 -2.8845 0.0000 10.4473
#
#
#
# Elastic Compliance Matrix: (Units=1/GPa)
#
#
# Indices 1 2 3 4 5 6 
#
# 1 0.016147 -0.004757 -0.003489 0.000000 -0.002791 0.000000
# 2 -0.004757 0.029658 0.008096 0.000000 0.007498 0.000000
# 3 -0.003489 0.008096 0.011733 0.000000 -0.000468 0.000000
# 4 0.000000 0.000000 0.000000 0.118380 0.000000 0.032684
# 5 -0.002791 0.007498 -0.000468 0.000000 0.033633 0.000000
# 6 0.000000 0.000000 0.000000 0.032684 0.000000 0.104743
#
#
# Mechanical properties :
#
#
# Convention : Reuss Voigt Hill
#
# Bulk Modulus (GPa) = 17.47016 23.13702 20.30359
# Shear Modulus (GPa) = 14.98472 25.96500 20.47486
#
# Velocity S-wave (km/s) = 2.51200 3.30665 2.93633
# Velocity P-wave (km/s) = 3.97118 4.93170 4.47727
#
# Compressibility (1/GPa) = 0.05724047
#
# Stress axis : x y z
#
# Youngs Moduli (GPa) = 61.93038 33.71731 85.22676
#
# Poissons Ratio (x) = 0.16039 0.29734
# Poissons Ratio (y) = 0.29459 -0.69003
# Poissons Ratio (z) = 0.21606 -0.27299
#
# Static dielectric constant tensor:
#      x y z
#    x 1.931280 0.000000 0.005590 
#    y 0.000000 1.935750 0.000000 
#    z 0.005590 0.000000 1.974790 
# 
# From -- ./inp_files/96641.got.cif
#   From: 2010.05.17/outbox.cif.g08.bks.cpg/sg12_49_cif.got.tgz:96641.got - 2010.06.03 13:09:07.
