data_PCOD9177990
_publ_section_title
;
Structure prediction by ZEFSAII (Michael W. Deem and Ramdas Pophale) SiO2 
 PCOD9177990
Probable space group: C 2/M
;
_chemical_formula_sum "Si O2"
_cell_formula_units_Z 48
_cell_length_a 11.986958
_cell_length_b 22.885863
_cell_length_c 14.476547
_cell_angle_alpha 90.000000
_cell_angle_beta 148.091113
_cell_angle_gamma 90.000000
_cell_volume 2099.151486
_symmetry_space_group_name_H-M "C 2/M"
_symmetry_group_IT_number 12
_symmetry_cell_setting 'monoclinic'
loop_
_space_group_symop_operation_xyz
x,y,z
-x,y,-z
-x,-y,-z
x,-y,z
1/2+x,1/2+y,z
1/2-x,1/2+y,-z
1/2-x,1/2-y,-z
1/2+x,1/2-y,z
loop_
_atom_site_type_symbol
_atom_site_label
_atom_site_fract_x
_atom_site_fract_y
_atom_site_fract_z
Si Si1 0.826170 0.640279 0.949660
Si Si2 0.976883 0.932075 0.594056
Si Si3 0.549037 0.700222 0.901263
Si Si4 0.197596 0.654975 0.758355
Si Si5 0.659518 0.245054 0.540658
Si Si6 0.499443 0.930204 0.245528
O O1 0.650289 0.605227 0.768394
O O2 0.696997 0.686757 0.919055
O O3 0.937007 0.598618 0.103958
O O4 0.000000 0.662193 0.000000
O O5 0.736527 0.912702 0.441418
O O6 0.000000 0.929790 0.500000
O O7 0.999617 0.000000 0.638019
O O8 0.377073 0.648728 0.806158
O O9 0.376986 0.747566 0.751834
O O10 0.696989 0.699933 0.094165
O O11 0.150568 0.596814 0.781714
O O12 0.986033 0.687109 0.577881
O O13 0.500000 0.279841 0.500000
O O14 0.750000 0.250000 0.500000
O O15 0.490293 0.000000 0.232138
#
# Coordination Sequence:
#
# PCOD9177990 Si02
#       6
#     8   8   8   8   8   8
#     4  11  20  33  52  79 109 150 193 236 284 331
#     4  10  19  30  45  68 103 145 186 233 285 328
#     4   9  20  38  58  80 116 151 183 225 293 345
#     4   9  19  39  61  80 116 157 185 231 290 340
#     4  10  21  41  65  92 117 150 189 236 296 357
#     4  10  20  34  55  82 111 150 199 238 277 335
#
# _framework density 22.866382000000002
#
# number of rings (size 3 to 8) (size 9 to 14) (size 15 to 20)
#    0.000    2.167    1.667    1.500    0.000    1.333 
#    6.000    7.500    0.000    6.500    0.000    0.000 
#    0.000    0.000    0.000    0.000    0.000    0.000 
#
# Total GULP energy -133783.131493 kJ/mol
# GULP energy per Si atom -5574.297146 kJ/mol
# Density = 2.281434 g / cm^3
# Si number density = 22.866382 Si / 1000 Ang^3
#
#
#
# Elastic Constant Matrix: (Units=GPa)
#
#
# Indices 1 2 3 4 5 6 
#
# 1 173.1532 28.3356 41.9658 0.0000 30.3562 0.0001
# 2 28.3356 39.5206 37.1824 0.0000 11.2193 0.0000
# 3 41.9658 37.1824 151.9277 -0.0007 5.0106 0.0000
# 4 0.0000 0.0000 -0.0007 22.6847 -0.0002 -1.4152
# 5 30.3562 11.2193 5.0106 -0.0002 36.4108 0.0001
# 6 0.0001 0.0000 0.0000 -1.4152 0.0001 19.9377
#
#
#
# Elastic Compliance Matrix: (Units=1/GPa)
#
#
# Indices 1 2 3 4 5 6 
#
# 1 0.007422 -0.002704 -0.001217 0.000000 -0.005187 0.000000
# 2 -0.002704 0.037131 -0.008074 0.000000 -0.008076 0.000000
# 3 -0.001217 -0.008074 0.008819 0.000000 0.002289 0.000000
# 4 0.000000 0.000000 0.000000 0.044279 0.000000 0.003143
# 5 -0.005187 -0.008076 0.002289 0.000000 0.033963 0.000000
# 6 0.000000 0.000000 0.000000 0.003143 0.000000 0.050379
#
#
# Mechanical properties :
#
#
# Convention : Reuss Voigt Hill
#
# Bulk Modulus (GPa) = 34.03499 64.39660 49.21579
# Shear Modulus (GPa) = 23.17213 32.94782 28.05998
#
# Velocity S-wave (km/s) = 3.18680 3.80002 3.50684
# Velocity P-wave (km/s) = 5.33456 6.89034 6.16175
#
# Compressibility (1/GPa) = 0.02938153
#
# Stress axis : x y z
#
# Youngs Moduli (GPa) = 134.73238 26.93185 113.39269
#
# Poissons Ratio (x) = 0.07281 0.13805
# Poissons Ratio (y) = 0.36425 0.91555
# Poissons Ratio (z) = 0.16403 0.21745
#
# Static dielectric constant tensor:
#      x y z
#    x 1.926130 0.000000 0.009010 
#    y 0.000000 1.891270 0.000000 
#    z 0.009010 0.000000 1.844330 
# 
# From -- ./inp_files/209314.got.cif
#   From: 2010.05.17/outbox.cif.g08.bks.cpg/sg12_105_cif.got.tgz:209314.got - 2010.06.03 13:09:07.
