data_PCOD9177188
_publ_section_title
;
Structure prediction by ZEFSAII (Michael W. Deem and Ramdas Pophale) SiO2 
 PCOD9177188
Probable space group: C 2/M
;
_chemical_formula_sum "Si O2"
_cell_formula_units_Z 40
_cell_length_a 13.776593
_cell_length_b 27.928787
_cell_length_c 10.681891
_cell_angle_alpha 90.000000
_cell_angle_beta 149.817864
_cell_angle_gamma 90.000000
_cell_volume 2066.305423
_symmetry_space_group_name_H-M "C 2/M"
_symmetry_group_IT_number 12
_symmetry_cell_setting 'monoclinic'
loop_
_space_group_symop_operation_xyz
x,y,z
-x,y,-z
-x,-y,-z
x,-y,z
1/2+x,1/2+y,z
1/2-x,1/2+y,-z
1/2-x,1/2-y,-z
1/2+x,1/2-y,z
loop_
_atom_site_type_symbol
_atom_site_label
_atom_site_fract_x
_atom_site_fract_y
_atom_site_fract_z
Si Si1 0.258957 0.943440 0.465724
Si Si2 0.766293 0.693767 0.504657
Si Si3 0.041947 0.123869 0.757287
Si Si4 0.932486 0.622126 0.066533
Si Si5 0.726834 0.131679 0.726812
O O1 0.459848 0.920776 0.739436
O O2 0.227799 0.917096 0.298187
O O3 0.090652 0.922816 0.368239
O O4 0.261597 0.000000 0.461413
O O5 0.750000 0.750000 0.500000
O O6 0.609867 0.667304 0.418728
O O7 0.727253 0.674106 0.320535
O O8 0.972685 0.670874 0.772486
O O9 0.204044 0.120546 0.832430
O O10 0.161263 0.132630 0.018780
O O11 0.000000 0.618458 0.000000
O O12 0.500000 0.133361 0.500000
#
# Coordination Sequence:
#
# PCOD9177188 Si02
#       5
#     8   8   8   8   8
#     4  10  22  36  59  91 113 146 200 238 287 353
#     4  10  22  37  58  91 113 147 198 234 286 351
#     4  10  20  40  60  80 119 155 183 241 300 336
#     4  10  22  41  57  79 119 157 194 239 288 340
#     4  10  18  39  61  83 120 152 179 240 299 340
#
# _framework density 19.358222999999999
#
# number of rings (size 3 to 8) (size 9 to 14) (size 15 to 20)
#    0.000    2.400    4.000    2.400    0.000    8.800 
#    3.600    1.000    0.000    0.000    0.000    0.000 
#    0.000    0.000    0.000    0.000    0.000    0.000 
#
# Total GULP energy -111605.525778 kJ/mol
# GULP energy per Si atom -5580.276289 kJ/mol
# Density = 1.931416 g / cm^3
# Si number density = 19.358223 Si / 1000 Ang^3
#
#
#
# Elastic Constant Matrix: (Units=GPa)
#
#
# Indices 1 2 3 4 5 6 
#
# 1 114.9937 30.3619 8.5697 0.0000 32.1755 0.0000
# 2 30.3619 177.9169 13.3593 0.0000 14.9860 0.0000
# 3 8.5697 13.3593 42.3068 0.0000 29.2753 0.0000
# 4 0.0000 0.0000 0.0000 6.8031 0.0000 2.1888
# 5 32.1755 14.9860 29.2753 0.0000 51.0414 0.0000
# 6 0.0000 0.0000 0.0000 2.1888 0.0000 3.8040
#
#
#
# Elastic Compliance Matrix: (Units=1/GPa)
#
#
# Indices 1 2 3 4 5 6 
#
# 1 0.011379 -0.001500 0.004688 0.000000 -0.009422 0.000000
# 2 -0.001500 0.005991 -0.001700 0.000000 0.000162 0.000000
# 3 0.004688 -0.001700 0.041325 0.000000 -0.026159 0.000000
# 4 0.000000 0.000000 0.000000 0.180385 0.000000 -0.103793
# 5 -0.009422 0.000162 -0.026159 0.000000 0.040487 0.000000
# 6 0.000000 0.000000 0.000000 -0.103793 0.000000 0.322604
#
#
# Mechanical properties :
#
#
# Convention : Reuss Voigt Hill
#
# Bulk Modulus (GPa) = 16.21489 48.86660 32.54074
# Shear Modulus (GPa) = 8.06774 31.19146 19.62960
#
# Velocity S-wave (km/s) = 2.04369 4.01843 3.18782
# Velocity P-wave (km/s) = 3.73675 6.84313 5.51325
#
# Compressibility (1/GPa) = 0.06167172
#
# Stress axis : x y z
#
# Youngs Moduli (GPa) = 87.88059 166.92726 24.19828
#
# Poissons Ratio (x) = 0.25044 -0.11345
# Poissons Ratio (y) = 0.13185 0.04113
# Poissons Ratio (z) = -0.41202 0.28373
#
# Static dielectric constant tensor:
#      x y z
#    x 1.724250 0.000000 -0.003410 
#    y 0.000000 1.623110 0.000000 
#    z -0.003410 0.000000 1.731710 
# 
# From -- ./inp_files/150044.got.cif
#   From: 2010.05.17/outbox.cif.g08.bks.cpg/sg12_76_cif.got.tgz:150044.got - 2010.06.03 13:09:07.
