data_PCOD9177242
_publ_section_title
;
Structure prediction by ZEFSAII (Michael W. Deem and Ramdas Pophale) SiO2 
 PCOD9177242
Probable space group: C 2/M
;
_chemical_formula_sum "Si O2"
_cell_formula_units_Z 40
_cell_length_a 15.538265
_cell_length_b 15.855431
_cell_length_c 15.051014
_cell_angle_alpha 90.000000
_cell_angle_beta 28.147523
_cell_angle_gamma 90.000000
_cell_volume 1749.251092
_symmetry_space_group_name_H-M "C 2/M"
_symmetry_group_IT_number 12
_symmetry_cell_setting 'monoclinic'
loop_
_space_group_symop_operation_xyz
x,y,z
-x,y,-z
-x,-y,-z
x,-y,z
1/2+x,1/2+y,z
1/2-x,1/2+y,-z
1/2-x,1/2-y,-z
1/2+x,1/2-y,z
loop_
_atom_site_type_symbol
_atom_site_label
_atom_site_fract_x
_atom_site_fract_y
_atom_site_fract_z
Si Si1 0.124356 0.670117 0.808340
Si Si2 0.238574 0.000000 0.541882
Si Si3 0.278161 0.000000 0.710944
Si Si4 0.675874 0.177288 0.277777
Si Si5 0.046004 0.638868 0.210300
Si Si6 0.288246 0.500000 0.694796
Si Si7 0.808908 0.000000 0.885901
O O1 0.216927 0.748530 0.772001
O O2 0.236194 0.585017 0.690119
O O3 0.025058 0.693441 0.807906
O O4 0.000000 0.636198 0.000000
O O5 0.375070 0.079430 0.397128
O O6 0.205304 0.000000 0.677931
O O7 0.031110 0.000000 0.691116
O O8 0.500000 0.000000 0.500000
O O9 0.228280 0.914048 0.806299
O O10 0.500000 0.169633 0.500000
O O11 0.614452 0.191240 0.232620
O O12 0.208839 0.579729 0.024125
O O13 0.500000 0.500000 0.500000
O O14 0.246952 0.500000 0.838514
#
# Coordination Sequence:
#
# PCOD9177242 Si02
#       7
#     8   4   4   8   8   4   4
#     4  12  26  45  70 104 145 190 237 303 369 426
#     4  11  21  41  79 108 135 189 242 294 375 427
#     4  10  18  44  72  99 143 182 237 304 348 425
#     4  11  24  46  73 104 143 190 245 298 362 435
#     4  11  23  46  73 101 151 188 234 312 360 425
#     4  12  23  47  73 102 145 184 247 304 355 437
#     4  11  23  41  76 113 136 187 247 296 371 440
#
# _framework density 22.866928999999999
#
# number of rings (size 3 to 8) (size 9 to 14) (size 15 to 20)
#    0.000    0.800    6.000    3.900    0.000    3.200 
#    3.600    1.500    0.000    0.000    0.000    0.000 
#    0.000    0.000    0.000    0.000    0.000    0.000 
#
# Total GULP energy -111641.277795 kJ/mol
# GULP energy per Si atom -5582.063890 kJ/mol
# Density = 2.281488 g / cm^3
# Si number density = 22.866929 Si / 1000 Ang^3
#
#
#
# Elastic Constant Matrix: (Units=GPa)
#
#
# Indices 1 2 3 4 5 6 
#
# 1 232.3001 71.8334 23.2347 -0.0179 19.1483 0.0101
# 2 71.8334 110.9475 13.8962 -0.0514 -23.0316 0.0225
# 3 23.2347 13.8962 75.5671 -0.0705 -9.6685 0.0284
# 4 -0.0179 -0.0514 -0.0705 -16.0454 0.0271 -10.9015
# 5 19.1483 -23.0316 -9.6685 0.0271 36.3815 -0.0049
# 6 0.0101 0.0225 0.0284 -10.9015 -0.0049 51.9328
#
#
#
# Elastic Compliance Matrix: (Units=1/GPa)
#
#
# Indices 1 2 3 4 5 6 
#
# 1 0.007010 -0.005938 -0.002087 0.000005 -0.008003 0.000003
# 2 -0.005938 0.015498 0.000653 -0.000018 0.013110 -0.000008
# 3 -0.002087 0.000653 0.014439 -0.000043 0.005349 -0.000016
# 4 0.000005 -0.000018 -0.000043 -0.054544 0.000014 -0.011450
# 5 -0.008003 0.013110 0.005349 0.000014 0.041420 0.000000
# 6 0.000003 -0.000008 -0.000016 -0.011450 0.000000 0.016852
#
#
# Mechanical properties :
#
#
# Convention : Reuss Voigt Hill
#
# Bulk Modulus (GPa) = 45.04063 70.74926 57.89495
# Shear Modulus (GPa) = 79.59261 35.11048 57.35154
#
# Velocity S-wave (km/s) = 5.90613 3.92270 5.01348
# Velocity P-wave (km/s) = 8.13938 7.17799 7.67375
#
# Compressibility (1/GPa) = 0.02220218
#
# Stress axis : x y z
#
# Youngs Moduli (GPa) = 142.66297 64.52551 69.25547
#
# Poissons Ratio (x) = 0.38317 0.14455
# Poissons Ratio (y) = 0.84718 -0.04525
# Poissons Ratio (z) = 0.29777 -0.04216
#
# Static dielectric constant tensor:
#      x y z
#    x 1.914570 -0.000020 0.029100 
#    y -0.000020 1.911070 0.000000 
#    z 0.029100 0.000000 1.860390 
# 
# From -- ./inp_files/216693.got.cif
#   From: 2010.05.17/outbox.cif.g08.bks.cpg/sg12_109_cif.got.tgz:216693.got - 2010.06.03 13:09:07.
