data_PCOD9177767
_publ_section_title
;
Structure prediction by ZEFSAII (Michael W. Deem and Ramdas Pophale) SiO2 
 PCOD9177767
Probable space group: C 2/M
;
_chemical_formula_sum "Si O2"
_cell_formula_units_Z 32
_cell_length_a 14.567017
_cell_length_b 20.642077
_cell_length_c 6.869840
_cell_angle_alpha 90.000000
_cell_angle_beta 146.795799
_cell_angle_gamma 90.000000
_cell_volume 1131.236924
_symmetry_space_group_name_H-M "C 2/M"
_symmetry_group_IT_number 12
_symmetry_cell_setting 'monoclinic'
loop_
_space_group_symop_operation_xyz
x,y,z
-x,y,-z
-x,-y,-z
x,-y,z
1/2+x,1/2+y,z
1/2-x,1/2+y,-z
1/2-x,1/2-y,-z
1/2+x,1/2-y,z
loop_
_atom_site_type_symbol
_atom_site_label
_atom_site_fract_x
_atom_site_fract_y
_atom_site_fract_z
Si Si1 0.673169 0.500000 0.927362
Si Si2 0.721591 0.647006 0.647774
Si Si3 0.306239 0.876227 0.227640
Si Si4 0.182402 0.500000 0.225979
Si Si5 0.969919 0.266625 0.683638
O O1 0.500000 0.500000 0.500000
O O2 0.812225 0.500000 0.001603
O O3 0.710944 0.439201 0.128021
O O4 0.742970 0.573500 0.608181
O O5 0.576448 0.695755 0.328982
O O6 0.704665 0.638642 0.852312
O O7 0.885175 0.694392 0.948397
O O8 0.500000 0.889183 0.500000
O O9 0.318240 0.818998 0.403147
O O10 0.000000 0.500000 0.000000
O O11 0.000000 0.261462 0.500000
#
# Coordination Sequence:
#
# PCOD9177767 Si02
#       5
#     4   8   8   4   8
#     4  10  19  29  50  83 104 129 177 226 256 290
#     4   9  18  31  51  74  99 137 174 206 251 308
#     4   8  15  27  45  74 110 141 161 198 263 326
#     4  10  22  39  52  69 106 151 178 202 254 322
#     4   9  16  28  50  80 108 130 160 213 265 305
#
# _framework density 28.287618999999999
#
# number of rings (size 3 to 8) (size 9 to 14) (size 15 to 20)
#    0.000    3.500    0.000    3.375    0.000   11.000 
#    0.000    1.875    0.000    1.500    0.000   42.000 
#    0.000    0.000    0.000    0.000    0.000    0.000 
#
# Total GULP energy -89285.259607 kJ/mol
# GULP energy per Si atom -5580.328725 kJ/mol
# Density = 2.822324 g / cm^3
# Si number density = 28.287619 Si / 1000 Ang^3
#
#
#
# Elastic Constant Matrix: (Units=GPa)
#
#
# Indices 1 2 3 4 5 6 
#
# 1 101.1449 38.2000 55.5772 0.0000 -17.4020 0.0000
# 2 38.2000 346.1706 90.8645 0.0000 11.9582 0.0000
# 3 55.5772 90.8645 125.9449 0.0000 -10.3011 0.0000
# 4 0.0000 0.0000 0.0000 41.1170 0.0000 27.1909
# 5 -17.4020 11.9582 -10.3011 0.0000 44.3804 0.0000
# 6 0.0000 0.0000 0.0000 27.1909 0.0000 15.3310
#
#
#
# Elastic Compliance Matrix: (Units=1/GPa)
#
#
# Indices 1 2 3 4 5 6 
#
# 1 0.013742 -0.000193 -0.005586 0.000000 0.004144 0.000000
# 2 -0.000193 0.003679 -0.002708 0.000000 -0.001696 0.000000
# 3 -0.005586 -0.002708 0.012476 0.000000 0.001435 0.000000
# 4 0.000000 0.000000 0.000000 -0.140675 0.000000 0.249501
# 5 0.004144 -0.001696 0.001435 0.000000 0.024947 0.000000
# 6 0.000000 0.000000 0.000000 0.249501 0.000000 -0.377285
#
#
# Mechanical properties :
#
#
# Convention : Reuss Voigt Hill
#
# Bulk Modulus (GPa) = 77.37904 104.72709 91.05306
# Shear Modulus (GPa) = -11.31647 46.07359 17.37856
#
# Velocity S-wave (km/s) = -2.00230 4.04016 2.48130
# Velocity P-wave (km/s) = 4.69768 7.67245 6.36139
#
# Compressibility (1/GPa) = 0.01292340
#
# Stress axis : x y z
#
# Youngs Moduli (GPa) = 72.76947 271.77838 80.15479
#
# Poissons Ratio (x) = 0.05258 0.44771
# Poissons Ratio (y) = 0.01408 0.21705
# Poissons Ratio (z) = 0.40646 0.73596
#
# Static dielectric constant tensor:
#      x y z
#    x 2.418880 0.000000 0.080260 
#    y 0.000000 2.389100 0.000000 
#    z 0.080260 0.000000 2.199360 
# 
# From -- ./inp_files/77865.got.cif
#   From: 2010.05.17/outbox.cif.g08.bks.cpg/sg12_39_cif.got.tgz:77865.got - 2010.06.03 13:09:07.
