data_PCOD9177209
_publ_section_title
;
Structure prediction by ZEFSAII (Michael W. Deem and Ramdas Pophale) SiO2 
 PCOD9177209
Probable space group: C 2/M
;
_chemical_formula_sum "Si O2"
_cell_formula_units_Z 44
_cell_length_a 19.547236
_cell_length_b 12.590244
_cell_length_c 13.973539
_cell_angle_alpha 90.000000
_cell_angle_beta 139.577460
_cell_angle_gamma 90.000000
_cell_volume 2229.882299
_symmetry_space_group_name_H-M "C 2/M"
_symmetry_group_IT_number 12
_symmetry_cell_setting 'monoclinic'
loop_
_space_group_symop_operation_xyz
x,y,z
-x,y,-z
-x,-y,-z
x,-y,z
1/2+x,1/2+y,z
1/2-x,1/2+y,-z
1/2-x,1/2-y,-z
1/2+x,1/2-y,z
loop_
_atom_site_type_symbol
_atom_site_label
_atom_site_fract_x
_atom_site_fract_y
_atom_site_fract_z
Si Si1 0.133763 0.266520 0.420760
Si Si2 0.848813 0.500000 0.491287
Si Si3 0.011976 0.212832 0.911081
Si Si4 0.255859 0.775857 0.117917
Si Si5 0.377201 0.375067 0.398179
Si Si6 0.119585 0.000000 0.192950
Si Si7 0.701874 0.000000 0.769553
O O1 0.250000 0.250000 0.500000
O O2 0.115911 0.387739 0.432870
O O3 0.047098 0.250186 0.246640
O O4 0.129736 0.188418 0.508478
O O5 0.721059 0.500000 0.369802
O O6 0.869819 0.500000 0.400480
O O7 0.950635 0.102118 0.863952
O O8 0.000000 0.273652 0.000000
O O9 0.135626 0.209899 0.023907
O O10 0.312366 0.689583 0.247227
O O11 0.310614 0.890660 0.188595
O O12 0.250000 0.750000 0.000000
O O13 0.500000 0.374435 0.500000
O O14 0.344341 0.500000 0.370914
O O15 0.819176 0.000000 0.843715
#
# Coordination Sequence:
#
# PCOD9177209 Si02
#       7
#     8   4   8   8   8   4   4
#     4  12  23  42  69 101 136 175 227 272 329 391
#     4  10  20  42  66 101 130 175 230 271 324 385
#     4  12  22  40  65 101 134 167 217 275 332 389
#     4  12  25  43  66 102 135 172 218 274 338 393
#     4  11  26  49  69  96 132 177 225 274 332 400
#     4  10  18  39  72 100 123 167 228 280 325 369
#     4  10  19  44  70  95 133 167 224 281 319 389
#
# _framework density 19.731983
#
# number of rings (size 3 to 8) (size 9 to 14) (size 15 to 20)
#    0.545    0.182    5.455    3.000    3.818    0.000 
#    1.636    4.091    0.000    0.000    0.000    0.000 
#    0.000    0.000    0.000    0.000    0.000    0.000 
#
# Total GULP energy -122680.230560 kJ/mol
# GULP energy per Si atom -5576.374116 kJ/mol
# Density = 1.968707 g / cm^3
# Si number density = 19.731983 Si / 1000 Ang^3
#
#
#
# Elastic Constant Matrix: (Units=GPa)
#
#
# Indices 1 2 3 4 5 6 
#
# 1 90.9188 42.1323 28.8143 0.0000 -26.4091 0.0000
# 2 42.1323 187.1098 81.8407 0.0000 -41.5122 0.0000
# 3 28.8143 81.8407 153.5906 0.0000 -35.4503 0.0000
# 4 0.0000 0.0000 0.0000 56.8031 0.0000 -5.4846
# 5 -26.4091 -41.5122 -35.4503 0.0000 46.3926 0.0000
# 6 0.0000 0.0000 0.0000 -5.4846 0.0000 31.8647
#
#
#
# Elastic Compliance Matrix: (Units=1/GPa)
#
#
# Indices 1 2 3 4 5 6 
#
# 1 0.013597 -0.001576 -0.000304 0.000000 0.006098 0.000000
# 2 -0.001576 0.007869 -0.003010 0.000000 0.003844 0.000000
# 3 -0.000304 -0.003010 0.009118 0.000000 0.004101 0.000000
# 4 0.000000 0.000000 0.000000 0.017902 0.000000 0.003081
# 5 0.006098 0.003844 0.004101 0.000000 0.031600 0.000000
# 6 0.000000 0.000000 0.000000 0.003081 0.000000 0.031913
#
#
# Mechanical properties :
#
#
# Convention : Reuss Voigt Hill
#
# Bulk Modulus (GPa) = 48.06681 81.91044 64.98863
# Shear Modulus (GPa) = 38.84631 45.60087 42.22359
#
# Velocity S-wave (km/s) = 4.44181 4.81252 4.63088
# Velocity P-wave (km/s) = 7.12173 8.51364 7.84860
#
# Compressibility (1/GPa) = 0.02080437
#
# Stress axis : x y z
#
# Youngs Moduli (GPa) = 73.54809 127.08689 109.66961
#
# Poissons Ratio (x) = 0.20028 0.03330
# Poissons Ratio (y) = 0.11591 0.33010
# Poissons Ratio (z) = 0.02233 0.38253
#
# Static dielectric constant tensor:
#      x y z
#    x 1.722830 0.000000 -0.027810 
#    y 0.000000 1.647670 0.000000 
#    z -0.027810 0.000000 1.854140 
# 
# From -- ./inp_files/232700.got.cif
#   From: 2010.05.17/outbox.cif.g08.bks.cpg/sg12_117_cif.got.tgz:232700.got - 2010.06.03 13:09:07.
