data_PCOD9177952
_publ_section_title
;
Structure prediction by ZEFSAII (Michael W. Deem and Ramdas Pophale) SiO2 
 PCOD9177952
Probable space group: C 2/M
;
_chemical_formula_sum "Si O2"
_cell_formula_units_Z 48
_cell_length_a 13.971261
_cell_length_b 9.110858
_cell_length_c 17.835905
_cell_angle_alpha 90.000000
_cell_angle_beta 66.576496
_cell_angle_gamma 90.000000
_cell_volume 2083.240823
_symmetry_space_group_name_H-M "C 2/M"
_symmetry_group_IT_number 12
_symmetry_cell_setting 'monoclinic'
loop_
_space_group_symop_operation_xyz
x,y,z
-x,y,-z
-x,-y,-z
x,-y,z
1/2+x,1/2+y,z
1/2-x,1/2+y,-z
1/2-x,1/2-y,-z
1/2+x,1/2-y,z
loop_
_atom_site_type_symbol
_atom_site_label
_atom_site_fract_x
_atom_site_fract_y
_atom_site_fract_z
Si Si1 0.661952 0.330683 0.309936
Si Si2 0.378641 0.321081 0.519345
Si Si3 0.019911 0.664123 0.819077
Si Si4 0.083153 0.168377 0.652932
Si Si5 0.281821 0.834603 0.135327
Si Si6 0.602199 0.331120 0.023114
O O1 0.701874 0.500000 0.299479
O O2 0.680738 0.266813 0.387235
O O3 0.538485 0.339159 0.334903
O O4 0.709397 0.259136 0.220843
O O5 0.500000 0.287687 0.500000
O O6 0.369584 0.500000 0.520830
O O7 0.359927 0.271039 0.439750
O O8 0.982700 0.500000 0.812676
O O9 0.109013 0.653259 0.854222
O O10 0.075451 0.736573 0.730083
O O11 0.931302 0.760922 0.887002
O O12 0.116462 0.000000 0.657823
O O13 0.243540 0.000000 0.132684
O O14 0.309640 0.753657 0.050648
O O15 0.629570 0.500000 0.023113
O O16 0.500000 0.326759 0.000000
#
# Coordination Sequence:
#
# PCOD9177952 Si02
#       6
#     8   8   8   8   8   8
#     4   8  14  27  48  70  89 114 151 189 221 256
#     4   7  11  22  43  68  88 111 148 187 217 251
#     4  10  19  30  45  66  93 121 147 178 221 272
#     4   9  16  28  48  70  90 115 151 190 220 252
#     4   9  17  30  48  68  90 117 148 182 222 267
#     4   9  17  30  48  67  87 114 150 187 220 260
#
# _framework density 23.041022000000002
#
# number of rings (size 3 to 8) (size 9 to 14) (size 15 to 20)
#    0.000    3.333    0.000    3.000    0.000    2.667 
#    0.000    2.500    0.000    5.500    0.000    0.000 
#    0.000    0.000    0.000    0.000    0.000    0.000 
#
# Total GULP energy -133844.771819 kJ/mol
# GULP energy per Si atom -5576.865492 kJ/mol
# Density = 2.298858 g / cm^3
# Si number density = 23.041022 Si / 1000 Ang^3
#
#
#
# Elastic Constant Matrix: (Units=GPa)
#
#
# Indices 1 2 3 4 5 6 
#
# 1 38.7162 -4.9592 26.3288 0.0000 11.3913 0.0000
# 2 -4.9592 79.4169 82.6294 0.0000 5.3535 0.0000
# 3 26.3288 82.6294 262.7862 0.0000 1.9150 0.0000
# 4 0.0000 0.0000 0.0000 26.4625 0.0000 -2.5417
# 5 11.3913 5.3535 1.9150 0.0000 49.3192 0.0000
# 6 0.0000 0.0000 0.0000 -2.5417 0.0000 -0.3259
#
#
#
# Elastic Compliance Matrix: (Units=1/GPa)
#
#
# Indices 1 2 3 4 5 6 
#
# 1 0.033710 0.009110 -0.006180 0.000000 -0.008535 0.000000
# 2 0.009110 0.021338 -0.007592 0.000000 -0.004126 0.000000
# 3 -0.006180 -0.007592 0.006797 0.000000 0.001987 0.000000
# 4 0.000000 0.000000 0.000000 0.021607 0.000000 -0.168485
# 5 -0.008535 -0.004126 0.001987 0.000000 0.022618 0.000000
# 6 0.000000 0.000000 0.000000 -0.168485 0.000000 -1.754181
#
#
# Mechanical properties :
#
#
# Convention : Reuss Voigt Hill
#
# Bulk Modulus (GPa) = 19.03994 65.43525 42.23759
# Shear Modulus (GPa) = -3.08398 33.55251 15.23426
#
# Velocity S-wave (km/s) = -1.15818 3.82017 2.57413
# Velocity P-wave (km/s) = 2.54812 6.92238 5.21595
#
# Compressibility (1/GPa) = 0.05252118
#
# Stress axis : x y z
#
# Youngs Moduli (GPa) = 29.66522 46.86482 147.11793
#
# Poissons Ratio (x) = -0.42694 0.90915
# Poissons Ratio (y) = -0.27025 1.11693
# Poissons Ratio (z) = 0.18332 0.35580
#
# Static dielectric constant tensor:
#      x y z
#    x 1.956620 0.000000 0.003370 
#    y 0.000000 1.811090 0.000000 
#    z 0.003370 0.000000 1.927160 
# 
# From -- ./inp_files/274032.got.cif
#   From: 2010.05.17/outbox.cif.g08.bks.cpg/sg12_138_cif.got.tgz:274032.got - 2010.06.03 13:09:07.
