data_PCOD9177083
_publ_section_title
;
Structure prediction by ZEFSAII (Michael W. Deem and Ramdas Pophale) SiO2 
 PCOD9177083
Probable space group: C 2/M
;
_chemical_formula_sum "Si O2"
_cell_formula_units_Z 50
_cell_length_a 14.691308
_cell_length_b 7.467083
_cell_length_c 17.949860
_cell_angle_alpha 90.000000
_cell_angle_beta 71.304422
_cell_angle_gamma 90.000000
_cell_volume 1865.220816
_symmetry_space_group_name_H-M "C 2/M"
_symmetry_group_IT_number 12
_symmetry_cell_setting 'monoclinic'
loop_
_space_group_symop_operation_xyz
x,y,z
-x,y,-z
-x,-y,-z
x,-y,z
1/2+x,1/2+y,z
1/2-x,1/2+y,-z
1/2-x,1/2-y,-z
1/2+x,1/2-y,z
loop_
_atom_site_type_symbol
_atom_site_label
_atom_site_fract_x
_atom_site_fract_y
_atom_site_fract_z
Si Si1 0.439574 0.797375 0.948670
Si Si2 0.070029 0.281204 0.311931
Si Si3 0.152597 0.796043 0.450861
Si Si4 0.352644 0.214867 0.343546
Si Si5 0.122275 0.209449 0.829540
Si Si6 0.000000 0.500000 0.500000
Si Si7 0.696131 0.218142 0.133768
O O1 0.520714 0.805040 0.862769
O O2 0.348948 0.712707 0.931291
O O3 0.415844 0.000000 0.977438
O O4 0.500000 0.711392 0.000000
O O5 0.069852 0.500000 0.323298
O O6 0.960096 0.220518 0.332038
O O7 0.119687 0.205470 0.372200
O O8 0.129182 0.236716 0.222071
O O9 0.263128 0.729654 0.417803
O O10 0.078258 0.655826 0.504306
O O11 0.144199 0.000000 0.479625
O O12 0.332776 0.267974 0.263300
O O13 0.353708 0.000000 0.345227
O O14 0.197006 0.274475 0.872333
O O15 0.105183 0.000000 0.845269
O O16 0.696091 0.000000 0.129755
#
# Coordination Sequence:
#
# PCOD9177083 Si02
#       7
#     8   8   8   8   8   2   8
#     4  10  21  39  58  78 114 166 212 255 313 380
#     4  10  18  37  65  92 125 162 202 265 322 361
#     4  11  24  43  69  98 128 170 215 258 307 383
#     4  10  21  37  64  95 125 157 211 265 310 363
#     4  11  21  33  56  87 120 156 200 258 316 372
#     4  12  26  48  72  90 140 178 202 248 328 378
#     4   9  18  33  56  85 117 157 203 251 315 378
#
# _framework density 26.806479
#
# number of rings (size 3 to 8) (size 9 to 14) (size 15 to 20)
#    0.000    1.760    4.000    0.720    1.120    1.600 
#    0.000    2.400    0.000    0.000    0.000    0.000 
#    0.000    0.000    0.000    0.000    0.000    0.000 
#
# Total GULP energy -139844.308548 kJ/mol
# GULP energy per Si atom -5593.772342 kJ/mol
# Density = 2.674547 g / cm^3
# Si number density = 26.806479 Si / 1000 Ang^3
#
#
#
# Elastic Constant Matrix: (Units=GPa)
#
#
# Indices 1 2 3 4 5 6 
#
# 1 151.1508 25.5076 13.9389 0.0000 -5.2839 0.0000
# 2 25.5076 131.2141 19.2573 0.0000 -13.5216 0.0000
# 3 13.9389 19.2573 91.1338 0.0000 12.7607 0.0000
# 4 0.0000 0.0000 0.0000 25.3783 0.0000 -4.5011
# 5 -5.2839 -13.5216 12.7607 0.0000 57.7985 0.0000
# 6 0.0000 0.0000 0.0000 -4.5011 0.0000 18.9971
#
#
#
# Elastic Compliance Matrix: (Units=1/GPa)
#
#
# Indices 1 2 3 4 5 6 
#
# 1 0.006913 -0.001155 -0.000891 0.000000 0.000558 0.000000
# 2 -0.001155 0.008360 -0.001908 0.000000 0.002271 0.000000
# 3 -0.000891 -0.001908 0.011956 0.000000 -0.003167 0.000000
# 4 0.000000 0.000000 0.000000 0.041132 0.000000 0.009746
# 5 0.000558 0.002271 -0.003167 0.000000 0.018583 0.000000
# 6 0.000000 0.000000 0.000000 0.009746 0.000000 0.054949
#
#
# Mechanical properties :
#
#
# Convention : Reuss Voigt Hill
#
# Bulk Modulus (GPa) = 51.76214 54.54515 53.15365
# Shear Modulus (GPa) = 32.00180 41.42111 36.71145
#
# Velocity S-wave (km/s) = 3.45890 3.93516 3.70469
# Velocity P-wave (km/s) = 5.94167 6.40618 6.17830
#
# Compressibility (1/GPa) = 0.01931914
#
# Stress axis : x y z
#
# Youngs Moduli (GPa) = 144.66311 119.62019 83.64117
#
# Poissons Ratio (x) = 0.13821 0.07455
# Poissons Ratio (y) = 0.16715 0.15957
# Poissons Ratio (z) = 0.12894 0.22821
#
# Static dielectric constant tensor:
#      x y z
#    x 2.076920 0.000000 0.024750 
#    y 0.000000 1.906680 0.000000 
#    z 0.024750 0.000000 2.227970 
# 
# From -- ./inp_files/308434.got.cif
#   From: 2010.05.17/outbox.cif.g08.bks.cpg/sg12_155_cif.got.tgz:308434.got - 2010.06.03 13:09:07.
