data_PCOD9177922
_publ_section_title
;
Structure prediction by ZEFSAII (Michael W. Deem and Ramdas Pophale) SiO2 
 PCOD9177922
Probable space group: C 2/M
;
_chemical_formula_sum "Si O2"
_cell_formula_units_Z 56
_cell_length_a 27.899008
_cell_length_b 9.087178
_cell_length_c 16.584214
_cell_angle_alpha 90.000000
_cell_angle_beta 65.043774
_cell_angle_gamma 90.000000
_cell_volume 3811.912897
_symmetry_space_group_name_H-M "C 2/M"
_symmetry_group_IT_number 12
_symmetry_cell_setting 'monoclinic'
loop_
_space_group_symop_operation_xyz
x,y,z
-x,y,-z
-x,-y,-z
x,-y,z
1/2+x,1/2+y,z
1/2-x,1/2+y,-z
1/2-x,1/2-y,-z
1/2+x,1/2-y,z
loop_
_atom_site_type_symbol
_atom_site_label
_atom_site_fract_x
_atom_site_fract_y
_atom_site_fract_z
Si Si1 0.555508 0.176746 0.360211
Si Si2 0.759088 0.323110 0.184094
Si Si3 0.355708 0.324189 0.808187
Si Si4 0.834140 0.824490 0.453339
Si Si5 0.065702 0.677331 0.539545
Si Si6 0.198970 0.176332 0.994474
Si Si7 0.732896 0.823805 0.634186
O O1 0.595416 0.246933 0.268841
O O2 0.570858 0.218039 0.441219
O O3 0.494005 0.217817 0.392387
O O4 0.558473 0.000000 0.353408
O O5 0.763833 0.500000 0.171431
O O6 0.699432 0.283519 0.197717
O O7 0.766721 0.284762 0.272024
O O8 0.800203 0.243830 0.095175
O O9 0.361174 0.500000 0.796447
O O10 0.347672 0.290149 0.908862
O O11 0.889028 0.753484 0.441128
O O12 0.789463 0.789665 0.552764
O O13 0.811133 0.758299 0.387040
O O14 0.838682 0.000000 0.444597
O O15 0.070370 0.500000 0.541618
O O16 0.205083 0.000000 0.987241
O O17 0.250000 0.250000 0.000000
O O18 0.725221 0.000000 0.632806
#
# Coordination Sequence:
#
# PCOD9177922 Si02
#       7
#     8   8   8   8   8   8   8
#     4   9  18  30  45  64  85 114 149 177 208 256
#     4   9  17  29  44  63  88 117 146 176 213 255
#     4   9  17  28  42  63  91 116 140 176 216 251
#     4  10  19  30  45  65  87 114 148 179 210 253
#     4   9  18  32  45  61  88 116 143 179 217 249
#     4   9  17  28  41  60  87 116 144 176 214 255
#     4   9  18  31  45  63  89 117 144 177 215 252
#
# _framework density 14.690787
#
# number of rings (size 3 to 8) (size 9 to 14) (size 15 to 20)
#    0.000    2.857    0.000    3.429    0.000    6.286 
#    0.000    1.429    0.000    0.000    0.000    1.000 
#    0.000    8.000    0.000    0.000    0.000    0.000 
#
# Total GULP energy -155972.887619 kJ/mol
# GULP energy per Si atom -5570.460272 kJ/mol
# Density = 1.465735 g / cm^3
# Si number density = 14.690787 Si / 1000 Ang^3
#
#
#
# Elastic Constant Matrix: (Units=GPa)
#
#
# Indices 1 2 3 4 5 6 
#
# 1 94.0061 36.9861 62.1370 0.0000 3.2330 0.0000
# 2 36.9861 29.7031 49.2474 0.0000 0.7200 0.0000
# 3 62.1370 49.2474 145.7488 0.0000 1.0248 0.0000
# 4 0.0000 0.0000 0.0000 28.3930 0.0000 -2.5682
# 5 3.2330 0.7200 1.0248 0.0000 22.3210 0.0000
# 6 0.0000 0.0000 0.0000 -2.5682 0.0000 22.0839
#
#
#
# Elastic Compliance Matrix: (Units=1/GPa)
#
#
# Indices 1 2 3 4 5 6 
#
# 1 0.020966 -0.025602 -0.000272 0.000000 -0.002198 0.000000
# 2 -0.025602 0.107854 -0.025538 0.000000 0.001402 0.000000
# 3 -0.000272 -0.025538 0.015605 0.000000 0.000147 0.000000
# 4 0.000000 0.000000 0.000000 0.035594 0.000000 0.004139
# 5 -0.002198 0.001402 0.000147 0.000000 0.045067 0.000000
# 6 0.000000 0.000000 0.000000 0.004139 0.000000 0.045763
#
#
# Mechanical properties :
#
#
# Convention : Reuss Voigt Hill
#
# Bulk Modulus (GPa) = 24.03824 62.91098 43.47461
# Shear Modulus (GPa) = 12.90185 22.63208 17.76697
#
# Velocity S-wave (km/s) = 2.96671 3.92926 3.48141
# Velocity P-wave (km/s) = 5.30410 7.96880 6.76887
#
# Compressibility (1/GPa) = 0.04160038
#
# Stress axis : x y z
#
# Youngs Moduli (GPa) = 47.69573 9.27183 64.08148
#
# Poissons Ratio (x) = 0.23738 0.01744
# Poissons Ratio (y) = 1.22112 1.63649
# Poissons Ratio (z) = 0.01298 0.23678
#
# Static dielectric constant tensor:
#      x y z
#    x 1.461520 0.000000 0.004430 
#    y 0.000000 1.487520 0.000000 
#    z 0.004430 0.000000 1.498720 
# 
# From -- ./inp_files/237912.got.cif
#   From: 2010.05.17/outbox.cif.g08.bks.cpg/sg12_119_cif.got.tgz:237912.got - 2010.06.03 13:09:07.
