data_PCOD9177663
_publ_section_title
;
Structure prediction by ZEFSAII (Michael W. Deem and Ramdas Pophale) SiO2 
 PCOD9177663
Probable space group: C 2/M
;
_chemical_formula_sum "Si O2"
_cell_formula_units_Z 56
_cell_length_a 37.281385
_cell_length_b 7.634766
_cell_length_c 15.173422
_cell_angle_alpha 90.000000
_cell_angle_beta 130.282163
_cell_angle_gamma 90.000000
_cell_volume 3294.743738
_symmetry_space_group_name_H-M "C 2/M"
_symmetry_group_IT_number 12
_symmetry_cell_setting 'monoclinic'
loop_
_space_group_symop_operation_xyz
x,y,z
-x,y,-z
-x,-y,-z
x,-y,z
1/2+x,1/2+y,z
1/2-x,1/2+y,-z
1/2-x,1/2-y,-z
1/2+x,1/2-y,z
loop_
_atom_site_type_symbol
_atom_site_label
_atom_site_fract_x
_atom_site_fract_y
_atom_site_fract_z
Si Si1 0.631530 0.300258 0.343630
Si Si2 0.314574 0.711704 0.041095
Si Si3 0.805095 0.211740 0.720002
Si Si4 0.059667 0.500000 0.191796
Si Si5 0.211279 0.204415 0.810143
Si Si6 0.798738 0.702345 0.403839
Si Si7 0.119248 0.210894 0.009286
Si Si8 0.550134 0.000000 0.965001
O O1 0.617949 0.500000 0.300297
O O2 0.669578 0.239470 0.330477
O O3 0.658681 0.294732 0.479144
O O4 0.587993 0.169781 0.269612
O O5 0.310802 0.500000 0.036364
O O6 0.313896 0.773186 0.141179
O O7 0.359085 0.754896 0.051797
O O8 0.266792 0.776492 0.918993
O O9 0.752169 0.278030 0.648537
O O10 0.801551 0.000000 0.716142
O O11 0.839748 0.257674 0.855135
O O12 0.005734 0.500000 0.136026
O O13 0.059874 0.500000 0.085514
O O14 0.199429 0.290664 0.698771
O O15 0.200124 0.000000 0.783184
O O16 0.800996 0.500000 0.435547
O O17 0.074867 0.328577 0.963265
O O18 0.111118 0.000000 0.001899
#
# Coordination Sequence:
#
# PCOD9177663 Si02
#       8
#     8   8   8   4   8   8   8   4
#     4  11  22  39  56  76 108 148 186 226 275 324
#     4   9  18  32  48  70 110 149 182 229 265 316
#     4   9  18  31  50  76 110 149 183 217 259 320
#     4  11  24  42  56  83 111 139 185 244 278 321
#     4  10  19  29  45  75 109 149 190 216 265 323
#     4  11  20  33  51  76 113 151 187 223 261 320
#     4  10  19  35  55  80 111 144 182 224 273 322
#     4  11  24  38  62  83 105 143 191 228 287 333
#
# _framework density 16.996770000000001
#
# number of rings (size 3 to 8) (size 9 to 14) (size 15 to 20)
#    0.000    1.857    3.571    1.286    1.000    1.143 
#    3.857    1.429    0.000    0.000    0.000    2.000 
#    0.000    4.571    0.000    0.000    0.000    0.000 
#
# Total GULP energy -156285.796210 kJ/mol
# GULP energy per Si atom -5581.635579 kJ/mol
# Density = 1.695808 g / cm^3
# Si number density = 16.996770 Si / 1000 Ang^3
#
#
#
# Elastic Constant Matrix: (Units=GPa)
#
#
# Indices 1 2 3 4 5 6 
#
# 1 111.9556 38.4925 55.5046 0.0000 7.5602 0.0000
# 2 38.4925 75.0454 30.3178 0.0000 12.8353 -0.0001
# 3 55.5046 30.3178 88.6147 0.0000 7.2657 0.0000
# 4 0.0000 0.0000 0.0000 20.2316 0.0000 0.4476
# 5 7.5602 12.8353 7.2657 0.0000 22.0663 0.0000
# 6 0.0000 -0.0001 0.0000 0.4476 0.0000 18.0752
#
#
#
# Elastic Compliance Matrix: (Units=1/GPa)
#
#
# Indices 1 2 3 4 5 6 
#
# 1 0.014024 -0.004242 -0.007339 0.000000 0.000079 0.000000
# 2 -0.004242 0.018038 -0.002850 0.000000 -0.008100 0.000000
# 3 -0.007339 -0.002850 0.016973 0.000000 -0.001416 0.000000
# 4 0.000000 0.000000 0.000000 0.049455 0.000000 -0.001225
# 5 0.000079 -0.008100 -0.001416 0.000000 0.050469 0.000000
# 6 0.000000 0.000000 0.000000 -0.001225 0.000000 0.055355
#
#
# Mechanical properties :
#
#
# Convention : Reuss Voigt Hill
#
# Bulk Modulus (GPa) = 49.57290 58.24950 53.91120
# Shear Modulus (GPa) = 20.84207 22.16134 21.50170
#
# Velocity S-wave (km/s) = 3.50557 3.61481 3.56061
# Velocity P-wave (km/s) = 6.75387 7.19498 6.97791
#
# Compressibility (1/GPa) = 0.02017231
#
# Stress axis : x y z
#
# Youngs Moduli (GPa) = 71.30802 55.43901 58.91692
#
# Poissons Ratio (x) = 0.23515 0.43240
# Poissons Ratio (y) = 0.30246 0.16794
# Poissons Ratio (z) = 0.52334 0.15802
#
# Static dielectric constant tensor:
#      x y z
#    x 1.581840 0.000000 -0.029140 
#    y 0.000000 1.679310 0.000000 
#    z -0.029140 0.000000 1.548710 
# 
# From -- ./inp_files/249323.got.cif
#   From: 2010.05.17/outbox.cif.g08.bks.cpg/sg12_125_cif.got.tgz:249323.got - 2010.06.03 13:09:07.
