data_PCOD9177419
_publ_section_title
;
Structure prediction by ZEFSAII (Michael W. Deem and Ramdas Pophale) SiO2 
 PCOD9177419
Probable space group: C 2/M
;
_chemical_formula_sum "Si O2"
_cell_formula_units_Z 56
_cell_length_a 28.104436
_cell_length_b 8.028535
_cell_length_c 14.991767
_cell_angle_alpha 90.000000
_cell_angle_beta 78.289348
_cell_angle_gamma 90.000000
_cell_volume 3312.293378
_symmetry_space_group_name_H-M "C 2/M"
_symmetry_group_IT_number 12
_symmetry_cell_setting 'monoclinic'
loop_
_space_group_symop_operation_xyz
x,y,z
-x,y,-z
-x,-y,-z
x,-y,z
1/2+x,1/2+y,z
1/2-x,1/2+y,-z
1/2-x,1/2-y,-z
1/2+x,1/2-y,z
loop_
_atom_site_type_symbol
_atom_site_label
_atom_site_fract_x
_atom_site_fract_y
_atom_site_fract_z
Si Si1 0.804977 0.200939 0.461405
Si Si2 0.128465 0.194551 0.717097
Si Si3 0.433644 0.703939 0.101919
Si Si4 0.456786 0.700896 0.895975
Si Si5 0.543319 0.195889 0.621891
Si Si6 0.891779 0.196378 0.554551
Si Si7 0.064372 0.302652 0.289924
O O1 0.750000 0.250000 0.500000
O O2 0.827571 0.265449 0.359036
O O3 0.842278 0.255281 0.525345
O O4 0.807093 0.000000 0.457781
O O5 0.109585 0.265611 0.818107
O O6 0.081714 0.210015 0.670010
O O7 0.139278 0.000000 0.728137
O O8 0.433288 0.500000 0.104012
O O9 0.486457 0.754724 0.120809
O O10 0.432858 0.754179 0.998740
O O11 0.456896 0.500000 0.894501
O O12 0.431783 0.762466 0.815767
O O13 0.563487 0.217933 0.514418
O O14 0.489100 0.259490 0.659022
O O15 0.544768 0.000000 0.644248
O O16 0.896395 0.228814 0.657398
O O17 0.896145 0.000000 0.536532
O O18 0.065261 0.500000 0.301605
#
# Coordination Sequence:
#
# PCOD9177419 Si02
#       7
#     8   8   8   8   8   8   8
#     4   9  19  33  50  71  91 113 144 185 233 277
#     4   9  16  29  48  68  91 121 157 190 220 265
#     4   8  14  26  45  67  89 118 161 197 219 252
#     4   9  16  27  45  65  88 125 162 191 220 254
#     4  10  19  29  41  63  94 124 153 185 223 265
#     4  10  21  34  48  65  85 117 158 190 221 270
#     4  11  21  30  41  64  96 127 154 185 226 267
#
# _framework density 16.906714000000001
#
# number of rings (size 3 to 8) (size 9 to 14) (size 15 to 20)
#    0.000    2.571    1.429    3.429    0.000    6.286 
#    0.000    2.143    0.000    0.000    0.000    1.000 
#    0.000    0.000    0.000    0.000    0.000    0.000 
#
# Total GULP energy -156037.768184 kJ/mol
# GULP energy per Si atom -5572.777435 kJ/mol
# Density = 1.686823 g / cm^3
# Si number density = 16.906714 Si / 1000 Ang^3
#
#
#
# Elastic Constant Matrix: (Units=GPa)
#
#
# Indices 1 2 3 4 5 6 
#
# 1 67.8632 6.0321 62.5553 0.0000 -10.0405 0.0000
# 2 6.0321 17.3446 2.9163 0.0000 -2.6743 0.0000
# 3 62.5553 2.9163 143.8498 0.0000 -3.2622 0.0000
# 4 0.0000 0.0000 0.0000 7.6462 0.0000 -3.6052
# 5 -10.0405 -2.6743 -3.2622 0.0000 23.4845 0.0000
# 6 0.0000 0.0000 0.0000 -3.6052 0.0000 12.4045
#
#
#
# Elastic Compliance Matrix: (Units=1/GPa)
#
#
# Indices 1 2 3 4 5 6 
#
# 1 0.027297 -0.006109 -0.011534 0.000000 0.009373 0.000000
# 2 -0.006109 0.060208 0.001537 0.000000 0.004458 0.000000
# 3 -0.011534 0.001537 0.011866 0.000000 -0.003108 0.000000
# 4 0.000000 0.000000 0.000000 0.151551 0.000000 0.044046
# 5 0.009373 0.004458 -0.003108 0.000000 0.046664 0.000000
# 6 0.000000 0.000000 0.000000 0.044046 0.000000 0.093417
#
#
# Mechanical properties :
#
#
# Convention : Reuss Voigt Hill
#
# Bulk Modulus (GPa) = 14.88998 41.34058 28.11528
# Shear Modulus (GPa) = 11.22075 19.21063 15.21569
#
# Velocity S-wave (km/s) = 2.57900 3.37452 3.00322
# Velocity P-wave (km/s) = 4.20650 6.29988 5.35645
#
# Compressibility (1/GPa) = 0.06715925
#
# Stress axis : x y z
#
# Youngs Moduli (GPa) = 36.63353 16.60898 84.27498
#
# Poissons Ratio (x) = 0.10146 0.97205
# Poissons Ratio (y) = 0.22379 -0.12954
# Poissons Ratio (z) = 0.42254 -0.02553
#
# Static dielectric constant tensor:
#      x y z
#    x 1.545480 0.000000 -0.000620 
#    y 0.000000 1.601920 0.000000 
#    z -0.000620 0.000000 1.621210 
# 
# From -- ./inp_files/243055.got.cif
#   From: 2010.05.17/outbox.cif.g08.bks.cpg/sg12_122_cif.got.tgz:243055.got - 2010.06.03 13:09:07.
