data_PCOD9177691
_publ_section_title
;
Structure prediction by ZEFSAII (Michael W. Deem and Ramdas Pophale) SiO2 
 PCOD9177691
Probable space group: C 2/M
;
_chemical_formula_sum "Si O2"
_cell_formula_units_Z 52
_cell_length_a 5.342574
_cell_length_b 26.857171
_cell_length_c 20.965956
_cell_angle_alpha 90.000000
_cell_angle_beta 64.196713
_cell_angle_gamma 90.000000
_cell_volume 2708.380888
_symmetry_space_group_name_H-M "C 2/M"
_symmetry_group_IT_number 12
_symmetry_cell_setting 'monoclinic'
loop_
_space_group_symop_operation_xyz
x,y,z
-x,y,-z
-x,-y,-z
x,-y,z
1/2+x,1/2+y,z
1/2-x,1/2+y,-z
1/2-x,1/2-y,-z
1/2+x,1/2-y,z
loop_
_atom_site_type_symbol
_atom_site_label
_atom_site_fract_x
_atom_site_fract_y
_atom_site_fract_z
Si Si1 0.268775 0.283730 0.342950
Si Si2 0.097877 0.442565 0.736037
Si Si3 0.630779 0.271204 0.079685
Si Si4 0.303606 0.056983 0.908894
Si Si5 0.595535 0.614624 0.736997
Si Si6 0.695548 0.386897 0.092236
Si Si7 0.000000 0.283295 0.500000
O O1 0.531275 0.250149 0.335923
O O2 0.361637 0.328662 0.288013
O O3 0.132497 0.307842 0.422485
O O4 0.135897 0.500000 0.713258
O O5 0.387115 0.413869 0.712718
O O6 0.951689 0.443107 0.822474
O O7 0.887013 0.413726 0.713321
O O8 0.310260 0.254855 0.115040
O O9 0.678394 0.329877 0.072868
O O10 0.750000 0.250000 0.000000
O O11 0.495921 0.092433 0.930494
O O12 0.997255 0.078124 0.929896
O O13 0.304862 0.000000 0.931474
O O14 0.448672 0.612838 0.822211
O O15 0.250000 0.250000 0.500000
#
# Coordination Sequence:
#
# PCOD9177691 Si02
#       7
#     8   8   8   8   8   8   4
#     4  10  19  31  46  67  96 127 158 197 237 283
#     4   9  17  30  46  67  98 129 158 191 231 287
#     4  10  21  36  52  71  92 127 167 193 222 268
#     4   9  17  30  49  74 101 126 151 189 243 289
#     4  10  19  29  46  73  98 125 156 191 242 282
#     4  10  19  31  49  74 101 124 156 196 231 283
#     4   8  16  30  46  62  85 122 165 198 232 276
#
# _framework density 19.199662
#
# number of rings (size 3 to 8) (size 9 to 14) (size 15 to 20)
#    0.000    2.462    0.000    2.769    0.000    4.923 
#    0.000    0.000    0.000    0.000    0.000   46.308 
#    0.000    0.000    0.000    0.000    0.000    0.000 
#
# Total GULP energy -145159.369525 kJ/mol
# GULP energy per Si atom -5583.052674 kJ/mol
# Density = 1.915596 g / cm^3
# Si number density = 19.199662 Si / 1000 Ang^3
#
#
#
# Elastic Constant Matrix: (Units=GPa)
#
#
# Indices 1 2 3 4 5 6 
#
# 1 189.5520 79.9399 19.7982 0.0000 -6.5189 0.0000
# 2 79.9399 143.3821 6.2139 0.0000 -1.5043 0.0000
# 3 19.7982 6.2139 33.2618 0.0000 -0.0028 0.0000
# 4 0.0000 0.0000 0.0000 -2.0000 0.0000 -1.5382
# 5 -6.5189 -1.5043 -0.0028 0.0000 11.0473 0.0000
# 6 0.0000 0.0000 0.0000 -1.5382 0.0000 35.6742
#
#
#
# Elastic Compliance Matrix: (Units=1/GPa)
#
#
# Indices 1 2 3 4 5 6 
#
# 1 0.007466 -0.003961 -0.003704 0.000000 0.003865 0.000000
# 2 -0.003961 0.009143 0.000650 0.000000 -0.001092 0.000000
# 3 -0.003704 0.000650 0.032147 0.000000 -0.002089 0.000000
# 4 0.000000 0.000000 0.000000 -0.483962 0.000000 -0.020867
# 5 0.003865 -0.001092 -0.002089 0.000000 0.092651 0.000000
# 6 0.000000 0.000000 0.000000 -0.020867 0.000000 0.027132
#
#
# Mechanical properties :
#
#
# Convention : Reuss Voigt Hill
#
# Bulk Modulus (GPa) = 28.79673 64.23333 46.51503
# Shear Modulus (GPa) = -17.25229 26.29390 4.52080
#
# Velocity S-wave (km/s) = -3.00087 3.70469 1.53614
# Velocity P-wave (km/s) = 1.73901 7.19915 5.23698
#
# Compressibility (1/GPa) = 0.03472616
#
# Stress axis : x y z
#
# Youngs Moduli (GPa) = 133.94004 109.36852 31.10675
#
# Poissons Ratio (x) = 0.43326 0.11521
# Poissons Ratio (y) = 0.53060 -0.02021
# Poissons Ratio (z) = 0.49605 -0.07106
#
# Static dielectric constant tensor:
#      x y z
#    x 1.726020 0.000000 -0.012180 
#    y 0.000000 1.625160 0.000000 
#    z -0.012180 0.000000 1.708430 
# 
# From -- ./inp_files/297851.got.cif
#   From: 2010.05.17/outbox.cif.g08.bks.cpg/sg12_149_cif.got.tgz:297851.got - 2010.06.03 13:09:07.
