data_PCOD9177357
_publ_section_title
;
Structure prediction by ZEFSAII (Michael W. Deem and Ramdas Pophale) SiO2 
 PCOD9177357
Probable space group: C 2/M
;
_chemical_formula_sum "Si O2"
_cell_formula_units_Z 56
_cell_length_a 16.931282
_cell_length_b 27.884685
_cell_length_c 9.332949
_cell_angle_alpha 90.000000
_cell_angle_beta 45.771429
_cell_angle_gamma 90.000000
_cell_volume 3157.394007
_symmetry_space_group_name_H-M "C 2/M"
_symmetry_group_IT_number 12
_symmetry_cell_setting 'monoclinic'
loop_
_space_group_symop_operation_xyz
x,y,z
-x,y,-z
-x,-y,-z
x,-y,z
1/2+x,1/2+y,z
1/2-x,1/2+y,-z
1/2-x,1/2-y,-z
1/2+x,1/2-y,z
loop_
_atom_site_type_symbol
_atom_site_label
_atom_site_fract_x
_atom_site_fract_y
_atom_site_fract_z
Si Si1 0.125626 0.402441 0.310318
Si Si2 0.568580 0.947858 0.093633
Si Si3 0.592796 0.746280 0.087987
Si Si4 0.234972 0.171118 0.049650
Si Si5 0.206186 0.627218 0.741819
Si Si6 0.359636 0.229523 0.292150
Si Si7 0.190961 0.554724 0.529727
O O1 0.104311 0.441741 0.213558
O O2 0.179192 0.423979 0.385340
O O3 0.000000 0.383391 0.500000
O O4 0.209737 0.365005 0.133077
O O5 0.436959 0.946445 0.257468
O O6 0.606565 0.000000 0.991588
O O7 0.618319 0.903481 0.944961
O O8 0.629033 0.698207 0.121947
O O9 0.465377 0.760823 0.257071
O O10 0.670288 0.788833 0.046845
O O11 0.620652 0.743866 0.883858
O O12 0.215970 0.147324 0.229842
O O13 0.153309 0.673257 0.729989
O O14 0.250130 0.590930 0.565067
O O15 0.250000 0.250000 0.500000
O O16 0.232232 0.500000 0.477607
#
# Coordination Sequence:
#
# PCOD9177357 Si02
#       7
#     8   8   8   8   8   8   8
#     4   9  18  27  46  71 104 145 181 215 262 323
#     4   9  17  29  45  68 103 144 179 214 263 322
#     4   9  20  36  53  72 107 138 181 227 260 313
#     4   9  19  34  49  73 102 144 179 211 258 318
#     4  10  20  30  49  71 100 138 182 210 261 326
#     4  10  22  35  55  79 103 139 180 229 272 310
#     4  10  19  28  44  73 106 140 178 222 263 317
#
# _framework density 17.736146000000002
#
# number of rings (size 3 to 8) (size 9 to 14) (size 15 to 20)
#    0.000    2.571    0.000    1.286   14.000    2.857 
#    0.000    5.714    0.000    0.000    0.000    0.000 
#    0.000   25.143    0.000    0.000    0.000    0.000 
#
# Total GULP energy -156035.570275 kJ/mol
# GULP energy per Si atom -5572.698938 kJ/mol
# Density = 1.769578 g / cm^3
# Si number density = 17.736146 Si / 1000 Ang^3
#
#
#
# Elastic Constant Matrix: (Units=GPa)
#
#
# Indices 1 2 3 4 5 6 
#
# 1 78.0597 54.5300 33.6642 0.0000 19.5492 0.0000
# 2 54.5300 105.6408 33.0117 0.0000 17.1305 0.0000
# 3 33.6642 33.0117 53.3414 0.0000 9.9447 0.0000
# 4 0.0000 0.0000 0.0000 15.1590 0.0000 8.7486
# 5 19.5492 17.1305 9.9447 0.0000 28.4637 0.0000
# 6 0.0000 0.0000 0.0000 8.7486 0.0000 21.8387
#
#
#
# Elastic Compliance Matrix: (Units=1/GPa)
#
#
# Indices 1 2 3 4 5 6 
#
# 1 0.024800 -0.008675 -0.008644 0.000000 -0.008792 0.000000
# 2 -0.008675 0.015428 -0.003694 0.000000 -0.002037 0.000000
# 3 -0.008644 -0.003694 0.026707 0.000000 -0.001171 0.000000
# 4 0.000000 0.000000 0.000000 0.085805 0.000000 -0.034373
# 5 -0.008792 -0.002037 -0.001171 0.000000 0.042806 0.000000
# 6 0.000000 0.000000 0.000000 -0.034373 0.000000 0.059560
#
#
# Mechanical properties :
#
#
# Convention : Reuss Voigt Hill
#
# Bulk Modulus (GPa) = 40.14358 53.27264 46.70811
# Shear Modulus (GPa) = 16.37009 20.81469 18.59239
#
# Velocity S-wave (km/s) = 3.04135 3.42946 3.24122
# Velocity P-wave (km/s) = 5.91743 6.76632 6.35606
#
# Compressibility (1/GPa) = 0.02491058
#
# Stress axis : x y z
#
# Youngs Moduli (GPa) = 40.32224 64.81600 37.44370
#
# Poissons Ratio (x) = 0.56225 0.32366
# Poissons Ratio (y) = 0.34978 0.13831
# Poissons Ratio (z) = 0.34854 0.23942
#
# Static dielectric constant tensor:
#      x y z
#    x 1.624940 0.000000 0.046440 
#    y 0.000000 1.632610 0.000000 
#    z 0.046440 0.000000 1.608940 
# 
# From -- ./inp_files/79651.got.cif
#   From: 2010.05.17/outbox.cif.g08.bks.cpg/sg12_40_cif.got.tgz:79651.got - 2010.06.03 13:09:07.
