data_PCOD9177688
_publ_section_title
;
Structure prediction by ZEFSAII (Michael W. Deem and Ramdas Pophale) SiO2 
 PCOD9177688
Probable space group: C 2/M
;
_chemical_formula_sum "Si O2"
_cell_formula_units_Z 64
_cell_length_a 23.580807
_cell_length_b 10.133283
_cell_length_c 19.346437
_cell_angle_alpha 90.000000
_cell_angle_beta 52.541114
_cell_angle_gamma 90.000000
_cell_volume 3669.572181
_symmetry_space_group_name_H-M "C 2/M"
_symmetry_group_IT_number 12
_symmetry_cell_setting 'monoclinic'
loop_
_space_group_symop_operation_xyz
x,y,z
-x,y,-z
-x,-y,-z
x,-y,z
1/2+x,1/2+y,z
1/2-x,1/2+y,-z
1/2-x,1/2-y,-z
1/2+x,1/2-y,z
loop_
_atom_site_type_symbol
_atom_site_label
_atom_site_fract_x
_atom_site_fract_y
_atom_site_fract_z
Si Si1 0.054667 0.346468 0.896856
Si Si2 0.762251 0.358934 0.892740
Si Si3 0.449779 0.852540 0.846987
Si Si4 0.314875 0.349333 0.186408
Si Si5 0.162941 0.145040 0.094654
Si Si6 0.475252 0.849516 0.663804
Si Si7 0.063086 0.847745 0.510408
Si Si8 0.651212 0.154236 0.353340
O O1 0.074755 0.500000 0.894265
O O2 0.123592 0.253540 0.842499
O O3 0.013525 0.339699 0.854182
O O4 0.000000 0.309758 0.000000
O O5 0.799116 0.500000 0.848971
O O6 0.698932 0.345598 0.885553
O O7 0.810866 0.230571 0.859835
O O8 0.728480 0.369909 0.993408
O O9 0.394351 0.736092 0.900708
O O10 0.467970 0.842495 0.752082
O O11 0.418494 0.000000 0.881246
O O12 0.334445 0.500000 0.191313
O O13 0.234605 0.323345 0.274155
O O14 0.136229 0.000000 0.132808
O O15 0.529641 0.737697 0.597371
O O16 0.402064 0.831530 0.673445
O O17 0.499520 0.000000 0.629120
O O18 0.124521 0.759289 0.429509
O O19 0.000000 0.853025 0.500000
O O20 0.082347 0.000000 0.512605
O O21 0.643833 0.000000 0.380712
#
# Coordination Sequence:
#
# PCOD9177688 Si02
#       8
#     8   8   8   8   8   8   8   8
#     4  10  22  38  54  73  99 134 175 218 264 308
#     4   9  18  32  47  67  98 131 161 197 248 306
#     4  10  20  34  51  70  97 133 170 209 254 303
#     4  10  20  34  53  74  97 130 173 216 253 296
#     4  10  19  29  46  72  98 126 161 203 250 299
#     4   9  17  31  52  75 101 135 169 200 240 298
#     4   9  17  29  47  75 109 137 159 192 243 299
#     4   9  17  30  50  76 103 132 166 201 243 300
#
# _framework density 17.440725
#
# number of rings (size 3 to 8) (size 9 to 14) (size 15 to 20)
#    0.000    2.500    0.000    2.250    0.000    6.250 
#    0.000    2.500    0.000    0.750    0.000    0.000 
#    0.000    0.000    0.000    0.000    0.000    0.000 
#
# Total GULP energy -178179.775144 kJ/mol
# GULP energy per Si atom -5568.117973 kJ/mol
# Density = 1.740103 g / cm^3
# Si number density = 17.440725 Si / 1000 Ang^3
#
#
#
# Elastic Constant Matrix: (Units=GPa)
#
#
# Indices 1 2 3 4 5 6 
#
# 1 76.2997 57.9461 20.3334 0.0000 -8.8934 0.0000
# 2 57.9461 163.9750 61.9726 0.0001 -16.8865 -0.0002
# 3 20.3334 61.9726 73.5755 0.0000 -8.2752 0.0000
# 4 0.0000 0.0001 0.0000 23.2678 0.0000 -1.1279
# 5 -8.8934 -16.8865 -8.2752 0.0000 15.6687 0.0000
# 6 0.0000 -0.0002 0.0000 -1.1279 0.0000 -27.4315
#
#
#
# Elastic Compliance Matrix: (Units=1/GPa)
#
#
# Indices 1 2 3 4 5 6 
#
# 1 0.018139 -0.006277 0.000714 0.000000 0.003907 0.000000
# 2 -0.006277 0.011687 -0.007541 0.000000 0.005050 0.000000
# 3 0.000714 -0.007541 0.020070 0.000000 0.002878 0.000000
# 4 0.000000 0.000000 0.000000 0.042892 0.000000 -0.001764
# 5 0.003907 0.005050 0.002878 0.000000 0.073001 0.000000
# 6 0.000000 0.000000 0.000000 -0.001764 0.000000 -0.036382
#
#
# Mechanical properties :
#
#
# Convention : Reuss Voigt Hill
#
# Bulk Modulus (GPa) = 42.21831 66.03938 54.12884
# Shear Modulus (GPa) = 30.57894 13.87419 22.22656
#
# Velocity S-wave (km/s) = 4.19179 2.82353 3.57376
# Velocity P-wave (km/s) = 6.90561 6.96972 6.93774
#
# Compressibility (1/GPa) = 0.02368641
#
# Stress axis : x y z
#
# Youngs Moduli (GPa) = 55.13053 85.56541 49.82636
#
# Poissons Ratio (x) = 0.53713 -0.03558
# Poissons Ratio (y) = 0.34608 0.37575
# Poissons Ratio (z) = -0.03937 0.64526
#
# Static dielectric constant tensor:
#      x y z
#    x 1.579550 0.000000 -0.002520 
#    y 0.000000 1.651370 0.000000 
#    z -0.002520 0.000000 1.626330 
# 
# From -- ./inp_files/324184.got.cif
#   From: 2010.05.17/outbox.cif.g08.bks.cpg/sg12_163_cif.got.tgz:324184.got - 2010.06.03 13:09:07.
