data_PCOD9177813
_publ_section_title
;
Structure prediction by ZEFSAII (Michael W. Deem and Ramdas Pophale) SiO2 
 PCOD9177813
Probable space group: C 2/M
;
_chemical_formula_sum "Si O2"
_cell_formula_units_Z 64
_cell_length_a 28.569702
_cell_length_b 9.514777
_cell_length_c 14.084864
_cell_angle_alpha 90.000000
_cell_angle_beta 89.215008
_cell_angle_gamma 90.000000
_cell_volume 3828.390419
_symmetry_space_group_name_H-M "C 2/M"
_symmetry_group_IT_number 12
_symmetry_cell_setting 'monoclinic'
loop_
_space_group_symop_operation_xyz
x,y,z
-x,y,-z
-x,-y,-z
x,-y,z
1/2+x,1/2+y,z
1/2-x,1/2+y,-z
1/2-x,1/2-y,-z
1/2+x,1/2-y,z
loop_
_atom_site_type_symbol
_atom_site_label
_atom_site_fract_x
_atom_site_fract_y
_atom_site_fract_z
Si Si1 0.298773 0.332066 0.000208
Si Si2 0.554965 0.333725 0.505792
Si Si3 0.905714 0.658724 0.663600
Si Si4 0.578357 0.664365 0.724897
Si Si5 0.130812 0.155604 0.171107
Si Si6 0.875533 0.667388 0.119112
Si Si7 0.452151 0.263690 0.965158
Si Si8 0.502286 0.851435 0.212173
O O1 0.294367 0.500000 0.020435
O O2 0.324986 0.319686 0.897947
O O3 0.250000 0.250000 0.000000
O O4 0.333061 0.252538 0.072457
O O5 0.500000 0.290687 0.500000
O O6 0.556388 0.500000 0.482996
O O7 0.586204 0.248298 0.430909
O O8 0.573324 0.314797 0.612447
O O9 0.890209 0.500000 0.644353
O O10 0.874596 0.733423 0.744749
O O11 0.956582 0.651957 0.712347
O O12 0.586807 0.500000 0.744547
O O13 0.614562 0.763873 0.778772
O O14 0.528950 0.715778 0.769281
O O15 0.085629 0.159812 0.101537
O O16 0.133065 0.000000 0.212911
O O17 0.867761 0.500000 0.120963
O O18 0.921153 0.700957 0.051434
O O19 0.474096 0.152307 0.891377
O O20 0.500000 0.337766 0.000000
O O21 0.475661 0.000000 0.224000
#
# Coordination Sequence:
#
# PCOD9177813 Si02
#       8
#     8   8   8   8   8   8   8   8
#     4  10  21  39  62  87 111 138 173 214 265 322
#     4  10  20  34  49  67  95 141 190 232 274 315
#     4  10  20  32  49  72  99 133 176 226 268 308
#     4  11  22  33  46  67  98 135 181 226 265 311
#     4   9  20  35  51  76 107 138 174 215 259 315
#     4  11  22  36  53  74 106 142 178 221 267 316
#     4  10  19  30  44  71  99 140 182 215 253 302
#     4  10  19  30  43  63  92 132 176 217 260 303
#
# _framework density 16.717207999999999
#
# number of rings (size 3 to 8) (size 9 to 14) (size 15 to 20)
#    0.000    1.875    2.500    1.875    0.000    8.000 
#    0.000    0.000    0.000    0.000    0.000    0.875 
#    0.000    0.000    0.000    0.000    0.000    0.000 
#
# Total GULP energy -178316.266758 kJ/mol
# GULP energy per Si atom -5572.383336 kJ/mol
# Density = 1.667916 g / cm^3
# Si number density = 16.717208 Si / 1000 Ang^3
#
#
#
# Elastic Constant Matrix: (Units=GPa)
#
#
# Indices 1 2 3 4 5 6 
#
# 1 88.0071 49.3030 27.1283 0.0000 1.5394 0.0000
# 2 49.3030 135.0121 64.3813 0.0000 -6.5633 0.0000
# 3 27.1283 64.3813 88.5689 0.0000 -4.8816 0.0000
# 4 0.0000 0.0000 0.0000 11.0966 0.0000 3.5876
# 5 1.5394 -6.5633 -4.8816 0.0000 14.0195 0.0000
# 6 0.0000 0.0000 0.0000 3.5876 0.0000 15.5832
#
#
#
# Elastic Compliance Matrix: (Units=1/GPa)
#
#
# Indices 1 2 3 4 5 6 
#
# 1 0.014582 -0.005038 -0.001043 0.000000 -0.004323 0.000000
# 2 -0.005038 0.013162 -0.007804 0.000000 0.003998 0.000000
# 3 -0.001043 -0.007804 0.017422 0.000000 0.002527 0.000000
# 4 0.000000 0.000000 0.000000 0.097365 0.000000 -0.022416
# 5 -0.004323 0.003998 0.002527 0.000000 0.074555 0.000000
# 6 0.000000 0.000000 0.000000 -0.022416 0.000000 0.069332
#
#
# Mechanical properties :
#
#
# Convention : Reuss Voigt Hill
#
# Bulk Modulus (GPa) = 57.48126 65.91260 61.69693
# Shear Modulus (GPa) = 15.62558 19.52489 17.57524
#
# Velocity S-wave (km/s) = 3.06060 3.42124 3.24593
# Velocity P-wave (km/s) = 6.85192 7.42429 7.14384
#
# Compressibility (1/GPa) = 0.01739697
#
# Stress axis : x y z
#
# Youngs Moduli (GPa) = 68.57736 75.97399 57.39769
#
# Poissons Ratio (x) = 0.38276 0.05984
# Poissons Ratio (y) = 0.34549 0.44795
# Poissons Ratio (z) = 0.07149 0.59293
#
# Static dielectric constant tensor:
#      x y z
#    x 1.558950 0.000000 0.016240 
#    y 0.000000 1.582300 0.000000 
#    z 0.016240 0.000000 1.572450 
# 
# From -- ./inp_files/248519.got.cif
#   From: 2010.05.17/outbox.cif.g08.bks.cpg/sg12_125_cif.got.tgz:248519.got - 2010.06.03 13:09:07.
