data_PCOD9177707
_publ_section_title
;
Structure prediction by ZEFSAII (Michael W. Deem and Ramdas Pophale) SiO2 
 PCOD9177707
Probable space group: C 2/M
;
_chemical_formula_sum "Si O2"
_cell_formula_units_Z 64
_cell_length_a 8.377098
_cell_length_b 30.391512
_cell_length_c 15.100014
_cell_angle_alpha 90.000000
_cell_angle_beta 76.118924
_cell_angle_gamma 90.000000
_cell_volume 3732.081590
_symmetry_space_group_name_H-M "C 2/M"
_symmetry_group_IT_number 12
_symmetry_cell_setting 'monoclinic'
loop_
_space_group_symop_operation_xyz
x,y,z
-x,y,-z
-x,-y,-z
x,-y,z
1/2+x,1/2+y,z
1/2-x,1/2+y,-z
1/2-x,1/2-y,-z
1/2+x,1/2-y,z
loop_
_atom_site_type_symbol
_atom_site_label
_atom_site_fract_x
_atom_site_fract_y
_atom_site_fract_z
Si Si1 0.895571 0.223012 0.933949
Si Si2 0.250250 0.357007 0.548164
Si Si3 0.042233 0.361326 0.270412
Si Si4 0.403336 0.719527 0.636346
Si Si5 0.353268 0.202651 0.175033
Si Si6 0.398593 0.951124 0.657648
Si Si7 0.733498 0.191387 0.370937
Si Si8 0.248297 0.048979 0.489450
O O1 0.787247 0.194036 0.880642
O O2 0.018890 0.258665 0.870836
O O3 0.750000 0.250000 0.000000
O O4 0.000000 0.201316 0.000000
O O5 0.360436 0.318820 0.574067
O O6 0.212156 0.343485 0.452801
O O7 0.324502 0.406023 0.539273
O O8 0.090674 0.357048 0.632174
O O9 0.097746 0.412029 0.271320
O O10 0.191068 0.330612 0.283007
O O11 0.956755 0.339596 0.196004
O O12 0.260126 0.718422 0.728763
O O13 0.388371 0.767817 0.598035
O O14 0.581922 0.709487 0.650148
O O15 0.573317 0.951599 0.582559
O O16 0.272983 0.945181 0.591993
O O17 0.373317 0.000000 0.698904
O O18 0.179379 0.000000 0.483014
#
# Coordination Sequence:
#
# PCOD9177707 Si02
#       8
#     8   8   8   8   8   8   8   8
#     4   9  18  33  54  73  94 122 146 177 215 273
#     4  10  19  31  43  61  87 120 171 212 242 278
#     4  10  19  29  47  67  92 123 154 208 246 280
#     4  11  23  32  44  60  89 128 160 201 239 277
#     4  10  19  33  48  71  97 119 154 185 230 276
#     4   8  13  24  42  66  88 115 156 202 250 287
#     4  12  21  32  41  58  85 127 173 203 241 271
#     4   8  13  24  44  63  82 112 159 214 255 285
#
# _framework density 17.148606999999998
#
# number of rings (size 3 to 8) (size 9 to 14) (size 15 to 20)
#    0.000    2.250    1.250    4.875    0.000    2.000 
#    0.000    0.000    0.000    2.250    0.000    0.000 
#    0.000    5.000    0.000    0.000    0.000   17.000 
#
# Total GULP energy -178208.889029 kJ/mol
# GULP energy per Si atom -5569.027782 kJ/mol
# Density = 1.710958 g / cm^3
# Si number density = 17.148607 Si / 1000 Ang^3
#
#
#
# Elastic Constant Matrix: (Units=GPa)
#
#
# Indices 1 2 3 4 5 6 
#
# 1 67.0871 21.3884 13.6140 0.0000 15.0396 0.0000
# 2 21.3884 134.3025 17.6905 0.0000 23.3803 0.0000
# 3 13.6140 17.6905 47.1808 0.0000 10.2061 0.0000
# 4 0.0000 0.0000 0.0000 10.7682 0.0000 3.3577
# 5 15.0396 23.3803 10.2061 0.0000 37.6341 0.0000
# 6 0.0000 0.0000 0.0000 3.3577 0.0000 -10.0961
#
#
#
# Elastic Compliance Matrix: (Units=1/GPa)
#
#
# Indices 1 2 3 4 5 6 
#
# 1 0.017170 -0.001412 -0.003326 0.000000 -0.005083 0.000000
# 2 -0.001412 0.008672 -0.001913 0.000000 -0.004305 0.000000
# 3 -0.003326 -0.001913 0.023719 0.000000 -0.003915 0.000000
# 4 0.000000 0.000000 0.000000 0.084141 0.000000 0.027983
# 5 -0.005083 -0.004305 -0.003915 0.000000 0.032339 0.000000
# 6 0.000000 0.000000 0.000000 0.027983 0.000000 -0.089741
#
#
# Mechanical properties :
#
#
# Convention : Reuss Voigt Hill
#
# Bulk Modulus (GPa) = 27.57815 39.32846 33.45330
# Shear Modulus (GPa) = 49.17036 20.71972 34.94504
#
# Velocity S-wave (km/s) = 5.36054 3.47975 4.51907
# Velocity P-wave (km/s) = 7.37771 6.25529 6.83956
#
# Compressibility (1/GPa) = 0.03626059
#
# Stress axis : x y z
#
# Youngs Moduli (GPa) = 58.23975 115.31297 42.16048
#
# Poissons Ratio (x) = 0.16277 0.14021
# Poissons Ratio (y) = 0.08221 0.08066
# Poissons Ratio (z) = 0.19369 0.22061
#
# Static dielectric constant tensor:
#      x y z
#    x 1.697840 0.000000 0.028120 
#    y 0.000000 1.607480 0.000000 
#    z 0.028120 0.000000 1.608950 
# 
# From -- ./inp_files/200572.got.cif
#   From: 2010.05.17/outbox.cif.g08.bks.cpg/sg12_101_cif.got.tgz:200572.got - 2010.06.03 13:09:07.
