data_PCOD9177658
_publ_section_title
;
Structure prediction by ZEFSAII (Michael W. Deem and Ramdas Pophale) SiO2 
 PCOD9177658
Probable space group: C 2/M
;
_chemical_formula_sum "Si O2"
_cell_formula_units_Z 48
_cell_length_a 25.620880
_cell_length_b 8.241080
_cell_length_c 20.140116
_cell_angle_alpha 90.000000
_cell_angle_beta 152.345667
_cell_angle_gamma 90.000000
_cell_volume 1973.720202
_symmetry_space_group_name_H-M "C 2/M"
_symmetry_group_IT_number 12
_symmetry_cell_setting 'monoclinic'
loop_
_space_group_symop_operation_xyz
x,y,z
-x,y,-z
-x,-y,-z
x,-y,z
1/2+x,1/2+y,z
1/2-x,1/2+y,-z
1/2-x,1/2-y,-z
1/2+x,1/2-y,z
loop_
_atom_site_type_symbol
_atom_site_label
_atom_site_fract_x
_atom_site_fract_y
_atom_site_fract_z
Si Si1 0.195020 0.819574 0.003644
Si Si2 0.873637 0.690981 0.659901
Si Si3 0.947553 0.313370 0.043829
Si Si4 0.738244 0.696956 0.721176
Si Si5 0.093575 0.186698 0.441133
Si Si6 0.416894 0.819767 0.338723
O O1 0.120407 0.698249 0.963248
O O2 0.142431 0.000000 0.934691
O O3 0.250000 0.750000 0.000000
O O4 0.301855 0.839566 0.170359
O O5 0.868658 0.500000 0.665956
O O6 0.750000 0.750000 0.500000
O O7 0.936202 0.723022 0.660149
O O8 0.935885 0.761126 0.796037
O O9 0.968529 0.500000 0.047763
O O10 0.858838 0.246815 0.888408
O O11 0.740401 0.500000 0.726273
O O12 0.702430 0.745020 0.606200
O O13 0.632318 0.754735 0.647163
O O14 0.992259 0.203408 0.378938
O O15 0.112747 0.000000 0.445417
O O16 0.469455 0.000000 0.399953
#
# Coordination Sequence:
#
# PCOD9177658 Si02
#       6
#     8   8   8   8   8   8
#     4  10  19  29  45  73 108 146 184 221 265 318
#     4  11  24  42  63  84 107 139 182 233 285 333
#     4   9  19  37  58  78 104 140 181 225 271 321
#     4   9  19  36  57  83 115 150 187 224 266 322
#     4  11  22  36  57  84 114 149 187 228 274 324
#     4  10  20  32  49  79 118 154 186 222 267 322
#
# _framework density 24.319557
#
# number of rings (size 3 to 8) (size 9 to 14) (size 15 to 20)
#    0.000    2.000    0.000    3.500    0.000   10.667 
#    0.000    0.833    0.000    5.000    0.000    0.000 
#    0.000    0.000    0.000    0.000    0.000    0.000 
#
# Total GULP energy -133758.475858 kJ/mol
# GULP energy per Si atom -5573.269827 kJ/mol
# Density = 2.426420 g / cm^3
# Si number density = 24.319557 Si / 1000 Ang^3
#
#
#
# Elastic Constant Matrix: (Units=GPa)
#
#
# Indices 1 2 3 4 5 6 
#
# 1 27.2721 0.7588 22.3920 0.0000 0.0638 0.0000
# 2 0.7588 45.1847 3.7433 0.0000 -6.2147 0.0000
# 3 22.3920 3.7433 144.2328 0.0000 -15.4711 0.0000
# 4 0.0000 0.0000 0.0000 23.7279 0.0000 2.7822
# 5 0.0638 -6.2147 -15.4711 0.0000 32.9310 0.0000
# 6 0.0000 0.0000 0.0000 2.7822 0.0000 17.3477
#
#
#
# Elastic Compliance Matrix: (Units=1/GPa)
#
#
# Indices 1 2 3 4 5 6 
#
# 1 0.042387 -0.000613 -0.006935 0.000000 -0.003456 0.000000
# 2 -0.000613 0.022733 -0.000036 0.000000 0.004274 0.000000
# 3 -0.006935 -0.000036 0.008437 0.000000 0.003970 0.000000
# 4 0.000000 0.000000 0.000000 0.042952 0.000000 -0.006889
# 5 -0.003456 0.004274 0.003970 0.000000 0.033045 0.000000
# 6 0.000000 0.000000 0.000000 -0.006889 0.000000 0.058749
#
#
# Mechanical properties :
#
#
# Convention : Reuss Voigt Hill
#
# Bulk Modulus (GPa) = 17.12694 30.05310 23.59002
# Shear Modulus (GPa) = 20.58169 27.45434 24.01802
#
# Velocity S-wave (km/s) = 2.91228 3.36356 3.14602
# Velocity P-wave (km/s) = 4.28559 5.24110 4.78724
#
# Compressibility (1/GPa) = 0.05838755
#
# Stress axis : x y z
#
# Youngs Moduli (GPa) = 23.59209 43.98977 118.52906
#
# Poissons Ratio (x) = 0.02695 0.82204
# Poissons Ratio (y) = 0.01445 0.00432
# Poissons Ratio (z) = 0.16362 0.00160
#
# Static dielectric constant tensor:
#      x y z
#    x 2.158940 0.000000 -0.000310 
#    y 0.000000 1.931600 0.000000 
#    z -0.000310 0.000000 2.070530 
# 
# From -- ./inp_files/327329.got.cif
#   From: 2010.05.17/outbox.cif.g08.bks.cpg/sg12_164_cif.got.tgz:327329.got - 2010.06.03 13:09:07.
