data_PCOD9177954
_publ_section_title
;
Structure prediction by ZEFSAII (Michael W. Deem and Ramdas Pophale) SiO2 
 PCOD9177954
Probable space group: C 2/M
;
_chemical_formula_sum "Si O2"
_cell_formula_units_Z 56
_cell_length_a 13.990221
_cell_length_b 7.359431
_cell_length_c 21.069111
_cell_angle_alpha 90.000000
_cell_angle_beta 69.417363
_cell_angle_gamma 90.000000
_cell_volume 2030.803680
_symmetry_space_group_name_H-M "C 2/M"
_symmetry_group_IT_number 12
_symmetry_cell_setting 'monoclinic'
loop_
_space_group_symop_operation_xyz
x,y,z
-x,y,-z
-x,-y,-z
x,-y,z
1/2+x,1/2+y,z
1/2-x,1/2+y,-z
1/2-x,1/2-y,-z
1/2+x,1/2-y,z
loop_
_atom_site_type_symbol
_atom_site_label
_atom_site_fract_x
_atom_site_fract_y
_atom_site_fract_z
Si Si1 0.514795 0.203868 0.121620
Si Si2 0.709217 0.285166 0.151949
Si Si3 0.119790 0.278241 0.588391
Si Si4 0.690856 0.218533 0.302898
Si Si5 0.146747 0.283572 0.982776
Si Si6 0.423213 0.206661 0.267837
Si Si7 0.137862 0.288002 0.446885
O O1 0.624075 0.188131 0.130960
O O2 0.454695 0.295293 0.193796
O O3 0.470923 0.000000 0.122075
O O4 0.551282 0.287866 0.046512
O O5 0.703531 0.500000 0.140582
O O6 0.677520 0.259913 0.232104
O O7 0.819344 0.226374 0.096692
O O8 0.114912 0.500000 0.590174
O O9 0.059314 0.216079 0.665718
O O10 0.092026 0.215314 0.523707
O O11 0.238878 0.224897 0.570625
O O12 0.801848 0.299101 0.290933
O O13 0.623180 0.282082 0.378627
O O14 0.694839 0.000000 0.306769
O O15 0.129008 0.500000 0.986256
O O16 0.250000 0.250000 0.000000
O O17 0.464482 0.000000 0.258401
O O18 0.110105 0.500000 0.451500
#
# Coordination Sequence:
#
# PCOD9177954 Si02
#       7
#     8   8   8   8   8   8   8
#     4   9  17  31  50  70  91 115 145 181 223 269
#     4  10  19  31  48  68  89 116 151 187 222 261
#     4   8  13  23  40  62  86 111 142 178 214 255
#     4  10  19  30  45  66  93 122 150 183 222 261
#     4   8  15  28  46  66  86 111 145 183 219 259
#     4   9  17  29  47  70  94 118 144 179 223 268
#     4   8  14  24  39  60  85 113 145 179 214 253
#
# _framework density 27.575292000000001
#
# number of rings (size 3 to 8) (size 9 to 14) (size 15 to 20)
#    0.000    3.143    0.000    0.857    0.000    1.714 
#    0.000    0.714    0.000    5.143    0.000    6.000 
#    0.000    0.000    0.000    0.000    0.000    0.000 
#
# Total GULP energy -156211.754838 kJ/mol
# GULP energy per Si atom -5578.991244 kJ/mol
# Density = 2.751253 g / cm^3
# Si number density = 27.575292 Si / 1000 Ang^3
#
#
#
# Elastic Constant Matrix: (Units=GPa)
#
#
# Indices 1 2 3 4 5 6 
#
# 1 62.3239 -0.9751 62.3267 0.0001 12.0797 0.0000
# 2 -0.9751 126.2719 15.3276 0.0003 -2.0447 0.0001
# 3 62.3267 15.3276 361.8504 0.0001 -0.8920 0.0000
# 4 0.0001 0.0003 0.0001 -229.1810 0.0001 -67.2959
# 5 12.0797 -2.0447 -0.8920 0.0001 64.1124 0.0000
# 6 0.0000 0.0001 0.0000 -67.2959 0.0000 -20.2642
#
#
#
# Elastic Compliance Matrix: (Units=1/GPa)
#
#
# Indices 1 2 3 4 5 6 
#
# 1 0.020337 0.000524 -0.003535 0.000000 -0.003864 -0.000001
# 2 0.000524 0.007978 -0.000428 0.000000 0.000150 0.000000
# 3 -0.003535 -0.000428 0.003392 0.000000 0.000700 0.000000
# 4 0.000000 0.000000 0.000000 -0.175565 0.000000 0.583038
# 5 -0.003864 0.000150 0.000700 0.000000 0.016340 0.000000
# 6 -0.000001 0.000000 0.000000 0.583038 0.000000 -1.985578
#
#
# Mechanical properties :
#
#
# Convention : Reuss Voigt Hill
#
# Bulk Modulus (GPa) = 40.27465 78.20049 59.23757
# Shear Modulus (GPa) = -2.38329 -5.48208 -3.93269
#
# Velocity S-wave (km/s) = -0.93068 -1.41151 -1.19552
# Velocity P-wave (km/s) = 3.67181 5.07582 4.42979
#
# Compressibility (1/GPa) = 0.02482952
#
# Stress axis : x y z
#
# Youngs Moduli (GPa) = 49.17094 125.34770 294.79014
#
# Poissons Ratio (x) = -0.06562 1.04199
# Poissons Ratio (y) = -0.02574 0.12609
# Poissons Ratio (z) = 0.17380 0.05362
#
# Static dielectric constant tensor:
#      x y z
#    x 2.200730 0.000000 0.006850 
#    y 0.000000 1.935380 0.000000 
#    z 0.006850 0.000000 2.320060 
# 
# From -- ./inp_files/319026.got.cif
#   From: 2010.05.17/outbox.cif.g08.bks.cpg/sg12_160_cif.got.tgz:319026.got - 2010.06.03 13:09:07.
