data_PCOD9177640
_publ_section_title
;
Structure prediction by ZEFSAII (Michael W. Deem and Ramdas Pophale) SiO2 
 PCOD9177640
Probable space group: C 2/M
;
_chemical_formula_sum "Si O2"
_cell_formula_units_Z 48
_cell_length_a 25.903492
_cell_length_b 14.074322
_cell_length_c 9.162171
_cell_angle_alpha 90.000000
_cell_angle_beta 69.285947
_cell_angle_gamma 90.000000
_cell_volume 3124.364776
_symmetry_space_group_name_H-M "C 2/M"
_symmetry_group_IT_number 12
_symmetry_cell_setting 'monoclinic'
loop_
_space_group_symop_operation_xyz
x,y,z
-x,y,-z
-x,-y,-z
x,-y,z
1/2+x,1/2+y,z
1/2-x,1/2+y,-z
1/2-x,1/2-y,-z
1/2+x,1/2-y,z
loop_
_atom_site_type_symbol
_atom_site_label
_atom_site_fract_x
_atom_site_fract_y
_atom_site_fract_z
Si Si1 0.436093 0.888829 0.889012
Si Si2 0.936093 0.388829 0.238803
Si Si3 0.665285 0.206217 0.508762
Si Si4 0.334715 0.206217 0.839332
Si Si5 0.231843 0.891610 0.442421
Si Si6 0.731843 0.608390 0.093894
O O1 0.500000 0.868371 0.788659
O O2 0.392409 0.823416 0.851632
O O3 0.425527 0.000000 0.863932
O O4 0.429953 0.879285 0.070047
O O5 0.925527 0.500000 0.285014
O O6 0.892409 0.323416 0.363551
O O7 0.663477 0.195084 0.336523
O O8 0.713161 0.139779 0.528156
O O9 0.684946 0.313803 0.522936
O O10 0.315054 0.313803 0.892828
O O11 0.286839 0.139780 0.954478
O O12 0.242811 0.885587 0.257190
O O13 0.216834 0.000000 0.491980
O O14 0.716834 0.500000 0.074353
#
# Coordination Sequence:
#
# PCOD9177640 Si02
#       6
#     8   8   8   8   8   8
#     4   9  18  32  48  65  88 120 151 176 213 269
#     4   9  18  32  48  65  88 120 151 176 213 269
#     4  10  19  29  45  70  93 113 145 188 224 253
#     4  10  19  29  45  70  93 113 145 188 224 253
#     4   9  18  32  47  63  89 124 152 174 212 268
#     4   9  18  32  47  63  89 124 152 174 212 268
#
# _framework density 15.363123
#
# number of rings (size 3 to 8) (size 9 to 14) (size 15 to 20)
#    0.000    2.667    0.000    3.000    0.000    7.333 
#    0.000    1.667    0.000    1.000    0.000    7.000 
#    0.000    0.000    0.000    0.000    0.000    0.000 
#
# Total GULP energy -133802.299624 kJ/mol
# GULP energy per Si atom -5575.095818 kJ/mol
# Density = 1.532816 g / cm^3
# Si number density = 15.363123 Si / 1000 Ang^3
#
#
#
# Elastic Constant Matrix: (Units=GPa)
#
#
# Indices 1 2 3 4 5 6 
#
# 1 119.6580 78.2272 45.8489 0.0000 -3.6056 0.0000
# 2 78.2272 124.4383 54.8389 0.0000 -10.5134 0.0000
# 3 45.8489 54.8389 56.5127 0.0000 -24.7791 0.0000
# 4 0.0000 0.0000 0.0000 23.1386 0.0000 1.6972
# 5 -3.6056 -10.5134 -24.7791 0.0000 23.3761 0.0000
# 6 0.0000 0.0000 0.0000 1.6972 0.0000 19.3631
#
#
#
# Elastic Compliance Matrix: (Units=1/GPa)
#
#
# Indices 1 2 3 4 5 6 
#
# 1 0.017780 -0.004994 -0.017492 0.000000 -0.018045 0.000000
# 2 -0.004994 0.019074 -0.020616 0.000000 -0.014045 0.000000
# 3 -0.017492 -0.020616 0.087149 0.000000 0.080409 0.000000
# 4 0.000000 0.000000 0.000000 0.043498 0.000000 -0.003813
# 5 -0.018045 -0.014045 0.080409 0.000000 0.118914 0.000000
# 6 0.000000 0.000000 0.000000 -0.003813 0.000000 0.051979
#
#
# Mechanical properties :
#
#
# Convention : Reuss Voigt Hill
#
# Bulk Modulus (GPa) = 26.45482 73.15986 49.80734
# Shear Modulus (GPa) = 11.43652 21.28848 16.36250
#
# Velocity S-wave (km/s) = 2.73136 3.72652 3.26705
# Velocity P-wave (km/s) = 5.21576 8.13878 6.83535
#
# Compressibility (1/GPa) = 0.03780030
#
# Stress axis : x y z
#
# Youngs Moduli (GPa) = 56.24255 52.42740 11.47464
#
# Poissons Ratio (x) = 0.26180 0.20071
# Poissons Ratio (y) = 0.28085 0.23656
# Poissons Ratio (z) = 0.98377 1.08085
#
# Static dielectric constant tensor:
#      x y z
#    x 1.489340 0.000000 0.007580 
#    y 0.000000 1.511640 0.000000 
#    z 0.007580 0.000000 1.506190 
# 
# From -- ./inp_files/95683.got.cif
#   From: 2010.05.17/outbox.cif.g08.bks.cpg/sg12_48_cif.got.tgz:95683.got - 2010.06.03 13:09:07.
