data_PCOD9177581
_publ_section_title
;
Structure prediction by ZEFSAII (Michael W. Deem and Ramdas Pophale) SiO2 
 PCOD9177581
Probable space group: C 2/M
;
_chemical_formula_sum "Si O2"
_cell_formula_units_Z 58
_cell_length_a 16.808607
_cell_length_b 20.993114
_cell_length_c 16.538148
_cell_angle_alpha 90.000000
_cell_angle_beta 156.254639
_cell_angle_gamma 90.000000
_cell_volume 2349.889920
_symmetry_space_group_name_H-M "C 2/M"
_symmetry_group_IT_number 12
_symmetry_cell_setting 'monoclinic'
loop_
_space_group_symop_operation_xyz
x,y,z
-x,y,-z
-x,-y,-z
x,-y,z
1/2+x,1/2+y,z
1/2-x,1/2+y,-z
1/2-x,1/2-y,-z
1/2+x,1/2-y,z
loop_
_atom_site_type_symbol
_atom_site_label
_atom_site_fract_x
_atom_site_fract_y
_atom_site_fract_z
Si Si1 0.000000 0.500000 0.000000
Si Si2 0.681471 0.574083 0.927422
Si Si3 0.255098 0.691724 0.318687
Si Si4 0.702194 0.191084 0.077198
Si Si5 0.257904 0.933157 0.638953
Si Si6 0.219192 0.166224 0.103386
Si Si7 0.205166 0.430410 0.506341
Si Si8 0.738971 0.830443 0.670975
O O1 0.908494 0.445986 0.852494
O O2 0.744368 0.500000 0.970060
O O3 0.720280 0.628767 0.896776
O O4 0.444172 0.570660 0.718177
O O5 0.762923 0.606880 0.085442
O O6 0.239433 0.689310 0.207982
O O7 0.360935 0.629629 0.451055
O O8 0.337280 0.759783 0.418465
O O9 0.035559 0.689448 0.151650
O O10 0.772536 0.263095 0.118569
O O11 0.361110 0.924517 0.648504
O O12 0.138663 0.000000 0.523609
O O13 0.293546 0.156308 0.264412
O O14 0.978721 0.169681 0.886338
O O15 0.145379 0.500000 0.480771
O O16 0.160950 0.377679 0.530789
#
# Coordination Sequence:
#
# PCOD9177581 Si02
#       8
#     2   8   8   8   8   8   8   8
#     4   8  16  28  48  68  90 130 172 202 244 294
#     4  10  19  29  44  69 101 136 166 199 240 303
#     4   9  17  30  48  71  93 120 166 219 249 282
#     4   9  17  29  47  69  95 125 162 209 254 284
#     4   9  18  30  47  70  94 128 161 204 254 292
#     4   8  15  29  46  68  97 128 167 206 245 286
#     4   9  18  32  46  68 105 133 159 197 254 306
#     4   8  15  28  49  72  94 128 166 207 251 294
#
# _framework density 24.682006999999999
#
# number of rings (size 3 to 8) (size 9 to 14) (size 15 to 20)
#    0.414    2.759    0.000    2.897    0.000    2.207 
#    0.000    3.448    0.000    2.483    0.000    2.897 
#    0.000    3.310    0.000    0.000    0.000    0.000 
#
# Total GULP energy -161805.799413 kJ/mol
# GULP energy per Si atom -5579.510325 kJ/mol
# Density = 2.462583 g / cm^3
# Si number density = 24.682007 Si / 1000 Ang^3
#
#
#
# Elastic Constant Matrix: (Units=GPa)
#
#
# Indices 1 2 3 4 5 6 
#
# 1 63.5095 64.9789 32.0067 -0.0003 -5.1999 -0.0002
# 2 64.9789 233.2388 64.5075 0.0000 -46.2914 0.0000
# 3 32.0067 64.5075 127.2139 -0.0006 -24.7251 -0.0005
# 4 -0.0003 0.0000 -0.0006 19.9706 -0.0004 -22.5381
# 5 -5.1999 -46.2914 -24.7251 -0.0004 45.5005 -0.0003
# 6 -0.0002 0.0000 -0.0005 -22.5381 -0.0003 38.7718
#
#
#
# Elastic Compliance Matrix: (Units=1/GPa)
#
#
# Indices 1 2 3 4 5 6 
#
# 1 0.024287 -0.006981 -0.003814 0.000000 -0.006400 0.000000
# 2 -0.006981 0.007803 -0.000908 0.000000 0.006647 0.000000
# 3 -0.003814 -0.000908 0.010081 0.000001 0.004118 0.000001
# 4 0.000000 0.000000 0.000001 0.145577 0.000003 0.084624
# 5 -0.006400 0.006647 0.004118 0.000003 0.030247 0.000002
# 6 0.000000 0.000000 0.000001 0.084624 0.000002 0.074984
#
#
# Mechanical properties :
#
#
# Convention : Reuss Voigt Hill
#
# Bulk Modulus (GPa) = 53.29548 82.99426 68.14487
# Shear Modulus (GPa) = 15.49703 38.34652 26.92178
#
# Velocity S-wave (km/s) = 2.50845 3.94588 3.30623
# Velocity P-wave (km/s) = 5.47991 7.37959 6.49953
#
# Compressibility (1/GPa) = 0.01876332
#
# Stress axis : x y z
#
# Youngs Moduli (GPa) = 41.17441 128.15721 99.19244
#
# Poissons Ratio (x) = 0.89473 0.37835
# Poissons Ratio (y) = 0.28746 0.09009
# Poissons Ratio (z) = 0.15705 0.11640
#
# Static dielectric constant tensor:
#      x y z
#    x 1.966460 0.000000 0.082510 
#    y 0.000000 1.977600 0.000000 
#    z 0.082510 0.000000 1.995940 
# 
# From -- ./inp_files/227288.got.cif
#   From: 2010.05.17/outbox.cif.g08.bks.cpg/sg12_114_cif.got.tgz:227288.got - 2010.06.03 13:09:07.
