data_PCOD9177590
_publ_section_title
;
Structure prediction by ZEFSAII (Michael W. Deem and Ramdas Pophale) SiO2 
 PCOD9177590
Probable space group: C 2/M
;
_chemical_formula_sum "Si O2"
_cell_formula_units_Z 56
_cell_length_a 28.593397
_cell_length_b 8.692105
_cell_length_c 17.945590
_cell_angle_alpha 90.000000
_cell_angle_beta 36.837056
_cell_angle_gamma 90.000000
_cell_volume 2674.038142
_symmetry_space_group_name_H-M "C 2/M"
_symmetry_group_IT_number 12
_symmetry_cell_setting 'monoclinic'
loop_
_space_group_symop_operation_xyz
x,y,z
-x,y,-z
-x,-y,-z
x,-y,z
1/2+x,1/2+y,z
1/2-x,1/2+y,-z
1/2-x,1/2-y,-z
1/2+x,1/2-y,z
loop_
_atom_site_type_symbol
_atom_site_label
_atom_site_fract_x
_atom_site_fract_y
_atom_site_fract_z
Si Si1 0.441882 0.685886 0.352635
Si Si2 0.695274 0.315618 0.798714
Si Si3 0.811886 0.330147 0.973238
Si Si4 0.682604 0.330609 0.257453
Si Si5 0.036665 0.316257 0.372934
Si Si6 0.567299 0.681670 0.081260
Si Si7 0.230448 0.314768 0.444103
O O1 0.440620 0.500000 0.354894
O O2 0.490391 0.743255 0.363114
O O3 0.484346 0.737664 0.220391
O O4 0.355039 0.751543 0.467395
O O5 0.691052 0.500000 0.808441
O O6 0.780677 0.269805 0.723476
O O7 0.704730 0.268050 0.700662
O O8 0.618763 0.260217 0.944176
O O9 0.838775 0.500000 0.913433
O O10 0.879159 0.217590 0.914628
O O11 0.750000 0.250000 0.000000
O O12 0.760969 0.353333 0.111381
O O13 0.652607 0.500000 0.318889
O O14 0.623185 0.248369 0.276902
O O15 0.035370 0.500000 0.366978
O O16 0.000000 0.277094 0.500000
O O17 0.559137 0.500000 0.080168
O O18 0.228542 0.500000 0.447723
O O19 0.250000 0.250000 0.500000
#
# Coordination Sequence:
#
# PCOD9177590 Si02
#       7
#     8   8   8   8   8   8   8
#     4  11  23  39  61  89 120 152 190 242 297 345
#     4   9  19  38  62  86 115 154 197 237 281 340
#     4  10  19  29  44  70 105 146 190 232 274 323
#     4  10  20  32  49  77 111 148 191 236 281 329
#     4  11  23  36  51  76 114 160 204 242 283 336
#     4   9  19  36  57  82 113 149 189 234 285 339
#     4  11  24  43  67  91 115 147 188 235 289 350
#
# _framework density 20.942108999999999
#
# number of rings (size 3 to 8) (size 9 to 14) (size 15 to 20)
#    0.000    1.857    0.000    3.857    0.000   12.000 
#    0.000    0.714    0.000    4.286    0.000    0.000 
#    0.000    0.000    0.000    0.000    0.000    0.000 
#
# Total GULP energy -155876.929335 kJ/mol
# GULP energy per Si atom -5567.033191 kJ/mol
# Density = 2.089444 g / cm^3
# Si number density = 20.942109 Si / 1000 Ang^3
#
#
#
# Elastic Constant Matrix: (Units=GPa)
#
#
# Indices 1 2 3 4 5 6 
#
# 1 49.1619 4.7042 43.0456 -0.0033 27.9318 0.0021
# 2 4.7042 32.2847 22.8196 0.0032 10.6291 -0.0003
# 3 43.0456 22.8196 158.0921 0.0003 22.5836 0.0018
# 4 -0.0033 0.0032 0.0003 22.5319 0.0007 1.1018
# 5 27.9318 10.6291 22.5836 0.0007 25.8707 -0.0010
# 6 0.0021 -0.0003 0.0018 1.1018 -0.0010 28.7566
#
#
#
# Elastic Compliance Matrix: (Units=1/GPa)
#
#
# Indices 1 2 3 4 5 6 
#
# 1 0.072950 0.023586 -0.012147 0.000010 -0.077848 -0.000008
# 2 0.023586 0.045230 -0.007607 -0.000002 -0.037407 -0.000002
# 3 -0.012147 -0.007607 0.009609 -0.000001 0.007851 0.000001
# 4 0.000010 -0.000002 -0.000001 0.044465 -0.000011 -0.001704
# 5 -0.077848 -0.037407 0.007851 -0.000011 0.131219 0.000010
# 6 -0.000008 -0.000002 0.000001 -0.001704 0.000010 0.034840
#
#
# Mechanical properties :
#
#
# Convention : Reuss Voigt Hill
#
# Bulk Modulus (GPa) = 7.38262 42.29750 24.84006
# Shear Modulus (GPa) = 13.30499 26.69647 20.00073
#
# Velocity S-wave (km/s) = 2.52329 3.57427 3.09374
# Velocity P-wave (km/s) = 3.46731 6.10533 4.96474
#
# Compressibility (1/GPa) = 0.13545320
#
# Stress axis : x y z
#
# Youngs Moduli (GPa) = 13.70811 22.10920 104.06735
#
# Poissons Ratio (x) = -0.52146 1.26406
# Poissons Ratio (y) = -0.32332 0.79164
# Poissons Ratio (z) = 0.16651 0.16818
#
# Static dielectric constant tensor:
#      x y z
#    x 1.736850 0.000000 0.031010 
#    y 0.000000 1.812900 0.000000 
#    z 0.031010 0.000000 1.880190 
# 
# From -- ./inp_files/292365.got.cif
#   From: 2010.05.17/outbox.cif.g08.bks.cpg/sg12_147_cif.got.tgz:292365.got - 2010.06.03 13:09:07.
