data_PCOD9177417
_publ_section_title
;
Structure prediction by ZEFSAII (Michael W. Deem and Ramdas Pophale) SiO2 
 PCOD9177417
Probable space group: C 2/M
;
_chemical_formula_sum "Si O2"
_cell_formula_units_Z 56
_cell_length_a 5.308970
_cell_length_b 26.973751
_cell_length_c 22.843674
_cell_angle_alpha 90.000000
_cell_angle_beta 71.732642
_cell_angle_gamma 90.000000
_cell_volume 3106.420186
_symmetry_space_group_name_H-M "C 2/M"
_symmetry_group_IT_number 12
_symmetry_cell_setting 'monoclinic'
loop_
_space_group_symop_operation_xyz
x,y,z
-x,y,-z
-x,-y,-z
x,-y,z
1/2+x,1/2+y,z
1/2-x,1/2+y,-z
1/2-x,1/2-y,-z
1/2+x,1/2-y,z
loop_
_atom_site_type_symbol
_atom_site_label
_atom_site_fract_x
_atom_site_fract_y
_atom_site_fract_z
Si Si1 0.661358 0.114951 0.770745
Si Si2 0.640371 0.228613 0.069210
Si Si3 0.525754 0.717846 0.436033
Si Si4 0.958292 0.943314 0.920526
Si Si5 0.226975 0.716621 0.701464
Si Si6 0.538981 0.113573 0.080561
Si Si7 0.161179 0.942920 0.770148
O O1 0.681775 0.171018 0.747738
O O2 0.563014 0.114155 0.844975
O O3 0.440950 0.084929 0.750647
O O4 0.942529 0.087211 0.749959
O O5 0.358689 0.254751 0.100247
O O6 0.613528 0.170200 0.062990
O O7 0.750000 0.250000 0.000000
O O8 0.500000 0.689677 0.500000
O O9 0.237615 0.738452 0.437623
O O10 0.660811 0.695301 0.368693
O O11 0.205646 0.921892 0.938484
O O12 0.058029 0.943729 0.845365
O O13 0.704707 0.907473 0.939164
O O14 0.891473 0.000000 0.940541
O O15 0.455933 0.753512 0.708447
O O16 0.182498 0.000000 0.750060
#
# Coordination Sequence:
#
# PCOD9177417 Si02
#       7
#     8   8   8   8   8   8   8
#     4  10  19  29  44  68  95 122 150 181 223 273
#     4  10  21  36  52  71  90 120 159 191 217 246
#     4   8  14  25  40  56  77 111 153 189 221 258
#     4   9  17  30  49  74  98 119 144 180 229 278
#     4  10  19  29  41  61  93 127 151 181 223 267
#     4  10  19  31  49  72  96 121 151 185 220 266
#     4   9  17  30  46  64  91 122 152 187 223 264
#
# _framework density 18.027183000000001
#
# number of rings (size 3 to 8) (size 9 to 14) (size 15 to 20)
#    0.000    2.571    0.000    2.571    0.000    4.571 
#    0.000    0.000    0.000    0.000    0.000   40.000 
#    0.000    3.429    0.000    0.000    0.000    0.000 
#
# Total GULP energy -156239.497262 kJ/mol
# GULP energy per Si atom -5579.982045 kJ/mol
# Density = 1.798615 g / cm^3
# Si number density = 18.027183 Si / 1000 Ang^3
#
#
#
# Elastic Constant Matrix: (Units=GPa)
#
#
# Indices 1 2 3 4 5 6 
#
# 1 151.0548 53.1359 14.5697 0.0000 7.0336 0.0000
# 2 53.1359 112.5451 6.0360 0.0000 4.9564 0.0000
# 3 14.5697 6.0360 38.9744 0.0000 2.8672 0.0000
# 4 0.0000 0.0000 0.0000 -1.4673 0.0000 -0.0317
# 5 7.0336 4.9564 2.8672 0.0000 10.2881 0.0000
# 6 0.0000 0.0000 0.0000 -0.0317 0.0000 30.1038
#
#
#
# Elastic Compliance Matrix: (Units=1/GPa)
#
#
# Indices 1 2 3 4 5 6 
#
# 1 0.008273 -0.003639 -0.002289 0.000000 -0.003265 0.000000
# 2 -0.003639 0.010726 -0.000106 0.000000 -0.002650 0.000000
# 3 -0.002289 -0.000106 0.026964 0.000000 -0.005899 0.000000
# 4 0.000000 0.000000 0.000000 -0.681520 0.000000 -0.000717
# 5 -0.003265 -0.002650 -0.005899 0.000000 0.102352 0.000000
# 6 0.000000 0.000000 0.000000 -0.000717 0.000000 0.033218
#
#
# Mechanical properties :
#
#
# Convention : Reuss Voigt Hill
#
# Bulk Modulus (GPa) = 29.50296 50.00639 39.75468
# Shear Modulus (GPa) = -10.49052 23.04044 6.27496
#
# Velocity S-wave (km/s) = -2.41494 3.57892 1.86772
# Velocity P-wave (km/s) = 2.93691 6.69910 5.17220
#
# Compressibility (1/GPa) = 0.03389490
#
# Stress axis : x y z
#
# Youngs Moduli (GPa) = 120.87297 93.23148 37.08667
#
# Poissons Ratio (x) = 0.33931 0.08489
# Poissons Ratio (y) = 0.43991 0.00392
# Poissons Ratio (z) = 0.27667 0.00985
#
# Static dielectric constant tensor:
#      x y z
#    x 1.695840 0.000000 0.014150 
#    y 0.000000 1.576370 0.000000 
#    z 0.014150 0.000000 1.665770 
# 
# From -- ./inp_files/298023.got.cif
#   From: 2010.05.17/outbox.cif.g08.bks.cpg/sg12_150_cif.got.tgz:298023.got - 2010.06.03 13:09:07.
