data_PCOD9177711
_publ_section_title
;
Structure prediction by ZEFSAII (Michael W. Deem and Ramdas Pophale) SiO2 
 PCOD9177711
Probable space group: C 2/M
;
_chemical_formula_sum "Si O2"
_cell_formula_units_Z 64
_cell_length_a 30.558631
_cell_length_b 7.396461
_cell_length_c 14.268593
_cell_angle_alpha 90.000000
_cell_angle_beta 52.390596
_cell_angle_gamma 90.000000
_cell_volume 2554.865796
_symmetry_space_group_name_H-M "C 2/M"
_symmetry_group_IT_number 12
_symmetry_cell_setting 'monoclinic'
loop_
_space_group_symop_operation_xyz
x,y,z
-x,y,-z
-x,-y,-z
x,-y,z
1/2+x,1/2+y,z
1/2-x,1/2+y,-z
1/2-x,1/2-y,-z
1/2+x,1/2-y,z
loop_
_atom_site_type_symbol
_atom_site_label
_atom_site_fract_x
_atom_site_fract_y
_atom_site_fract_z
Si Si1 0.104027 0.293233 0.194641
Si Si2 0.409671 0.711448 0.356562
Si Si3 0.176274 0.718146 0.756345
Si Si4 0.294394 0.720101 0.562748
Si Si5 0.820147 0.781681 0.744391
Si Si6 0.553912 0.205951 0.880795
Si Si7 0.298079 0.781878 0.059365
Si Si8 0.509021 0.218223 0.593817
O O1 0.098326 0.500000 0.169267
O O2 0.127069 0.292257 0.270799
O O3 0.043131 0.213724 0.277139
O O4 0.152889 0.209390 0.069233
O O5 0.407884 0.500000 0.338921
O O6 0.346904 0.784391 0.434431
O O7 0.449374 0.797412 0.227340
O O8 0.435087 0.732501 0.426434
O O9 0.175424 0.500000 0.745087
O O10 0.231494 0.784405 0.630099
O O11 0.114842 0.787716 0.816713
O O12 0.187717 0.753362 0.850890
O O13 0.293801 0.500000 0.559143
O O14 0.310744 0.767819 0.648748
O O15 0.764825 0.718899 0.871741
O O16 0.823215 0.000000 0.743337
O O17 0.557232 0.000000 0.913466
O O18 0.500000 0.288031 0.000000
O O19 0.296115 0.000000 0.050775
O O20 0.500000 0.283510 0.500000
O O21 0.506382 0.000000 0.594888
#
# Coordination Sequence:
#
# PCOD9177711 Si02
#       8
#     8   8   8   8   8   8   8   8
#     4  10  19  29  47  72 102 138 178 224 273 323
#     4  11  23  38  58  83 113 150 188 230 282 338
#     4   8  15  31  55  80 106 138 181 227 273 325
#     4   8  16  32  54  79 106 141 182 223 271 331
#     4   9  16  29  49  73 103 136 176 221 267 324
#     4  10  22  38  61  88 112 145 189 234 278 332
#     4   8  15  27  47  74 100 134 176 221 269 321
#     4  10  22  38  55  79 112 148 189 236 279 326
#
# _framework density 25.050239000000001
#
# number of rings (size 3 to 8) (size 9 to 14) (size 15 to 20)
#    0.000    2.750    0.000    3.000    1.750    1.500 
#    0.000    0.625    0.000    3.750    0.000    0.000 
#    0.000    0.000    0.000    0.000    0.000    0.000 
#
# Total GULP energy -178804.519645 kJ/mol
# GULP energy per Si atom -5587.641239 kJ/mol
# Density = 2.499322 g / cm^3
# Si number density = 25.050239 Si / 1000 Ang^3
#
#
#
# Elastic Constant Matrix: (Units=GPa)
#
#
# Indices 1 2 3 4 5 6 
#
# 1 127.0679 -2.5814 49.0811 0.0000 -30.6293 0.0000
# 2 -2.5814 92.1361 8.3024 0.0000 -5.3873 0.0002
# 3 49.0811 8.3024 164.5195 0.0000 -37.7465 0.0000
# 4 0.0000 0.0000 0.0000 -2.3360 0.0000 10.9556
# 5 -30.6293 -5.3873 -37.7465 0.0000 42.6640 0.0000
# 6 0.0000 0.0002 0.0000 10.9556 0.0000 8.7655
#
#
#
# Elastic Compliance Matrix: (Units=1/GPa)
#
#
# Indices 1 2 3 4 5 6 
#
# 1 0.009916 0.000764 -0.001683 0.000000 0.005726 0.000000
# 2 0.000764 0.011005 -0.000425 0.000000 0.001562 0.000000
# 3 -0.001683 -0.000425 0.007920 0.000000 0.005745 0.000000
# 4 0.000000 0.000000 0.000000 -0.062387 0.000000 0.077975
# 5 0.005726 0.001562 0.005745 0.000000 0.032830 0.000000
# 6 0.000000 0.000000 0.000000 0.077975 0.000000 0.016626
#
#
# Mechanical properties :
#
#
# Convention : Reuss Voigt Hill
#
# Bulk Modulus (GPa) = 38.23633 54.81420 46.52526
# Shear Modulus (GPa) = 183.05083 31.74678 107.39881
#
# Velocity S-wave (km/s) = 8.55758 3.56381 6.55488
# Velocity P-wave (km/s) = 10.62731 6.23406 8.71216
#
# Compressibility (1/GPa) = 0.02615314
#
# Stress axis : x y z
#
# Youngs Moduli (GPa) = 100.85060 90.87141 126.26310
#
# Poissons Ratio (x) = -0.06945 0.21249
# Poissons Ratio (y) = -0.07708 0.05365
# Poissons Ratio (z) = 0.16972 0.03861
#
# Static dielectric constant tensor:
#      x y z
#    x 1.975210 0.000000 0.003870 
#    y 0.000000 1.979940 0.000000 
#    z 0.003870 0.000000 2.018960 
# 
# From -- ./inp_files/249691.got.cif
#   From: 2010.05.17/outbox.cif.g08.bks.cpg/sg12_125_cif.got.tgz:249691.got - 2010.06.03 13:09:07.
