data_PCOD9177761
_publ_section_title
;
Structure prediction by ZEFSAII (Michael W. Deem and Ramdas Pophale) SiO2 
 PCOD9177761
Probable space group: C 2/M
;
_chemical_formula_sum "Si O2"
_cell_formula_units_Z 64
_cell_length_a 26.204273
_cell_length_b 14.285847
_cell_length_c 9.792755
_cell_angle_alpha 90.000000
_cell_angle_beta 113.515059
_cell_angle_gamma 90.000000
_cell_volume 3361.484676
_symmetry_space_group_name_H-M "C 2/M"
_symmetry_group_IT_number 12
_symmetry_cell_setting 'monoclinic'
loop_
_space_group_symop_operation_xyz
x,y,z
-x,y,-z
-x,-y,-z
x,-y,z
1/2+x,1/2+y,z
1/2-x,1/2+y,-z
1/2-x,1/2-y,-z
1/2+x,1/2-y,z
loop_
_atom_site_type_symbol
_atom_site_label
_atom_site_fract_x
_atom_site_fract_y
_atom_site_fract_z
Si Si1 0.094926 0.705664 0.528854
Si Si2 0.917423 0.103103 0.140847
Si Si3 0.978424 0.611448 0.772172
Si Si4 0.122188 0.389642 0.140928
Si Si5 0.958409 0.895824 0.610087
Si Si6 0.116639 0.896291 0.201086
Si Si7 0.313840 0.233740 0.600134
Si Si8 0.401385 0.805871 0.162203
O O1 0.058000 0.634425 0.400355
O O2 0.061174 0.805161 0.495484
O O3 0.150266 0.727048 0.500732
O O4 0.105169 0.663276 0.688774
O O5 0.886751 0.196198 0.153909
O O6 0.977896 0.107544 0.274201
O O7 0.893658 0.000000 0.145374
O O8 0.917336 0.113336 0.975860
O O9 0.990867 0.500000 0.797990
O O10 0.937098 0.641028 0.852322
O O11 0.034566 0.670979 0.813036
O O12 0.118760 0.500000 0.130233
O O13 0.170264 0.357227 0.294852
O O14 0.130841 0.350430 0.998809
O O15 0.924445 0.891162 0.714736
O O16 0.947664 0.000000 0.537321
O O17 0.161381 0.816757 0.278720
O O18 0.142341 0.000000 0.226386
O O19 0.250000 0.250000 0.500000
#
# Coordination Sequence:
#
# PCOD9177761 Si02
#       8
#     8   8   8   8   8   8   8   8
#     4  10  22  35  52  83 114 144 186 224 274 325
#     4  10  19  29  49  80 114 147 177 213 263 322
#     4  10  21  36  55  80 114 155 192 223 262 324
#     4  10  22  39  59  83 111 146 191 233 274 328
#     4   9  17  30  49  76 113 149 178 210 258 322
#     4   9  17  31  53  80 105 135 179 223 265 320
#     4  10  21  40  62  82 102 139 183 238 284 325
#     4  12  21  33  54  83 117 153 177 220 271 332
#
# _framework density 19.039207000000001
#
# number of rings (size 3 to 8) (size 9 to 14) (size 15 to 20)
#    0.000    2.000    2.500    1.500    0.000    6.000 
#    0.000    1.875    0.000    0.000    0.000    0.000 
#    0.000    0.000    0.000    0.000    0.000    0.000 
#
# Total GULP energy -178436.298634 kJ/mol
# GULP energy per Si atom -5576.134332 kJ/mol
# Density = 1.899587 g / cm^3
# Si number density = 19.039207 Si / 1000 Ang^3
#
#
#
# Elastic Constant Matrix: (Units=GPa)
#
#
# Indices 1 2 3 4 5 6 
#
# 1 49.7786 8.1228 41.2041 0.0000 8.0989 0.0000
# 2 8.1228 61.4838 18.1218 0.0000 -3.2353 0.0000
# 3 41.2041 18.1218 116.7760 0.0000 -19.7750 0.0000
# 4 0.0000 0.0000 0.0000 3.7016 0.0000 -1.6735
# 5 8.0989 -3.2353 -19.7750 0.0000 22.5162 0.0000
# 6 0.0000 0.0000 0.0000 -1.6735 0.0000 9.1565
#
#
#
# Elastic Compliance Matrix: (Units=1/GPa)
#
#
# Indices 1 2 3 4 5 6 
#
# 1 0.042878 -0.001359 -0.020632 0.000000 -0.033738 0.000000
# 2 -0.001359 0.017088 -0.001966 0.000000 0.001217 0.000000
# 3 -0.020632 -0.001966 0.020390 0.000000 0.025046 0.000000
# 4 0.000000 0.000000 0.000000 0.294484 0.000000 0.053821
# 5 -0.033738 0.001217 0.025046 0.000000 0.078720 0.000000
# 6 0.000000 0.000000 0.000000 0.053821 0.000000 0.119048
#
#
# Mechanical properties :
#
#
# Convention : Reuss Voigt Hill
#
# Bulk Modulus (GPa) = 30.82473 40.32620 35.57547
# Shear Modulus (GPa) = 7.91973 17.78084 12.85029
#
# Velocity S-wave (km/s) = 2.04175 3.05930 2.60078
# Velocity P-wave (km/s) = 4.66729 5.80566 5.26732
#
# Compressibility (1/GPa) = 0.03244149
#
# Stress axis : x y z
#
# Youngs Moduli (GPa) = 23.32216 58.52228 49.04452
#
# Poissons Ratio (x) = 0.07953 1.01187
# Poissons Ratio (y) = 0.03169 0.09642
# Poissons Ratio (z) = 0.48117 0.11506
#
# Static dielectric constant tensor:
#      x y z
#    x 1.635420 0.000000 -0.024650 
#    y 0.000000 1.722920 0.000000 
#    z -0.024650 0.000000 1.688580 
# 
# From -- ./inp_files/111659.got.cif
#   From: 2010.05.17/outbox.cif.g08.bks.cpg/sg12_56_cif.got.tgz:111659.got - 2010.06.03 13:09:07.
