data_PCOD9177586
_publ_section_title
;
Structure prediction by ZEFSAII (Michael W. Deem and Ramdas Pophale) SiO2 
 PCOD9177586
Probable space group: C 2/M
;
_chemical_formula_sum "Si O2"
_cell_formula_units_Z 48
_cell_length_a 14.142278
_cell_length_b 9.250517
_cell_length_c 22.179876
_cell_angle_alpha 90.000000
_cell_angle_beta 46.399216
_cell_angle_gamma 90.000000
_cell_volume 2101.263304
_symmetry_space_group_name_H-M "C 2/M"
_symmetry_group_IT_number 12
_symmetry_cell_setting 'monoclinic'
loop_
_space_group_symop_operation_xyz
x,y,z
-x,y,-z
-x,-y,-z
x,-y,z
1/2+x,1/2+y,z
1/2-x,1/2+y,-z
1/2-x,1/2-y,-z
1/2+x,1/2-y,z
loop_
_atom_site_type_symbol
_atom_site_label
_atom_site_fract_x
_atom_site_fract_y
_atom_site_fract_z
Si Si1 0.456933 0.333525 0.895722
Si Si2 0.024178 0.667792 0.395341
Si Si3 0.681135 0.836767 0.216971
Si Si4 0.316780 0.834488 0.059592
Si Si5 0.712717 0.167697 0.428680
Si Si6 0.085889 0.662371 0.737760
O O1 0.484490 0.500000 0.897903
O O2 0.321355 0.333957 0.916454
O O3 0.568104 0.262662 0.804399
O O4 0.420325 0.242412 0.970735
O O5 0.000168 0.500000 0.387467
O O6 0.113221 0.736596 0.304654
O O7 0.114491 0.663502 0.414525
O O8 0.881762 0.726231 0.476453
O O9 0.789151 0.750102 0.133331
O O10 0.559479 0.850154 0.224722
O O11 0.724067 0.000000 0.213478
O O12 0.350279 0.000000 0.056133
O O13 0.829265 0.264536 0.352439
O O14 0.751002 0.000000 0.423915
O O15 0.133355 0.500000 0.730763
#
# Coordination Sequence:
#
# PCOD9177586 Si02
#       6
#     8   8   8   8   8   8
#     4   9  16  27  44  65  91 125 159 187 221 271
#     4   8  16  32  52  69  87 120 163 197 225 269
#     4   9  17  30  47  68  95 125 156 189 228 275
#     4   9  16  26  42  67  96 122 151 189 231 272
#     4   9  17  32  52  69  88 120 161 197 229 271
#     4  10  19  29  44  70 100 124 149 189 237 277
#
# _framework density 22.843402000000001
#
# number of rings (size 3 to 8) (size 9 to 14) (size 15 to 20)
#    0.000    3.000    0.000    2.500    0.000    5.333 
#    0.000    3.333    0.000    1.000    0.000    7.000 
#    0.000    0.000    0.000    0.000    0.000    0.000 
#
# Total GULP energy -133999.817403 kJ/mol
# GULP energy per Si atom -5583.325725 kJ/mol
# Density = 2.279141 g / cm^3
# Si number density = 22.843402 Si / 1000 Ang^3
#
#
#
# Elastic Constant Matrix: (Units=GPa)
#
#
# Indices 1 2 3 4 5 6 
#
# 1 35.2993 -2.5833 18.9343 0.0000 -13.3655 0.0000
# 2 -2.5833 128.1846 96.7337 0.0000 -0.9181 0.0000
# 3 18.9343 96.7337 223.7189 0.0000 7.5958 0.0000
# 4 0.0000 0.0000 0.0000 23.4407 0.0000 4.8949
# 5 -13.3655 -0.9181 7.5958 0.0000 42.8457 0.0000
# 6 0.0000 0.0000 0.0000 4.8949 0.0000 -4.2638
#
#
#
# Elastic Compliance Matrix: (Units=1/GPa)
#
#
# Indices 1 2 3 4 5 6 
#
# 1 0.036536 0.005166 -0.005751 0.000000 0.012527 0.000000
# 2 0.005166 0.012366 -0.005883 0.000000 0.002920 0.000000
# 3 -0.005751 -0.005883 0.007612 0.000000 -0.003270 0.000000
# 4 0.000000 0.000000 0.000000 0.034411 0.000000 0.039505
# 5 0.012527 0.002920 -0.003270 0.000000 0.027890 0.000000
# 6 0.000000 0.000000 0.000000 0.039505 0.000000 -0.189182
#
#
# Mechanical properties :
#
#
# Convention : Reuss Voigt Hill
#
# Bulk Modulus (GPa) = 22.94826 68.15247 45.55036
# Shear Modulus (GPa) = -116.53518 30.67906 -42.92806
#
# Velocity S-wave (km/s) = -7.15021 3.66869 -4.33971
# Velocity P-wave (km/s) = 7.62232 6.91702 2.26435
#
# Compressibility (1/GPa) = 0.04357629
#
# Stress axis : x y z
#
# Youngs Moduli (GPa) = 27.37062 80.86624 131.37915
#
# Poissons Ratio (x) = -0.41777 0.75560
# Poissons Ratio (y) = -0.14140 0.77295
# Poissons Ratio (z) = 0.15742 0.47576
#
# Static dielectric constant tensor:
#      x y z
#    x 1.927280 0.000000 -0.011870 
#    y 0.000000 1.798860 0.000000 
#    z -0.011870 0.000000 1.866730 
# 
# From -- ./inp_files/236325.got.cif
#   From: 2010.05.17/outbox.cif.g08.bks.cpg/sg12_119_cif.got.tgz:236325.got - 2010.06.03 13:09:07.
