data_PCOD9177045
_publ_section_title
;
Structure prediction by ZEFSAII (Michael W. Deem and Ramdas Pophale) SiO2 
 PCOD9177045
Probable space group: C 2/M
;
_chemical_formula_sum "Si O2"
_cell_formula_units_Z 40
_cell_length_a 15.292413
_cell_length_b 24.461712
_cell_length_c 5.800739
_cell_angle_alpha 90.000000
_cell_angle_beta 57.442996
_cell_angle_gamma 90.000000
_cell_volume 1828.941501
_symmetry_space_group_name_H-M "C 2/M"
_symmetry_group_IT_number 12
_symmetry_cell_setting 'monoclinic'
loop_
_space_group_symop_operation_xyz
x,y,z
-x,y,-z
-x,-y,-z
x,-y,z
1/2+x,1/2+y,z
1/2-x,1/2+y,-z
1/2-x,1/2-y,-z
1/2+x,1/2-y,z
loop_
_atom_site_type_symbol
_atom_site_label
_atom_site_fract_x
_atom_site_fract_y
_atom_site_fract_z
Si Si1 0.500000 0.190561 0.500000
Si Si2 0.560567 0.000000 0.664470
Si Si3 0.360808 0.749231 0.067430
Si Si4 0.224545 0.158862 0.158473
Si Si5 0.820408 0.607933 0.632371
Si Si6 0.396498 0.646003 0.274762
O O1 0.555943 0.226167 0.226428
O O2 0.411937 0.153314 0.503292
O O3 0.500000 0.000000 0.500000
O O4 0.630543 0.054064 0.543615
O O5 0.500000 0.000000 0.000000
O O6 0.300544 0.702921 0.004615
O O7 0.293445 0.802395 0.227067
O O8 0.395319 0.711423 0.228048
O O9 0.120078 0.140162 0.429378
O O10 0.288806 0.110340 0.950177
O O11 0.709341 0.618855 0.670139
O O12 0.500000 0.625716 0.000000
#
# Coordination Sequence:
#
# PCOD9177045 Si02
#       6
#     4   4   8   8   8   8
#     4  10  18  37  60  88 136 167 226 270 342 394
#     4  12  28  50  81 109 133 171 220 291 363 415
#     4   9  18  31  52  85 124 175 216 268 318 401
#     4   9  19  36  56  83 130 169 222 266 328 391
#     4  10  24  42  64  95 126 168 218 283 344 404
#     4  11  22  35  57  88 127 177 220 268 326 398
#
# _framework density 21.870576
#
# number of rings (size 3 to 8) (size 9 to 14) (size 15 to 20)
#    0.000    2.000    1.000    3.000    2.800    4.000 
#    0.000    0.500    0.000    1.200    0.000    0.000 
#    0.000    0.000    0.000    0.000    0.000    0.000 
#
# Total GULP energy -111397.829956 kJ/mol
# GULP energy per Si atom -5569.891498 kJ/mol
# Density = 2.182080 g / cm^3
# Si number density = 21.870576 Si / 1000 Ang^3
#
#
#
# Elastic Constant Matrix: (Units=GPa)
#
#
# Indices 1 2 3 4 5 6 
#
# 1 97.6062 35.1708 23.0958 0.0000 -24.3264 0.0000
# 2 35.1708 95.3024 63.7556 0.0000 -17.3387 0.0000
# 3 23.0958 63.7556 181.7781 0.0000 -38.8320 0.0000
# 4 0.0000 0.0000 0.0000 35.3609 0.0000 -12.1027
# 5 -24.3264 -17.3387 -38.8320 0.0000 33.2956 0.0000
# 6 0.0000 0.0000 0.0000 -12.1027 0.0000 19.6250
#
#
#
# Elastic Compliance Matrix: (Units=1/GPa)
#
#
# Indices 1 2 3 4 5 6 
#
# 1 0.013977 -0.004670 0.002030 0.000000 0.010147 0.000000
# 2 -0.004670 0.015375 -0.005084 0.000000 -0.001335 0.000000
# 3 0.002030 -0.005084 0.009027 0.000000 0.009363 0.000000
# 4 0.000000 0.000000 0.000000 0.035846 0.000000 0.022106
# 5 0.010147 -0.001335 0.009363 0.000000 0.047672 0.000000
# 6 0.000000 0.000000 0.000000 0.022106 0.000000 0.064588
#
#
# Mechanical properties :
#
#
# Convention : Reuss Voigt Hill
#
# Bulk Modulus (GPa) = 43.61252 68.74789 56.18020
# Shear Modulus (GPa) = 23.85770 34.50059 29.17915
#
# Velocity S-wave (km/s) = 3.30640 3.97607 3.65660
# Velocity P-wave (km/s) = 5.87885 7.25128 6.60083
#
# Compressibility (1/GPa) = 0.02292919
#
# Stress axis : x y z
#
# Youngs Moduli (GPa) = 71.54839 65.04214 110.78234
#
# Poissons Ratio (x) = 0.30373 -0.22485
# Poissons Ratio (y) = 0.33411 0.56325
# Poissons Ratio (z) = -0.14522 0.33069
#
# Static dielectric constant tensor:
#      x y z
#    x 2.053210 0.000000 0.086610 
#    y 0.000000 1.761050 0.000000 
#    z 0.086610 0.000000 1.932050 
# 
# From -- ./inp_files/17302.got.cif
#   From: 2010.05.17/outbox.cif.g08.bks.cpg/sg12_9_cif.got.tgz:17302.got - 2010.06.03 13:09:07.
