data_PCOD9177377
_publ_section_title
;
Structure prediction by ZEFSAII (Michael W. Deem and Ramdas Pophale) SiO2 
 PCOD9177377
Probable space group: C 2/M
;
_chemical_formula_sum "Si O2"
_cell_formula_units_Z 52
_cell_length_a 12.966243
_cell_length_b 15.004750
_cell_length_c 19.882775
_cell_angle_alpha 90.000000
_cell_angle_beta 134.963096
_cell_angle_gamma 90.000000
_cell_volume 2737.060945
_symmetry_space_group_name_H-M "C 2/M"
_symmetry_group_IT_number 12
_symmetry_cell_setting 'monoclinic'
loop_
_space_group_symop_operation_xyz
x,y,z
-x,y,-z
-x,-y,-z
x,-y,z
1/2+x,1/2+y,z
1/2-x,1/2+y,-z
1/2-x,1/2-y,-z
1/2+x,1/2-y,z
loop_
_atom_site_type_symbol
_atom_site_label
_atom_site_fract_x
_atom_site_fract_y
_atom_site_fract_z
Si Si1 0.991167 0.000000 0.109495
Si Si2 0.500000 0.844514 0.500000
Si Si3 0.754879 0.000000 0.883625
Si Si4 0.473966 0.394640 0.626778
Si Si5 0.290656 0.746244 0.308566
Si Si6 0.503633 0.669903 0.212440
Si Si7 0.902885 0.672557 0.230112
Si Si8 0.343824 0.103586 0.565270
O O1 0.984054 0.089348 0.151791
O O2 0.138318 0.000000 0.132452
O O3 0.858217 0.000000 0.995865
O O4 0.371810 0.785486 0.410381
O O5 0.571913 0.892652 0.468218
O O6 0.653262 0.086373 0.833371
O O7 0.490558 0.500000 0.624107
O O8 0.617172 0.341677 0.667995
O O9 0.452743 0.374600 0.696147
O O10 0.323169 0.365197 0.521332
O O11 0.314146 0.813833 0.257686
O O12 0.120509 0.756315 0.241961
O O13 0.376134 0.737644 0.175116
O O14 0.064357 0.657966 0.337181
O O15 0.340958 0.000000 0.584533
#
# Coordination Sequence:
#
# PCOD9177377 Si02
#       8
#     4   4   4   8   8   8   8   8
#     4  11  24  40  69  86 110 149 199 248 303 355
#     4  10  19  28  49  80 114 158 192 235 282 323
#     4  11  22  44  61  92 119 140 187 260 308 343
#     4  10  21  36  55  82 120 160 202 234 274 340
#     4  10  21  34  54  83 123 155 195 237 278 336
#     4  11  21  39  61  89 112 159 196 236 286 354
#     4  10  22  36  61  87 122 149 191 244 295 346
#     4  10  19  32  53  84 117 160 196 233 281 342
#
# _framework density 18.998481000000002
#
# number of rings (size 3 to 8) (size 9 to 14) (size 15 to 20)
#    0.000    1.692    4.615    0.231    2.154    2.462 
#    1.385    0.385    0.000    0.000    0.000    2.154 
#    0.000    0.000    0.000    0.000    0.000    0.000 
#
# Total GULP energy -144821.386231 kJ/mol
# GULP energy per Si atom -5570.053317 kJ/mol
# Density = 1.895524 g / cm^3
# Si number density = 18.998481 Si / 1000 Ang^3
#
#
#
# Elastic Constant Matrix: (Units=GPa)
#
#
# Indices 1 2 3 4 5 6 
#
# 1 40.6374 34.3906 32.7058 0.0000 -13.5085 0.0000
# 2 34.3906 95.4546 47.2057 0.0000 -12.6883 0.0000
# 3 32.7058 47.2057 68.3494 0.0000 -8.2332 0.0000
# 4 0.0000 0.0000 0.0000 12.4815 0.0000 -5.4642
# 5 -13.5085 -12.6883 -8.2332 0.0000 17.9875 0.0000
# 6 0.0000 0.0000 0.0000 -5.4642 0.0000 24.7375
#
#
#
# Elastic Compliance Matrix: (Units=1/GPa)
#
#
# Indices 1 2 3 4 5 6 
#
# 1 0.053851 -0.007058 -0.017591 0.000000 0.027411 0.000000
# 2 -0.007058 0.017601 -0.008384 0.000000 0.003277 0.000000
# 3 -0.017591 -0.008384 0.028083 0.000000 -0.006271 0.000000
# 4 0.000000 0.000000 0.000000 0.088696 0.000000 0.019592
# 5 0.027411 0.003277 -0.006271 0.000000 0.075621 0.000000
# 6 0.000000 0.000000 0.000000 0.019592 0.000000 0.044752
#
#
# Mechanical properties :
#
#
# Convention : Reuss Voigt Hill
#
# Bulk Modulus (GPa) = 29.87936 48.11620 38.99778
# Shear Modulus (GPa) = 12.95916 17.05059 15.00487
#
# Velocity S-wave (km/s) = 2.61457 2.99903 2.81337
# Velocity P-wave (km/s) = 4.98758 6.11339 5.57896
#
# Compressibility (1/GPa) = 0.03346792
#
# Stress axis : x y z
#
# Youngs Moduli (GPa) = 18.56981 56.81513 35.60831
#
# Poissons Ratio (x) = 0.40102 0.62640
# Poissons Ratio (y) = 0.13107 0.29854
# Poissons Ratio (z) = 0.32667 0.47633
#
# Static dielectric constant tensor:
#      x y z
#    x 1.736200 0.000000 0.039510 
#    y 0.000000 1.679940 0.000000 
#    z 0.039510 0.000000 1.648610 
# 
# From -- ./inp_files/305544.got.cif
#   From: 2010.05.17/outbox.cif.g08.bks.cpg/sg12_153_cif.got.tgz:305544.got - 2010.06.03 13:09:07.
