data_PCOD9177491
_publ_section_title
;
Structure prediction by ZEFSAII (Michael W. Deem and Ramdas Pophale) SiO2 
 PCOD9177491
Probable space group: C 2/M
;
_chemical_formula_sum "Si O2"
_cell_formula_units_Z 64
_cell_length_a 28.149067
_cell_length_b 9.132719
_cell_length_c 16.354988
_cell_angle_alpha 90.000000
_cell_angle_beta 92.646897
_cell_angle_gamma 90.000000
_cell_volume 4200.013980
_symmetry_space_group_name_H-M "C 2/M"
_symmetry_group_IT_number 12
_symmetry_cell_setting 'monoclinic'
loop_
_space_group_symop_operation_xyz
x,y,z
-x,y,-z
-x,-y,-z
x,-y,z
1/2+x,1/2+y,z
1/2-x,1/2+y,-z
1/2-x,1/2-y,-z
1/2+x,1/2-y,z
loop_
_atom_site_type_symbol
_atom_site_label
_atom_site_fract_x
_atom_site_fract_y
_atom_site_fract_z
Si Si1 0.110450 0.173054 0.468107
Si Si2 0.748094 0.827718 0.260833
Si Si3 0.847554 0.323490 0.228127
Si Si4 0.180137 0.667614 0.951434
Si Si5 0.925013 0.826781 0.347489
Si Si6 0.710341 0.826792 0.441326
Si Si7 0.210741 0.832786 0.106205
Si Si8 0.017923 0.668842 0.407020
O O1 0.097283 0.190021 0.563146
O O2 0.159868 0.252082 0.454019
O O3 0.067875 0.247102 0.413663
O O4 0.113359 0.000000 0.451518
O O5 0.798081 0.742129 0.258363
O O6 0.725629 0.809561 0.348192
O O7 0.713953 0.764439 0.187578
O O8 0.756906 0.000000 0.247019
O O9 0.846603 0.500000 0.235007
O O10 0.848903 0.286587 0.131364
O O11 0.890645 0.254154 0.281464
O O12 0.168276 0.500000 0.971566
O O13 0.235045 0.667920 0.924447
O O14 0.178739 0.767320 0.031282
O O15 0.976977 0.753468 0.354728
O O16 0.927980 0.000000 0.330968
O O17 0.750000 0.750000 0.500000
O O18 0.708109 0.000000 0.459453
O O19 0.198377 0.000000 0.124224
O O20 0.022872 0.500000 0.381387
O O21 0.000000 0.667780 0.500000
#
# Coordination Sequence:
#
# PCOD9177491 Si02
#       8
#     8   8   8   8   8   8   8   8
#     4  10  20  33  48  65  87 116 149 186 225 262
#     4  10  20  32  44  60  85 117 151 186 223 260
#     4  10  19  29  43  64  89 118 150 181 217 262
#     4   8  15  26  39  58  84 112 141 175 215 258
#     4  10  19  30  45  66  91 117 145 179 222 267
#     4  11  23  35  47  64  87 118 154 189 224 260
#     4   9  16  26  42  61  80 108 145 180 215 257
#     4   9  17  30  48  67  86 111 144 181 220 263
#
# _framework density 15.238045
#
# number of rings (size 3 to 8) (size 9 to 14) (size 15 to 20)
#    0.000    2.375    0.000    4.125    0.000   11.500 
#    0.000    0.000    0.000    0.000    0.000    0.000 
#    0.000    1.000    0.000   10.500    0.000    5.250 
#
# Total GULP energy -178424.503259 kJ/mol
# GULP energy per Si atom -5575.765727 kJ/mol
# Density = 1.520336 g / cm^3
# Si number density = 15.238045 Si / 1000 Ang^3
#
#
#
# Elastic Constant Matrix: (Units=GPa)
#
#
# Indices 1 2 3 4 5 6 
#
# 1 100.8902 68.4618 49.6849 0.0000 24.9672 0.0000
# 2 68.4618 132.0475 78.1782 0.0000 20.4011 0.0000
# 3 49.6849 78.1782 87.3627 0.0000 26.2165 0.0000
# 4 0.0000 0.0000 0.0000 26.9642 0.0000 5.6428
# 5 24.9672 20.4011 26.2165 0.0000 21.7709 0.0000
# 6 0.0000 0.0000 0.0000 5.6428 0.0000 24.4674
#
#
#
# Elastic Compliance Matrix: (Units=1/GPa)
#
#
# Indices 1 2 3 4 5 6 
#
# 1 0.018460 -0.007879 0.001080 0.000000 -0.015087 0.000000
# 2 -0.007879 0.019646 -0.016107 0.000000 0.010022 0.000000
# 3 0.001080 -0.016107 0.033021 0.000000 -0.025908 0.000000
# 4 0.000000 0.000000 0.000000 0.038967 0.000000 -0.008987
# 5 -0.015087 0.010022 -0.025908 0.000000 0.085042 0.000000
# 6 0.000000 0.000000 0.000000 -0.008987 0.000000 0.042943
#
#
# Mechanical properties :
#
#
# Convention : Reuss Voigt Hill
#
# Bulk Modulus (GPa) = 39.50381 79.21670 59.36025
# Shear Modulus (GPa) = 17.10395 22.90554 20.00474
#
# Velocity S-wave (km/s) = 3.35393 3.88129 3.62721
# Velocity P-wave (km/s) = 6.40150 8.49617 7.52211
#
# Compressibility (1/GPa) = 0.02531402
#
# Stress axis : x y z
#
# Youngs Moduli (GPa) = 54.16998 50.90170 30.28395
#
# Poissons Ratio (x) = 0.40107 -0.03270
# Poissons Ratio (y) = 0.42682 0.48778
# Poissons Ratio (z) = -0.05848 0.81986
#
# Static dielectric constant tensor:
#      x y z
#    x 1.477680 0.000000 0.011050 
#    y 0.000000 1.512680 0.000000 
#    z 0.011050 0.000000 1.505170 
# 
# From -- ./inp_files/238809.got.cif
#   From: 2010.05.17/outbox.cif.g08.bks.cpg/sg12_120_cif.got.tgz:238809.got - 2010.06.03 13:09:07.
