data_PCOD9177221
_publ_section_title
;
Structure prediction by ZEFSAII (Michael W. Deem and Ramdas Pophale) SiO2 
 PCOD9177221
Probable space group: C 2/M
;
_chemical_formula_sum "Si O2"
_cell_formula_units_Z 52
_cell_length_a 12.944230
_cell_length_b 25.751169
_cell_length_c 8.176120
_cell_angle_alpha 90.000000
_cell_angle_beta 130.682767
_cell_angle_gamma 90.000000
_cell_volume 2066.707015
_symmetry_space_group_name_H-M "C 2/M"
_symmetry_group_IT_number 12
_symmetry_cell_setting 'monoclinic'
loop_
_space_group_symop_operation_xyz
x,y,z
-x,y,-z
-x,-y,-z
x,-y,z
1/2+x,1/2+y,z
1/2-x,1/2+y,-z
1/2-x,1/2-y,-z
1/2+x,1/2-y,z
loop_
_atom_site_type_symbol
_atom_site_label
_atom_site_fract_x
_atom_site_fract_y
_atom_site_fract_z
Si Si1 0.092212 0.594102 0.753572
Si Si2 0.337576 0.062605 0.678843
Si Si3 0.069871 0.295908 0.836974
Si Si4 0.000000 0.209568 0.500000
Si Si5 0.826790 0.940319 0.181549
Si Si6 0.072784 0.063504 0.238229
Si Si7 0.716650 0.206848 0.327126
O O1 0.989323 0.577936 0.792481
O O2 0.000000 0.584629 0.500000
O O3 0.133916 0.654402 0.813322
O O4 0.229779 0.561998 0.921772
O O5 0.265837 0.082559 0.770248
O O6 0.227847 0.079137 0.427624
O O7 0.339964 0.000000 0.688231
O O8 0.052498 0.248062 0.697547
O O9 0.918673 0.317417 0.730903
O O10 0.151942 0.278792 0.082965
O O11 0.135704 0.183309 0.566461
O O12 0.973160 0.918978 0.282581
O O13 0.850371 0.000000 0.252052
O O14 0.070018 0.000000 0.233800
O O15 0.000000 0.082474 0.000000
O O16 0.750000 0.250000 0.500000
#
# Coordination Sequence:
#
# PCOD9177221 Si02
#       7
#     8   8   8   4   8   8   8
#     4  12  24  37  56  83 123 163 196 251 306 357
#     4  10  21  36  57  83 115 161 213 256 296 350
#     4  10  21  38  60  93 123 152 187 239 302 356
#     4  10  18  40  64  92 115 148 195 232 286 360
#     4  10  21  36  57  84 115 162 216 255 296 349
#     4   9  17  33  56  80 107 144 200 262 303 342
#     4   9  20  36  65  90 115 147 185 231 283 357
#
# _framework density 25.160799999999998
#
# number of rings (size 3 to 8) (size 9 to 14) (size 15 to 20)
#    0.000    2.000    0.769    2.769    4.308    5.538 
#    0.000    1.538    0.000    0.000    0.000    0.000 
#    0.000    0.000    0.000    0.000    0.000    0.000 
#
# Total GULP energy -145158.455773 kJ/mol
# GULP energy per Si atom -5583.017530 kJ/mol
# Density = 2.510353 g / cm^3
# Si number density = 25.160800 Si / 1000 Ang^3
#
#
#
# Elastic Constant Matrix: (Units=GPa)
#
#
# Indices 1 2 3 4 5 6 
#
# 1 111.4347 9.4903 15.0234 0.0000 31.7958 0.0000
# 2 9.4903 57.3216 21.8397 0.0000 7.8414 0.0000
# 3 15.0234 21.8397 120.6632 0.0000 12.5223 0.0000
# 4 0.0000 0.0000 0.0000 15.0819 0.0000 8.9312
# 5 31.7958 7.8414 12.5223 0.0000 56.0666 0.0000
# 6 0.0000 0.0000 0.0000 8.9312 0.0000 10.8430
#
#
#
# Elastic Compliance Matrix: (Units=1/GPa)
#
#
# Indices 1 2 3 4 5 6 
#
# 1 0.010798 -0.000755 -0.000597 0.000000 -0.005884 0.000000
# 2 -0.000755 0.018992 -0.003186 0.000000 -0.001516 0.000000
# 3 -0.000597 -0.003186 0.009067 0.000000 -0.001241 0.000000
# 4 0.000000 0.000000 0.000000 0.129443 0.000000 -0.106620
# 5 -0.005884 -0.001516 -0.001241 0.000000 0.021662 0.000000
# 6 0.000000 0.000000 0.000000 -0.106620 0.000000 0.180047
#
#
# Mechanical properties :
#
#
# Convention : Reuss Voigt Hill
#
# Bulk Modulus (GPa) = 33.57942 42.45848 38.01895
# Shear Modulus (GPa) = 12.85306 32.60271 22.72788
#
# Velocity S-wave (km/s) = 2.26262 3.60359 3.00876
# Velocity P-wave (km/s) = 4.49453 5.85030 5.21665
#
# Compressibility (1/GPa) = 0.02978014
#
# Stress axis : x y z
#
# Youngs Moduli (GPa) = 92.61236 52.65434 110.28619
#
# Poissons Ratio (x) = 0.03977 0.06584
# Poissons Ratio (y) = 0.06995 0.35138
# Poissons Ratio (z) = 0.05529 0.16776
#
# Static dielectric constant tensor:
#      x y z
#    x 2.113280 0.000000 -0.043210 
#    y 0.000000 1.949490 0.000000 
#    z -0.043210 0.000000 1.990730 
# 
# From -- ./inp_files/68665.got.cif
#   From: 2010.05.17/outbox.cif.g08.bks.cpg/sg12_35_cif.got.tgz:68665.got - 2010.06.03 13:09:07.
