data_PCOD9177793
_publ_section_title
;
Structure prediction by ZEFSAII (Michael W. Deem and Ramdas Pophale) SiO2 
 PCOD9177793
Probable space group: C 2/M
;
_chemical_formula_sum "Si O2"
_cell_formula_units_Z 64
_cell_length_a 27.936953
_cell_length_b 9.052098
_cell_length_c 19.095904
_cell_angle_alpha 90.000000
_cell_angle_beta 68.125644
_cell_angle_gamma 90.000000
_cell_volume 4481.443587
_symmetry_space_group_name_H-M "C 2/M"
_symmetry_group_IT_number 12
_symmetry_cell_setting 'monoclinic'
loop_
_space_group_symop_operation_xyz
x,y,z
-x,y,-z
-x,-y,-z
x,-y,z
1/2+x,1/2+y,z
1/2-x,1/2+y,-z
1/2-x,1/2-y,-z
1/2+x,1/2-y,z
loop_
_atom_site_type_symbol
_atom_site_label
_atom_site_fract_x
_atom_site_fract_y
_atom_site_fract_z
Si Si1 0.171177 0.323144 0.526073
Si Si2 0.257023 0.822061 0.385885
Si Si3 0.548052 0.678235 0.390561
Si Si4 0.326946 0.170271 0.921103
Si Si5 0.252190 0.822427 0.229262
Si Si6 0.138914 0.176492 0.233519
Si Si7 0.209201 0.829629 0.926081
Si Si8 0.941207 0.322027 0.463710
O O1 0.176807 0.500000 0.515160
O O2 0.205624 0.245631 0.447968
O O3 0.196437 0.281762 0.586889
O O4 0.111179 0.288357 0.549345
O O5 0.264202 0.774857 0.301836
O O6 0.252108 0.000000 0.388549
O O7 0.545102 0.500000 0.400337
O O8 0.590573 0.713056 0.308812
O O9 0.492090 0.746257 0.404215
O O10 0.563551 0.753204 0.455834
O O11 0.360251 0.246255 0.842301
O O12 0.267915 0.176184 0.924269
O O13 0.341033 0.000000 0.922084
O O14 0.325569 0.251793 0.996261
O O15 0.192552 0.784622 0.243615
O O16 0.287400 0.750669 0.150293
O O17 0.256792 0.000000 0.222282
O O18 0.139660 0.000000 0.222619
O O19 0.194930 0.000000 0.926015
O O20 0.947637 0.500000 0.464532
#
# Coordination Sequence:
#
# PCOD9177793 Si02
#       8
#     8   8   8   8   8   8   8   8
#     4   9  18  30  43  60  82 108 137 170 208 246
#     4   9  17  29  44  61  81 107 139 172 204 240
#     4  10  19  30  44  61  80 105 140 174 204 243
#     4   9  16  25  38  55  76 105 136 162 192 233
#     4   9  16  26  40  57  79 106 135 166 199 235
#     4   9  17  27  39  57  80 105 133 167 202 234
#     4   9  16  25  37  54  78 106 134 163 194 230
#     4  10  19  30  43  59  82 109 136 170 210 246
#
# _framework density 14.281112
#
# number of rings (size 3 to 8) (size 9 to 14) (size 15 to 20)
#    0.000    2.750    0.000    3.000    0.000    6.500 
#    0.000    2.500    0.000    0.000    0.000    0.000 
#    0.000    1.000    0.000   11.500    0.000    3.375 
#
# Total GULP energy -178256.266297 kJ/mol
# GULP energy per Si atom -5570.508322 kJ/mol
# Density = 1.424861 g / cm^3
# Si number density = 14.281112 Si / 1000 Ang^3
#
#
#
# Elastic Constant Matrix: (Units=GPa)
#
#
# Indices 1 2 3 4 5 6 
#
# 1 61.8117 28.6563 42.9379 0.0000 -2.1112 0.0000
# 2 28.6563 47.7546 54.2000 0.0000 -3.5809 0.0000
# 3 42.9379 54.2000 140.6910 0.0000 -1.1728 0.0000
# 4 0.0000 0.0000 0.0000 26.7972 0.0000 -2.3702
# 5 -2.1112 -3.5809 -1.1728 0.0000 19.2495 0.0000
# 6 0.0000 0.0000 0.0000 -2.3702 0.0000 13.7788
#
#
#
# Elastic Compliance Matrix: (Units=1/GPa)
#
#
# Indices 1 2 3 4 5 6 
#
# 1 0.023127 -0.010376 -0.003057 0.000000 0.000420 0.000000
# 2 -0.010376 0.042584 -0.013188 0.000000 0.005980 0.000000
# 3 -0.003057 -0.013188 0.013105 0.000000 -0.001990 0.000000
# 4 0.000000 0.000000 0.000000 0.037894 0.000000 0.006518
# 5 0.000420 0.005980 -0.001990 0.000000 0.052987 0.000000
# 6 0.000000 0.000000 0.000000 0.006518 0.000000 0.073696
#
#
# Mechanical properties :
#
#
# Convention : Reuss Voigt Hill
#
# Bulk Modulus (GPa) = 39.10607 55.76063 47.43335
# Shear Modulus (GPa) = 16.38483 20.26267 18.32375
#
# Velocity S-wave (km/s) = 3.39087 3.77084 3.58589
# Velocity P-wave (km/s) = 6.54012 7.62160 7.10148
#
# Compressibility (1/GPa) = 0.02557148
#
# Stress axis : x y z
#
# Youngs Moduli (GPa) = 43.23994 23.48308 76.30722
#
# Poissons Ratio (x) = 0.24367 0.23328
# Poissons Ratio (y) = 0.44868 1.00637
# Poissons Ratio (z) = 0.13219 0.30970
#
# Static dielectric constant tensor:
#      x y z
#    x 1.458710 0.000000 0.006130 
#    y 0.000000 1.479090 0.000000 
#    z 0.006130 0.000000 1.461280 
# 
# From -- ./inp_files/294532.got.cif
#   From: 2010.05.17/outbox.cif.g08.bks.cpg/sg12_148_cif.got.tgz:294532.got - 2010.06.03 13:09:07.
