data_PCOD9177899
_publ_section_title
;
Structure prediction by ZEFSAII (Michael W. Deem and Ramdas Pophale) SiO2 
 PCOD9177899
Probable space group: C 2/M
;
_chemical_formula_sum "Si O2"
_cell_formula_units_Z 64
_cell_length_a 18.993011
_cell_length_b 19.638871
_cell_length_c 12.930871
_cell_angle_alpha 90.000000
_cell_angle_beta 129.760150
_cell_angle_gamma 90.000000
_cell_volume 3707.755801
_symmetry_space_group_name_H-M "C 2/M"
_symmetry_group_IT_number 12
_symmetry_cell_setting 'monoclinic'
loop_
_space_group_symop_operation_xyz
x,y,z
-x,y,-z
-x,-y,-z
x,-y,z
1/2+x,1/2+y,z
1/2-x,1/2+y,-z
1/2-x,1/2-y,-z
1/2+x,1/2-y,z
loop_
_atom_site_type_symbol
_atom_site_label
_atom_site_fract_x
_atom_site_fract_y
_atom_site_fract_z
Si Si1 0.184362 0.717035 0.525058
Si Si2 0.417894 0.747781 0.109383
Si Si3 0.683529 0.259342 0.181657
Si Si4 0.999241 0.788433 0.618772
Si Si5 0.448456 0.370794 0.855376
Si Si6 0.095351 0.923417 0.407063
Si Si7 0.804062 0.578227 0.568232
Si Si8 0.050315 0.641266 0.146947
O O1 0.250000 0.750000 0.500000
O O2 0.219922 0.741478 0.669984
O O3 0.084639 0.746290 0.410649
O O4 0.186601 0.636225 0.510097
O O5 0.415183 0.730638 0.228153
O O6 0.482300 0.687615 0.122209
O O7 0.471947 0.818024 0.136798
O O8 0.328261 0.745524 0.952687
O O9 0.637229 0.329067 0.179743
O O10 0.619729 0.199142 0.167917
O O11 0.968512 0.866863 0.601232
O O12 0.000000 0.770055 0.500000
O O13 0.419939 0.415223 0.730943
O O14 0.500000 0.405532 0.000000
O O15 0.203809 0.910336 0.525986
O O16 0.073883 0.000000 0.419428
O O17 0.805457 0.500000 0.533820
O O18 0.886952 0.592713 0.725194
O O19 0.000000 0.609583 0.000000
#
# Coordination Sequence:
#
# PCOD9177899 Si02
#       8
#     8   8   8   8   8   8   8   8
#     4  12  17  32  55  73  96 132 163 204 250 290
#     4   8  15  27  44  68  95 123 160 206 246 289
#     4   9  14  24  47  71  94 125 159 202 250 286
#     4  11  21  33  51  72  95 130 172 207 246 300
#     4   8  13  23  41  68  97 124 155 195 241 288
#     4  10  19  30  44  69 103 132 160 199 245 293
#     4  11  20  29  47  76 105 128 162 202 243 297
#     4   9  15  26  45  70 100 129 155 196 253 295
#
# _framework density 17.261115
#
# number of rings (size 3 to 8) (size 9 to 14) (size 15 to 20)
#    0.000    2.250    5.000    2.250    0.000    0.750 
#    0.000    0.625    0.000    0.375    0.000    0.000 
#    0.000    0.000    0.000    0.000    0.000    0.000 
#
# Total GULP energy -178185.402657 kJ/mol
# GULP energy per Si atom -5568.293833 kJ/mol
# Density = 1.722183 g / cm^3
# Si number density = 17.261115 Si / 1000 Ang^3
#
#
#
# Elastic Constant Matrix: (Units=GPa)
#
#
# Indices 1 2 3 4 5 6 
#
# 1 15.5372 3.0950 11.0033 0.0000 -7.7471 0.0000
# 2 3.0950 63.2067 3.4142 0.0000 0.1492 0.0000
# 3 11.0033 3.4142 130.6021 0.0000 -3.2103 0.0000
# 4 0.0000 0.0000 0.0000 17.3460 0.0000 2.7410
# 5 -7.7471 0.1492 -3.2103 0.0000 24.9362 0.0000
# 6 0.0000 0.0000 0.0000 2.7410 0.0000 6.4268
#
#
#
# Elastic Compliance Matrix: (Units=1/GPa)
#
#
# Indices 1 2 3 4 5 6 
#
# 1 0.081765 -0.003728 -0.006186 0.000000 0.024628 0.000000
# 2 -0.003728 0.016014 -0.000136 0.000000 -0.001271 0.000000
# 3 -0.006186 -0.000136 0.008160 0.000000 -0.000870 0.000000
# 4 0.000000 0.000000 0.000000 0.061816 0.000000 -0.026365
# 5 0.024628 -0.001271 -0.000870 0.000000 0.047649 0.000000
# 6 0.000000 0.000000 0.000000 -0.026365 0.000000 0.166843
#
#
# Mechanical properties :
#
#
# Convention : Reuss Voigt Hill
#
# Bulk Modulus (GPa) = 11.64956 27.15233 19.40094
# Shear Modulus (GPa) = 11.60200 22.53069 17.06635
#
# Velocity S-wave (km/s) = 2.59539 3.61679 3.14780
# Velocity P-wave (km/s) = 3.96801 5.76247 4.94728
#
# Compressibility (1/GPa) = 0.08584019
#
# Stress axis : x y z
#
# Youngs Moduli (GPa) = 12.23019 62.44550 122.54654
#
# Poissons Ratio (x) = 0.23278 0.75806
# Poissons Ratio (y) = 0.04559 0.01665
# Poissons Ratio (z) = 0.07565 0.00848
#
# Static dielectric constant tensor:
#      x y z
#    x 1.578050 0.000000 -0.011390 
#    y 0.000000 1.570190 0.000000 
#    z -0.011390 0.000000 1.663250 
# 
# From -- ./inp_files/169448.got.cif
#   From: 2010.05.17/outbox.cif.g08.bks.cpg/sg12_85_cif.got.tgz:169448.got - 2010.06.03 13:09:07.
