data_PCOD9177094
_publ_section_title
;
Structure prediction by ZEFSAII (Michael W. Deem and Ramdas Pophale) SiO2 
 PCOD9177094
Probable space group: C 2/M
;
_chemical_formula_sum "Si O2"
_cell_formula_units_Z 48
_cell_length_a 23.549204
_cell_length_b 18.602626
_cell_length_c 19.156882
_cell_angle_alpha 90.000000
_cell_angle_beta 164.616773
_cell_angle_gamma 90.000000
_cell_volume 2226.228759
_symmetry_space_group_name_H-M "C 2/M"
_symmetry_group_IT_number 12
_symmetry_cell_setting 'monoclinic'
loop_
_space_group_symop_operation_xyz
x,y,z
-x,y,-z
-x,-y,-z
x,-y,z
1/2+x,1/2+y,z
1/2-x,1/2+y,-z
1/2-x,1/2-y,-z
1/2+x,1/2-y,z
loop_
_atom_site_type_symbol
_atom_site_label
_atom_site_fract_x
_atom_site_fract_y
_atom_site_fract_z
Si Si1 0.701830 0.696587 0.553063
Si Si2 0.667036 0.306726 0.998304
Si Si3 0.745694 0.418926 0.718072
Si Si4 0.346635 0.849014 0.980371
Si Si5 0.441770 0.082069 0.239573
Si Si6 0.618184 0.351053 0.210588
O O1 0.510164 0.707778 0.271772
O O2 0.649244 0.636923 0.548575
O O3 0.773629 0.772109 0.671387
O O4 0.910157 0.669467 0.756798
O O5 0.755377 0.228703 0.124252
O O6 0.548311 0.340119 0.924095
O O7 0.833532 0.362546 0.164626
O O8 0.663211 0.500000 0.613499
O O9 0.738047 0.389978 0.787700
O O10 0.000000 0.420325 0.000000
O O11 0.365750 0.895938 0.072239
O O12 0.695268 0.095257 0.545717
O O13 0.385558 0.000000 0.187993
O O14 0.500000 0.372613 0.000000
#
# Coordination Sequence:
#
# PCOD9177094 Si02
#       6
#     8   8   8   8   8   8
#     4  10  18  37  67  98 127 166 218 260 318 394
#     4  11  22  41  68  97 126 167 222 268 317 386
#     4   9  18  31  57  97 134 164 199 257 327 390
#     4  10  18  39  64  92 131 171 216 265 316 390
#     4  12  26  41  64  96 129 172 219 268 329 384
#     4  11  23  44  69  94 124 168 222 274 323 379
#
# _framework density 21.561126999999999
#
# number of rings (size 3 to 8) (size 9 to 14) (size 15 to 20)
#    0.000    1.500    3.333    4.500    0.000    3.000 
#    0.000    1.667    0.000    2.000    0.000    0.000 
#    0.000    0.000    0.000    0.000    0.000    0.000 
#
# Total GULP energy -134417.606414 kJ/mol
# GULP energy per Si atom -5600.733601 kJ/mol
# Density = 2.151205 g / cm^3
# Si number density = 21.561127 Si / 1000 Ang^3
#
#
#
# Elastic Constant Matrix: (Units=GPa)
#
#
# Indices 1 2 3 4 5 6 
#
# 1 139.2064 61.9693 30.4888 0.0062 -15.2108 -0.0069
# 2 61.9693 128.8609 15.5333 0.0057 8.8496 -0.0189
# 3 30.4888 15.5333 56.3020 0.0392 6.6012 -0.0065
# 4 0.0062 0.0057 0.0392 24.7620 0.0286 3.7033
# 5 -15.2108 8.8496 6.6012 0.0286 23.1401 0.0013
# 6 -0.0069 -0.0189 -0.0065 3.7033 0.0013 23.8252
#
#
#
# Elastic Compliance Matrix: (Units=1/GPa)
#
#
# Indices 1 2 3 4 5 6 
#
# 1 0.012817 -0.006228 -0.006714 -0.000005 0.012722 -0.000003
# 2 -0.006228 0.011198 0.001309 0.000006 -0.008750 0.000007
# 3 -0.006714 0.001309 0.022360 -0.000022 -0.011292 0.000009
# 4 -0.000005 0.000006 -0.000022 0.041346 -0.000050 -0.006427
# 5 0.012722 -0.008750 -0.011292 -0.000050 0.058145 -0.000002
# 6 -0.000003 0.000007 0.000009 -0.006427 -0.000002 0.042971
#
#
# Mechanical properties :
#
#
# Convention : Reuss Voigt Hill
#
# Bulk Modulus (GPa) = 43.27267 60.03913 51.65590
# Shear Modulus (GPa) = 22.74736 28.77065 25.75901
#
# Velocity S-wave (km/s) = 3.25163 3.65687 3.46019
# Velocity P-wave (km/s) = 5.84900 6.76290 6.32248
#
# Compressibility (1/GPa) = 0.02310927
#
# Stress axis : x y z
#
# Youngs Moduli (GPa) = 78.02430 89.29833 44.72284
#
# Poissons Ratio (x) = 0.55614 0.30026
# Poissons Ratio (y) = 0.48592 -0.05854
# Poissons Ratio (z) = 0.52384 -0.11688
#
# Static dielectric constant tensor:
#      x y z
#    x 1.762960 -0.000010 0.054530 
#    y -0.000010 1.746660 -0.000010 
#    z 0.054530 -0.000010 1.799440 
# 
# From -- ./inp_files/285432.got.cif
#   From: 2010.05.17/outbox.cif.g08.bks.cpg/sg12_143_cif.got.tgz:285432.got - 2010.06.03 13:09:07.
