data_PCOD9177306
_publ_section_title
;
Structure prediction by ZEFSAII (Michael W. Deem and Ramdas Pophale) SiO2 
 PCOD9177306
Probable space group: C 2/M
;
_chemical_formula_sum "Si O2"
_cell_formula_units_Z 64
_cell_length_a 27.984616
_cell_length_b 8.286665
_cell_length_c 15.512582
_cell_angle_alpha 90.000000
_cell_angle_beta 103.682359
_cell_angle_gamma 90.000000
_cell_volume 3495.268652
_symmetry_space_group_name_H-M "C 2/M"
_symmetry_group_IT_number 12
_symmetry_cell_setting 'monoclinic'
loop_
_space_group_symop_operation_xyz
x,y,z
-x,y,-z
-x,-y,-z
x,-y,z
1/2+x,1/2+y,z
1/2-x,1/2+y,-z
1/2-x,1/2-y,-z
1/2+x,1/2-y,z
loop_
_atom_site_type_symbol
_atom_site_label
_atom_site_fract_x
_atom_site_fract_y
_atom_site_fract_z
Si Si1 0.581125 0.191354 0.389021
Si Si2 0.927645 0.808626 0.794299
Si Si3 0.039279 0.309030 0.844491
Si Si4 0.694574 0.806270 0.964280
Si Si5 0.118626 0.316195 0.585932
Si Si6 0.103416 0.192498 0.029589
Si Si7 0.132531 0.697282 0.772387
Si Si8 0.978397 0.178555 0.395689
O O1 0.598386 0.230558 0.300241
O O2 0.611223 0.254699 0.486294
O O3 0.525899 0.261921 0.365608
O O4 0.577452 0.000000 0.399901
O O5 0.906045 0.754013 0.876742
O O6 0.985997 0.771000 0.821279
O O7 0.921351 0.000000 0.783965
O O8 0.032410 0.500000 0.829009
O O9 0.079099 0.252199 0.789231
O O10 0.066076 0.275977 0.946761
O O11 0.672035 0.756914 0.861751
O O12 0.691605 0.000000 0.968008
O O13 0.750000 0.750000 0.000000
O O14 0.657793 0.733091 0.019399
O O15 0.135582 0.500000 0.581838
O O16 0.145787 0.242855 0.681393
O O17 0.064102 0.307666 0.605118
O O18 0.095065 0.000000 0.021330
O O19 0.131490 0.500000 0.768349
O O20 0.000000 0.158782 0.500000
O O21 0.961014 0.000000 0.360581
#
# Coordination Sequence:
#
# PCOD9177306 Si02
#       8
#     8   8   8   8   8   8   8   8
#     4  10  19  28  41  61  87 124 168 209 243 277
#     4  11  22  33  46  66  97 137 175 209 245 286
#     4  10  19  31  49  72  99 133 171 209 247 290
#     4  10  20  36  58  81 103 125 152 193 245 300
#     4   9  16  28  44  62  88 123 163 202 238 283
#     4  10  21  36  52  72  99 131 166 203 246 295
#     4   8  16  30  48  71  97 126 159 194 238 292
#     4   9  16  25  37  55  83 120 161 203 243 279
#
# _framework density 18.310466000000002
#
# number of rings (size 3 to 8) (size 9 to 14) (size 15 to 20)
#    0.000    2.375    0.000    4.125    0.000    6.500 
#    0.000    3.125    0.000    0.000    0.000    0.875 
#    0.000    0.000    0.000    0.000    0.000    0.000 
#
# Total GULP energy -178195.437424 kJ/mol
# GULP energy per Si atom -5568.607419 kJ/mol
# Density = 1.826879 g / cm^3
# Si number density = 18.310466 Si / 1000 Ang^3
#
#
#
# Elastic Constant Matrix: (Units=GPa)
#
#
# Indices 1 2 3 4 5 6 
#
# 1 51.6895 -4.2112 45.8794 0.0000 5.0981 0.0000
# 2 -4.2112 24.1431 -3.1290 0.0000 -3.0674 0.0000
# 3 45.8794 -3.1290 154.1110 0.0000 -18.5725 0.0000
# 4 0.0000 0.0000 0.0000 -15.2531 0.0000 -5.9526
# 5 5.0981 -3.0674 -18.5725 0.0000 15.4995 0.0000
# 6 0.0000 0.0000 0.0000 -5.9526 0.0000 16.2601
#
#
#
# Elastic Compliance Matrix: (Units=1/GPa)
#
#
# Indices 1 2 3 4 5 6 
#
# 1 0.033895 0.000759 -0.013325 0.000000 -0.026965 0.000000
# 2 0.000759 0.043149 0.001927 0.000000 0.010599 0.000000
# 3 -0.013325 0.001927 0.012937 0.000000 0.020266 0.000000
# 4 0.000000 0.000000 0.000000 -0.057365 0.000000 -0.021001
# 5 -0.026965 0.010599 0.020266 0.000000 0.099769 0.000000
# 6 0.000000 0.000000 0.000000 -0.021001 0.000000 0.053812
#
#
# Mechanical properties :
#
#
# Convention : Reuss Voigt Hill
#
# Bulk Modulus (GPa) = 14.55515 34.11356 24.33436
# Shear Modulus (GPa) = 21.70382 16.06161 18.88271
#
# Velocity S-wave (km/s) = 3.44659 2.96494 3.21480
# Velocity P-wave (km/s) = 4.87903 5.51291 5.20563
#
# Compressibility (1/GPa) = 0.06870418
#
# Stress axis : x y z
#
# Youngs Moduli (GPa) = 29.50312 23.17577 77.29668
#
# Poissons Ratio (x) = -0.01760 1.02996
# Poissons Ratio (y) = -0.02241 -0.14897
# Poissons Ratio (z) = 0.39312 -0.04467
#
# Static dielectric constant tensor:
#      x y z
#    x 1.602760 0.000000 0.012360 
#    y 0.000000 1.681990 0.000000 
#    z 0.012360 0.000000 1.738880 
# 
# From -- ./inp_files/244048.got.cif
#   From: 2010.05.17/outbox.cif.g08.bks.cpg/sg12_123_cif.got.tgz:244048.got - 2010.06.03 13:09:07.
