data_PCOD9177779
_publ_section_title
;
Structure prediction by ZEFSAII (Michael W. Deem and Ramdas Pophale) SiO2 
 PCOD9177779
Probable space group: C 2/M
;
_chemical_formula_sum "Si O2"
_cell_formula_units_Z 52
_cell_length_a 16.565838
_cell_length_b 13.354493
_cell_length_c 16.445984
_cell_angle_alpha 90.000000
_cell_angle_beta 140.322969
_cell_angle_gamma 90.000000
_cell_volume 2322.918181
_symmetry_space_group_name_H-M "C 2/M"
_symmetry_group_IT_number 12
_symmetry_cell_setting 'monoclinic'
loop_
_space_group_symop_operation_xyz
x,y,z
-x,y,-z
-x,-y,-z
x,-y,z
1/2+x,1/2+y,z
1/2-x,1/2+y,-z
1/2-x,1/2-y,-z
1/2+x,1/2-y,z
loop_
_atom_site_type_symbol
_atom_site_label
_atom_site_fract_x
_atom_site_fract_y
_atom_site_fract_z
Si Si1 0.867684 0.180437 0.869054
Si Si2 0.035361 0.799893 0.785004
Si Si3 0.935588 0.607914 0.538392
Si Si4 0.333036 0.113366 0.155375
Si Si5 0.768195 0.725833 0.640369
Si Si6 0.980291 0.000000 0.843485
Si Si7 0.038670 0.884738 0.440957
O O1 0.787871 0.137969 0.882307
O O2 0.787808 0.256200 0.751763
O O3 0.909150 0.087068 0.844933
O O4 0.000000 0.227531 0.000000
O O5 0.134973 0.709641 0.875004
O O6 0.902721 0.747847 0.706280
O O7 0.027925 0.827818 0.683999
O O8 0.041866 0.907137 0.835814
O O9 0.869694 0.500000 0.490871
O O10 0.828697 0.689432 0.464738
O O11 0.000000 0.616207 0.500000
O O12 0.046776 0.609408 0.690141
O O13 0.320095 0.000000 0.111005
O O14 0.691138 0.627566 0.556218
O O15 0.000000 0.845647 0.500000
O O16 0.003383 0.000000 0.408628
#
# Coordination Sequence:
#
# PCOD9177779 Si02
#       7
#     8   8   8   8   8   4   8
#     4  11  23  42  71  93 122 170 234 286 320 382
#     4  11  23  38  60  98 135 171 211 268 337 397
#     4  10  19  29  53  88 125 158 198 259 324 380
#     4  11  22  37  61  97 130 168 213 274 334 392
#     4  11  22  37  58  92 129 164 210 270 332 380
#     4  10  23  42  65  95 129 171 219 278 326 387
#     4  11  22  37  57  87 130 176 215 250 317 416
#
# _framework density 22.385636000000002
#
# number of rings (size 3 to 8) (size 9 to 14) (size 15 to 20)
#    0.000    1.231    4.615    2.077    4.308    0.615 
#    0.000    3.077    0.000    0.462    0.000    0.000 
#    0.000    1.846    0.000    0.000    0.000    0.000 
#
# Total GULP energy -144748.706000 kJ/mol
# GULP energy per Si atom -5567.257923 kJ/mol
# Density = 2.233469 g / cm^3
# Si number density = 22.385636 Si / 1000 Ang^3
#
#
#
# Elastic Constant Matrix: (Units=GPa)
#
#
# Indices 1 2 3 4 5 6 
#
# 1 100.0287 40.9426 6.9496 0.0000 17.6297 0.0000
# 2 40.9426 103.8817 2.8816 0.0000 21.0835 0.0000
# 3 6.9496 2.8816 77.1035 0.0000 15.9028 0.0000
# 4 0.0000 0.0000 0.0000 10.8300 0.0000 -1.6651
# 5 17.6297 21.0835 15.9028 0.0000 20.7850 0.0000
# 6 0.0000 0.0000 0.0000 -1.6651 0.0000 29.7900
#
#
#
# Elastic Compliance Matrix: (Units=1/GPa)
#
#
# Indices 1 2 3 4 5 6 
#
# 1 0.012739 -0.003468 0.000575 0.000000 -0.007727 0.000000
# 2 -0.003468 0.013477 0.002401 0.000000 -0.012565 0.000000
# 3 0.000575 0.002401 0.015947 0.000000 -0.015124 0.000000
# 4 0.000000 0.000000 0.000000 0.093137 0.000000 0.005206
# 5 -0.007727 -0.012565 -0.015124 0.000000 0.078983 0.000000
# 6 0.000000 0.000000 0.000000 0.005206 0.000000 0.033859
#
#
# Mechanical properties :
#
#
# Convention : Reuss Voigt Hill
#
# Bulk Modulus (GPa) = 24.28507 42.50684 33.39596
# Shear Modulus (GPa) = 19.02203 27.63035 23.32619
#
# Velocity S-wave (km/s) = 2.91820 3.51706 3.23153
# Velocity P-wave (km/s) = 4.71450 5.96008 5.37351
#
# Compressibility (1/GPa) = 0.04117755
#
# Stress axis : x y z
#
# Youngs Moduli (GPa) = 78.50151 74.20068 62.70583
#
# Poissons Ratio (x) = 0.25736 -0.03606
# Poissons Ratio (y) = 0.27228 -0.15053
# Poissons Ratio (z) = -0.04515 -0.17812
#
# Static dielectric constant tensor:
#      x y z
#    x 1.860790 0.000000 -0.026920 
#    y 0.000000 1.854740 0.000000 
#    z -0.026920 0.000000 1.881180 
# 
# From -- ./inp_files/270766.got.cif
#   From: 2010.05.17/outbox.cif.g08.bks.cpg/sg12_136_cif.got.tgz:270766.got - 2010.06.03 13:09:07.
