data_PCOD9177728
_publ_section_title
;
Structure prediction by ZEFSAII (Michael W. Deem and Ramdas Pophale) SiO2 
 PCOD9177728
Probable space group: C 2/M
;
_chemical_formula_sum "Si O2"
_cell_formula_units_Z 56
_cell_length_a 23.808236
_cell_length_b 7.319655
_cell_length_c 25.801327
_cell_angle_alpha 90.000000
_cell_angle_beta 32.195142
_cell_angle_gamma 90.000000
_cell_volume 2395.674332
_symmetry_space_group_name_H-M "C 2/M"
_symmetry_group_IT_number 12
_symmetry_cell_setting 'monoclinic'
loop_
_space_group_symop_operation_xyz
x,y,z
-x,y,-z
-x,-y,-z
x,-y,z
1/2+x,1/2+y,z
1/2-x,1/2+y,-z
1/2-x,1/2-y,-z
1/2+x,1/2-y,z
loop_
_atom_site_type_symbol
_atom_site_label
_atom_site_fract_x
_atom_site_fract_y
_atom_site_fract_z
Si Si1 0.249351 0.721872 0.579578
Si Si2 0.982098 0.722692 0.953483
Si Si3 0.352466 0.780938 0.957320
Si Si4 0.474173 0.720293 0.368677
Si Si5 0.479853 0.788706 0.254199
Si Si6 0.794838 0.278822 0.267952
Si Si7 0.579048 0.277045 0.392419
O O1 0.254242 0.500000 0.572287
O O2 0.354065 0.788457 0.469828
O O3 0.243030 0.770891 0.644965
O O4 0.136889 0.789447 0.647423
O O5 0.977843 0.500000 0.958751
O O6 0.883334 0.779103 0.992603
O O7 0.089360 0.779093 0.839701
O O8 0.000000 0.779993 0.000000
O O9 0.447959 0.709933 0.846626
O O10 0.356578 0.000000 0.957413
O O11 0.250000 0.750000 0.000000
O O12 0.473385 0.500000 0.369091
O O13 0.527986 0.779961 0.273534
O O14 0.535030 0.781043 0.371902
O O15 0.464658 0.000000 0.251130
O O16 0.798921 0.500000 0.264193
O O17 0.699123 0.219524 0.306472
O O18 0.500000 0.219318 0.500000
O O19 0.578031 0.500000 0.394547
#
# Coordination Sequence:
#
# PCOD9177728 Si02
#       7
#     8   8   8   8   8   8   8
#     4   9  15  27  47  69  97 133 169 199 236 291
#     4   9  17  30  50  76 102 129 170 221 266 310
#     4  10  21  37  57  79 105 138 175 218 271 322
#     4  10  19  29  47  78 107 132 167 210 248 289
#     4  10  20  34  50  70 100 140 174 200 244 308
#     4   9  14  24  44  68  95 129 163 198 244 298
#     4   9  15  24  41  69 102 130 159 202 255 297
#
# _framework density 23.375464000000001
#
# number of rings (size 3 to 8) (size 9 to 14) (size 15 to 20)
#    0.000    2.571    2.857    0.429    0.000    1.714 
#    0.000    2.857    0.000    0.857    0.000    1.000 
#    0.000    0.000    0.000    0.000    0.000    0.000 
#
# Total GULP energy -156117.691043 kJ/mol
# GULP energy per Si atom -5575.631823 kJ/mol
# Density = 2.332226 g / cm^3
# Si number density = 23.375464 Si / 1000 Ang^3
#
#
#
# Elastic Constant Matrix: (Units=GPa)
#
#
# Indices 1 2 3 4 5 6 
#
# 1 192.4201 0.2730 64.0387 0.0022 -1.3716 0.0006
# 2 0.2730 93.8003 -1.0278 0.0247 -1.8993 -0.0150
# 3 64.0387 -1.0278 64.0336 0.0087 1.0549 -0.0043
# 4 0.0022 0.0247 0.0087 -2.4365 -0.0045 3.2650
# 5 -1.3716 -1.8993 1.0549 -0.0045 38.7807 -0.0001
# 6 0.0006 -0.0150 -0.0043 3.2650 -0.0001 3.1870
#
#
#
# Elastic Compliance Matrix: (Units=1/GPa)
#
#
# Indices 1 2 3 4 5 6 
#
# 1 0.007800 -0.000098 -0.007810 -0.000017 0.000483 0.000005
# 2 -0.000098 0.010674 0.000261 0.000074 0.000512 -0.000025
# 3 -0.007810 0.000261 0.023446 0.000053 -0.000901 -0.000021
# 4 -0.000017 0.000074 0.000053 -0.172968 -0.000018 0.177202
# 5 0.000483 0.000512 -0.000901 -0.000018 0.025853 0.000020
# 6 0.000005 -0.000025 -0.000021 0.177202 0.000020 0.132234
#
#
# Mechanical properties :
#
#
# Convention : Reuss Voigt Hill
#
# Bulk Modulus (GPa) = 37.55656 52.98022 45.26839
# Shear Modulus (GPa) = 97.64013 27.03759 62.33886
#
# Velocity S-wave (km/s) = 6.47001 3.40467 5.16976
# Velocity P-wave (km/s) = 8.48034 6.17817 7.41910
#
# Compressibility (1/GPa) = 0.02662651
#
# Stress axis : x y z
#
# Youngs Moduli (GPa) = 128.20942 93.68173 42.65053
#
# Poissons Ratio (x) = 0.00923 0.33310
# Poissons Ratio (y) = 0.01263 -0.01115
# Poissons Ratio (z) = 1.00130 -0.02449
#
# Static dielectric constant tensor:
#      x y z
#    x 1.966380 -0.000010 -0.027590 
#    y -0.000010 1.946610 0.000010 
#    z -0.027590 0.000010 1.830870 
# 
# From -- ./inp_files/346988.got.cif
#   From: 2010.05.17/outbox.cif.g08.bks.cpg/sg12_174_cif.got.tgz:346988.got - 2010.06.03 13:09:07.
