data_PCOD9177835
_publ_section_title
;
Structure prediction by ZEFSAII (Michael W. Deem and Ramdas Pophale) SiO2 
 PCOD9177835
Probable space group: C 2/M
;
_chemical_formula_sum "Si O2"
_cell_formula_units_Z 56
_cell_length_a 13.901787
_cell_length_b 7.265718
_cell_length_c 19.768295
_cell_angle_alpha 90.000000
_cell_angle_beta 90.752519
_cell_angle_gamma 90.000000
_cell_volume 1996.553363
_symmetry_space_group_name_H-M "C 2/M"
_symmetry_group_IT_number 12
_symmetry_cell_setting 'monoclinic'
loop_
_space_group_symop_operation_xyz
x,y,z
-x,y,-z
-x,-y,-z
x,-y,z
1/2+x,1/2+y,z
1/2-x,1/2+y,-z
1/2-x,1/2-y,-z
1/2+x,1/2-y,z
loop_
_atom_site_type_symbol
_atom_site_label
_atom_site_fract_x
_atom_site_fract_y
_atom_site_fract_z
Si Si1 0.205996 0.289599 0.296596
Si Si2 0.580946 0.788454 0.869959
Si Si3 0.005772 0.295905 0.577676
Si Si4 0.220264 0.217771 0.574851
Si Si5 0.693246 0.775243 0.152447
Si Si6 0.635673 0.780708 0.012016
Si Si7 0.565168 0.775964 0.720896
O O1 0.171834 0.500000 0.297557
O O2 0.199954 0.213308 0.372013
O O3 0.167325 0.209496 0.227060
O O4 0.323548 0.286814 0.288536
O O5 0.697334 0.788237 0.859468
O O6 0.542133 0.715188 0.797845
O O7 0.546792 0.000000 0.873462
O O8 0.577789 0.708735 0.946335
O O9 0.959206 0.500000 0.572883
O O10 0.120310 0.314984 0.583018
O O11 0.997912 0.220044 0.656019
O O12 0.000000 0.212537 0.500000
O O13 0.250000 0.250000 0.500000
O O14 0.206794 0.000000 0.585070
O O15 0.626134 0.717061 0.089573
O O16 0.695980 0.000000 0.152915
O O17 0.620016 0.000000 0.011502
O O18 0.750000 0.750000 0.000000
O O19 0.564686 0.000000 0.721618
#
# Coordination Sequence:
#
# PCOD9177835 Si02
#       7
#     8   8   8   8   8   8   8
#     4   8  14  23  34  48  66  90 120 152 184 221
#     4   8  12  17  25  39  59  83 112 143 174 209
#     4   9  17  29  44  61  81 106 136 168 201 237
#     4  10  19  30  44  61  81 105 134 167 202 240
#     4   8  12  18  27  39  57  82 112 143 174 209
#     4   8  12  16  23  36  55  80 109 140 171 205
#     4   8  13  21  33  48  67  92 121 152 184 220
#
# _framework density 28.048334000000001
#
# number of rings (size 3 to 8) (size 9 to 14) (size 15 to 20)
#    0.000    3.571    0.000    0.429    0.000    0.857 
#    0.000    0.000    0.000    0.000    0.000    0.000 
#    0.000    0.000    0.000    1.286    0.000   36.286 
#
# Total GULP energy -156156.745121 kJ/mol
# GULP energy per Si atom -5577.026611 kJ/mol
# Density = 2.798449 g / cm^3
# Si number density = 28.048334 Si / 1000 Ang^3
#
#
#
# Elastic Constant Matrix: (Units=GPa)
#
#
# Indices 1 2 3 4 5 6 
#
# 1 106.3419 1.5074 30.1121 0.0000 39.3089 0.0000
# 2 1.5074 144.1733 10.6010 0.0000 0.1091 0.0000
# 3 30.1121 10.6010 383.9380 0.0000 26.2566 0.0000
# 4 0.0000 0.0000 0.0000 -263.4573 0.0000 6.2746
# 5 39.3089 0.1091 26.2566 0.0000 41.0591 0.0000
# 6 0.0000 0.0000 0.0000 6.2746 0.0000 -5.6930
#
#
#
# Elastic Compliance Matrix: (Units=1/GPa)
#
#
# Indices 1 2 3 4 5 6 
#
# 1 0.014571 -0.000128 -0.000194 0.000000 -0.013825 0.000000
# 2 -0.000128 0.006952 -0.000198 0.000000 0.000230 0.000000
# 3 -0.000194 -0.000198 0.002732 0.000000 -0.001561 0.000000
# 4 0.000000 0.000000 0.000000 -0.003898 0.000000 -0.004296
# 5 -0.013825 0.000230 -0.001561 0.000000 0.038589 0.000000
# 6 0.000000 0.000000 0.000000 -0.004296 0.000000 -0.180388
#
#
# Mechanical properties :
#
#
# Convention : Reuss Voigt Hill
#
# Bulk Modulus (GPa) = 43.07289 79.87714 61.47501
# Shear Modulus (GPa) = -44.37907 -6.13608 -25.25757
#
# Velocity S-wave (km/s) = -3.98205 -1.48069 -3.00409
# Velocity P-wave (km/s) = 2.39839 5.06132 3.15156
#
# Compressibility (1/GPa) = 0.02321646
#
# Stress axis : x y z
#
# Youngs Moduli (GPa) = 68.63022 143.84779 366.03253
#
# Poissons Ratio (x) = 0.01836 0.07093
# Poissons Ratio (y) = 0.00876 0.07236
# Poissons Ratio (z) = 0.01330 0.02844
#
# Static dielectric constant tensor:
#      x y z
#    x 2.336000 0.000000 -0.165100 
#    y 0.000000 1.857310 0.000000 
#    z -0.165100 0.000000 2.410190 
# 
# From -- ./inp_files/276044.got.cif
#   From: 2010.05.17/outbox.cif.g08.bks.cpg/sg12_139_cif.got.tgz:276044.got - 2010.06.03 13:09:07.
