data_PCOD9177542
_publ_section_title
;
Structure prediction by ZEFSAII (Michael W. Deem and Ramdas Pophale) SiO2 
 PCOD9177542
Probable space group: C 2/M
;
_chemical_formula_sum "Si O2"
_cell_formula_units_Z 56
_cell_length_a 15.816082
_cell_length_b 14.586903
_cell_length_c 15.044090
_cell_angle_alpha 90.000000
_cell_angle_beta 126.133373
_cell_angle_gamma 90.000000
_cell_volume 2803.168941
_symmetry_space_group_name_H-M "C 2/M"
_symmetry_group_IT_number 12
_symmetry_cell_setting 'monoclinic'
loop_
_space_group_symop_operation_xyz
x,y,z
-x,y,-z
-x,-y,-z
x,-y,z
1/2+x,1/2+y,z
1/2-x,1/2+y,-z
1/2-x,1/2-y,-z
1/2+x,1/2-y,z
loop_
_atom_site_type_symbol
_atom_site_label
_atom_site_fract_x
_atom_site_fract_y
_atom_site_fract_z
Si Si1 0.120146 0.106266 0.599537
Si Si2 0.241533 0.717167 0.621882
Si Si3 0.416053 0.175877 0.790696
Si Si4 0.856059 0.611310 0.078506
Si Si5 0.110409 0.603218 0.413366
Si Si6 0.758356 0.391377 0.841232
Si Si7 0.371510 0.890034 0.291134
O O1 0.187497 0.182881 0.592179
O O2 0.149578 0.122891 0.721641
O O3 0.000000 0.117966 0.500000
O O4 0.148815 0.000000 0.596959
O O5 0.364731 0.732793 0.715753
O O6 0.200210 0.665195 0.510267
O O7 0.193826 0.661207 0.675160
O O8 0.538516 0.165269 0.883402
O O9 0.396203 0.105191 0.697256
O O10 0.347771 0.154346 0.835325
O O11 0.875576 0.500000 0.087574
O O12 0.833925 0.632689 0.167706
O O13 0.769287 0.634424 0.950854
O O14 0.125785 0.500000 0.454445
O O15 0.994881 0.634989 0.373460
O O16 0.779153 0.500000 0.850098
O O17 0.365245 0.000000 0.298130
#
# Coordination Sequence:
#
# PCOD9177542 Si02
#       7
#     8   8   8   8   8   8   8
#     4   9  18  31  46  68 100 135 167 198 238 297
#     4  11  20  31  48  72 103 138 169 202 254 311
#     4  10  19  29  43  71 104 130 162 204 252 304
#     4   9  17  31  52  75  99 128 166 215 262 300
#     4  10  19  32  51  73  99 132 171 217 263 303
#     4   9  16  28  49  72  95 129 168 206 252 299
#     4   9  18  32  51  75 101 130 168 216 263 303
#
# _framework density 19.977391000000001
#
# number of rings (size 3 to 8) (size 9 to 14) (size 15 to 20)
#    0.000    2.429    0.000    4.714    0.000    3.429 
#    0.000    2.857    0.000    1.714    0.000    3.000 
#    0.000   36.571    0.000    0.000    0.000    3.000 
#
# Total GULP energy -156132.579755 kJ/mol
# GULP energy per Si atom -5576.163563 kJ/mol
# Density = 1.993192 g / cm^3
# Si number density = 19.977391 Si / 1000 Ang^3
#
#
#
# Elastic Constant Matrix: (Units=GPa)
#
#
# Indices 1 2 3 4 5 6 
#
# 1 46.5692 9.7135 27.0465 0.0000 -6.1272 0.0000
# 2 9.7135 40.6164 31.5968 0.0000 3.8432 0.0000
# 3 27.0465 31.5968 143.1670 0.0000 -4.3913 0.0000
# 4 0.0000 0.0000 0.0000 26.4492 0.0000 0.4798
# 5 -6.1272 3.8432 -4.3913 0.0000 23.1206 0.0000
# 6 0.0000 0.0000 0.0000 0.4798 0.0000 0.1407
#
#
#
# Elastic Compliance Matrix: (Units=1/GPa)
#
#
# Indices 1 2 3 4 5 6 
#
# 1 0.025306 -0.003763 -0.003747 0.000000 0.006620 0.000000
# 2 -0.003763 0.031201 -0.006402 0.000000 -0.007400 0.000000
# 3 -0.003747 -0.006402 0.009161 0.000000 0.001811 0.000000
# 4 0.000000 0.000000 0.000000 0.040303 0.000000 -0.137496
# 5 0.006620 -0.007400 0.001811 0.000000 0.046580 0.000000
# 6 0.000000 0.000000 0.000000 -0.137496 0.000000 7.578805
#
#
# Mechanical properties :
#
#
# Convention : Reuss Voigt Hill
#
# Bulk Modulus (GPa) = 26.42490 40.78511 33.60500
# Shear Modulus (GPa) = 0.64335 20.74181 10.69258
#
# Velocity S-wave (km/s) = 0.56810 3.22571 2.31602
# Velocity P-wave (km/s) = 3.69952 5.85948 4.90000
#
# Compressibility (1/GPa) = 0.03784310
#
# Stress axis : x y z
#
# Youngs Moduli (GPa) = 39.51690 32.05007 109.15608
#
# Poissons Ratio (x) = 0.12062 0.40901
# Poissons Ratio (y) = 0.14872 0.69882
# Poissons Ratio (z) = 0.14807 0.20519
#
# Static dielectric constant tensor:
#      x y z
#    x 1.714090 0.000000 0.003080 
#    y 0.000000 1.723040 0.000000 
#    z 0.003080 0.000000 1.760830 
# 
# From -- ./inp_files/225376.got.cif
#   From: 2010.05.17/outbox.cif.g08.bks.cpg/sg12_113_cif.got.tgz:225376.got - 2010.06.03 13:09:07.
