data_PCOD9177161
_publ_section_title
;
Structure prediction by ZEFSAII (Michael W. Deem and Ramdas Pophale) SiO2 
 PCOD9177161
Probable space group: C 2/M
;
_chemical_formula_sum "Si O2"
_cell_formula_units_Z 52
_cell_length_a 5.667797
_cell_length_b 27.367656
_cell_length_c 15.445624
_cell_angle_alpha 90.000000
_cell_angle_beta 74.477928
_cell_angle_gamma 90.000000
_cell_volume 2308.455102
_symmetry_space_group_name_H-M "C 2/M"
_symmetry_group_IT_number 12
_symmetry_cell_setting 'monoclinic'
loop_
_space_group_symop_operation_xyz
x,y,z
-x,y,-z
-x,-y,-z
x,-y,z
1/2+x,1/2+y,z
1/2-x,1/2+y,-z
1/2-x,1/2-y,-z
1/2+x,1/2-y,z
loop_
_atom_site_type_symbol
_atom_site_label
_atom_site_fract_x
_atom_site_fract_y
_atom_site_fract_z
Si Si1 0.521313 0.052622 0.367077
Si Si2 0.780648 0.854578 0.587117
Si Si3 0.519740 0.402017 0.727845
Si Si4 0.289871 0.849960 0.850040
Si Si5 0.415537 0.222078 0.279041
Si Si6 0.000000 0.219608 0.000000
Si Si7 0.554473 0.054708 0.835027
O O1 0.384418 0.098714 0.420982
O O2 0.812076 0.060317 0.341673
O O3 0.476851 0.052745 0.266971
O O4 0.440839 0.000000 0.408126
O O5 0.631683 0.806553 0.626184
O O6 0.000000 0.846576 0.500000
O O7 0.887592 0.870110 0.669595
O O8 0.688531 0.366939 0.767468
O O9 0.337547 0.429185 0.811763
O O10 0.515786 0.814895 0.805804
O O11 0.386011 0.900451 0.883957
O O12 0.088280 0.817444 0.916587
O O13 0.665145 0.252062 0.273218
O O14 0.750000 0.250000 0.000000
O O15 0.507104 0.000000 0.873228
#
# Coordination Sequence:
#
# PCOD9177161 Si02
#       7
#     8   8   8   8   8   4   8
#     4   9  18  35  59  92 127 172 224 276 341 406
#     4  11  24  40  59  91 132 173 228 290 339 399
#     4  10  18  38  65  92 132 180 220 273 339 405
#     4  11  23  44  70  99 137 173 222 279 343 409
#     4  12  25  43  68  91 123 173 226 274 336 399
#     4  12  30  48  75 112 143 178 230 290 344 400
#     4   9  18  34  66 100 131 173 223 269 331 414
#
# _framework density 22.525887999999998
#
# number of rings (size 3 to 8) (size 9 to 14) (size 15 to 20)
#    0.000    1.538    4.615    2.308    2.154    2.769 
#    0.000    1.154    0.000    0.923    0.000    0.000 
#    0.000    0.000    0.000    0.000    0.000    0.000 
#
# Total GULP energy -145078.734860 kJ/mol
# GULP energy per Si atom -5579.951341 kJ/mol
# Density = 2.247462 g / cm^3
# Si number density = 22.525888 Si / 1000 Ang^3
#
#
#
# Elastic Constant Matrix: (Units=GPa)
#
#
# Indices 1 2 3 4 5 6 
#
# 1 95.8557 52.3852 4.2836 0.0000 -19.5295 0.0000
# 2 52.3852 143.8263 30.4396 0.0000 -22.7654 0.0000
# 3 4.2836 30.4396 47.6919 0.0000 -23.6658 0.0000
# 4 0.0000 0.0000 0.0000 -5.6407 0.0000 -11.4579
# 5 -19.5295 -22.7654 -23.6658 0.0000 29.8402 0.0000
# 6 0.0000 0.0000 0.0000 -11.4579 0.0000 27.5470
#
#
#
# Elastic Compliance Matrix: (Units=1/GPa)
#
#
# Indices 1 2 3 4 5 6 
#
# 1 0.015631 -0.005455 0.008391 0.000000 0.012723 0.000000
# 2 -0.005455 0.010158 -0.006463 0.000000 -0.000946 0.000000
# 3 0.008391 -0.006463 0.040593 0.000000 0.032755 0.000000
# 4 0.000000 0.000000 0.000000 -0.096094 0.000000 -0.039969
# 5 0.012723 -0.000946 0.032755 0.000000 0.067094 0.000000
# 6 0.000000 0.000000 0.000000 -0.039969 0.000000 0.019677
#
#
# Mechanical properties :
#
#
# Convention : Reuss Voigt Hill
#
# Bulk Modulus (GPa) = 16.85546 51.28786 34.07166
# Shear Modulus (GPa) = 59.60336 23.70034 41.65185
#
# Velocity S-wave (km/s) = 5.14950 3.24719 4.30474
# Velocity P-wave (km/s) = 6.54641 6.07263 6.31396
#
# Compressibility (1/GPa) = 0.05932795
#
# Stress axis : x y z
#
# Youngs Moduli (GPa) = 63.97603 98.44670 24.63487
#
# Poissons Ratio (x) = 0.53705 -0.20672
# Poissons Ratio (y) = 0.34901 0.15921
# Poissons Ratio (z) = -0.53685 0.63625
#
# Static dielectric constant tensor:
#      x y z
#    x 1.970930 0.000000 -0.028830 
#    y 0.000000 1.924070 0.000000 
#    z -0.028830 0.000000 1.855580 
# 
# From -- ./inp_files/253441.got.cif
#   From: 2010.05.17/outbox.cif.g08.bks.cpg/sg12_127_cif.got.tgz:253441.got - 2010.06.03 13:09:07.
