data_PCOD9177369
_publ_section_title
;
Structure prediction by ZEFSAII (Michael W. Deem and Ramdas Pophale) SiO2 
 PCOD9177369
Probable space group: C 2/M
;
_chemical_formula_sum "Si O2"
_cell_formula_units_Z 64
_cell_length_a 19.909448
_cell_length_b 18.454563
_cell_length_c 22.469843
_cell_angle_alpha 90.000000
_cell_angle_beta 26.813158
_cell_angle_gamma 90.000000
_cell_volume 3724.080092
_symmetry_space_group_name_H-M "C 2/M"
_symmetry_group_IT_number 12
_symmetry_cell_setting 'monoclinic'
loop_
_space_group_symop_operation_xyz
x,y,z
-x,y,-z
-x,-y,-z
x,-y,z
1/2+x,1/2+y,z
1/2-x,1/2+y,-z
1/2-x,1/2-y,-z
1/2+x,1/2-y,z
loop_
_atom_site_type_symbol
_atom_site_label
_atom_site_fract_x
_atom_site_fract_y
_atom_site_fract_z
Si Si1 0.424046 0.420432 0.495838
Si Si2 0.335406 0.806561 0.282597
Si Si3 0.395787 0.081133 0.947633
Si Si4 0.828314 0.080972 0.115390
Si Si5 0.262201 0.358518 0.037885
Si Si6 0.469772 0.271195 0.785362
Si Si7 0.647152 0.646575 0.229258
Si Si8 0.172017 0.233828 0.839095
O O1 0.500000 0.421816 0.500000
O O2 0.356646 0.500000 0.537353
O O3 0.304466 0.356564 0.592207
O O4 0.553455 0.403659 0.346715
O O5 0.472828 0.860469 0.158990
O O6 0.381187 0.760240 0.304177
O O7 0.318789 0.757773 0.236809
O O8 0.310171 0.087055 0.952363
O O9 0.450431 0.000000 0.915018
O O10 0.276887 0.104824 0.091305
O O11 0.813049 0.103917 0.058235
O O12 0.771096 0.151637 0.196025
O O13 0.763270 0.000000 0.175821
O O14 0.000000 0.076255 0.000000
O O15 0.138725 0.295990 0.145366
O O16 0.393200 0.316182 0.899780
O O17 0.465383 0.320792 0.730948
O O18 0.728332 0.710415 0.201761
O O19 0.000000 0.237654 0.000000
#
# Coordination Sequence:
#
# PCOD9177369 Si02
#       8
#     8   8   8   8   8   8   8   8
#     4  11  24  39  54  78 114 145 178 221 271 326
#     4  11  21  36  56  80 108 146 180 224 268 312
#     4  10  20  33  54  82 111 141 178 218 272 323
#     4  10  19  28  46  76 112 144 172 219 278 322
#     4   9  16  30  49  77 113 137 172 220 273 309
#     4   9  18  31  54  80 100 140 181 224 257 315
#     4  11  20  36  56  79 107 146 181 222 266 311
#     4  11  19  33  54  81 109 140 183 226 259 319
#
# _framework density 17.185452000000002
#
# number of rings (size 3 to 8) (size 9 to 14) (size 15 to 20)
#    0.000    1.750    3.750    3.375    0.000    0.500 
#    0.000    0.625    0.000    0.750    0.000    1.750 
#    0.000    0.000    0.000    0.000    0.000    0.000 
#
# Total GULP energy -178410.394002 kJ/mol
# GULP energy per Si atom -5575.324813 kJ/mol
# Density = 1.714634 g / cm^3
# Si number density = 17.185452 Si / 1000 Ang^3
#
#
#
# Elastic Constant Matrix: (Units=GPa)
#
#
# Indices 1 2 3 4 5 6 
#
# 1 90.7085 31.3049 7.5613 0.0061 10.4181 -0.0050
# 2 31.3049 88.7827 -0.2109 0.0087 8.0534 -0.0093
# 3 7.5613 -0.2109 36.4378 -0.0014 4.4513 0.0001
# 4 0.0061 0.0087 -0.0014 -2.2547 0.0020 -0.1622
# 5 10.4181 8.0534 4.4513 0.0020 17.5978 0.0005
# 6 -0.0050 -0.0093 0.0001 -0.1622 0.0005 -6.4050
#
#
#
# Elastic Compliance Matrix: (Units=1/GPa)
#
#
# Indices 1 2 3 4 5 6 
#
# 1 0.013268 -0.004194 -0.002118 0.000017 -0.005400 -0.000005
# 2 -0.004194 0.013097 0.001419 0.000036 -0.003870 -0.000017
# 3 -0.002118 0.001419 0.028705 -0.000024 -0.006656 0.000000
# 4 0.000017 0.000036 -0.000024 -0.444322 0.000030 0.011250
# 5 -0.005400 -0.003870 -0.006656 0.000030 0.063477 0.000014
# 6 -0.000005 -0.000017 0.000000 0.011250 0.000014 -0.156414
#
#
# Mechanical properties :
#
#
# Convention : Reuss Voigt Hill
#
# Bulk Modulus (GPa) = 22.08280 32.58218 27.33249
# Shear Modulus (GPa) = -10.93354 13.60587 1.33616
#
# Velocity S-wave (km/s) = -2.52505 2.81678 0.88271
# Velocity P-wave (km/s) = 2.09198 5.43869 4.12042
#
# Compressibility (1/GPa) = 0.04528412
#
# Stress axis : x y z
#
# Youngs Moduli (GPa) = 75.36722 76.35621 34.83732
#
# Poissons Ratio (x) = 0.32021 0.07378
# Poissons Ratio (y) = 0.31606 -0.04943
# Poissons Ratio (z) = 0.15962 -0.10833
#
# Static dielectric constant tensor:
#      x y z
#    x 1.590570 0.000000 -0.000990 
#    y 0.000000 1.606980 0.000000 
#    z -0.000990 0.000000 1.551480 
# 
# From -- ./inp_files/322423.got.cif
#   From: 2010.05.17/outbox.cif.g08.bks.cpg/sg12_162_cif.got.tgz:322423.got - 2010.06.03 13:09:07.
