data_PCOD9177191
_publ_section_title
;
Structure prediction by ZEFSAII (Michael W. Deem and Ramdas Pophale) SiO2 
 PCOD9177191
Probable space group: C 2/M
;
_chemical_formula_sum "Si O2"
_cell_formula_units_Z 40
_cell_length_a 7.227578
_cell_length_b 29.494181
_cell_length_c 10.646518
_cell_angle_alpha 90.000000
_cell_angle_beta 135.715323
_cell_angle_gamma 90.000000
_cell_volume 1584.642886
_symmetry_space_group_name_H-M "C 2/M"
_symmetry_group_IT_number 12
_symmetry_cell_setting 'monoclinic'
loop_
_space_group_symop_operation_xyz
x,y,z
-x,y,-z
-x,-y,-z
x,-y,z
1/2+x,1/2+y,z
1/2-x,1/2+y,-z
1/2-x,1/2-y,-z
1/2+x,1/2-y,z
loop_
_atom_site_type_symbol
_atom_site_label
_atom_site_fract_x
_atom_site_fract_y
_atom_site_fract_z
Si Si1 0.223822 0.000000 0.003462
Si Si2 0.000000 0.332889 0.500000
Si Si3 0.500000 0.252968 0.000000
Si Si4 0.710854 0.100866 0.391984
Si Si5 0.079607 0.189907 0.809012
Si Si6 0.140595 0.500000 0.430524
Si Si7 0.704119 0.596608 0.978943
O O1 0.187056 0.953618 0.911881
O O2 0.473381 0.000000 0.217852
O O3 0.000000 0.000000 0.000000
O O4 0.945168 0.366645 0.588428
O O5 0.731079 0.304458 0.362484
O O6 0.286514 0.219355 0.830351
O O7 0.637873 0.288166 0.973317
O O8 0.760124 0.050718 0.475865
O O9 0.501496 0.099126 0.176510
O O10 0.000000 0.119994 0.500000
O O11 0.135540 0.136989 0.852567
O O12 0.000000 0.500000 0.500000
O O13 0.500000 0.598688 0.000000
#
# Coordination Sequence:
#
# PCOD9177191 Si02
#       7
#     4   4   4   8   8   4   8
#     4   8  18  29  60  92 116 174 211 243 304 382
#     4  12  24  41  64  98 126 164 210 267 328 384
#     4  10  24  44  68  90 122 168 210 264 332 390
#     4  11  23  37  61  95 130 172 219 264 315 377
#     4  11  23  43  67  94 125 166 212 267 326 390
#     4  10  19  37  58  86 131 174 218 264 313 368
#     4  10  18  39  62  90 130 171 210 254 321 381
#
# _framework density 25.242283
#
# number of rings (size 3 to 8) (size 9 to 14) (size 15 to 20)
#    0.000    1.600    4.000    0.300    2.800    0.800 
#    0.000    0.000    0.000    0.600    0.000    0.000 
#    0.000    0.000    0.000    0.000    0.000    0.000 
#
# Total GULP energy -111674.748797 kJ/mol
# GULP energy per Si atom -5583.737440 kJ/mol
# Density = 2.518483 g / cm^3
# Si number density = 25.242283 Si / 1000 Ang^3
#
#
#
# Elastic Constant Matrix: (Units=GPa)
#
#
# Indices 1 2 3 4 5 6 
#
# 1 78.9330 23.1537 22.3394 0.0000 29.0766 0.0000
# 2 23.1537 137.6218 29.1077 0.0000 6.0212 0.0000
# 3 22.3394 29.1077 125.9023 0.0000 36.9053 0.0000
# 4 0.0000 0.0000 0.0000 28.9613 0.0000 18.2586
# 5 29.0766 6.0212 36.9053 0.0000 39.2259 0.0000
# 6 0.0000 0.0000 0.0000 18.2586 0.0000 18.4919
#
#
#
# Elastic Compliance Matrix: (Units=1/GPa)
#
#
# Indices 1 2 3 4 5 6 
#
# 1 0.018502 -0.002829 0.001745 0.000000 -0.014923 0.000000
# 2 -0.002829 0.008085 -0.002234 0.000000 0.002958 0.000000
# 3 0.001745 -0.002234 0.011638 0.000000 -0.011900 0.000000
# 4 0.000000 0.000000 0.000000 0.091466 0.000000 -0.090312
# 5 -0.014923 0.002958 -0.011900 0.000000 0.047297 0.000000
# 6 0.000000 0.000000 0.000000 -0.090312 0.000000 0.143250
#
#
# Mechanical properties :
#
#
# Convention : Reuss Voigt Hill
#
# Bulk Modulus (GPa) = 31.65667 54.62873 43.14270
# Shear Modulus (GPa) = 14.81906 35.19290 25.00598
#
# Velocity S-wave (km/s) = 2.42559 3.73796 3.15086
# Velocity P-wave (km/s) = 4.51807 6.34968 5.51051
#
# Compressibility (1/GPa) = 0.03158892
#
# Stress axis : x y z
#
# Youngs Moduli (GPa) = 54.04848 123.67937 85.92690
#
# Poissons Ratio (x) = 0.34990 -0.14998
# Poissons Ratio (y) = 0.15291 0.19200
# Poissons Ratio (z) = -0.09434 0.27635
#
# Static dielectric constant tensor:
#      x y z
#    x 2.150540 0.000000 0.160410 
#    y 0.000000 2.009390 0.000000 
#    z 0.160410 0.000000 2.112860 
# 
# From -- ./inp_files/201443.got.cif
#   From: 2010.05.17/outbox.cif.g08.bks.cpg/sg12_101_cif.got.tgz:201443.got - 2010.06.03 13:09:07.
