data_PCOD9177312
_publ_section_title
;
Structure prediction by ZEFSAII (Michael W. Deem and Ramdas Pophale) SiO2 
 PCOD9177312
Probable space group: C 2/M
;
_chemical_formula_sum "Si O2"
_cell_formula_units_Z 56
_cell_length_a 31.370429
_cell_length_b 14.252945
_cell_length_c 7.920462
_cell_angle_alpha 90.000000
_cell_angle_beta 104.624390
_cell_angle_gamma 90.000000
_cell_volume 3426.669670
_symmetry_space_group_name_H-M "C 2/M"
_symmetry_group_IT_number 12
_symmetry_cell_setting 'monoclinic'
loop_
_space_group_symop_operation_xyz
x,y,z
-x,y,-z
-x,-y,-z
x,-y,z
1/2+x,1/2+y,z
1/2-x,1/2+y,-z
1/2-x,1/2-y,-z
1/2+x,1/2-y,z
loop_
_atom_site_type_symbol
_atom_site_label
_atom_site_fract_x
_atom_site_fract_y
_atom_site_fract_z
Si Si1 0.095856 0.391968 0.800260
Si Si2 0.314705 0.205449 0.016308
Si Si3 0.227401 0.896237 0.026422
Si Si4 0.595856 0.108032 0.391451
Si Si5 1.000000 0.614079 0.695833
Si Si6 0.727400 0.396237 0.428379
Si Si7 0.185295 0.294551 0.386898
O O1 0.103315 0.500000 0.863465
O O2 0.093521 0.393881 0.593521
O O3 0.047637 0.359440 0.816549
O O4 0.136576 0.328060 0.891703
O O5 0.301686 0.309251 0.068814
O O6 0.309601 0.205785 0.809602
O O7 0.278056 0.133992 0.049667
O O8 0.219876 0.900664 0.219876
O O9 0.219046 0.000000 0.947103
O O10 0.547637 0.140560 0.278725
O O11 0.636576 0.171939 0.381448
O O12 0.603315 0.000000 0.343165
O O13 1.000000 0.500000 0.694986
O O14 0.000000 0.645037 0.500000
O O15 0.719046 0.500000 0.490989
O O16 0.778055 0.366008 0.506446
O O17 0.698314 0.309251 0.465442
#
# Coordination Sequence:
#
# PCOD9177312 Si02
#       7
#     8   8   8   8   8   8   8
#     4   9  16  27  43  61  83 111 138 162 193 238
#     4  10  19  28  41  63  85 104 132 170 206 236
#     4   9  18  32  45  56  77 111 143 166 193 236
#     4   9  16  27  43  61  83 111 138 162 193 238
#     4   7  12  24  41  59  78 105 140 166 185 227
#     4   9  18  32  45  56  77 111 143 166 193 236
#     4  10  19  28  41  63  85 104 132 170 206 236
#
# _framework density 16.342396999999998
#
# number of rings (size 3 to 8) (size 9 to 14) (size 15 to 20)
#    0.000    3.000    0.000    3.429    0.000    5.714 
#    0.000    0.714    0.000    2.571    0.000    1.000 
#    0.000    8.000    0.000    0.000    0.000    0.000 
#
# Total GULP energy -155908.096917 kJ/mol
# GULP energy per Si atom -5568.146318 kJ/mol
# Density = 1.630520 g / cm^3
# Si number density = 16.342397 Si / 1000 Ang^3
#
#
#
# Elastic Constant Matrix: (Units=GPa)
#
#
# Indices 1 2 3 4 5 6 
#
# 1 119.9475 50.7995 -6.5640 0.0000 22.5408 0.0000
# 2 50.7995 94.3833 4.5456 0.0000 11.6699 0.0000
# 3 -6.5640 4.5456 13.5906 0.0000 4.2931 0.0000
# 4 0.0000 0.0000 0.0000 11.9272 0.0000 2.2339
# 5 22.5408 11.6699 4.2931 0.0000 23.1890 0.0000
# 6 0.0000 0.0000 0.0000 2.2339 0.0000 20.7818
#
#
#
# Elastic Compliance Matrix: (Units=1/GPa)
#
#
# Indices 1 2 3 4 5 6 
#
# 1 0.014386 -0.006772 0.013334 0.000000 -0.013044 0.000000
# 2 -0.006772 0.014543 -0.008394 0.000000 0.000818 0.000000
# 3 0.013334 -0.008394 0.090904 0.000000 -0.025567 0.000000
# 4 0.000000 0.000000 0.000000 0.085565 0.000000 -0.009198
# 5 -0.013044 0.000818 -0.025567 0.000000 0.060125 0.000000
# 6 0.000000 0.000000 0.000000 -0.009198 0.000000 0.049108
#
#
# Mechanical properties :
#
#
# Convention : Reuss Voigt Hill
#
# Bulk Modulus (GPa) = 8.60811 36.16484 22.38647
# Shear Modulus (GPa) = 14.00488 23.12228 18.56358
#
# Velocity S-wave (km/s) = 2.93057 3.76555 3.37399
# Velocity P-wave (km/s) = 4.09021 6.40963 5.37648
#
# Compressibility (1/GPa) = 0.11616952
#
# Stress axis : x y z
#
# Youngs Moduli (GPa) = 69.51124 68.76055 11.00062
#
# Poissons Ratio (x) = 0.46567 -0.14668
# Poissons Ratio (y) = 0.47075 0.09233
# Poissons Ratio (z) = -0.92686 0.57714
#
# Static dielectric constant tensor:
#      x y z
#    x 1.562460 0.000000 -0.008430 
#    y 0.000000 1.560160 0.000000 
#    z -0.008430 0.000000 1.595890 
# 
# From -- ./inp_files/110882.got.cif
#   From: 2010.05.17/outbox.cif.g08.bks.cpg/sg12_56_cif.got.tgz:110882.got - 2010.06.03 13:09:07.
