data_PCOD9177551
_publ_section_title
;
Structure prediction by ZEFSAII (Michael W. Deem and Ramdas Pophale) SiO2 
 PCOD9177551
Probable space group: C 2/M
;
_chemical_formula_sum "Si O2"
_cell_formula_units_Z 48
_cell_length_a 25.021292
_cell_length_b 11.096422
_cell_length_c 13.344181
_cell_angle_alpha 90.000000
_cell_angle_beta 34.723444
_cell_angle_gamma 90.000000
_cell_volume 2110.409366
_symmetry_space_group_name_H-M "C 2/M"
_symmetry_group_IT_number 12
_symmetry_cell_setting 'monoclinic'
loop_
_space_group_symop_operation_xyz
x,y,z
-x,y,-z
-x,-y,-z
x,-y,z
1/2+x,1/2+y,z
1/2-x,1/2+y,-z
1/2-x,1/2-y,-z
1/2+x,1/2-y,z
loop_
_atom_site_type_symbol
_atom_site_label
_atom_site_fract_x
_atom_site_fract_y
_atom_site_fract_z
Si Si1 0.355754 0.288729 0.467299
Si Si2 0.305674 0.628403 0.332705
Si Si3 0.760002 0.365579 0.159937
Si Si4 0.841113 0.635951 0.758035
Si Si5 0.504297 0.864334 0.661727
Si Si6 0.102959 0.630557 0.887969
O O1 0.333697 0.368712 0.405391
O O2 0.301938 0.162768 0.523425
O O3 0.307905 0.350049 0.637274
O O4 0.461575 0.246263 0.322519
O O5 0.329370 0.500000 0.250690
O O6 0.356254 0.744983 0.212870
O O7 0.743752 0.500000 0.141721
O O8 0.730200 0.246886 0.144942
O O9 0.865212 0.364468 0.044380
O O10 0.800236 0.500000 0.819329
O O11 0.905086 0.649022 0.758554
O O12 0.916228 0.639978 0.550209
O O13 0.510217 0.000000 0.695227
O O14 0.143575 0.500000 0.791891
O O15 0.000000 0.628822 0.000000
#
# Coordination Sequence:
#
# PCOD9177551 Si02
#       6
#     8   8   8   8   8   8
#     4   9  17  27  41  62  92 120 142 168 207 255
#     4  10  19  29  44  66  90 115 145 180 216 253
#     4   9  16  27  43  62  86 113 140 171 210 254
#     4   8  14  24  38  58  83 111 143 174 203 239
#     4   8  13  23  38  56  82 116 147 169 194 242
#     4   9  19  34  48  62  83 113 147 180 215 259
#
# _framework density 22.744403999999999
#
# number of rings (size 3 to 8) (size 9 to 14) (size 15 to 20)
#    0.000    3.167    0.000    2.000    0.000    9.000 
#    0.000    7.500    0.000    0.000    0.000    1.167 
#    0.000    0.000    0.000    0.000    0.000    0.000 
#
# Total GULP energy -133751.548718 kJ/mol
# GULP energy per Si atom -5572.981197 kJ/mol
# Density = 2.269264 g / cm^3
# Si number density = 22.744404 Si / 1000 Ang^3
#
#
#
# Elastic Constant Matrix: (Units=GPa)
#
#
# Indices 1 2 3 4 5 6 
#
# 1 77.3119 54.4642 16.9010 0.0000 -18.9767 0.0000
# 2 54.4642 215.2993 55.2892 0.0000 -26.6300 0.0000
# 3 16.9010 55.2892 53.4870 0.0000 -22.0749 0.0000
# 4 0.0000 0.0000 0.0000 20.7021 0.0000 -0.0518
# 5 -18.9767 -26.6300 -22.0749 0.0000 40.6296 0.0000
# 6 0.0000 0.0000 0.0000 -0.0518 0.0000 7.3889
#
#
#
# Elastic Compliance Matrix: (Units=1/GPa)
#
#
# Indices 1 2 3 4 5 6 
#
# 1 0.016838 -0.003795 0.001059 0.000000 0.005952 0.000000
# 2 -0.003795 0.007197 -0.006478 0.000000 -0.000575 0.000000
# 3 0.001059 -0.006478 0.030305 0.000000 0.012714 0.000000
# 4 0.000000 0.000000 0.000000 0.048305 0.000000 0.000339
# 5 0.005952 -0.000575 0.012714 0.000000 0.033924 0.000000
# 6 0.000000 0.000000 0.000000 0.000339 0.000000 0.135341
#
#
# Mechanical properties :
#
#
# Convention : Reuss Voigt Hill
#
# Bulk Modulus (GPa) = 27.84554 66.60077 47.22316
# Shear Modulus (GPa) = 16.53944 28.37370 22.45657
#
# Velocity S-wave (km/s) = 2.69957 3.53583 3.14561
# Velocity P-wave (km/s) = 4.68895 6.78346 5.83102
#
# Compressibility (1/GPa) = 0.03591239
#
# Stress axis : x y z
#
# Youngs Moduli (GPa) = 59.39039 138.94391 32.99819
#
# Poissons Ratio (x) = 0.52732 -0.03495
# Poissons Ratio (y) = 0.22540 0.21375
# Poissons Ratio (z) = -0.06291 0.90003
#
# Static dielectric constant tensor:
#      x y z
#    x 1.946710 0.000000 0.050980 
#    y 0.000000 1.827280 0.000000 
#    z 0.050980 0.000000 1.962860 
# 
# From -- ./inp_files/231488.got.cif
#   From: 2010.05.17/outbox.cif.g08.bks.cpg/sg12_116_cif.got.tgz:231488.got - 2010.06.03 13:09:07.
