data_PCOD9177517
_publ_section_title
;
Structure prediction by ZEFSAII (Michael W. Deem and Ramdas Pophale) SiO2 
 PCOD9177517
Probable space group: C 2/M
;
_chemical_formula_sum "Si O2"
_cell_formula_units_Z 64
_cell_length_a 15.904201
_cell_length_b 9.208768
_cell_length_c 19.582837
_cell_angle_alpha 90.000000
_cell_angle_beta 107.943165
_cell_angle_gamma 90.000000
_cell_volume 2728.569762
_symmetry_space_group_name_H-M "C 2/M"
_symmetry_group_IT_number 12
_symmetry_cell_setting 'monoclinic'
loop_
_space_group_symop_operation_xyz
x,y,z
-x,y,-z
-x,-y,-z
x,-y,z
1/2+x,1/2+y,z
1/2-x,1/2+y,-z
1/2-x,1/2-y,-z
1/2+x,1/2-y,z
loop_
_atom_site_type_symbol
_atom_site_label
_atom_site_fract_x
_atom_site_fract_y
_atom_site_fract_z
Si Si1 0.263122 0.333446 0.651757
Si Si2 0.282619 0.664737 0.225741
Si Si3 0.969629 0.831179 0.745685
Si Si4 0.925445 0.665367 0.868140
Si Si5 0.830398 0.665876 0.107083
Si Si6 0.001356 0.173861 0.608890
Si Si7 0.122032 0.165966 0.012529
Si Si8 0.853232 0.172565 0.473109
O O1 0.235547 0.500000 0.640317
O O2 0.218596 0.257390 0.705940
O O3 0.367268 0.329681 0.694120
O O4 0.232722 0.254678 0.575044
O O5 0.311688 0.500000 0.246946
O O6 0.179285 0.659854 0.177252
O O7 0.333670 0.733929 0.174712
O O8 0.972018 0.732912 0.813368
O O9 0.018507 0.774372 0.689905
O O10 0.991007 0.000000 0.767390
O O11 0.952439 0.500000 0.889877
O O12 0.927961 0.768025 0.934824
O O13 0.855721 0.500000 0.127750
O O14 0.726223 0.663215 0.059882
O O15 0.880301 0.732961 0.054627
O O16 0.910850 0.228110 0.551315
O O17 0.078211 0.192430 0.573164
O O18 0.989443 0.000000 0.613045
O O19 0.096926 0.000000 0.991144
O O20 0.836523 0.000000 0.477026
#
# Coordination Sequence:
#
# PCOD9177517 Si02
#       8
#     8   8   8   8   8   8   8   8
#     4  10  19  29  43  66  94 120 146 182 229 274
#     4   9  16  26  39  55  79 113 150 184 219 264
#     4   9  17  30  46  64  89 120 151 183 223 272
#     4   9  16  25  37  56  82 111 145 185 226 264
#     4   9  15  22  33  51  77 109 145 185 225 263
#     4   8  16  32  52  69  86 115 153 187 220 264
#     4   9  15  22  33  50  75 111 150 182 217 265
#     4   9  17  32  52  69  87 115 151 187 222 265
#
# _framework density 23.455511000000001
#
# number of rings (size 3 to 8) (size 9 to 14) (size 15 to 20)
#    0.000    3.000    0.000    2.625    0.000    7.000 
#    0.000    2.500    0.000    0.000    0.000    0.000 
#    0.000    1.000    0.000   10.750    0.000   15.500 
#
# Total GULP energy -179022.861796 kJ/mol
# GULP energy per Si atom -5594.464431 kJ/mol
# Density = 2.340213 g / cm^3
# Si number density = 23.455511 Si / 1000 Ang^3
#
#
#
# Elastic Constant Matrix: (Units=GPa)
#
#
# Indices 1 2 3 4 5 6 
#
# 1 80.6380 6.3886 12.4343 0.0000 -8.8899 0.0000
# 2 6.3886 113.5463 40.7006 0.0000 -9.4868 0.0000
# 3 12.4343 40.7006 122.3435 0.0000 -12.8212 0.0000
# 4 0.0000 0.0000 0.0000 31.3377 0.0000 4.1478
# 5 -8.8899 -9.4868 -12.8212 0.0000 54.3328 0.0000
# 6 0.0000 0.0000 0.0000 4.1478 0.0000 9.6128
#
#
#
# Elastic Compliance Matrix: (Units=1/GPa)
#
#
# Indices 1 2 3 4 5 6 
#
# 1 0.012777 -0.000193 -0.001045 0.000000 0.001810 0.000000
# 2 -0.000193 0.010054 -0.003224 0.000000 0.000963 0.000000
# 3 -0.001045 -0.003224 0.009511 0.000000 0.001510 0.000000
# 4 0.000000 0.000000 0.000000 0.033843 0.000000 -0.014603
# 5 0.001810 0.000963 0.001510 0.000000 0.019226 0.000000
# 6 0.000000 0.000000 0.000000 -0.014603 0.000000 0.110329
#
#
# Mechanical properties :
#
#
# Convention : Reuss Voigt Hill
#
# Bulk Modulus (GPa) = 42.70232 48.39718 45.54975
# Shear Modulus (GPa) = 23.53279 36.19029 29.86154
#
# Velocity S-wave (km/s) = 3.17092 3.93228 3.57194
# Velocity P-wave (km/s) = 5.62597 6.42616 6.03933
#
# Compressibility (1/GPa) = 0.02341793
#
# Stress axis : x y z
#
# Youngs Moduli (GPa) = 78.26529 99.46277 105.14405
#
# Poissons Ratio (x) = 0.01922 0.10983
# Poissons Ratio (y) = 0.01512 0.33900
# Poissons Ratio (z) = 0.08176 0.32068
#
# Static dielectric constant tensor:
#      x y z
#    x 2.030800 0.000000 0.018470 
#    y 0.000000 1.787480 0.000000 
#    z 0.018470 0.000000 1.847070 
# 
# From -- ./inp_files/287747.got.cif
#   From: 2010.05.17/outbox.cif.g08.bks.cpg/sg12_144_cif.got.tgz:287747.got - 2010.06.03 13:09:07.
