data_PCOD9177236
_publ_section_title
;
Structure prediction by ZEFSAII (Michael W. Deem and Ramdas Pophale) SiO2 
 PCOD9177236
Probable space group: C 2/M
;
_chemical_formula_sum "Si O2"
_cell_formula_units_Z 34
_cell_length_a 16.123363
_cell_length_b 18.045798
_cell_length_c 7.935396
_cell_angle_alpha 90.000000
_cell_angle_beta 130.012153
_cell_angle_gamma 90.000000
_cell_volume 1768.385647
_symmetry_space_group_name_H-M "C 2/M"
_symmetry_group_IT_number 12
_symmetry_cell_setting 'monoclinic'
loop_
_space_group_symop_operation_xyz
x,y,z
-x,y,-z
-x,-y,-z
x,-y,z
1/2+x,1/2+y,z
1/2-x,1/2+y,-z
1/2-x,1/2-y,-z
1/2+x,1/2-y,z
loop_
_atom_site_type_symbol
_atom_site_label
_atom_site_fract_x
_atom_site_fract_y
_atom_site_fract_z
Si Si1 0.905991 0.500000 0.236598
Si Si2 0.775426 0.500000 0.524009
Si Si3 0.976695 0.000000 0.769025
Si Si4 0.000000 0.500000 0.000000
Si Si5 0.442595 0.660441 0.109634
Si Si6 0.500000 0.764194 0.500000
Si Si7 0.299991 0.873019 0.275319
O O1 0.832716 0.428182 0.166876
O O2 0.000000 0.500000 0.500000
O O3 0.975540 0.500000 0.163181
O O4 0.651836 0.500000 0.427745
O O5 0.788708 0.427411 0.421854
O O6 0.865793 0.500000 0.784220
O O7 0.028703 0.922178 0.784349
O O8 0.000000 0.000000 0.000000
O O9 0.475123 0.716589 0.299905
O O10 0.500000 0.671172 0.000000
O O11 0.314784 0.664211 0.907994
O O12 0.397424 0.815302 0.413283
#
# Coordination Sequence:
#
# PCOD9177236 Si02
#       7
#     4   4   4   2   8   4   8
#     4  11  21  41  67  95 130 173 221 275 329 379
#     4  11  20  40  75  96 127 171 225 274 328 380
#     4  10  18  42  71  95 118 170 230 273 318 379
#     4  12  22  34  62 108 128 162 220 262 338 392
#     4  11  24  44  69  95 127 179 224 272 334 385
#     4  12  26  40  60 102 138 174 220 260 336 416
#     4  11  21  46  66  92 142 174 211 285 329 386
#
# _framework density 19.226576999999999
#
# number of rings (size 3 to 8) (size 9 to 14) (size 15 to 20)
#    0.000    0.941    8.235    1.412    0.000    3.294 
#    8.471    0.000    0.000    0.000    0.000    0.000 
#    0.000    0.000    0.000    0.000    0.000    0.000 
#
# Total GULP energy -94636.155588 kJ/mol
# GULP energy per Si atom -5566.832682 kJ/mol
# Density = 1.918282 g / cm^3
# Si number density = 19.226577 Si / 1000 Ang^3
#
#
#
# Elastic Constant Matrix: (Units=GPa)
#
#
# Indices 1 2 3 4 5 6 
#
# 1 93.9372 32.1907 58.4318 0.0000 17.6153 0.0000
# 2 32.1907 118.5047 58.5282 0.0000 11.9421 0.0000
# 3 58.4318 58.5282 153.5569 0.0000 25.7257 0.0000
# 4 0.0000 0.0000 0.0000 -15.5711 0.0000 -17.2991
# 5 17.6153 11.9421 25.7257 0.0000 53.3216 0.0000
# 6 0.0000 0.0000 0.0000 -17.2991 0.0000 -22.7661
#
#
#
# Elastic Compliance Matrix: (Units=1/GPa)
#
#
# Indices 1 2 3 4 5 6 
#
# 1 0.014389 -0.001434 -0.004554 0.000000 -0.002235 0.000000
# 2 -0.001434 0.010548 -0.003436 0.000000 -0.000231 0.000000
# 3 -0.004554 -0.003436 0.009981 0.000000 -0.002541 0.000000
# 4 0.000000 0.000000 0.000000 -0.412164 0.000000 0.313186
# 5 -0.002235 -0.000231 -0.002541 0.000000 0.020770 0.000000
# 6 0.000000 0.000000 0.000000 0.313186 0.000000 -0.281902
#
#
# Mechanical properties :
#
#
# Convention : Reuss Voigt Hill
#
# Bulk Modulus (GPa) = 62.23174 73.81114 68.02144
# Shear Modulus (GPa) = -8.14103 17.45342 4.65620
#
# Velocity S-wave (km/s) = -2.05996 3.01620 1.55789
# Velocity P-wave (km/s) = 5.17493 7.11361 6.22026
#
# Compressibility (1/GPa) = 0.01606897
#
# Stress axis : x y z
#
# Youngs Moduli (GPa) = 69.49834 94.80139 100.19399
#
# Poissons Ratio (x) = 0.13595 0.45631
# Poissons Ratio (y) = 0.09967 0.34428
# Poissons Ratio (z) = 0.31651 0.32575
#
# Static dielectric constant tensor:
#      x y z
#    x 1.708280 0.000000 0.015170 
#    y 0.000000 1.697440 0.000000 
#    z 0.015170 0.000000 1.650430 
# 
# From -- ./inp_files/75635.got.cif
#   From: 2010.05.17/outbox.cif.g08.bks.cpg/sg12_38_cif.got.tgz:75635.got - 2010.06.03 13:09:07.
