data_PCOD9177701
_publ_section_title
;
Structure prediction by ZEFSAII (Michael W. Deem and Ramdas Pophale) SiO2 
 PCOD9177701
Probable space group: C 2/M
;
_chemical_formula_sum "Si O2"
_cell_formula_units_Z 48
_cell_length_a 24.355177
_cell_length_b 7.632533
_cell_length_c 10.713790
_cell_angle_alpha 90.000000
_cell_angle_beta 66.842273
_cell_angle_gamma 90.000000
_cell_volume 1831.132491
_symmetry_space_group_name_H-M "C 2/M"
_symmetry_group_IT_number 12
_symmetry_cell_setting 'monoclinic'
loop_
_space_group_symop_operation_xyz
x,y,z
-x,y,-z
-x,-y,-z
x,-y,z
1/2+x,1/2+y,z
1/2-x,1/2+y,-z
1/2-x,1/2-y,-z
1/2+x,1/2-y,z
loop_
_atom_site_type_symbol
_atom_site_label
_atom_site_fract_x
_atom_site_fract_y
_atom_site_fract_z
Si Si1 0.442615 0.199433 0.113806
Si Si2 0.138562 0.791074 0.458068
Si Si3 0.507915 0.194980 0.655308
Si Si4 0.205490 0.789833 0.925234
Si Si5 0.183687 0.801087 0.685395
Si Si6 0.375535 0.701555 0.795740
O O1 0.466229 0.179877 0.231325
O O2 0.381454 0.301241 0.189501
O O3 0.432940 0.000000 0.073009
O O4 0.500000 0.286302 0.000000
O O5 0.066489 0.765469 0.533280
O O6 0.172085 0.724259 0.555396
O O7 0.151282 0.716656 0.308023
O O8 0.148425 0.000000 0.450051
O O9 0.446621 0.297894 0.719211
O O10 0.490866 0.000000 0.630448
O O11 0.144717 0.727987 0.051156
O O12 0.204981 0.000000 0.906821
O O13 0.250000 0.750000 0.000000
O O14 0.217984 0.715915 0.773832
O O15 0.204681 0.000000 0.645943
O O16 0.355386 0.500000 0.813379
#
# Coordination Sequence:
#
# PCOD9177701 Si02
#       6
#     8   8   8   8   8   8
#     4   9  17  28  43  68 102 136 166 197 240 292
#     4   9  18  33  52  74 104 139 168 197 239 294
#     4  10  19  29  46  76 110 139 168 203 242 288
#     4  10  22  39  57  76  97 125 166 214 259 301
#     4   9  18  33  52  72  95 126 164 204 244 290
#     4  10  20  34  52  74 101 135 172 205 243 295
#
# _framework density 26.213286
#
# number of rings (size 3 to 8) (size 9 to 14) (size 15 to 20)
#    0.000    2.500    0.000    2.000    0.000    5.000 
#    0.000    0.833    0.000    0.000    0.000    0.000 
#    0.000    0.000    0.000    0.000    0.000    0.000 
#
# Total GULP energy -133682.224692 kJ/mol
# GULP energy per Si atom -5570.092695 kJ/mol
# Density = 2.615362 g / cm^3
# Si number density = 26.213286 Si / 1000 Ang^3
#
#
#
# Elastic Constant Matrix: (Units=GPa)
#
#
# Indices 1 2 3 4 5 6 
#
# 1 79.9723 8.9721 14.4875 0.0000 1.8269 0.0000
# 2 8.9721 79.0534 14.1423 0.0000 3.3792 0.0000
# 3 14.4875 14.1423 99.7772 0.0000 41.9653 0.0000
# 4 0.0000 0.0000 0.0000 3.7841 0.0000 -1.5917
# 5 1.8269 3.3792 41.9653 0.0000 25.3841 0.0000
# 6 0.0000 0.0000 0.0000 -1.5917 0.0000 25.3772
#
#
#
# Elastic Compliance Matrix: (Units=1/GPa)
#
#
# Indices 1 2 3 4 5 6 
#
# 1 0.013312 -0.000961 -0.004751 0.000000 0.007024 0.000000
# 2 -0.000961 0.013194 -0.003351 0.000000 0.003852 0.000000
# 3 -0.004751 -0.003351 0.035630 0.000000 -0.058116 0.000000
# 4 0.000000 0.000000 0.000000 0.271428 0.000000 0.017025
# 5 0.007024 0.003852 -0.058116 0.000000 0.134455 0.000000
# 6 0.000000 0.000000 0.000000 0.017025 0.000000 0.040473
#
#
# Mechanical properties :
#
#
# Convention : Reuss Voigt Hill
#
# Bulk Modulus (GPa) = 22.72196 37.11185 29.91690
# Shear Modulus (GPa) = 9.23722 25.65581 17.44652
#
# Velocity S-wave (km/s) = 1.87923 3.13187 2.58264
# Velocity P-wave (km/s) = 3.66000 5.22173 4.50900
#
# Compressibility (1/GPa) = 0.04401030
#
# Stress axis : x y z
#
# Youngs Moduli (GPa) = 75.11795 75.79485 28.06605
#
# Poissons Ratio (x) = 0.07285 0.13334
# Poissons Ratio (y) = 0.07220 0.09404
# Poissons Ratio (z) = 0.35689 0.25396
#
# Static dielectric constant tensor:
#      x y z
#    x 2.229870 0.000000 -0.074180 
#    y 0.000000 2.018640 0.000000 
#    z -0.074180 0.000000 2.271450 
# 
# From -- ./inp_files/172926.got.cif
#   From: 2010.05.17/outbox.cif.g08.bks.cpg/sg12_87_cif.got.tgz:172926.got - 2010.06.03 13:09:07.
