data_PCOD9177212
_publ_section_title
;
Structure prediction by ZEFSAII (Michael W. Deem and Ramdas Pophale) SiO2 
 PCOD9177212
Probable space group: C 2/M
;
_chemical_formula_sum "Si O2"
_cell_formula_units_Z 52
_cell_length_a 20.897842
_cell_length_b 29.112796
_cell_length_c 5.233142
_cell_angle_alpha 90.000000
_cell_angle_beta 56.162076
_cell_angle_gamma 90.000000
_cell_volume 2644.528247
_symmetry_space_group_name_H-M "C 2/M"
_symmetry_group_IT_number 12
_symmetry_cell_setting 'monoclinic'
loop_
_space_group_symop_operation_xyz
x,y,z
-x,y,-z
-x,-y,-z
x,-y,z
1/2+x,1/2+y,z
1/2-x,1/2+y,-z
1/2-x,1/2-y,-z
1/2+x,1/2-y,z
loop_
_atom_site_type_symbol
_atom_site_label
_atom_site_fract_x
_atom_site_fract_y
_atom_site_fract_z
Si Si1 0.225983 0.343321 0.476721
Si Si2 0.585785 0.219795 0.695282
Si Si3 0.889560 0.189903 0.109199
Si Si4 0.425129 0.596252 0.836639
Si Si5 0.000000 0.752214 0.500000
Si Si6 0.218457 0.000000 0.142865
Si Si7 0.239525 0.101110 0.080911
Si Si8 0.618058 0.500000 0.864321
O O1 0.151034 0.311839 0.660423
O O2 0.300147 0.312710 0.231271
O O3 0.247262 0.368478 0.695438
O O4 0.216743 0.378814 0.263120
O O5 0.606981 0.274002 0.669219
O O6 0.567176 0.217113 0.439800
O O7 0.500000 0.212623 0.000000
O O8 0.914563 0.136977 0.066142
O O9 0.951034 0.213567 0.786133
O O10 0.500000 0.602578 0.500000
O O11 0.349860 0.599706 0.818213
O O12 0.425616 0.546904 0.971823
O O13 0.260767 0.951740 0.089868
O O14 0.149480 0.000000 0.506423
O O15 0.187341 0.000000 0.920338
#
# Coordination Sequence:
#
# PCOD9177212 Si02
#       8
#     8   8   8   8   4   4   8   4
#     4  11  24  40  63  91 121 156 206 252 300 361
#     4  10  24  40  61  87 119 158 201 251 311 370
#     4  10  21  36  57  83 119 162 204 246 298 351
#     4  10  20  37  57  84 123 164 214 255 296 348
#     4  10  22  38  56  85 114 165 198 246 304 356
#     4  10  18  40  59  84 125 153 201 249 298 368
#     4  10  23  38  61  91 118 162 200 250 303 358
#     4  10  21  36  58  84 116 168 207 257 297 339
#
# _framework density 19.663243999999999
#
# number of rings (size 3 to 8) (size 9 to 14) (size 15 to 20)
#    0.000    1.846    0.769    3.462    8.615    1.846 
#    0.000   14.615    0.000    0.000    0.000    3.231 
#    0.000    0.000    0.000    0.000    0.000    0.000 
#
# Total GULP energy -144826.251698 kJ/mol
# GULP energy per Si atom -5570.240450 kJ/mol
# Density = 1.961849 g / cm^3
# Si number density = 19.663244 Si / 1000 Ang^3
#
#
#
# Elastic Constant Matrix: (Units=GPa)
#
#
# Indices 1 2 3 4 5 6 
#
# 1 81.8894 67.4528 28.4717 0.0000 -4.7207 0.0000
# 2 67.4528 113.6473 40.6692 0.0000 -8.6518 0.0000
# 3 28.4717 40.6692 58.8233 0.0000 -1.4105 0.0000
# 4 0.0000 0.0000 0.0000 21.1385 0.0000 -11.4411
# 5 -4.7207 -8.6518 -1.4105 0.0000 33.6639 0.0000
# 6 0.0000 0.0000 0.0000 -11.4411 0.0000 -50.7336
#
#
#
# Elastic Compliance Matrix: (Units=1/GPa)
#
#
# Indices 1 2 3 4 5 6 
#
# 1 0.024138 -0.013497 -0.002356 0.000000 -0.000183 0.000000
# 2 -0.013497 0.019484 -0.006870 0.000000 0.002827 0.000000
# 3 -0.002356 -0.006870 0.022863 0.000000 -0.001138 0.000000
# 4 0.000000 0.000000 0.000000 0.042161 0.000000 -0.009508
# 5 -0.000183 0.002827 -0.001138 0.000000 0.030359 0.000000
# 6 0.000000 0.000000 0.000000 -0.009508 0.000000 -0.017567
#
#
# Mechanical properties :
#
#
# Convention : Reuss Voigt Hill
#
# Bulk Modulus (GPa) = 47.53239 58.61636 53.07437
# Shear Modulus (GPa) = 28.75262 8.66483 18.70872
#
# Velocity S-wave (km/s) = 3.82809 2.10147 3.08792
# Velocity P-wave (km/s) = 6.61549 5.98022 6.30586
#
# Compressibility (1/GPa) = 0.02103829
#
# Stress axis : x y z
#
# Youngs Moduli (GPa) = 41.42823 51.32437 43.73923
#
# Poissons Ratio (x) = 0.69275 0.10304
# Poissons Ratio (y) = 0.55918 0.30048
# Poissons Ratio (z) = 0.09760 0.35259
#
# Static dielectric constant tensor:
#      x y z
#    x 1.821700 0.000000 0.117280 
#    y 0.000000 1.723610 0.000000 
#    z 0.117280 0.000000 1.765420 
# 
# From -- ./inp_files/22435.got.cif
#   From: 2010.05.17/outbox.cif.g08.bks.cpg/sg12_12_cif.got.tgz:22435.got - 2010.06.03 13:09:07.
