data_PCOD9177703
_publ_section_title
;
Structure prediction by ZEFSAII (Michael W. Deem and Ramdas Pophale) SiO2 
 PCOD9177703
Probable space group: C 2/M
;
_chemical_formula_sum "Si O2"
_cell_formula_units_Z 48
_cell_length_a 21.728404
_cell_length_b 9.654238
_cell_length_c 18.546066
_cell_angle_alpha 90.000000
_cell_angle_beta 35.283431
_cell_angle_gamma 90.000000
_cell_volume 2247.196474
_symmetry_space_group_name_H-M "C 2/M"
_symmetry_group_IT_number 12
_symmetry_cell_setting 'monoclinic'
loop_
_space_group_symop_operation_xyz
x,y,z
-x,y,-z
-x,-y,-z
x,-y,z
1/2+x,1/2+y,z
1/2-x,1/2+y,-z
1/2-x,1/2-y,-z
1/2+x,1/2-y,z
loop_
_atom_site_type_symbol
_atom_site_label
_atom_site_fract_x
_atom_site_fract_y
_atom_site_fract_z
Si Si1 0.694001 0.343818 0.839611
Si Si2 0.804450 0.333638 0.884214
Si Si3 0.534696 0.165617 0.724977
Si Si4 0.900605 0.660447 0.189151
Si Si5 0.098010 0.351911 0.458993
Si Si6 0.176993 0.157862 0.491541
O O1 0.650317 0.500000 0.891414
O O2 0.746352 0.294579 0.864773
O O3 0.615529 0.246851 0.868381
O O4 0.795952 0.354534 0.689588
O O5 0.791950 0.500000 0.903344
O O6 0.930944 0.307143 0.774902
O O7 0.750000 0.250000 0.000000
O O8 0.518611 0.209478 0.824686
O O9 0.637748 0.241642 0.593005
O O10 0.551637 0.000000 0.711554
O O11 0.921056 0.500000 0.151835
O O12 0.789569 0.666873 0.341642
O O13 0.096037 0.500000 0.503153
O O14 0.098065 0.214213 0.505254
O O15 0.000000 0.353199 0.500000
O O16 0.162042 0.000000 0.528413
#
# Coordination Sequence:
#
# PCOD9177703 Si02
#       6
#     8   8   8   8   8   8
#     4   9  18  33  53  76 103 135 172 215 264 317
#     4  10  22  40  60  80 101 132 177 226 272 315
#     4  10  20  36  56  77 106 144 183 217 254 311
#     4   9  19  34  53  80 112 144 176 211 254 308
#     4   9  16  28  47  70 100 141 181 212 250 307
#     4  10  19  29  46  78 114 142 172 212 257 304
#
# _framework density 21.359947999999999
#
# number of rings (size 3 to 8) (size 9 to 14) (size 15 to 20)
#    0.000    2.500    0.000    2.000    0.000    5.667 
#    0.000    4.167    0.000    5.000    0.000    0.000 
#    0.000    0.000    0.000    0.000    0.000    0.000 
#
# Total GULP energy -133686.564474 kJ/mol
# GULP energy per Si atom -5570.273520 kJ/mol
# Density = 2.131133 g / cm^3
# Si number density = 21.359948 Si / 1000 Ang^3
#
#
#
# Elastic Constant Matrix: (Units=GPa)
#
#
# Indices 1 2 3 4 5 6 
#
# 1 133.3663 39.6880 34.5742 0.0000 32.3194 0.0000
# 2 39.6880 39.3759 23.5146 -0.0001 7.7519 0.0001
# 3 34.5742 23.5146 47.6696 0.0000 -5.8544 0.0000
# 4 0.0000 -0.0001 0.0000 15.2626 0.0000 5.6598
# 5 32.3194 7.7519 -5.8544 0.0000 37.5182 0.0000
# 6 0.0000 0.0001 0.0000 5.6598 0.0000 22.8174
#
#
#
# Elastic Compliance Matrix: (Units=1/GPa)
#
#
# Indices 1 2 3 4 5 6 
#
# 1 0.015136 -0.007391 -0.008917 0.000000 -0.012903 0.000000
# 2 -0.007391 0.044094 -0.017054 0.000000 -0.005405 0.000000
# 3 -0.008917 -0.017054 0.037961 0.000000 0.017129 0.000000
# 4 0.000000 0.000000 0.000000 0.072157 0.000000 -0.017898
# 5 -0.012903 -0.005405 0.017129 0.000000 0.041558 0.000000
# 6 0.000000 0.000000 0.000000 -0.017898 0.000000 0.048266
#
#
# Mechanical properties :
#
#
# Convention : Reuss Voigt Hill
#
# Bulk Modulus (GPa) = 32.82181 46.21837 39.52009
# Shear Modulus (GPa) = 14.87862 23.29531 19.08697
#
# Velocity S-wave (km/s) = 2.64212 3.30602 2.99254
# Velocity P-wave (km/s) = 4.97063 6.02145 5.52109
#
# Compressibility (1/GPa) = 0.03046754
#
# Stress axis : x y z
#
# Youngs Moduli (GPa) = 66.06745 22.67868 26.34258
#
# Poissons Ratio (x) = 0.16761 0.23490
# Poissons Ratio (y) = 0.48829 0.44926
# Poissons Ratio (z) = 0.58912 0.38677
#
# Static dielectric constant tensor:
#      x y z
#    x 1.877470 0.000000 -0.034210 
#    y 0.000000 1.751530 0.000000 
#    z -0.034210 0.000000 1.828380 
# 
# From -- ./inp_files/280757.got.cif
#   From: 2010.05.17/outbox.cif.g08.bks.cpg/sg12_141_cif.got.tgz:280757.got - 2010.06.03 13:09:07.
