data_PCOD9177681
_publ_section_title
;
Structure prediction by ZEFSAII (Michael W. Deem and Ramdas Pophale) SiO2 
 PCOD9177681
Probable space group: C 2/M
;
_chemical_formula_sum "Si O2"
_cell_formula_units_Z 56
_cell_length_a 20.461710
_cell_length_b 9.196465
_cell_length_c 22.711681
_cell_angle_alpha 90.000000
_cell_angle_beta 127.916855
_cell_angle_gamma 90.000000
_cell_volume 3371.599057
_symmetry_space_group_name_H-M "C 2/M"
_symmetry_group_IT_number 12
_symmetry_cell_setting 'monoclinic'
loop_
_space_group_symop_operation_xyz
x,y,z
-x,y,-z
-x,-y,-z
x,-y,z
1/2+x,1/2+y,z
1/2-x,1/2+y,-z
1/2-x,1/2-y,-z
1/2+x,1/2-y,z
loop_
_atom_site_type_symbol
_atom_site_label
_atom_site_fract_x
_atom_site_fract_y
_atom_site_fract_z
Si Si1 0.982623 0.670416 0.185846
Si Si2 0.096653 0.827576 0.057932
Si Si3 0.151848 0.328596 0.204229
Si Si4 0.163446 0.827723 0.963492
Si Si5 0.243759 0.168813 0.355367
Si Si6 0.177657 0.174695 0.498305
Si Si7 0.929425 0.833084 0.666496
O O1 0.962894 0.500000 0.176599
O O2 0.907553 0.760060 0.116892
O O3 0.063381 0.690307 0.188734
O O4 0.009200 0.728709 0.264667
O O5 0.141057 0.739538 0.134048
O O6 0.099178 0.000000 0.073601
O O7 0.136845 0.805040 0.016569
O O8 0.000000 0.784831 0.000000
O O9 0.169262 0.500000 0.211647
O O10 0.219848 0.246264 0.281324
O O11 0.169577 0.000000 0.956685
O O12 0.250000 0.750000 0.000000
O O13 0.311196 0.255422 0.431391
O O14 0.157881 0.172291 0.345853
O O15 0.265991 0.000000 0.360248
O O16 0.250000 0.250000 0.500000
O O17 0.094942 0.202877 0.414254
O O18 0.189838 0.000000 0.506846
O O19 0.958594 0.000000 0.685646
#
# Coordination Sequence:
#
# PCOD9177681 Si02
#       7
#     8   8   8   8   8   8   8
#     4  10  19  30  46  69  95 124 162 204 246 292
#     4  10  20  35  54  74  97 129 166 204 249 300
#     4  10  19  29  46  71  97 125 161 207 246 289
#     4  11  23  38  55  73  99 131 164 206 252 301
#     4   9  16  25  38  57  87 124 159 197 241 292
#     4   9  15  23  35  54  83 120 159 196 239 291
#     4   8  15  25  38  57  84 121 159 196 239 288
#
# _framework density 16.60933
#
# number of rings (size 3 to 8) (size 9 to 14) (size 15 to 20)
#    0.000    2.429    1.429    3.000    0.000    6.571 
#    0.000    0.000    0.000    0.000    0.000    0.000 
#    0.000    1.143    0.000   12.000    0.000    8.143 
#
# Total GULP energy -156056.602307 kJ/mol
# GULP energy per Si atom -5573.450082 kJ/mol
# Density = 1.657153 g / cm^3
# Si number density = 16.609330 Si / 1000 Ang^3
#
#
#
# Elastic Constant Matrix: (Units=GPa)
#
#
# Indices 1 2 3 4 5 6 
#
# 1 29.3554 39.5191 26.1216 0.0000 0.5279 0.0000
# 2 39.5191 122.6439 105.9931 0.0000 2.0476 0.0000
# 3 26.1216 105.9931 171.2498 0.0000 -3.1074 0.0000
# 4 0.0000 0.0000 0.0000 39.0369 0.0000 0.2941
# 5 0.5279 2.0476 -3.1074 0.0000 4.7987 0.0000
# 6 0.0000 0.0000 0.0000 0.2941 0.0000 15.5200
#
#
#
# Elastic Compliance Matrix: (Units=1/GPa)
#
#
# Indices 1 2 3 4 5 6 
#
# 1 0.063596 -0.026654 0.006957 0.000000 0.008883 0.000000
# 2 -0.026654 0.029787 -0.014721 0.000000 -0.019311 0.000000
# 3 0.006957 -0.014721 0.014156 0.000000 0.014683 0.000000
# 4 0.000000 0.000000 0.000000 0.025620 0.000000 -0.000485
# 5 0.008883 -0.019311 0.014683 0.000000 0.225162 0.000000
# 6 0.000000 0.000000 0.000000 -0.000485 0.000000 0.064442
#
#
# Mechanical properties :
#
#
# Convention : Reuss Voigt Hill
#
# Bulk Modulus (GPa) = 25.83649 74.05741 49.94695
# Shear Modulus (GPa) = 9.91079 21.97882 15.94480
#
# Velocity S-wave (km/s) = 2.44539 3.64164 3.10173
# Velocity P-wave (km/s) = 4.85412 7.89726 6.55474
#
# Compressibility (1/GPa) = 0.03870495
#
# Stress axis : x y z
#
# Youngs Moduli (GPa) = 15.72414 33.57141 70.64074
#
# Poissons Ratio (x) = 0.89480 -0.49148
# Poissons Ratio (y) = 0.41911 1.03992
# Poissons Ratio (z) = -0.10940 0.49421
#
# Static dielectric constant tensor:
#      x y z
#    x 1.531070 0.000000 -0.005780 
#    y 0.000000 1.554690 0.000000 
#    z -0.005780 0.000000 1.573290 
# 
# From -- ./inp_files/287410.got.cif
#   From: 2010.05.17/outbox.cif.g08.bks.cpg/sg12_144_cif.got.tgz:287410.got - 2010.06.03 13:09:07.
