data_PCOD9177047
_publ_section_title
;
Structure prediction by ZEFSAII (Michael W. Deem and Ramdas Pophale) SiO2 
 PCOD9177047
Probable space group: C 2/M
;
_chemical_formula_sum "Si O2"
_cell_formula_units_Z 64
_cell_length_a 14.620427
_cell_length_b 18.309975
_cell_length_c 22.381925
_cell_angle_alpha 90.000000
_cell_angle_beta 147.732468
_cell_angle_gamma 90.000000
_cell_volume 3198.773034
_symmetry_space_group_name_H-M "C 2/M"
_symmetry_group_IT_number 12
_symmetry_cell_setting 'monoclinic'
loop_
_space_group_symop_operation_xyz
x,y,z
-x,y,-z
-x,-y,-z
x,-y,z
1/2+x,1/2+y,z
1/2-x,1/2+y,-z
1/2-x,1/2-y,-z
1/2+x,1/2-y,z
loop_
_atom_site_type_symbol
_atom_site_label
_atom_site_fract_x
_atom_site_fract_y
_atom_site_fract_z
Si Si1 0.510958 0.351564 0.135781
Si Si2 0.587210 0.694406 0.693654
Si Si3 0.905833 0.312021 0.780297
Si Si4 0.623305 0.888875 0.513186
Si Si5 0.626377 0.132794 0.727017
Si Si6 0.346796 0.713687 0.460334
Si Si7 0.307001 0.085783 0.102338
Si Si8 0.012766 0.079812 0.749824
O O1 0.515862 0.266701 0.158605
O O2 0.697454 0.371913 0.213337
O O3 0.471895 0.398510 0.172868
O O4 0.367718 0.371015 0.008388
O O5 0.747354 0.678117 0.738404
O O6 0.594643 0.779797 0.714443
O O7 0.408918 0.683564 0.558270
O O8 0.592527 0.642359 0.752920
O O9 0.824311 0.308137 0.668482
O O10 0.045880 0.375244 0.855792
O O11 0.500000 0.910597 0.500000
O O12 0.523820 0.900971 0.396469
O O13 0.649389 0.801234 0.533534
O O14 0.810437 0.921253 0.623058
O O15 0.647855 0.097122 0.803154
O O16 0.500000 0.692862 0.500000
O O17 0.289534 0.000000 0.079874
O O18 0.086728 0.000000 0.778814
#
# Coordination Sequence:
#
# PCOD9177047 Si02
#       8
#     8   8   8   8   8   8   8   8
#     4  11  22  45  64  86 114 160 214 255 296 345
#     4   9  21  38  63  94 121 156 201 252 305 355
#     4  10  20  41  68  88 116 158 213 256 286 354
#     4  10  18  37  60  92 121 153 199 249 303 359
#     4  10  22  40  67  89 117 156 203 255 302 359
#     4   8  15  33  62  89 115 149 195 251 302 341
#     4  12  27  41  60  90 126 165 200 246 308 362
#     4  12  24  36  58  90 129 165 196 243 308 368
#
# _framework density 20.007671999999999
#
# number of rings (size 3 to 8) (size 9 to 14) (size 15 to 20)
#    0.000    1.750    2.500    3.375    1.750    3.750 
#    0.000    1.875    0.000    3.750    0.000    0.000 
#    0.000    0.000    0.000    0.000    0.000    0.000 
#
# Total GULP energy -178815.872665 kJ/mol
# GULP energy per Si atom -5587.996021 kJ/mol
# Density = 1.996213 g / cm^3
# Si number density = 20.007672 Si / 1000 Ang^3
#
#
#
# Elastic Constant Matrix: (Units=GPa)
#
#
# Indices 1 2 3 4 5 6 
#
# 1 57.1449 8.3008 6.2534 -0.0001 -6.7447 0.0000
# 2 8.3008 52.8633 2.3514 0.0002 -3.8692 -0.0003
# 3 6.2534 2.3514 72.1125 -0.0002 -16.2310 -0.0009
# 4 -0.0001 0.0002 -0.0002 -2.8676 -0.0003 -4.0165
# 5 -6.7447 -3.8692 -16.2310 -0.0003 23.5953 -0.0002
# 6 0.0000 -0.0003 -0.0009 -4.0165 -0.0002 -11.2267
#
#
#
# Elastic Compliance Matrix: (Units=1/GPa)
#
#
# Indices 1 2 3 4 5 6 
#
# 1 0.018457 -0.002545 -0.000502 -0.000003 0.004513 0.000001
# 2 -0.002545 0.019498 0.000167 0.000004 0.002584 -0.000002
# 3 -0.000502 0.000167 0.016422 0.000000 0.011180 -0.000002
# 4 -0.000003 0.000004 0.000000 -0.698999 -0.000006 0.250076
# 5 0.004513 0.002584 0.011180 -0.000006 0.051786 0.000000
# 6 0.000001 -0.000002 -0.000002 0.250076 0.000000 -0.178541
#
#
# Mechanical properties :
#
#
# Convention : Reuss Voigt Hill
#
# Bulk Modulus (GPa) = 20.56953 23.99243 22.28098
# Shear Modulus (GPa) = -6.67190 12.91455 3.12132
#
# Velocity S-wave (km/s) = -1.82809 2.54339 1.25038
# Velocity P-wave (km/s) = 2.41811 4.54343 3.63937
#
# Compressibility (1/GPa) = 0.04861560
#
# Stress axis : x y z
#
# Youngs Moduli (GPa) = 54.18082 51.28693 60.89490
#
# Poissons Ratio (x) = 0.13055 0.03055
# Poissons Ratio (y) = 0.13792 -0.01015
# Poissons Ratio (z) = 0.02718 -0.00855
#
# Static dielectric constant tensor:
#      x y z
#    x 1.708980 0.000000 0.002450 
#    y 0.000000 1.683940 0.000000 
#    z 0.002450 0.000000 1.713330 
# 
# From -- ./inp_files/340878.got.cif
#   From: 2010.05.17/outbox.cif.g08.bks.cpg/sg12_171_cif.got.tgz:340878.got - 2010.06.03 13:09:07.
