data_PCOD9177245
_publ_section_title
;
Structure prediction by ZEFSAII (Michael W. Deem and Ramdas Pophale) SiO2 
 PCOD9177245
Probable space group: C 2/M
;
_chemical_formula_sum "Si O2"
_cell_formula_units_Z 64
_cell_length_a 23.985543
_cell_length_b 21.743129
_cell_length_c 7.743004
_cell_angle_alpha 90.000000
_cell_angle_beta 68.947045
_cell_angle_gamma 90.000000
_cell_volume 3768.586827
_symmetry_space_group_name_H-M "C 2/M"
_symmetry_group_IT_number 12
_symmetry_cell_setting 'monoclinic'
loop_
_space_group_symop_operation_xyz
x,y,z
-x,y,-z
-x,-y,-z
x,-y,z
1/2+x,1/2+y,z
1/2-x,1/2+y,-z
1/2-x,1/2-y,-z
1/2+x,1/2-y,z
loop_
_atom_site_type_symbol
_atom_site_label
_atom_site_fract_x
_atom_site_fract_y
_atom_site_fract_z
Si Si1 0.904626 0.926325 0.598035
Si Si2 0.187417 0.308465 0.228624
Si Si3 0.826714 0.763685 0.074268
Si Si4 0.730275 0.570303 0.380964
Si Si5 0.957166 0.070764 0.192134
Si Si6 0.233375 0.432221 0.054776
Si Si7 0.205372 0.692099 0.575676
Si Si8 0.867345 0.896024 0.019080
O O1 0.838587 0.916068 0.590508
O O2 0.948364 0.903785 0.395453
O O3 0.903185 0.903238 0.797431
O O4 0.912537 0.000000 0.602223
O O5 0.257324 0.286367 0.145509
O O6 0.166108 0.306698 0.447758
O O7 0.156191 0.263215 0.130383
O O8 0.190723 0.378105 0.162338
O O9 0.828542 0.709581 0.212106
O O10 0.863194 0.824541 0.073753
O O11 0.734591 0.500000 0.447230
O O12 0.761485 0.569959 0.158205
O O13 0.758975 0.627454 0.452270
O O14 0.895595 0.070265 0.151619
O O15 0.977589 0.000000 0.193706
O O16 0.214547 0.500000 0.130367
O O17 0.300675 0.420124 0.050928
O O18 0.250000 0.750000 0.500000
O O19 0.000000 0.899034 0.000000
#
# Coordination Sequence:
#
# PCOD9177245 Si02
#       8
#     8   8   8   8   8   8   8   8
#     4   9  19  31  45  63  82 104 139 182 222 264
#     4   9  17  26  38  54  77 108 134 169 206 244
#     4   9  18  29  38  57  83 104 137 172 207 251
#     4   9  17  29  42  60  86 113 147 189 218 249
#     4  10  21  34  47  64  83 103 136 184 234 278
#     4   9  16  27  42  58  81 109 143 180 214 251
#     4  10  19  26  40  59  83 113 141 177 223 251
#     4  10  19  30  47  60  80 110 139 176 222 266
#
# _framework density 16.982492000000001
#
# number of rings (size 3 to 8) (size 9 to 14) (size 15 to 20)
#    0.000    2.625    1.250    1.875   10.500    1.000 
#    0.000    1.875    0.000    0.000    0.000    0.000 
#    0.000    0.000    0.000    0.000    0.000    2.500 
#
# Total GULP energy -178145.666272 kJ/mol
# GULP energy per Si atom -5567.052071 kJ/mol
# Density = 1.694384 g / cm^3
# Si number density = 16.982492 Si / 1000 Ang^3
#
#
#
# Elastic Constant Matrix: (Units=GPa)
#
#
# Indices 1 2 3 4 5 6 
#
# 1 7.2131 3.1106 1.6450 0.0000 2.2933 0.0000
# 2 3.1106 75.9985 12.0522 0.0000 2.7202 0.0000
# 3 1.6450 12.0522 70.1662 0.0000 5.9118 0.0000
# 4 0.0000 0.0000 0.0000 23.3125 0.0000 4.2674
# 5 2.2933 2.7202 5.9118 0.0000 14.2587 0.0000
# 6 0.0000 0.0000 0.0000 4.2674 0.0000 5.5422
#
#
#
# Elastic Compliance Matrix: (Units=1/GPa)
#
#
# Indices 1 2 3 4 5 6 
#
# 1 0.148188 -0.005148 -0.000688 0.000000 -0.022567 0.000000
# 2 -0.005148 0.013744 -0.002165 0.000000 -0.000897 0.000000
# 3 -0.000688 -0.002165 0.015124 0.000000 -0.005747 0.000000
# 4 0.000000 0.000000 0.000000 0.049933 0.000000 -0.038447
# 5 -0.022567 -0.000897 -0.005747 0.000000 0.076316 0.000000
# 6 0.000000 0.000000 0.000000 -0.038447 0.000000 0.210037
#
#
# Mechanical properties :
#
#
# Convention : Reuss Voigt Hill
#
# Bulk Modulus (GPa) = 6.20912 20.77704 13.49308
# Shear Modulus (GPa) = 8.57589 17.72735 13.15162
#
# Velocity S-wave (km/s) = 2.24962 3.23439 2.78586
# Velocity P-wave (km/s) = 3.22674 5.11950 4.27909
#
# Compressibility (1/GPa) = 0.16105341
#
# Stress axis : x y z
#
# Youngs Moduli (GPa) = 6.74818 72.75778 66.11997
#
# Poissons Ratio (x) = 0.37459 0.04552
# Poissons Ratio (y) = 0.03474 0.14312
# Poissons Ratio (z) = 0.00465 0.15749
#
# Static dielectric constant tensor:
#      x y z
#    x 1.585020 0.000000 0.002640 
#    y 0.000000 1.643950 0.000000 
#    z 0.002640 0.000000 1.662760 
# 
# From -- ./inp_files/98620.got.cif
#   From: 2010.05.17/outbox.cif.g08.bks.cpg/sg12_50_cif.got.tgz:98620.got - 2010.06.03 13:09:07.
