data_PCOD9177238
_publ_section_title
;
Structure prediction by ZEFSAII (Michael W. Deem and Ramdas Pophale) SiO2 
 PCOD9177238
Probable space group: C 2/M
;
_chemical_formula_sum "Si O2"
_cell_formula_units_Z 44
_cell_length_a 13.996184
_cell_length_b 17.297775
_cell_length_c 9.025975
_cell_angle_alpha 90.000000
_cell_angle_beta 79.648195
_cell_angle_gamma 90.000000
_cell_volume 2149.645396
_symmetry_space_group_name_H-M "C 2/M"
_symmetry_group_IT_number 12
_symmetry_cell_setting 'monoclinic'
loop_
_space_group_symop_operation_xyz
x,y,z
-x,y,-z
-x,-y,-z
x,-y,z
1/2+x,1/2+y,z
1/2-x,1/2+y,-z
1/2-x,1/2-y,-z
1/2+x,1/2-y,z
loop_
_atom_site_type_symbol
_atom_site_label
_atom_site_fract_x
_atom_site_fract_y
_atom_site_fract_z
Si Si1 0.671411 0.716722 0.633563
Si Si2 0.851726 0.000000 0.067909
Si Si3 0.201358 0.374635 0.181632
Si Si4 0.000000 0.133084 0.500000
Si Si5 0.614476 0.824764 0.929915
Si Si6 0.042828 0.500000 0.326202
Si Si7 0.982142 0.000000 0.740997
Si Si8 0.599885 0.000000 0.879235
O O1 0.750000 0.750000 0.500000
O O2 0.737316 0.653569 0.696851
O O3 0.582041 0.684268 0.559929
O O4 0.637676 0.773368 0.778688
O O5 0.781342 0.072370 0.082208
O O6 0.912315 0.000000 0.206007
O O7 0.915759 0.000000 0.903904
O O8 0.109384 0.426558 0.259832
O O9 0.166451 0.309920 0.074249
O O10 0.034188 0.074461 0.359405
O O11 0.642721 0.915111 0.893359
O O12 0.500000 0.819991 0.000000
O O13 0.000000 0.500000 0.500000
O O14 0.941216 0.500000 0.271243
O O15 0.500000 0.000000 0.000000
#
# Coordination Sequence:
#
# PCOD9177238 Si02
#       8
#     8   4   8   4   8   4   4   4
#     4  12  30  44  66 102 145 188 225 284 359 419
#     4  10  21  41  74 104 124 178 237 287 333 399
#     4  11  23  45  64 105 135 173 242 281 333 429
#     4  11  26  50  66 103 148 174 232 285 354 422
#     4  11  24  45  72  96 136 185 231 286 347 419
#     4  11  23  37  74 100 140 176 221 297 353 406
#     4  10  22  45  77  95 132 184 227 284 347 401
#     4  10  18  43  65 103 120 172 231 279 347 405
#
# _framework density 20.468492000000001
#
# number of rings (size 3 to 8) (size 9 to 14) (size 15 to 20)
#    0.000    1.091    5.455    1.091    7.636    1.455 
#    0.000    0.000    0.000    0.000    0.000    0.000 
#    0.000    0.000    0.000    0.000    0.000    0.000 
#
# Total GULP energy -122502.907517 kJ/mol
# GULP energy per Si atom -5568.313978 kJ/mol
# Density = 2.042191 g / cm^3
# Si number density = 20.468492 Si / 1000 Ang^3
#
#
#
# Elastic Constant Matrix: (Units=GPa)
#
#
# Indices 1 2 3 4 5 6 
#
# 1 117.3227 38.6439 61.3218 0.0000 29.2572 0.0000
# 2 38.6439 64.6873 39.8180 0.0000 0.4333 0.0000
# 3 61.3218 39.8180 153.6578 0.0000 15.2528 0.0000
# 4 0.0000 0.0000 0.0000 31.1923 0.0000 -36.6042
# 5 29.2572 0.4333 15.2528 0.0000 50.1547 0.0000
# 6 0.0000 0.0000 0.0000 -36.6042 0.0000 43.5298
#
#
#
# Elastic Compliance Matrix: (Units=1/GPa)
#
#
# Indices 1 2 3 4 5 6 
#
# 1 0.014127 -0.006378 -0.003271 0.000000 -0.007191 0.000000
# 2 -0.006378 0.021359 -0.003444 0.000000 0.004583 0.000000
# 3 -0.003271 -0.003444 0.008779 0.000000 -0.000732 0.000000
# 4 0.000000 0.000000 0.000000 2.428163 0.000000 2.041843
# 5 -0.007191 0.004583 -0.000732 0.000000 0.024316 0.000000
# 6 0.000000 0.000000 0.000000 2.041843 0.000000 1.739959
#
#
# Mechanical properties :
#
#
# Convention : Reuss Voigt Hill
#
# Bulk Modulus (GPa) = 55.31785 68.35949 61.83867
# Shear Modulus (GPa) = 1.17126 38.03430 19.60278
#
# Velocity S-wave (km/s) = 0.75728 4.31535 3.09804
# Velocity P-wave (km/s) = 5.27723 7.63541 6.56310
#
# Compressibility (1/GPa) = 0.01807735
#
# Stress axis : x y z
#
# Youngs Moduli (GPa) = 70.78447 46.81965 113.91147
#
# Poissons Ratio (x) = 0.29860 0.37266
# Poissons Ratio (y) = 0.45145 0.39236
# Poissons Ratio (z) = 0.23157 0.16127
#
# Static dielectric constant tensor:
#      x y z
#    x 1.908020 0.000000 0.203840 
#    y 0.000000 1.731710 0.000000 
#    z 0.203840 0.000000 1.801140 
# 
# From -- ./inp_files/61125.got.cif
#   From: 2010.05.17/outbox.cif.g08.bks.cpg/sg12_31_cif.got.tgz:61125.got - 2010.06.03 13:09:07.
