data_PCOD9177953
_publ_section_title
;
Structure prediction by ZEFSAII (Michael W. Deem and Ramdas Pophale) SiO2 
 PCOD9177953
Probable space group: C 2/M
;
_chemical_formula_sum "Si O2"
_cell_formula_units_Z 56
_cell_length_a 15.955390
_cell_length_b 7.794809
_cell_length_c 21.521162
_cell_angle_alpha 90.000000
_cell_angle_beta 52.344681
_cell_angle_gamma 90.000000
_cell_volume 2119.041013
_symmetry_space_group_name_H-M "C 2/M"
_symmetry_group_IT_number 12
_symmetry_cell_setting 'monoclinic'
loop_
_space_group_symop_operation_xyz
x,y,z
-x,y,-z
-x,-y,-z
x,-y,z
1/2+x,1/2+y,z
1/2-x,1/2+y,-z
1/2-x,1/2-y,-z
1/2+x,1/2-y,z
loop_
_atom_site_type_symbol
_atom_site_label
_atom_site_fract_x
_atom_site_fract_y
_atom_site_fract_z
Si Si1 0.383289 0.709059 0.810865
Si Si2 0.859279 0.298130 0.092172
Si Si3 0.321210 0.703578 0.377249
Si Si4 0.375261 0.296020 0.949221
Si Si5 0.389956 0.707890 0.669618
Si Si6 0.853487 0.803900 0.231455
Si Si7 0.603747 0.291601 0.521878
O O1 0.382975 0.500000 0.813970
O O2 0.261131 0.770634 0.860902
O O3 0.429544 0.749366 0.722168
O O4 0.422065 0.767541 0.861591
O O5 0.851251 0.500000 0.100910
O O6 0.910350 0.264963 0.001642
O O7 0.895334 0.242808 0.144318
O O8 0.344281 0.500000 0.368332
O O9 0.370565 0.779047 0.291739
O O10 0.357658 0.771229 0.427304
O O11 0.194064 0.727101 0.434983
O O12 0.384502 0.500000 0.946649
O O13 0.250000 0.250000 0.000000
O O14 0.377096 0.500000 0.672404
O O15 0.274353 0.787160 0.716057
O O16 0.480255 0.756877 0.579462
O O17 0.884737 0.000000 0.225049
O O18 0.606639 0.500000 0.517231
#
# Coordination Sequence:
#
# PCOD9177953 Si02
#       7
#     8   8   8   8   8   8   8
#     4   7  12  22  36  56  83 112 140 176 218 257
#     4   9  16  26  39  58  86 117 150 187 224 265
#     4   9  19  34  49  67  91 118 150 187 226 269
#     4   9  14  21  35  56  84 118 151 182 222 269
#     4   9  17  30  47  68  93 118 149 187 225 267
#     4  10  19  30  45  66  93 121 148 184 230 275
#     4   9  18  33  52  69  87 117 153 187 223 267
#
# _framework density 26.427047999999999
#
# number of rings (size 3 to 8) (size 9 to 14) (size 15 to 20)
#    0.000    3.143    0.000    3.000    0.000    2.286 
#    0.000    3.571    0.000    0.000    0.000    1.000 
#    0.000    8.000    0.000    0.000    0.000    0.000 
#
# Total GULP energy -156346.310313 kJ/mol
# GULP energy per Si atom -5583.796797 kJ/mol
# Density = 2.636690 g / cm^3
# Si number density = 26.427048 Si / 1000 Ang^3
#
#
#
# Elastic Constant Matrix: (Units=GPa)
#
#
# Indices 1 2 3 4 5 6 
#
# 1 92.1969 -8.0234 24.9641 0.0001 16.8212 0.0003
# 2 -8.0234 33.4948 -5.8838 0.0002 6.2972 0.0007
# 3 24.9641 -5.8838 212.9460 0.0000 4.4452 0.0000
# 4 0.0001 0.0002 0.0000 22.3440 0.0000 3.8639
# 5 16.8212 6.2972 4.4452 0.0000 59.3076 0.0001
# 6 0.0003 0.0007 0.0000 3.8639 0.0001 -2.8354
#
#
#
# Elastic Compliance Matrix: (Units=1/GPa)
#
#
# Indices 1 2 3 4 5 6 
#
# 1 0.012159 0.003391 -0.001254 0.000000 -0.003715 0.000002
# 2 0.003391 0.031586 0.000566 -0.000001 -0.004358 0.000006
# 3 -0.001254 0.000566 0.004860 0.000000 -0.000069 0.000000
# 4 0.000000 -0.000001 0.000000 0.036219 0.000000 0.049358
# 5 -0.003715 -0.004358 -0.000069 0.000000 0.018383 0.000000
# 6 0.000002 0.000006 0.000000 0.049358 0.000000 -0.285426
#
#
# Mechanical properties :
#
#
# Convention : Reuss Voigt Hill
#
# Bulk Modulus (GPa) = 18.51496 40.08352 29.29924
# Shear Modulus (GPa) = -29.47764 37.60196 4.06216
#
# Velocity S-wave (km/s) = -3.34344 3.77617 1.24115
# Velocity P-wave (km/s) = 2.80775 5.84920 3.62834
#
# Compressibility (1/GPa) = 0.05401038
#
# Stress axis : x y z
#
# Youngs Moduli (GPa) = 82.24555 31.65928 205.75563
#
# Poissons Ratio (x) = -0.10734 0.25805
# Poissons Ratio (y) = -0.27886 -0.11650
# Poissons Ratio (z) = 0.10315 -0.01793
#
# Static dielectric constant tensor:
#      x y z
#    x 2.186530 0.000000 -0.032170 
#    y 0.000000 1.978090 0.000000 
#    z -0.032170 0.000000 2.008330 
# 
# From -- ./inp_files/319043.got.cif
#   From: 2010.05.17/outbox.cif.g08.bks.cpg/sg12_160_cif.got.tgz:319043.got - 2010.06.03 13:09:07.
