data_PCOD9177337
_publ_section_title
;
Structure prediction by ZEFSAII (Michael W. Deem and Ramdas Pophale) SiO2 
 PCOD9177337
Probable space group: C 2/M
;
_chemical_formula_sum "Si O2"
_cell_formula_units_Z 44
_cell_length_a 8.005113
_cell_length_b 33.195849
_cell_length_c 9.822509
_cell_angle_alpha 90.000000
_cell_angle_beta 49.402490
_cell_angle_gamma 90.000000
_cell_volume 1981.923317
_symmetry_space_group_name_H-M "C 2/M"
_symmetry_group_IT_number 12
_symmetry_cell_setting 'monoclinic'
loop_
_space_group_symop_operation_xyz
x,y,z
-x,y,-z
-x,-y,-z
x,-y,z
1/2+x,1/2+y,z
1/2-x,1/2+y,-z
1/2-x,1/2-y,-z
1/2+x,1/2-y,z
loop_
_atom_site_type_symbol
_atom_site_label
_atom_site_fract_x
_atom_site_fract_y
_atom_site_fract_z
Si Si1 0.309133 0.262410 0.207207
Si Si2 0.153168 0.339760 0.117165
Si Si3 0.235098 0.955040 0.621917
Si Si4 0.000000 0.910362 0.000000
Si Si5 0.191602 0.627192 0.522765
Si Si6 0.580809 0.311443 0.275217
O O1 0.190299 0.300419 0.195062
O O2 0.427091 0.281095 0.272036
O O3 0.193694 0.221154 0.312651
O O4 0.500000 0.251112 0.000000
O O5 0.917693 0.357070 0.281294
O O6 0.308545 0.378326 0.066659
O O7 0.233051 0.326946 0.927168
O O8 0.500000 0.958445 0.500000
O O9 0.101927 0.937710 0.824378
O O10 0.230061 0.918805 0.517100
O O11 0.154703 0.000000 0.630787
O O12 0.411946 0.652954 0.390998
O O13 0.000000 0.631542 0.500000
#
# Coordination Sequence:
#
# PCOD9177337 Si02
#       6
#     8   8   8   4   8   8
#     4  10  19  33  51  72  98 135 174 209 243 284
#     4  11  17  30  47  65  93 131 168 196 243 294
#     4  10  19  28  42  67  95 126 164 202 244 302
#     4  12  15  28  48  62  94 132 166 194 245 308
#     4  11  18  32  49  66  97 134 169 199 252 305
#     4  11  21  35  51  71 101 138 173 207 246 287
#
# _framework density 22.200657
#
# number of rings (size 3 to 8) (size 9 to 14) (size 15 to 20)
#    0.000    1.273   10.000    2.455    0.000    0.727 
#    0.000    0.000    0.000    0.000    0.000    0.000 
#    0.000    0.727    0.000    6.909    0.727    0.182 
#
# Total GULP energy -122662.141182 kJ/mol
# GULP energy per Si atom -5575.551872 kJ/mol
# Density = 2.215013 g / cm^3
# Si number density = 22.200657 Si / 1000 Ang^3
#
#
#
# Elastic Constant Matrix: (Units=GPa)
#
#
# Indices 1 2 3 4 5 6 
#
# 1 34.2083 30.2356 10.5692 0.0000 -1.4857 0.0000
# 2 30.2356 223.7288 81.5995 0.0000 -14.2509 0.0000
# 3 10.5692 81.5995 105.0302 0.0000 -2.3375 0.0000
# 4 0.0000 0.0000 0.0000 35.3879 0.0000 -12.4860
# 5 -1.4857 -14.2509 -2.3375 0.0000 21.2509 0.0000
# 6 0.0000 0.0000 0.0000 -12.4860 0.0000 24.4120
#
#
#
# Elastic Compliance Matrix: (Units=1/GPa)
#
#
# Indices 1 2 3 4 5 6 
#
# 1 0.033213 -0.004621 0.000231 0.000000 -0.000751 0.000000
# 2 -0.004621 0.007177 -0.005023 0.000000 0.003937 0.000000
# 3 0.000231 -0.005023 0.013359 0.000000 -0.001883 0.000000
# 4 0.000000 0.000000 0.000000 0.034481 0.000000 0.017636
# 5 -0.000751 0.003937 -0.001883 0.000000 0.049438 0.000000
# 6 0.000000 0.000000 0.000000 0.017636 0.000000 0.049984
#
#
# Mechanical properties :
#
#
# Convention : Reuss Voigt Hill
#
# Bulk Modulus (GPa) = 28.63499 67.53064 48.08282
# Shear Modulus (GPa) = 22.92342 32.24770 27.58556
#
# Velocity S-wave (km/s) = 3.21683 3.81538 3.52882
# Velocity P-wave (km/s) = 5.16948 7.06355 6.18940
#
# Compressibility (1/GPa) = 0.03492231
#
# Stress axis : x y z
#
# Youngs Moduli (GPa) = 30.10897 139.33215 74.85768
#
# Poissons Ratio (x) = 0.64379 -0.01728
# Poissons Ratio (y) = 0.13912 0.37604
# Poissons Ratio (z) = -0.00695 0.69992
#
# Static dielectric constant tensor:
#      x y z
#    x 1.953800 0.000000 -0.057970 
#    y 0.000000 1.837290 0.000000 
#    z -0.057970 0.000000 1.948970 
# 
# From -- ./inp_files/209655.got.cif
#   From: 2010.05.17/outbox.cif.g08.bks.cpg/sg12_105_cif.got.tgz:209655.got - 2010.06.03 13:09:07.
