data_PCOD9177224
_publ_section_title
;
Structure prediction by ZEFSAII (Michael W. Deem and Ramdas Pophale) SiO2 
 PCOD9177224
Probable space group: C 2/M
;
_chemical_formula_sum "Si O2"
_cell_formula_units_Z 48
_cell_length_a 18.196854
_cell_length_b 26.997115
_cell_length_c 5.897247
_cell_angle_alpha 90.000000
_cell_angle_beta 48.481241
_cell_angle_gamma 90.000000
_cell_volume 2169.168486
_symmetry_space_group_name_H-M "C 2/M"
_symmetry_group_IT_number 12
_symmetry_cell_setting 'monoclinic'
loop_
_space_group_symop_operation_xyz
x,y,z
-x,y,-z
-x,-y,-z
x,-y,z
1/2+x,1/2+y,z
1/2-x,1/2+y,-z
1/2-x,1/2-y,-z
1/2+x,1/2-y,z
loop_
_atom_site_type_symbol
_atom_site_label
_atom_site_fract_x
_atom_site_fract_y
_atom_site_fract_z
Si Si1 0.140391 0.445147 0.860216
Si Si2 0.241102 0.391938 0.268222
Si Si3 0.258409 0.304350 0.578578
Si Si4 0.403939 0.850923 0.809506
Si Si5 0.950752 0.156048 0.351282
Si Si6 0.354087 0.443561 0.671483
O O1 0.099490 0.500000 0.962642
O O2 0.171131 0.429684 0.545648
O O3 0.246663 0.443780 0.770258
O O4 0.074145 0.402434 0.104340
O O5 0.275690 0.348354 0.362124
O O6 0.174861 0.365181 0.218333
O O7 0.328777 0.422058 0.972267
O O8 0.250000 0.250000 0.500000
O O9 0.349654 0.312266 0.559701
O O10 0.153457 0.316255 0.902476
O O11 0.500000 0.829583 0.500000
O O12 0.921663 0.097572 0.417007
O O13 0.000000 0.165534 0.500000
O O14 0.000000 0.166436 0.000000
O O15 0.390101 0.500000 0.598409
#
# Coordination Sequence:
#
# PCOD9177224 Si02
#       6
#     8   8   8   8   8   8
#     4   9  18  33  61  94 133 180 228 276 352 428
#     4  10  18  40  66  90 139 175 234 289 359 417
#     4  11  25  48  70  97 135 188 233 301 371 431
#     4  10  22  41  66  96 131 173 235 301 357 434
#     4  12  26  47  72 107 151 186 243 303 357 429
#     4  10  20  38  65  98 137 189 233 281 351 431
#
# _framework density 22.128292999999999
#
# number of rings (size 3 to 8) (size 9 to 14) (size 15 to 20)
#    0.000    1.667    5.000    1.500    0.000    5.000 
#    3.000    0.833    0.000    0.000    0.000    0.000 
#    0.000    0.000    0.000    0.000    0.000    0.000 
#
# Total GULP energy -134010.995387 kJ/mol
# GULP energy per Si atom -5583.791474 kJ/mol
# Density = 2.207793 g / cm^3
# Si number density = 22.128293 Si / 1000 Ang^3
#
#
#
# Elastic Constant Matrix: (Units=GPa)
#
#
# Indices 1 2 3 4 5 6 
#
# 1 59.3021 45.9633 12.6381 0.0000 3.0579 0.0000
# 2 45.9633 130.4189 40.4536 0.0000 -0.8316 0.0000
# 3 12.6381 40.4536 100.9169 0.0000 4.0813 0.0000
# 4 0.0000 0.0000 0.0000 -6.5900 0.0000 0.2211
# 5 3.0579 -0.8316 4.0813 0.0000 27.8554 0.0000
# 6 0.0000 0.0000 0.0000 0.2211 0.0000 11.2824
#
#
#
# Elastic Compliance Matrix: (Units=1/GPa)
#
#
# Indices 1 2 3 4 5 6 
#
# 1 0.023448 -0.008460 0.000572 0.000000 -0.002910 0.000000
# 2 -0.008460 0.011825 -0.003755 0.000000 0.001832 0.000000
# 3 0.000572 -0.003755 0.011417 0.000000 -0.001848 0.000000
# 4 0.000000 0.000000 0.000000 -0.151645 0.000000 0.002971
# 5 -0.002910 0.001832 -0.001848 0.000000 0.036545 0.000000
# 6 0.000000 0.000000 0.000000 0.002971 0.000000 0.088575
#
#
# Mechanical properties :
#
#
# Convention : Reuss Voigt Hill
#
# Bulk Modulus (GPa) = 42.72400 54.30532 48.51466
# Shear Modulus (GPa) = 97.55587 19.28175 58.41881
#
# Velocity S-wave (km/s) = 6.64697 2.95509 5.14367
# Velocity P-wave (km/s) = 8.84641 6.01978 7.56626
#
# Compressibility (1/GPa) = 0.02340605
#
# Stress axis : x y z
#
# Youngs Moduli (GPa) = 42.64784 84.56306 87.58555
#
# Poissons Ratio (x) = 0.71539 -0.05014
# Poissons Ratio (y) = 0.36079 0.32888
# Poissons Ratio (z) = -0.02441 0.31754
#
# Static dielectric constant tensor:
#      x y z
#    x 1.871150 0.000000 0.032530 
#    y 0.000000 1.771250 0.000000 
#    z 0.032530 0.000000 1.853970 
# 
# From -- ./inp_files/22261.got.cif
#   From: 2010.05.17/outbox.cif.g08.bks.cpg/sg12_12_cif.got.tgz:22261.got - 2010.06.03 13:09:07.
