data_PCOD9177434
_publ_section_title
;
Structure prediction by ZEFSAII (Michael W. Deem and Ramdas Pophale) SiO2 
 PCOD9177434
Probable space group: C 2/M
;
_chemical_formula_sum "Si O2"
_cell_formula_units_Z 64
_cell_length_a 28.407734
_cell_length_b 16.777640
_cell_length_c 9.244072
_cell_angle_alpha 90.000000
_cell_angle_beta 66.104441
_cell_angle_gamma 90.000000
_cell_volume 4028.214115
_symmetry_space_group_name_H-M "C 2/M"
_symmetry_group_IT_number 12
_symmetry_cell_setting 'monoclinic'
loop_
_space_group_symop_operation_xyz
x,y,z
-x,y,-z
-x,-y,-z
x,-y,z
1/2+x,1/2+y,z
1/2-x,1/2+y,-z
1/2-x,1/2-y,-z
1/2+x,1/2-y,z
loop_
_atom_site_type_symbol
_atom_site_label
_atom_site_fract_x
_atom_site_fract_y
_atom_site_fract_z
Si Si1 0.890766 0.408592 0.012507
Si Si2 0.130565 0.591223 0.276146
Si Si3 0.535223 0.907355 0.595537
Si Si4 0.292939 0.789435 0.703180
Si Si5 0.047189 0.293886 0.848916
Si Si6 0.351389 0.716070 0.364374
Si Si7 0.712413 0.834937 0.766133
Si Si8 0.770608 0.907435 0.427261
O O1 0.898485 0.500000 0.046116
O O2 0.922783 0.352553 0.078021
O O3 0.830353 0.385893 0.099240
O O4 0.903038 0.399853 0.827642
O O5 0.150906 0.500000 0.248472
O O6 0.093779 0.598369 0.461673
O O7 0.173895 0.658682 0.227943
O O8 0.500000 0.889531 0.500000
O O9 0.528957 0.847952 0.736785
O O10 0.525874 0.000000 0.648821
O O11 0.332612 0.745041 0.545259
O O12 0.252487 0.721474 0.802080
O O13 0.261443 0.854138 0.646771
O O14 0.088865 0.230733 0.738982
O O15 0.000000 0.259758 0.000000
O O16 0.320101 0.774139 0.294340
O O17 0.327868 0.629195 0.365042
O O18 0.744297 0.889624 0.615211
O O19 0.768854 0.000000 0.394646
#
# Coordination Sequence:
#
# PCOD9177434 Si02
#       8
#     8   8   8   8   8   8   8   8
#     4  10  20  31  42  64  94 121 152 181 214 258
#     4  10  19  29  42  61  90 123 151 183 215 254
#     4  10  20  32  45  63  86 115 151 187 220 258
#     4   9  15  28  44  63  90 119 152 180 215 258
#     4  11  20  32  49  63  84 120 149 185 224 262
#     4   8  16  29  42  65  90 113 146 185 219 261
#     4   8  16  27  43  64  90 119 148 183 213 253
#     4   9  15  25  46  69  90 115 147 183 221 262
#
# _framework density 15.887933
#
# number of rings (size 3 to 8) (size 9 to 14) (size 15 to 20)
#    0.000    2.625    1.250    3.375    0.000    2.500 
#    0.000    0.000    0.000    0.375    0.000    0.000 
#    0.000    0.500    0.000    0.000    0.000    0.375 
#
# Total GULP energy -178247.284089 kJ/mol
# GULP energy per Si atom -5570.227628 kJ/mol
# Density = 1.585177 g / cm^3
# Si number density = 15.887933 Si / 1000 Ang^3
#
#
#
# Elastic Constant Matrix: (Units=GPa)
#
#
# Indices 1 2 3 4 5 6 
#
# 1 58.5936 12.1550 10.7627 0.0000 -10.8831 0.0000
# 2 12.1550 42.7727 1.3614 0.0000 -7.3886 0.0000
# 3 10.7627 1.3614 43.3380 0.0000 -11.4667 0.0000
# 4 0.0000 0.0000 0.0000 14.5391 0.0000 1.4302
# 5 -10.8831 -7.3886 -11.4667 0.0000 26.6795 0.0000
# 6 0.0000 0.0000 0.0000 1.4302 0.0000 19.1958
#
#
#
# Elastic Compliance Matrix: (Units=1/GPa)
#
#
# Indices 1 2 3 4 5 6 
#
# 1 0.019607 -0.004549 -0.003321 0.000000 0.005311 0.000000
# 2 -0.004549 0.025661 0.001933 0.000000 0.006082 0.000000
# 3 -0.003321 0.001933 0.026653 0.000000 0.010636 0.000000
# 4 0.000000 0.000000 0.000000 0.069288 0.000000 -0.005162
# 5 0.005311 0.006082 0.010636 0.000000 0.045904 0.000000
# 6 0.000000 0.000000 0.000000 -0.005162 0.000000 0.052479
#
#
# Mechanical properties :
#
#
# Convention : Reuss Voigt Hill
#
# Bulk Modulus (GPa) = 16.65387 21.47361 19.06374
# Shear Modulus (GPa) = 18.41748 20.11121 19.26435
#
# Velocity S-wave (km/s) = 3.40841 3.56169 3.48590
# Velocity P-wave (km/s) = 5.09849 5.51899 5.31290
#
# Compressibility (1/GPa) = 0.06004611
#
# Stress axis : x y z
#
# Youngs Moduli (GPa) = 51.00276 38.96961 37.51986
#
# Poissons Ratio (x) = 0.17726 0.12461
# Poissons Ratio (y) = 0.23199 -0.07251
# Poissons Ratio (z) = 0.16939 -0.07531
#
# Static dielectric constant tensor:
#      x y z
#    x 1.563490 0.000000 -0.018260 
#    y 0.000000 1.503880 0.000000 
#    z -0.018260 0.000000 1.558920 
# 
# From -- ./inp_files/112322.got.cif
#   From: 2010.05.17/outbox.cif.g08.bks.cpg/sg12_57_cif.got.tgz:112322.got - 2010.06.03 13:09:07.
