data_PCOD9177376
_publ_section_title
;
Structure prediction by ZEFSAII (Michael W. Deem and Ramdas Pophale) SiO2 
 PCOD9177376
Probable space group: C 2/M
;
_chemical_formula_sum "Si O2"
_cell_formula_units_Z 56
_cell_length_a 14.462645
_cell_length_b 29.364593
_cell_length_c 11.656610
_cell_angle_alpha 90.000000
_cell_angle_beta 142.800204
_cell_angle_gamma 90.000000
_cell_volume 2993.018823
_symmetry_space_group_name_H-M "C 2/M"
_symmetry_group_IT_number 12
_symmetry_cell_setting 'monoclinic'
loop_
_space_group_symop_operation_xyz
x,y,z
-x,y,-z
-x,-y,-z
x,-y,z
1/2+x,1/2+y,z
1/2-x,1/2+y,-z
1/2-x,1/2-y,-z
1/2+x,1/2-y,z
loop_
_atom_site_type_symbol
_atom_site_label
_atom_site_fract_x
_atom_site_fract_y
_atom_site_fract_z
Si Si1 0.933588 0.152833 0.306233
Si Si2 0.774704 0.000000 0.194227
Si Si3 0.161462 0.249064 0.225992
Si Si4 0.878428 0.746724 0.223764
Si Si5 0.111154 0.000000 0.426763
Si Si6 0.330016 0.901901 0.868355
Si Si7 0.303832 0.402972 0.518641
Si Si8 0.156500 0.685972 0.429592
O O1 0.959191 0.204526 0.296711
O O2 0.759331 0.135268 0.143694
O O3 0.000000 0.148672 0.500000
O O4 0.030533 0.120801 0.319257
O O5 0.683121 0.047482 0.089099
O O6 0.827329 0.000000 0.380285
O O7 0.927647 0.000000 0.267110
O O8 0.293087 0.247140 0.260686
O O9 0.163361 0.294845 0.305401
O O10 0.210331 0.210020 0.364126
O O11 0.000000 0.244245 0.000000
O O12 0.996664 0.705919 0.319763
O O13 0.750000 0.750000 0.000000
O O14 0.172595 0.955053 0.424470
O O15 0.244144 0.905053 0.662085
O O16 0.500000 0.889546 0.000000
O O17 0.186032 0.367947 0.460261
#
# Coordination Sequence:
#
# PCOD9177376 Si02
#       8
#     8   4   8   8   4   8   8   8
#     4  10  19  33  49  73 107 152 192 230 279 349
#     4   9  15  30  46  74 108 148 185 231 288 350
#     4  11  22  40  59  85 120 157 200 241 293 348
#     4  12  24  37  57  84 122 157 197 247 295 350
#     4   9  16  32  52  76 104 144 194 237 285 358
#     4  10  19  28  49  77 112 146 190 234 284 350
#     4  10  20  33  54  75 105 148 193 237 288 344
#     4  11  23  39  59  85 119 158 201 245 290 357
#
# _framework density 18.710205999999999
#
# number of rings (size 3 to 8) (size 9 to 14) (size 15 to 20)
#    0.000    1.571    2.857    4.929    2.000    1.143 
#    0.000    0.000    0.000    0.000    0.000    2.500 
#    0.000    0.000    0.000    0.000    0.000    0.000 
#
# Total GULP energy -156162.736467 kJ/mol
# GULP energy per Si atom -5577.240588 kJ/mol
# Density = 1.866762 g / cm^3
# Si number density = 18.710206 Si / 1000 Ang^3
#
#
#
# Elastic Constant Matrix: (Units=GPa)
#
#
# Indices 1 2 3 4 5 6 
#
# 1 105.9612 45.3169 26.2997 0.0000 20.3908 0.0000
# 2 45.3169 135.6350 20.2036 0.0000 16.0213 0.0000
# 3 26.2997 20.2036 71.1049 0.0000 9.9530 0.0000
# 4 0.0000 0.0000 0.0000 11.4891 0.0000 6.7982
# 5 20.3908 16.0213 9.9530 0.0000 30.9877 0.0000
# 6 0.0000 0.0000 0.0000 6.7982 0.0000 29.0007
#
#
#
# Elastic Compliance Matrix: (Units=1/GPa)
#
#
# Indices 1 2 3 4 5 6 
#
# 1 0.012602 -0.003089 -0.002980 0.000000 -0.005739 0.000000
# 2 -0.003089 0.008821 -0.001058 0.000000 -0.002188 0.000000
# 3 -0.002980 -0.001058 0.015827 0.000000 -0.002576 0.000000
# 4 0.000000 0.000000 0.000000 0.101055 0.000000 -0.023689
# 5 -0.005739 -0.002188 -0.002576 0.000000 0.038006 0.000000
# 6 0.000000 0.000000 0.000000 -0.023689 0.000000 0.040035
#
#
# Mechanical properties :
#
#
# Convention : Reuss Voigt Hill
#
# Bulk Modulus (GPa) = 43.48423 55.14905 49.31664
# Shear Modulus (GPa) = 20.98501 29.02090 25.00295
#
# Velocity S-wave (km/s) = 3.35263 3.94264 3.65955
# Velocity P-wave (km/s) = 6.18694 7.08980 6.65370
#
# Compressibility (1/GPa) = 0.02299684
#
# Stress axis : x y z
#
# Youngs Moduli (GPa) = 79.34958 113.36920 63.18274
#
# Poissons Ratio (x) = 0.35018 0.18831
# Poissons Ratio (y) = 0.24510 0.06682
# Poissons Ratio (z) = 0.23649 0.11989
#
# Static dielectric constant tensor:
#      x y z
#    x 1.705760 0.000000 0.091390 
#    y 0.000000 1.706510 0.000000 
#    z 0.091390 0.000000 1.777810 
# 
# From -- ./inp_files/149539.got.cif
#   From: 2010.05.17/outbox.cif.g08.bks.cpg/sg12_75_cif.got.tgz:149539.got - 2010.06.03 13:09:07.
