data_PCOD9177190
_publ_section_title
;
Structure prediction by ZEFSAII (Michael W. Deem and Ramdas Pophale) SiO2 
 PCOD9177190
Probable space group: C 2/M
;
_chemical_formula_sum "Si O2"
_cell_formula_units_Z 36
_cell_length_a 21.942573
_cell_length_b 11.671363
_cell_length_c 8.013807
_cell_angle_alpha 90.000000
_cell_angle_beta 131.206478
_cell_angle_gamma 90.000000
_cell_volume 1544.053730
_symmetry_space_group_name_H-M "C 2/M"
_symmetry_group_IT_number 12
_symmetry_cell_setting 'monoclinic'
loop_
_space_group_symop_operation_xyz
x,y,z
-x,y,-z
-x,-y,-z
x,-y,z
1/2+x,1/2+y,z
1/2-x,1/2+y,-z
1/2-x,1/2-y,-z
1/2+x,1/2-y,z
loop_
_atom_site_type_symbol
_atom_site_label
_atom_site_fract_x
_atom_site_fract_y
_atom_site_fract_z
Si Si1 0.473359 0.371897 0.183033
Si Si2 0.143393 0.701622 0.158117
Si Si3 0.218600 0.500000 0.095512
Si Si4 0.871744 0.829598 0.336571
Si Si5 0.795386 0.367512 0.373031
O O1 0.456503 0.500000 0.088647
O O2 0.421734 0.354977 0.260677
O O3 0.567361 0.362924 0.403138
O O4 0.439110 0.270320 0.010258
O O5 0.156876 0.601288 0.050360
O O6 0.159636 0.646792 0.368641
O O7 0.211641 0.800160 0.250197
O O8 0.290035 0.401911 0.192739
O O9 0.846221 0.698847 0.324667
O O10 0.783757 0.500000 0.306411
#
# Coordination Sequence:
#
# PCOD9177190 Si02
#       5
#     8   8   4   8   8
#     4  11  21  42  61  93 118 161 202 260 286 370
#     4  10  22  37  64  88 123 154 210 242 309 346
#     4  10  18  39  62  89 116 166 184 254 298 366
#     4  10  21  40  66  84 125 160 203 240 317 346
#     4  10  21  41  59  88 122 165 193 256 297 368
#
# _framework density 23.315251
#
# number of rings (size 3 to 8) (size 9 to 14) (size 15 to 20)
#    0.000    1.778    3.333    1.333    0.000    4.444 
#   10.000    3.333    0.000    0.000    0.000    0.000 
#    0.000    0.000    0.000    0.000    0.000    0.000 
#
# Total GULP energy -100222.197351 kJ/mol
# GULP energy per Si atom -5567.899853 kJ/mol
# Density = 2.326218 g / cm^3
# Si number density = 23.315251 Si / 1000 Ang^3
#
#
#
# Elastic Constant Matrix: (Units=GPa)
#
#
# Indices 1 2 3 4 5 6 
#
# 1 92.7709 41.9141 11.8846 0.0000 2.9083 0.0000
# 2 41.9141 197.9385 14.0060 0.0000 4.0722 0.0000
# 3 11.8846 14.0060 68.0036 0.0000 10.5669 0.0000
# 4 0.0000 0.0000 0.0000 14.3372 0.0000 -2.4964
# 5 2.9083 4.0722 10.5669 0.0000 12.3201 0.0000
# 6 0.0000 0.0000 0.0000 -2.4964 0.0000 6.2860
#
#
#
# Elastic Compliance Matrix: (Units=1/GPa)
#
#
# Indices 1 2 3 4 5 6 
#
# 1 0.012097 -0.002440 -0.001492 0.000000 -0.000769 0.000000
# 2 -0.002440 0.005628 -0.000615 0.000000 -0.000757 0.000000
# 3 -0.001492 -0.000615 0.017314 0.000000 -0.014294 0.000000
# 4 0.000000 0.000000 0.000000 0.074930 0.000000 0.029757
# 5 -0.000769 -0.000757 -0.014294 0.000000 0.093860 0.000000
# 6 0.000000 0.000000 0.000000 0.029757 0.000000 0.170902
#
#
# Mechanical properties :
#
#
# Convention : Reuss Voigt Hill
#
# Bulk Modulus (GPa) = 38.54447 54.92472 46.73459
# Shear Modulus (GPa) = 12.73973 25.98255 19.36114
#
# Velocity S-wave (km/s) = 2.34008 3.34189 2.88480
# Velocity P-wave (km/s) = 4.88560 6.20480 5.58429
#
# Compressibility (1/GPa) = 0.02594406
#
# Stress axis : x y z
#
# Youngs Moduli (GPa) = 82.66531 177.68698 57.75769
#
# Poissons Ratio (x) = 0.43359 0.08617
# Poissons Ratio (y) = 0.20172 0.03553
# Poissons Ratio (z) = 0.12334 0.10930
#
# Static dielectric constant tensor:
#      x y z
#    x 1.866260 0.000000 -0.083800 
#    y 0.000000 1.826000 0.000000 
#    z -0.083800 0.000000 1.990450 
# 
# From -- ./inp_files/94701.got.cif
#   From: 2010.05.17/outbox.cif.g08.bks.cpg/sg12_48_cif.got.tgz:94701.got - 2010.06.03 13:09:07.
