data_PCOD9177404
_publ_section_title
;
Structure prediction by ZEFSAII (Michael W. Deem and Ramdas Pophale) SiO2 
 PCOD9177404
Probable space group: C 2/M
;
_chemical_formula_sum "Si O2"
_cell_formula_units_Z 56
_cell_length_a 27.743237
_cell_length_b 7.573508
_cell_length_c 17.008461
_cell_angle_alpha 90.000000
_cell_angle_beta 65.467285
_cell_angle_gamma 90.000000
_cell_volume 3251.090456
_symmetry_space_group_name_H-M "C 2/M"
_symmetry_group_IT_number 12
_symmetry_cell_setting 'monoclinic'
loop_
_space_group_symop_operation_xyz
x,y,z
-x,y,-z
-x,-y,-z
x,-y,z
1/2+x,1/2+y,z
1/2-x,1/2+y,-z
1/2-x,1/2-y,-z
1/2+x,1/2-y,z
loop_
_atom_site_type_symbol
_atom_site_label
_atom_site_fract_x
_atom_site_fract_y
_atom_site_fract_z
Si Si1 0.762273 0.789775 0.186641
Si Si2 0.443427 0.284291 0.633686
Si Si3 0.692615 0.711664 0.000792
Si Si4 0.436563 0.287278 0.459484
Si Si5 0.647944 0.286115 0.188699
Si Si6 0.828250 0.707406 0.454320
Si Si7 0.743227 0.705046 0.635256
O O1 0.702411 0.763669 0.195874
O O2 0.765768 0.716456 0.272474
O O3 0.772349 0.000000 0.183436
O O4 0.801747 0.718762 0.091969
O O5 0.442894 0.500000 0.634597
O O6 0.427269 0.229357 0.556187
O O7 0.504374 0.228990 0.604490
O O8 0.402010 0.223298 0.727030
O O9 0.686049 0.500000 0.000486
O O10 0.652182 0.776624 0.095190
O O11 0.750000 0.750000 0.000000
O O12 0.437189 0.500000 0.459921
O O13 0.388968 0.231217 0.435995
O O14 0.646245 0.500000 0.188290
O O15 0.816737 0.500000 0.455751
O O16 0.791342 0.781228 0.550171
O O17 0.807804 0.786593 0.386541
O O18 0.757309 0.500000 0.638980
#
# Coordination Sequence:
#
# PCOD9177404 Si02
#       7
#     8   8   8   8   8   8   8
#     4   9  16  26  39  57  81 106 131 157 189 230
#     4   8  15  26  41  60  79 104 136 160 183 225
#     4   8  14  23  36  55  79 104 127 155 189 225
#     4   9  16  28  43  57  78 107 134 159 189 226
#     4   9  15  24  39  59  82 106 131 158 189 224
#     4  10  19  29  41  59  80 100 128 165 197 226
#     4   9  18  30  42  56  77 106 133 156 190 234
#
# _framework density 17.224989999999998
#
# number of rings (size 3 to 8) (size 9 to 14) (size 15 to 20)
#    0.000    3.143    0.000    2.143    0.000    1.143 
#    0.000    2.143    0.000    0.000    0.000    1.000 
#    0.000    8.000    0.000    0.000    0.000    0.000 
#
# Total GULP energy -155907.310104 kJ/mol
# GULP energy per Si atom -5568.118218 kJ/mol
# Density = 1.718578 g / cm^3
# Si number density = 17.224990 Si / 1000 Ang^3
#
#
#
# Elastic Constant Matrix: (Units=GPa)
#
#
# Indices 1 2 3 4 5 6 
#
# 1 69.5616 -11.3310 53.7748 0.0000 7.0255 0.0000
# 2 -11.3310 38.1099 3.1987 0.0000 2.0307 -0.0001
# 3 53.7748 3.1987 182.4847 0.0000 11.0543 0.0000
# 4 0.0000 0.0000 0.0000 0.0784 0.0000 -1.8151
# 5 7.0255 2.0307 11.0543 0.0000 25.8718 0.0000
# 6 0.0000 -0.0001 0.0000 -1.8151 0.0000 14.8843
#
#
#
# Elastic Compliance Matrix: (Units=1/GPa)
#
#
# Indices 1 2 3 4 5 6 
#
# 1 0.020408 0.006753 -0.005918 -0.000002 -0.003544 0.000000
# 2 0.006753 0.028606 -0.002304 -0.000010 -0.003095 -0.000001
# 3 -0.005918 -0.002304 0.007346 0.000001 -0.001351 0.000000
# 4 -0.000002 -0.000010 0.000001 -6.993742 0.000002 -0.852875
# 5 -0.003544 -0.003095 -0.001351 0.000002 0.040435 0.000000
# 6 0.000000 -0.000001 0.000000 -0.852875 0.000000 -0.036822
#
#
# Mechanical properties :
#
#
# Convention : Reuss Voigt Hill
#
# Bulk Modulus (GPa) = 18.71823 42.38236 30.55030
# Shear Modulus (GPa) = -0.72327 24.46779 11.87226
#
# Velocity S-wave (km/s) = -0.64870 3.77302 2.62820
# Velocity P-wave (km/s) = 3.21394 6.60602 5.19465
#
# Compressibility (1/GPa) = 0.05342386
#
# Stress axis : x y z
#
# Youngs Moduli (GPa) = 48.99944 34.95751 136.12907
#
# Poissons Ratio (x) = -0.23608 0.80557
# Poissons Ratio (y) = -0.33091 0.31365
# Poissons Ratio (z) = 0.28996 0.08054
#
# Static dielectric constant tensor:
#      x y z
#    x 1.544350 0.000000 0.006690 
#    y 0.000000 1.643090 0.000000 
#    z 0.006690 0.000000 1.645830 
# 
# From -- ./inp_files/291446.got.cif
#   From: 2010.05.17/outbox.cif.g08.bks.cpg/sg12_146_cif.got.tgz:291446.got - 2010.06.03 13:09:07.
