data_PCOD9177166
_publ_section_title
;
Structure prediction by ZEFSAII (Michael W. Deem and Ramdas Pophale) SiO2 
 PCOD9177166
Probable space group: C 2/M
;
_chemical_formula_sum "Si O2"
_cell_formula_units_Z 50
_cell_length_a 14.911007
_cell_length_b 24.368558
_cell_length_c 6.439263
_cell_angle_alpha 90.000000
_cell_angle_beta 64.312994
_cell_angle_gamma 90.000000
_cell_volume 2108.542070
_symmetry_space_group_name_H-M "C 2/M"
_symmetry_group_IT_number 12
_symmetry_cell_setting 'monoclinic'
loop_
_space_group_symop_operation_xyz
x,y,z
-x,y,-z
-x,-y,-z
x,-y,z
1/2+x,1/2+y,z
1/2-x,1/2+y,-z
1/2-x,1/2-y,-z
1/2+x,1/2-y,z
loop_
_atom_site_type_symbol
_atom_site_label
_atom_site_fract_x
_atom_site_fract_y
_atom_site_fract_z
Si Si1 0.099150 0.701011 0.998194
Si Si2 0.871192 0.407596 0.496653
Si Si3 0.959878 0.000000 0.287159
Si Si4 0.500000 0.000000 0.500000
Si Si5 0.000000 0.694400 0.500000
Si Si6 0.610715 0.313439 0.800477
Si Si7 0.245707 0.116751 0.973161
Si Si8 0.829666 0.900519 0.543519
O O1 0.056057 0.725765 0.259531
O O2 0.133476 0.749405 0.812648
O O3 0.183566 0.658785 0.973340
O O4 0.000000 0.674143 0.000000
O O5 0.956388 0.451667 0.388083
O O6 0.917982 0.347547 0.487206
O O7 0.784394 0.407283 0.416447
O O8 0.815495 0.423014 0.769970
O O9 0.895048 0.055307 0.359303
O O10 0.000000 0.000000 0.500000
O O11 0.000000 0.000000 0.000000
O O12 0.684947 0.347827 0.869787
O O13 0.500000 0.321325 0.000000
O O14 0.628875 0.340334 0.558344
O O15 0.171735 0.089662 0.209759
#
# Coordination Sequence:
#
# PCOD9177166 Si02
#       8
#     8   8   4   2   4   8   8   8
#     4  10  20  36  58  91 128 168 216 259 329 399
#     4   9  20  37  60  91 124 167 206 264 330 404
#     4  12  31  49  74  99 129 175 227 290 358 409
#     4  10  18  38  66  84 124 156 200 262 322 404
#     4   9  18  35  58  88 132 173 208 263 330 400
#     4  10  23  38  60  88 125 165 219 272 324 394
#     4  10  22  38  61  90 126 167 210 266 328 403
#     4  11  24  42  65  89 126 161 217 272 339 397
#
# _framework density 23.713066000000001
#
# number of rings (size 3 to 8) (size 9 to 14) (size 15 to 20)
#    0.000    1.920    0.000    2.400    6.720    3.840 
#    0.000    0.800    0.000    0.000    0.000    0.000 
#    0.000    0.000    0.000    0.000    0.000    0.000 
#
# Total GULP energy -139229.750315 kJ/mol
# GULP energy per Si atom -5569.190013 kJ/mol
# Density = 2.365909 g / cm^3
# Si number density = 23.713066 Si / 1000 Ang^3
#
#
#
# Elastic Constant Matrix: (Units=GPa)
#
#
# Indices 1 2 3 4 5 6 
#
# 1 80.6223 -5.6101 -18.5816 0.0000 8.9734 0.0000
# 2 -5.6101 48.2110 12.2523 0.0000 4.3513 0.0000
# 3 -18.5816 12.2523 128.3262 0.0000 -3.4216 0.0000
# 4 0.0000 0.0000 0.0000 6.2606 0.0000 12.8598
# 5 8.9734 4.3513 -3.4216 0.0000 20.5577 0.0000
# 6 0.0000 0.0000 0.0000 12.8598 0.0000 -5.1061
#
#
#
# Elastic Compliance Matrix: (Units=1/GPa)
#
#
# Indices 1 2 3 4 5 6 
#
# 1 0.013570 0.001704 0.001642 0.000000 -0.006011 0.000000
# 2 0.001704 0.021966 -0.002003 0.000000 -0.005727 0.000000
# 3 0.001642 -0.002003 0.008250 0.000000 0.001081 0.000000
# 4 0.000000 0.000000 0.000000 0.025874 0.000000 0.065165
# 5 -0.006011 -0.005727 0.001081 0.000000 0.052659 0.000000
# 6 0.000000 0.000000 0.000000 0.065165 0.000000 -0.031725
#
#
# Mechanical properties :
#
#
# Convention : Reuss Voigt Hill
#
# Bulk Modulus (GPa) = 21.51827 25.92011 23.71919
# Shear Modulus (GPa) = 48.35583 22.28237 35.31910
#
# Velocity S-wave (km/s) = 4.52066 3.06872 3.86351
# Velocity P-wave (km/s) = 6.02848 4.84877 5.47052
#
# Compressibility (1/GPa) = 0.04647213
#
# Stress axis : x y z
#
# Youngs Moduli (GPa) = 73.69468 45.52404 121.20542
#
# Poissons Ratio (x) = -0.07758 -0.19901
# Poissons Ratio (y) = -0.12559 0.24280
# Poissons Ratio (z) = -0.12100 0.09120
#
# Static dielectric constant tensor:
#      x y z
#    x 1.943130 0.000000 -0.001790 
#    y 0.000000 1.859850 0.000000 
#    z -0.001790 0.000000 2.058120 
# 
# From -- ./inp_files/13114.got.cif
#   From: 2010.05.17/outbox.cif.g08.bks.cpg/sg12_7_cif.got.tgz:13114.got - 2010.06.03 13:09:07.
