data_PCOD9177730
_publ_section_title
;
Structure prediction by ZEFSAII (Michael W. Deem and Ramdas Pophale) SiO2 
 PCOD9177730
Probable space group: C 2/M
;
_chemical_formula_sum "Si O2"
_cell_formula_units_Z 56
_cell_length_a 25.000771
_cell_length_b 23.532697
_cell_length_c 14.976299
_cell_angle_alpha 90.000000
_cell_angle_beta 159.968803
_cell_angle_gamma 90.000000
_cell_volume 3018.077834
_symmetry_space_group_name_H-M "C 2/M"
_symmetry_group_IT_number 12
_symmetry_cell_setting 'monoclinic'
loop_
_space_group_symop_operation_xyz
x,y,z
-x,y,-z
-x,-y,-z
x,-y,z
1/2+x,1/2+y,z
1/2-x,1/2+y,-z
1/2-x,1/2-y,-z
1/2+x,1/2-y,z
loop_
_atom_site_type_symbol
_atom_site_label
_atom_site_fract_x
_atom_site_fract_y
_atom_site_fract_z
Si Si1 0.451369 0.186657 0.322592
Si Si2 0.419079 0.346653 0.793414
Si Si3 0.062814 0.433482 0.996712
Si Si4 0.900866 0.269564 0.930303
Si Si5 0.406612 0.322893 0.264112
Si Si6 0.852062 0.857858 0.491803
Si Si7 0.911081 0.340863 0.642842
O O1 0.500000 0.171038 0.500000
O O2 0.436517 0.255285 0.298189
O O3 0.571628 0.164434 0.436080
O O4 0.277726 0.165932 0.023919
O O5 0.380990 0.373577 0.639609
O O6 0.255404 0.323685 0.576387
O O7 0.500000 0.381866 0.000000
O O8 0.540731 0.294930 0.967780
O O9 0.075506 0.500000 0.998145
O O10 0.228207 0.401100 0.255485
O O11 0.000000 0.426515 0.000000
O O12 0.952868 0.401503 0.752808
O O13 0.729885 0.294955 0.643398
O O14 0.000000 0.291170 0.000000
O O15 0.960038 0.299178 0.112856
O O16 0.500000 0.338951 0.500000
O O17 0.488346 0.354585 0.310825
#
# Coordination Sequence:
#
# PCOD9177730 Si02
#       7
#     8   8   8   8   8   8   8
#     4  10  23  36  51  79 114 165 195 218 272 338
#     4  11  23  28  48  84 113 148 179 218 282 342
#     4  10  20  38  64  86 107 138 183 239 298 345
#     4  10  19  29  47  78 110 144 177 221 276 324
#     4  10  21  36  53  77 115 159 200 228 266 324
#     4  11  20  36  54  80 116 143 189 238 276 330
#     4  11  19  37  54  76 113 141 189 231 274 337
#
# _framework density 18.554856000000001
#
# number of rings (size 3 to 8) (size 9 to 14) (size 15 to 20)
#    0.000    1.571    2.857    3.857    8.000    1.143 
#    0.000    0.000    0.000    6.000    0.000    0.000 
#    0.000    0.000    0.000    0.000    0.000    0.000 
#
# Total GULP energy -156149.006689 kJ/mol
# GULP energy per Si atom -5576.750239 kJ/mol
# Density = 1.851262 g / cm^3
# Si number density = 18.554856 Si / 1000 Ang^3
#
#
#
# Elastic Constant Matrix: (Units=GPa)
#
#
# Indices 1 2 3 4 5 6 
#
# 1 104.1749 -0.1836 18.4708 0.0000 -8.3012 0.0000
# 2 -0.1836 56.0357 4.2228 0.0000 -2.2669 0.0000
# 3 18.4708 4.2228 66.3732 0.0000 -9.1812 0.0000
# 4 0.0000 0.0000 0.0000 9.0346 0.0000 -1.4935
# 5 -8.3012 -2.2669 -9.1812 0.0000 38.5722 0.0000
# 6 0.0000 0.0000 0.0000 -1.4935 0.0000 13.6364
#
#
#
# Elastic Compliance Matrix: (Units=1/GPa)
#
#
# Indices 1 2 3 4 5 6 
#
# 1 0.010193 0.000296 -0.002636 0.000000 0.001584 0.000000
# 2 0.000296 0.017965 -0.001107 0.000000 0.000856 0.000000
# 3 -0.002636 -0.001107 0.016320 0.000000 0.003252 0.000000
# 4 0.000000 0.000000 0.000000 0.112727 0.000000 0.012346
# 5 0.001584 0.000856 0.003252 0.000000 0.027091 0.000000
# 6 0.000000 0.000000 0.000000 0.012346 0.000000 0.074685
#
#
# Mechanical properties :
#
#
# Convention : Reuss Voigt Hill
#
# Bulk Modulus (GPa) = 26.60714 30.17823 28.39268
# Shear Modulus (GPa) = 17.95952 25.85355 21.90654
#
# Velocity S-wave (km/s) = 3.11451 3.73682 3.43977
# Velocity P-wave (km/s) = 5.22536 5.90915 5.57774
#
# Compressibility (1/GPa) = 0.03758389
#
# Stress axis : x y z
#
# Youngs Moduli (GPa) = 98.10252 55.66450 61.27331
#
# Poissons Ratio (x) = -0.01648 0.16155
# Poissons Ratio (y) = -0.02905 0.06783
# Poissons Ratio (z) = 0.25865 0.06162
#
# Static dielectric constant tensor:
#      x y z
#    x 1.677710 0.000000 -0.028090 
#    y 0.000000 1.643980 0.000000 
#    z -0.028090 0.000000 1.685810 
# 
# From -- ./inp_files/242184.got.cif
#   From: 2010.05.17/outbox.cif.g08.bks.cpg/sg12_122_cif.got.tgz:242184.got - 2010.06.03 13:09:07.
