data_PCOD9177916
_publ_section_title
;
Structure prediction by ZEFSAII (Michael W. Deem and Ramdas Pophale) SiO2 
 PCOD9177916
Probable space group: C 2/M
;
_chemical_formula_sum "Si O2"
_cell_formula_units_Z 64
_cell_length_a 13.747831
_cell_length_b 7.527866
_cell_length_c 23.745640
_cell_angle_alpha 90.000000
_cell_angle_beta 71.445512
_cell_angle_gamma 90.000000
_cell_volume 2329.743547
_symmetry_space_group_name_H-M "C 2/M"
_symmetry_group_IT_number 12
_symmetry_cell_setting 'monoclinic'
loop_
_space_group_symop_operation_xyz
x,y,z
-x,y,-z
-x,-y,-z
x,-y,z
1/2+x,1/2+y,z
1/2-x,1/2+y,-z
1/2-x,1/2-y,-z
1/2+x,1/2-y,z
loop_
_atom_site_type_symbol
_atom_site_label
_atom_site_fract_x
_atom_site_fract_y
_atom_site_fract_z
Si Si1 0.857170 0.710929 0.052377
Si Si2 0.875027 0.789943 0.927224
Si Si3 0.851321 0.296204 0.173324
Si Si4 0.566091 0.213572 0.433826
Si Si5 0.884708 0.712085 0.804300
Si Si6 0.448056 0.795099 0.678476
Si Si7 0.216578 0.692961 0.570610
Si Si8 0.290969 0.782173 0.304711
O O1 0.850410 0.500000 0.062908
O O2 0.741671 0.783040 0.060756
O O3 0.891770 0.786848 0.106732
O O4 0.911667 0.730023 0.981810
O O5 0.928436 0.743941 0.858361
O O6 0.868343 0.000000 0.931457
O O7 0.887062 0.500000 0.171271
O O8 0.727988 0.296417 0.181654
O O9 0.851858 0.223321 0.236973
O O10 0.500000 0.245721 0.500000
O O11 0.508819 0.276001 0.388270
O O12 0.669813 0.315032 0.424655
O O13 0.585652 0.000000 0.427037
O O14 0.872245 0.500000 0.799933
O O15 0.951278 0.782250 0.739857
O O16 0.325033 0.786653 0.685969
O O17 0.480016 0.000000 0.677898
O O18 0.167977 0.500000 0.570589
O O19 0.250000 0.750000 0.500000
O O20 0.170451 0.771964 0.639356
O O21 0.289809 0.000000 0.304221
#
# Coordination Sequence:
#
# PCOD9177916 Si02
#       8
#     8   8   8   8   8   8   8   8
#     4   8  13  19  26  36  51  73 102 139 180 219
#     4   9  15  20  25  34  51  76 107 142 178 217
#     4   8  13  21  31  42  57  78 108 145 184 224
#     4   9  17  30  47  65  86 111 139 173 214 258
#     4   9  14  19  28  41  58  80 109 145 182 220
#     4   8  14  23  35  52  71  92 120 155 194 235
#     4  10  19  30  45  64  87 113 142 176 212 252
#     4   8  14  24  37  52  69  92 122 157 195 233
#
# _framework density 27.470837
#
# number of rings (size 3 to 8) (size 9 to 14) (size 15 to 20)
#    0.000    3.375    0.000    1.875    0.000    4.250 
#    0.000    0.000    0.000    0.000    0.000    0.000 
#    0.000    0.000    0.000    0.000    0.000    1.250 
#
# Total GULP energy -178400.187460 kJ/mol
# GULP energy per Si atom -5575.005858 kJ/mol
# Density = 2.740831 g / cm^3
# Si number density = 27.470837 Si / 1000 Ang^3
#
#
#
# Elastic Constant Matrix: (Units=GPa)
#
#
# Indices 1 2 3 4 5 6 
#
# 1 76.0909 8.4458 39.5363 0.0000 34.9284 0.0000
# 2 8.4458 85.3642 11.2855 0.0000 -1.0116 0.0000
# 3 39.5363 11.2855 367.3271 0.0000 10.4632 0.0000
# 4 0.0000 0.0000 0.0000 22.1130 0.0000 -2.6201
# 5 34.9284 -1.0116 10.4632 0.0000 50.2584 0.0000
# 6 0.0000 0.0000 0.0000 -2.6201 0.0000 -4.4081
#
#
#
# Elastic Compliance Matrix: (Units=1/GPa)
#
#
# Indices 1 2 3 4 5 6 
#
# 1 0.020752 -0.001986 -0.001771 0.000000 -0.014094 0.000000
# 2 -0.001986 0.011957 -0.000201 0.000000 0.001663 0.000000
# 3 -0.001771 -0.000201 0.002901 0.000000 0.000623 0.000000
# 4 0.000000 0.000000 0.000000 0.042247 0.000000 -0.025111
# 5 -0.014094 0.001663 0.000623 0.000000 0.029596 0.000000
# 6 0.000000 0.000000 0.000000 -0.025111 0.000000 -0.211930
#
#
# Mechanical properties :
#
#
# Convention : Reuss Voigt Hill
#
# Bulk Modulus (GPa) = 36.10797 71.92417 54.01607
# Shear Modulus (GPa) = -57.25556 44.89364 -6.18096
#
# Velocity S-wave (km/s) = -4.57029 4.04695 -1.50163
# Velocity P-wave (km/s) = 3.83111 6.93368 4.08647
#
# Compressibility (1/GPa) = 0.02769472
#
# Stress axis : x y z
#
# Youngs Moduli (GPa) = 48.18718 83.63100 344.65689
#
# Poissons Ratio (x) = 0.16610 0.61044
# Poissons Ratio (y) = 0.09570 0.06926
# Poissons Ratio (z) = 0.08535 0.01681
#
# Static dielectric constant tensor:
#      x y z
#    x 2.304920 0.000000 -0.133700 
#    y 0.000000 2.015570 0.000000 
#    z -0.133700 0.000000 2.341840 
# 
# From -- ./inp_files/323367.got.cif
#   From: 2010.05.17/outbox.cif.g08.bks.cpg/sg12_162_cif.got.tgz:323367.got - 2010.06.03 13:09:07.
