data_PCOD9177716
_publ_section_title
;
Structure prediction by ZEFSAII (Michael W. Deem and Ramdas Pophale) SiO2 
 PCOD9177716
Probable space group: C 2/M
;
_chemical_formula_sum "Si O2"
_cell_formula_units_Z 56
_cell_length_a 31.792106
_cell_length_b 8.467927
_cell_length_c 20.309903
_cell_angle_alpha 90.000000
_cell_angle_beta 36.208317
_cell_angle_gamma 90.000000
_cell_volume 3229.891884
_symmetry_space_group_name_H-M "C 2/M"
_symmetry_group_IT_number 12
_symmetry_cell_setting 'monoclinic'
loop_
_space_group_symop_operation_xyz
x,y,z
-x,y,-z
-x,-y,-z
x,-y,z
1/2+x,1/2+y,z
1/2-x,1/2+y,-z
1/2-x,1/2-y,-z
1/2+x,1/2-y,z
loop_
_atom_site_type_symbol
_atom_site_label
_atom_site_fract_x
_atom_site_fract_y
_atom_site_fract_z
Si Si1 0.302784 0.308563 0.748279
Si Si2 0.471283 0.308882 0.729159
Si Si3 0.075683 0.182325 0.865778
Si Si4 0.180250 0.688108 0.124999
Si Si5 0.449954 0.692510 0.502095
Si Si6 0.991802 0.809100 0.850451
Si Si7 0.852937 0.312505 0.100842
O O1 0.302516 0.500000 0.750725
O O2 0.317197 0.247239 0.803239
O O3 0.369053 0.259226 0.618998
O O4 0.225342 0.255762 0.821127
O O5 0.471988 0.500000 0.728090
O O6 0.390772 0.253791 0.819228
O O7 0.518095 0.253960 0.607845
O O8 0.497381 0.255888 0.768105
O O9 0.129148 0.272766 0.845948
O O10 0.053912 0.247410 0.821674
O O11 0.098863 0.000000 0.831099
O O12 0.000000 0.182571 0.000000
O O13 0.179199 0.500000 0.124404
O O14 0.250000 0.750000 0.000000
O O15 0.500000 0.742642 0.500000
O O16 0.451589 0.500000 0.499574
O O17 0.994768 0.000000 0.848618
O O18 0.915449 0.760960 0.977154
O O19 0.855814 0.500000 0.088042
#
# Coordination Sequence:
#
# PCOD9177716 Si02
#       7
#     8   8   8   8   8   8   8
#     4  10  20  35  52  73 100 130 168 208 245 291
#     4  10  19  34  55  75  97 129 169 208 246 290
#     4   8  15  29  47  68  97 129 161 198 239 292
#     4  12  24  35  49  72 102 133 163 199 249 300
#     4   9  16  31  56  75  92 127 172 210 245 286
#     4   9  18  31  49  73  99 128 163 200 242 295
#     4  10  19  29  47  74 101 128 160 200 247 296
#
# _framework density 17.338041
#
# number of rings (size 3 to 8) (size 9 to 14) (size 15 to 20)
#    0.000    2.286    1.429    3.429    0.000    6.571 
#    0.000    1.429    0.000    0.857    0.000    0.000 
#    0.000    0.000    0.000    0.000    0.000    1.429 
#
# Total GULP energy -156151.978337 kJ/mol
# GULP energy per Si atom -5576.856369 kJ/mol
# Density = 1.729858 g / cm^3
# Si number density = 17.338041 Si / 1000 Ang^3
#
#
#
# Elastic Constant Matrix: (Units=GPa)
#
#
# Indices 1 2 3 4 5 6 
#
# 1 97.9713 5.2108 26.8791 -0.0013 36.1568 0.0022
# 2 5.2108 6.5004 3.4851 -0.0042 4.4903 0.0059
# 3 26.8791 3.4851 86.7106 -0.0109 28.8268 0.0022
# 4 -0.0013 -0.0042 -0.0109 11.6675 0.0016 0.4856
# 5 36.1568 4.4903 28.8268 0.0016 22.8829 0.0004
# 6 0.0022 0.0059 0.0022 0.4856 0.0004 21.8747
#
#
#
# Elastic Compliance Matrix: (Units=1/GPa)
#
#
# Indices 1 2 3 4 5 6 
#
# 1 0.030660 0.014918 0.012001 0.000030 -0.066491 -0.000008
# 2 0.014918 0.188231 0.013637 0.000096 -0.077687 -0.000054
# 3 0.012001 0.013637 0.024876 0.000037 -0.052977 -0.000007
# 4 0.000030 0.000096 0.000037 0.085787 -0.000119 -0.001904
# 5 -0.066491 -0.077687 -0.052977 -0.000119 0.230743 0.000031
# 6 -0.000008 -0.000054 -0.000007 -0.001904 0.000031 0.045757
#
#
# Mechanical properties :
#
#
# Convention : Reuss Voigt Hill
#
# Bulk Modulus (GPa) = 3.07807 29.14804 16.11306
# Shear Modulus (GPa) = 7.89595 21.65882 14.77739
#
# Velocity S-wave (km/s) = 2.13635 3.53825 2.92260
# Velocity P-wave (km/s) = 2.80438 5.79141 4.54999
#
# Compressibility (1/GPa) = 0.32487924
#
# Stress axis : x y z
#
# Youngs Moduli (GPa) = 32.61607 5.31262 40.19877
#
# Poissons Ratio (x) = -0.07925 -0.48242
# Poissons Ratio (y) = -0.48657 -0.54819
# Poissons Ratio (z) = -0.39142 -0.07245
#
# Static dielectric constant tensor:
#      x y z
#    x 1.603150 0.000000 0.017850 
#    y 0.000000 1.592610 0.000000 
#    z 0.017850 0.000000 1.576900 
# 
# From -- ./inp_files/295093.got.cif
#   From: 2010.05.17/outbox.cif.g08.bks.cpg/sg12_148_cif.got.tgz:295093.got - 2010.06.03 13:09:07.
