data_PCOD9177894
_publ_section_title
;
Structure prediction by ZEFSAII (Michael W. Deem and Ramdas Pophale) SiO2 
 PCOD9177894
Probable space group: C 2/M
;
_chemical_formula_sum "Si O2"
_cell_formula_units_Z 56
_cell_length_a 25.790156
_cell_length_b 25.217842
_cell_length_c 14.338193
_cell_angle_alpha 90.000000
_cell_angle_beta 19.785525
_cell_angle_gamma 90.000000
_cell_volume 3156.568739
_symmetry_space_group_name_H-M "C 2/M"
_symmetry_group_IT_number 12
_symmetry_cell_setting 'monoclinic'
loop_
_space_group_symop_operation_xyz
x,y,z
-x,y,-z
-x,-y,-z
x,-y,z
1/2+x,1/2+y,z
1/2-x,1/2+y,-z
1/2-x,1/2-y,-z
1/2+x,1/2-y,z
loop_
_atom_site_type_symbol
_atom_site_label
_atom_site_fract_x
_atom_site_fract_y
_atom_site_fract_z
Si Si1 0.636785 0.307132 0.341130
Si Si2 0.939860 0.349598 0.856820
Si Si3 0.610781 0.437390 0.731258
Si Si4 0.534713 0.937603 0.835273
Si Si5 0.647583 0.784458 0.812300
Si Si6 0.059715 0.850675 0.671450
Si Si7 0.734878 0.197776 0.274292
O O1 0.500000 0.305718 0.500000
O O2 0.589393 0.341965 0.511708
O O3 0.674324 0.246904 0.312585
O O4 0.791513 0.336500 0.044970
O O5 0.952055 0.403850 0.895137
O O6 0.093514 0.339597 0.539100
O O7 0.913438 0.306748 0.984701
O O8 0.584001 0.500000 0.762848
O O9 0.782750 0.431303 0.478478
O O10 0.580971 0.406844 0.685473
O O11 0.500000 0.416872 0.000000
O O12 0.494771 0.000000 0.897231
O O13 0.500000 0.919078 0.000000
O O14 0.797578 0.816980 0.527080
O O15 0.709872 0.725850 0.723942
O O16 0.500000 0.786960 0.000000
O O17 0.888539 0.829338 0.977091
#
# Coordination Sequence:
#
# PCOD9177894 Si02
#       7
#     8   8   8   8   8   8   8
#     4  10  21  38  56  74  99 132 173 219 263 309
#     4  10  19  33  50  72 101 129 168 214 257 304
#     4  10  20  33  52  79 109 141 172 202 244 300
#     4  10  19  32  52  75 101 138 177 210 248 297
#     4  10  19  30  44  67 101 139 169 199 247 307
#     4  10  20  34  51  74 104 135 173 214 253 297
#     4  10  21  32  48  74 100 131 168 209 257 309
#
# _framework density 17.740783
#
# number of rings (size 3 to 8) (size 9 to 14) (size 15 to 20)
#    0.000    2.286    0.000    7.286    0.000    6.286 
#    0.000    0.000    0.000    1.714    0.000    0.000 
#    0.000    6.857    0.000    0.000    0.000    0.000 
#
# Total GULP energy -155998.034397 kJ/mol
# GULP energy per Si atom -5571.358371 kJ/mol
# Density = 1.770040 g / cm^3
# Si number density = 17.740783 Si / 1000 Ang^3
#
#
#
# Elastic Constant Matrix: (Units=GPa)
#
#
# Indices 1 2 3 4 5 6 
#
# 1 71.6553 22.1901 22.0873 0.0045 -36.7305 0.0032
# 2 22.1901 46.4064 14.1343 0.0027 -7.8926 0.0010
# 3 22.0873 14.1343 122.3612 0.0130 -15.9759 0.0015
# 4 0.0045 0.0027 0.0130 15.4340 -0.0092 2.2018
# 5 -36.7305 -7.8926 -15.9759 -0.0092 26.2973 0.0040
# 6 0.0032 0.0010 0.0015 2.2018 0.0040 11.8363
#
#
#
# Elastic Compliance Matrix: (Units=1/GPa)
#
#
# Indices 1 2 3 4 5 6 
#
# 1 0.057273 -0.014807 0.001343 0.000037 0.076367 -0.000047
# 2 -0.014807 0.026942 -0.002263 -0.000008 -0.013970 0.000008
# 3 0.001343 -0.002263 0.009067 -0.000003 0.006705 -0.000003
# 4 0.000037 -0.000008 -0.000003 0.066558 0.000072 -0.012381
# 5 0.076367 -0.013970 0.006705 0.000072 0.144572 -0.000083
# 6 -0.000047 0.000008 -0.000003 -0.012381 -0.000083 0.086789
#
#
# Mechanical properties :
#
#
# Convention : Reuss Voigt Hill
#
# Bulk Modulus (GPa) = 16.17411 39.69404 27.93407
# Shear Modulus (GPa) = 11.27992 22.84760 17.06376
#
# Velocity S-wave (km/s) = 2.52428 3.59257 3.10472
# Velocity P-wave (km/s) = 4.19913 6.29537 5.35091
#
# Compressibility (1/GPa) = 0.06182721
#
# Stress axis : x y z
#
# Youngs Moduli (GPa) = 17.46025 37.11628 110.29057
#
# Poissons Ratio (x) = 0.54958 -0.14811
# Poissons Ratio (y) = 0.25853 0.24963
# Poissons Ratio (z) = -0.02345 0.08401
#
# Static dielectric constant tensor:
#      x y z
#    x 1.618230 0.000000 -0.006170 
#    y 0.000000 1.627360 0.000010 
#    z -0.006170 0.000010 1.671960 
# 
# From -- ./inp_files/247359.got.cif
#   From: 2010.05.17/outbox.cif.g08.bks.cpg/sg12_124_cif.got.tgz:247359.got - 2010.06.03 13:09:07.
