data_PCOD9177060
_publ_section_title
;
Structure prediction by ZEFSAII (Michael W. Deem and Ramdas Pophale) SiO2 
 PCOD9177060
Probable space group: C 2/M
;
_chemical_formula_sum "Si O2"
_cell_formula_units_Z 44
_cell_length_a 9.328579
_cell_length_b 23.770759
_cell_length_c 12.086429
_cell_angle_alpha 90.000000
_cell_angle_beta 126.199608
_cell_angle_gamma 90.000000
_cell_volume 2162.772797
_symmetry_space_group_name_H-M "C 2/M"
_symmetry_group_IT_number 12
_symmetry_cell_setting 'monoclinic'
loop_
_space_group_symop_operation_xyz
x,y,z
-x,y,-z
-x,-y,-z
x,-y,z
1/2+x,1/2+y,z
1/2-x,1/2+y,-z
1/2-x,1/2-y,-z
1/2+x,1/2-y,z
loop_
_atom_site_type_symbol
_atom_site_label
_atom_site_fract_x
_atom_site_fract_y
_atom_site_fract_z
Si Si1 0.882565 0.500000 0.086639
Si Si2 0.795015 0.692127 0.888493
Si Si3 0.035322 0.386735 0.631992
Si Si4 0.311114 0.091601 0.730711
Si Si5 0.757396 0.500000 0.274719
Si Si6 0.788186 0.819197 0.910563
Si Si7 0.390656 0.500000 0.241802
O O1 0.758431 0.500000 0.139915
O O2 0.014798 0.554270 0.152700
O O3 0.760931 0.500000 0.923313
O O4 0.783836 0.650999 0.779732
O O5 0.716522 0.755145 0.856804
O O6 0.740956 0.661674 0.976632
O O7 0.000000 0.703830 0.000000
O O8 0.130900 0.444949 0.645684
O O9 0.176411 0.355679 0.774717
O O10 0.000000 0.356180 0.500000
O O11 0.858335 0.397683 0.624095
O O12 0.147687 0.053193 0.696059
O O13 0.574492 0.500000 0.258988
O O14 0.000000 0.822528 0.000000
#
# Coordination Sequence:
#
# PCOD9177060 Si02
#       7
#     4   8   8   8   4   8   4
#     4   9  19  32  54  93 123 154 192 245 305 360
#     4  10  18  37  62  90 122 155 196 242 309 353
#     4  11  24  44  61  83 121 171 201 234 299 375
#     4  10  20  35  60  84 120 164 196 240 298 366
#     4  10  24  37  58  85 119 157 201 249 297 351
#     4  10  23  36  64  94 120 151 201 255 297 344
#     4  11  21  33  57  96 119 146 202 261 300 342
#
# _framework density 20.344255
#
# number of rings (size 3 to 8) (size 9 to 14) (size 15 to 20)
#    0.000    1.818    1.818    3.273    5.091    0.000 
#    0.000    2.727    0.000    0.000    0.000    0.000 
#    0.000    0.000    0.000    0.000    0.000    0.000 
#
# Total GULP energy -122623.308502 kJ/mol
# GULP energy per Si atom -5573.786750 kJ/mol
# Density = 2.029795 g / cm^3
# Si number density = 20.344255 Si / 1000 Ang^3
#
#
#
# Elastic Constant Matrix: (Units=GPa)
#
#
# Indices 1 2 3 4 5 6 
#
# 1 160.6642 17.9468 44.6354 0.0000 -38.4669 0.0000
# 2 17.9468 74.3968 11.3771 0.0000 -4.8881 0.0000
# 3 44.6354 11.3771 63.8130 0.0000 -26.5847 0.0000
# 4 0.0000 0.0000 0.0000 -31.1996 0.0000 -27.2188
# 5 -38.4669 -4.8881 -26.5847 0.0000 22.7610 0.0000
# 6 0.0000 0.0000 0.0000 -27.2188 0.0000 15.5895
#
#
#
# Elastic Compliance Matrix: (Units=1/GPa)
#
#
# Indices 1 2 3 4 5 6 
#
# 1 0.010600 -0.001426 0.000342 0.000000 0.018007 0.000000
# 2 -0.001426 0.014010 -0.002437 0.000000 -0.002247 0.000000
# 3 0.000342 -0.002437 0.030947 0.000000 0.036201 0.000000
# 4 0.000000 0.000000 0.000000 -0.012703 0.000000 -0.022179
# 5 0.018007 -0.002247 0.036201 0.000000 0.116167 0.000000
# 6 0.000000 0.000000 0.000000 -0.022179 0.000000 0.025422
#
#
# Mechanical properties :
#
#
# Convention : Reuss Voigt Hill
#
# Bulk Modulus (GPa) = 20.61186 49.64363 35.12775
# Shear Modulus (GPa) = 24.07808 16.42449 20.25128
#
# Velocity S-wave (km/s) = 3.44398 2.84443 3.15847
# Velocity P-wave (km/s) = 5.09590 5.93654 5.53221
#
# Compressibility (1/GPa) = 0.04851575
#
# Stress axis : x y z
#
# Youngs Moduli (GPa) = 94.34120 71.37545 32.31282
#
# Poissons Ratio (x) = 0.10179 -0.01104
# Poissons Ratio (y) = 0.13454 0.07873
# Poissons Ratio (z) = -0.03224 0.17391
#
# Static dielectric constant tensor:
#      x y z
#    x 1.616510 0.000000 -0.020330 
#    y 0.000000 1.780820 0.000000 
#    z -0.020330 0.000000 1.742410 
# 
# From -- ./inp_files/122705.got.cif
#   From: 2010.05.17/outbox.cif.g08.bks.cpg/sg12_62_cif.got.tgz:122705.got - 2010.06.03 13:09:07.
