data_PCOD9177612
_publ_section_title
;
Structure prediction by ZEFSAII (Michael W. Deem and Ramdas Pophale) SiO2 
 PCOD9177612
Probable space group: C 2/M
;
_chemical_formula_sum "Si O2"
_cell_formula_units_Z 64
_cell_length_a 27.117170
_cell_length_b 9.451257
_cell_length_c 14.678132
_cell_angle_alpha 90.000000
_cell_angle_beta 108.972683
_cell_angle_gamma 90.000000
_cell_volume 3557.509200
_symmetry_space_group_name_H-M "C 2/M"
_symmetry_group_IT_number 12
_symmetry_cell_setting 'monoclinic'
loop_
_space_group_symop_operation_xyz
x,y,z
-x,y,-z
-x,-y,-z
x,-y,z
1/2+x,1/2+y,z
1/2-x,1/2+y,-z
1/2-x,1/2-y,-z
1/2+x,1/2-y,z
loop_
_atom_site_type_symbol
_atom_site_label
_atom_site_fract_x
_atom_site_fract_y
_atom_site_fract_z
Si Si1 0.961043 0.338350 0.564224
Si Si2 0.119621 0.834438 0.592035
Si Si3 0.175122 0.830967 0.140250
Si Si4 0.196473 0.831976 0.952299
Si Si5 0.043514 0.164867 0.720793
Si Si6 0.923046 0.664884 0.882307
Si Si7 0.037151 0.335586 0.886412
Si Si8 0.783732 0.169981 0.235745
O O1 0.952821 0.500000 0.588491
O O2 0.908408 0.262972 0.498930
O O3 0.000000 0.340724 0.500000
O O4 0.992013 0.247278 0.656801
O O5 0.084427 0.823732 0.662579
O O6 0.177938 0.795042 0.657891
O O7 0.118463 0.000000 0.564145
O O8 0.126336 0.763969 0.163399
O O9 0.229626 0.755337 0.199311
O O10 0.178769 0.000000 0.154020
O O11 0.165246 0.799829 0.025902
O O12 0.184488 0.800086 0.839658
O O13 0.205046 0.000000 0.960506
O O14 0.250000 0.750000 0.000000
O O15 0.061908 0.236078 0.825348
O O16 0.033251 0.000000 0.729338
O O17 0.909407 0.500000 0.859285
O O18 0.975397 0.697134 0.857701
O O19 0.940423 0.678589 0.998608
O O20 0.043154 0.500000 0.863177
O O21 0.773737 0.000000 0.231718
#
# Coordination Sequence:
#
# PCOD9177612 Si02
#       8
#     8   8   8   8   8   8   8   8
#     4   9  17  30  47  67  95 127 158 192 230 278
#     4   9  18  30  46  69  98 129 159 193 232 278
#     4  10  19  29  45  67  92 120 157 201 237 273
#     4   8  15  26  39  56  83 116 151 188 222 261
#     4  10  19  30  49  73  98 125 155 193 239 284
#     4   9  19  35  51  66  91 126 160 197 240 282
#     4   9  19  35  51  69  92 121 161 200 235 282
#     4   9  17  30  45  62  91 128 161 189 227 281
#
# _framework density 17.990116
#
# number of rings (size 3 to 8) (size 9 to 14) (size 15 to 20)
#    0.000    2.875    0.000    1.875    1.750    4.000 
#    0.000    1.250    0.000    0.000    0.000    0.875 
#    0.000    0.000    0.000    0.000    0.000    0.000 
#
# Total GULP energy -178232.938677 kJ/mol
# GULP energy per Si atom -5569.779334 kJ/mol
# Density = 1.794917 g / cm^3
# Si number density = 17.990116 Si / 1000 Ang^3
#
#
#
# Elastic Constant Matrix: (Units=GPa)
#
#
# Indices 1 2 3 4 5 6 
#
# 1 62.8361 38.9613 2.8189 0.0000 20.1929 0.0000
# 2 38.9613 59.1889 20.0581 0.0000 12.2516 0.0000
# 3 2.8189 20.0581 35.9686 0.0000 17.0346 0.0000
# 4 0.0000 0.0000 0.0000 22.2390 0.0000 2.0790
# 5 20.1929 12.2516 17.0346 0.0000 27.6512 0.0000
# 6 0.0000 0.0000 0.0000 2.0790 0.0000 16.6309
#
#
#
# Elastic Compliance Matrix: (Units=1/GPa)
#
#
# Indices 1 2 3 4 5 6 
#
# 1 0.052324 -0.038173 0.038508 0.000000 -0.045020 0.000000
# 2 -0.038173 0.048851 -0.038407 0.000000 0.029893 0.000000
# 3 0.038508 -0.038407 0.072660 0.000000 -0.055867 0.000000
# 4 0.000000 0.000000 0.000000 0.045498 0.000000 -0.005688
# 5 -0.045020 0.029893 -0.055867 0.000000 0.090213 0.000000
# 6 0.000000 0.000000 0.000000 -0.005688 0.000000 0.060840
#
#
# Mechanical properties :
#
#
# Convention : Reuss Voigt Hill
#
# Bulk Modulus (GPa) = 10.23652 31.29668 20.76660
# Shear Modulus (GPa) = 10.43637 19.71458 15.07548
#
# Velocity S-wave (km/s) = 2.41117 3.31396 2.89794
# Velocity P-wave (km/s) = 3.66799 5.66370 4.77135
#
# Compressibility (1/GPa) = 0.09768942
#
# Stress axis : x y z
#
# Youngs Moduli (GPa) = 19.11187 20.47058 13.76264
#
# Poissons Ratio (x) = 0.78143 -0.52997
# Poissons Ratio (y) = 0.72956 0.52859
# Poissons Ratio (z) = -0.73596 0.78622
#
# Static dielectric constant tensor:
#      x y z
#    x 1.618380 0.000000 -0.002420 
#    y 0.000000 1.595050 0.000000 
#    z -0.002420 0.000000 1.634850 
# 
# From -- ./inp_files/244198.got.cif
#   From: 2010.05.17/outbox.cif.g08.bks.cpg/sg12_123_cif.got.tgz:244198.got - 2010.06.03 13:09:07.
