data_PCOD9177842
_publ_section_title
;
Structure prediction by ZEFSAII (Michael W. Deem and Ramdas Pophale) SiO2 
 PCOD9177842
Probable space group: C 2/M
;
_chemical_formula_sum "Si O2"
_cell_formula_units_Z 56
_cell_length_a 22.292823
_cell_length_b 12.774016
_cell_length_c 19.592857
_cell_angle_alpha 90.000000
_cell_angle_beta 137.088765
_cell_angle_gamma 90.000000
_cell_volume 3798.839825
_symmetry_space_group_name_H-M "C 2/M"
_symmetry_group_IT_number 12
_symmetry_cell_setting 'monoclinic'
loop_
_space_group_symop_operation_xyz
x,y,z
-x,y,-z
-x,-y,-z
x,-y,z
1/2+x,1/2+y,z
1/2-x,1/2+y,-z
1/2-x,1/2-y,-z
1/2+x,1/2-y,z
loop_
_atom_site_type_symbol
_atom_site_label
_atom_site_fract_x
_atom_site_fract_y
_atom_site_fract_z
Si Si1 0.513241 0.877362 0.850685
Si Si2 0.038826 0.126349 0.640843
Si Si3 0.621425 0.737768 0.839717
Si Si4 0.091954 0.256182 0.042442
Si Si5 0.171583 0.625082 0.236087
Si Si6 0.793222 0.876275 0.962035
Si Si7 0.133107 0.873720 0.576803
O O1 0.550645 0.808374 0.820749
O O2 0.410350 0.859413 0.781225
O O3 0.527935 0.000000 0.851111
O O4 0.564784 0.840612 0.961892
O O5 0.078616 0.179978 0.740176
O O6 0.096522 0.152232 0.621677
O O7 0.939187 0.161051 0.538726
O O8 0.040212 0.000000 0.649751
O O9 0.701996 0.812177 0.884300
O O10 0.660521 0.656580 0.927988
O O11 0.148898 0.312353 0.148328
O O12 0.145061 0.166388 0.047475
O O13 0.000000 0.220063 0.000000
O O14 0.175254 0.500000 0.223994
O O15 0.265678 0.659166 0.344384
O O16 0.779942 0.000000 0.947584
O O17 0.132062 0.000000 0.572070
#
# Coordination Sequence:
#
# PCOD9177842 Si02
#       7
#     8   8   8   8   8   8   8
#     4   9  17  28  42  63  91 117 142 173 205 245
#     4   9  16  28  45  65  88 109 134 175 219 253
#     4  10  19  30  44  62  85 115 145 169 206 255
#     4   9  17  28  44  66  88 113 143 171 209 254
#     4   9  15  26  45  67  90 112 137 175 216 247
#     4  10  20  31  43  62  87 113 142 174 206 249
#     4   8  15  26  43  67  87 105 135 175 218 255
#
# _framework density 14.741343000000001
#
# number of rings (size 3 to 8) (size 9 to 14) (size 15 to 20)
#    0.000    2.857    0.000    3.000    0.000    2.000 
#    0.000    5.000    0.000    0.000    0.000   19.000 
#    0.000    0.000    0.000    0.000    0.000    0.000 
#
# Total GULP energy -155952.935117 kJ/mol
# GULP energy per Si atom -5569.747683 kJ/mol
# Density = 1.470779 g / cm^3
# Si number density = 14.741343 Si / 1000 Ang^3
#
#
#
# Elastic Constant Matrix: (Units=GPa)
#
#
# Indices 1 2 3 4 5 6 
#
# 1 75.5356 43.5017 60.2881 0.0000 3.5113 0.0000
# 2 43.5017 65.5785 44.1679 0.0000 -0.1169 0.0000
# 3 60.2881 44.1679 122.2327 0.0000 6.7877 0.0000
# 4 0.0000 0.0000 0.0000 20.5570 0.0000 -0.6153
# 5 3.5113 -0.1169 6.7877 0.0000 22.1205 0.0000
# 6 0.0000 0.0000 0.0000 -0.6153 0.0000 15.7747
#
#
#
# Elastic Compliance Matrix: (Units=1/GPa)
#
#
# Indices 1 2 3 4 5 6 
#
# 1 0.027610 -0.012170 -0.009129 0.000000 -0.001646 0.000000
# 2 -0.012170 0.025642 -0.003436 0.000000 0.003122 0.000000
# 3 -0.009129 -0.003436 0.014086 0.000000 -0.002891 0.000000
# 4 0.000000 0.000000 0.000000 0.048702 0.000000 0.001900
# 5 -0.001646 0.003122 -0.002891 0.000000 0.046372 0.000000
# 6 0.000000 0.000000 0.000000 0.001900 0.000000 0.063467
#
#
# Mechanical properties :
#
#
# Convention : Reuss Voigt Hill
#
# Bulk Modulus (GPa) = 55.96750 62.14024 59.05387
# Shear Modulus (GPa) = 17.77424 19.38304 18.57864
#
# Velocity S-wave (km/s) = 3.47615 3.63006 3.55393
# Velocity P-wave (km/s) = 7.35936 7.73401 7.54901
#
# Compressibility (1/GPa) = 0.01786751
#
# Stress axis : x y z
#
# Youngs Moduli (GPa) = 36.21816 38.99889 70.99151
#
# Poissons Ratio (x) = 0.47461 0.64810
# Poissons Ratio (y) = 0.44077 0.24396
# Poissons Ratio (z) = 0.33065 0.13402
#
# Static dielectric constant tensor:
#      x y z
#    x 1.498060 0.000000 0.021200 
#    y 0.000000 1.458980 0.000000 
#    z 0.021200 0.000000 1.479000 
# 
# From -- ./inp_files/245679.got.cif
#   From: 2010.05.17/outbox.cif.g08.bks.cpg/sg12_123_cif.got.tgz:245679.got - 2010.06.03 13:09:07.
