data_PCOD9177896
_publ_section_title
;
Structure prediction by ZEFSAII (Michael W. Deem and Ramdas Pophale) SiO2 
 PCOD9177896
Probable space group: C 2/M
;
_chemical_formula_sum "Si O2"
_cell_formula_units_Z 48
_cell_length_a 23.560556
_cell_length_b 8.786418
_cell_length_c 27.450694
_cell_angle_alpha 90.000000
_cell_angle_beta 29.990839
_cell_angle_gamma 90.000000
_cell_volume 2840.536891
_symmetry_space_group_name_H-M "C 2/M"
_symmetry_group_IT_number 12
_symmetry_cell_setting 'monoclinic'
loop_
_space_group_symop_operation_xyz
x,y,z
-x,y,-z
-x,-y,-z
x,-y,z
1/2+x,1/2+y,z
1/2-x,1/2+y,-z
1/2-x,1/2-y,-z
1/2+x,1/2-y,z
loop_
_atom_site_type_symbol
_atom_site_label
_atom_site_fract_x
_atom_site_fract_y
_atom_site_fract_z
Si Si1 0.081965 0.829231 0.758319
Si Si2 0.972223 0.317533 0.098780
Si Si3 0.817055 0.683468 0.121298
Si Si4 0.640822 0.315834 0.608096
Si Si5 0.404055 0.821235 0.750588
Si Si6 0.669415 0.328268 0.097947
O O1 0.072887 0.743438 0.816248
O O2 0.140716 0.764911 0.665405
O O3 0.952751 0.840806 0.836067
O O4 0.126812 0.000000 0.733650
O O5 0.977470 0.500000 0.097838
O O6 0.885624 0.277959 0.119536
O O7 0.098020 0.267625 0.986324
O O8 0.807165 0.500000 0.126162
O O9 0.691499 0.754200 0.214340
O O10 0.639412 0.500000 0.609512
O O11 0.750000 0.250000 0.500000
O O12 0.526704 0.258886 0.665375
O O13 0.345242 0.781201 0.845609
O O14 0.419742 0.000000 0.731653
O O15 0.705569 0.500000 0.085465
O O16 0.750000 0.250000 0.000000
#
# Coordination Sequence:
#
# PCOD9177896 Si02
#       6
#     8   8   8   8   8   8
#     4   9  19  32  47  70 100 128 159 201 250 298
#     4   9  18  31  50  73 101 139 177 207 243 289
#     4   9  18  33  49  71 104 140 175 211 244 284
#     4  10  21  38  57  77 100 128 162 209 262 311
#     4  11  21  32  49  74 100 132 169 205 250 303
#     4  10  19  30  44  67  99 133 165 203 248 297
#
# _framework density 16.898213999999999
#
# number of rings (size 3 to 8) (size 9 to 14) (size 15 to 20)
#    0.000    2.333    0.000    5.500    0.000    8.000 
#    0.000    1.667    0.000    1.000    0.000    7.000 
#    0.000    0.000    0.000    0.000    0.000    0.000 
#
# Total GULP energy -133659.617510 kJ/mol
# GULP energy per Si atom -5569.150730 kJ/mol
# Density = 1.685975 g / cm^3
# Si number density = 16.898214 Si / 1000 Ang^3
#
#
#
# Elastic Constant Matrix: (Units=GPa)
#
#
# Indices 1 2 3 4 5 6 
#
# 1 88.8318 30.9708 49.8533 0.0001 -0.8362 -0.0001
# 2 30.9708 54.6689 31.1702 0.0002 -1.0017 0.0001
# 3 49.8533 31.1702 117.2082 0.0000 3.9151 0.0001
# 4 0.0001 0.0002 0.0000 25.4020 -0.0001 -0.7780
# 5 -0.8362 -1.0017 3.9151 -0.0001 25.5800 0.0002
# 6 -0.0001 0.0001 0.0001 -0.7780 0.0002 25.9755
#
#
#
# Elastic Compliance Matrix: (Units=1/GPa)
#
#
# Indices 1 2 3 4 5 6 
#
# 1 0.016462 -0.006238 -0.005380 0.000000 0.001117 0.000000
# 2 -0.006238 0.024001 -0.003774 0.000000 0.001313 0.000000
# 3 -0.005380 -0.003774 0.011895 0.000000 -0.002144 0.000000
# 4 0.000000 0.000000 0.000000 0.039403 0.000000 0.001180
# 5 0.001117 0.001313 -0.002144 0.000000 0.039509 0.000000
# 6 0.000000 0.000000 0.000000 0.001180 0.000000 0.038533
#
#
# Mechanical properties :
#
#
# Convention : Reuss Voigt Hill
#
# Bulk Modulus (GPa) = 46.34928 53.85526 50.10227
# Shear Modulus (GPa) = 24.06394 25.30582 24.68488
#
# Velocity S-wave (km/s) = 3.77776 3.87401 3.82619
# Velocity P-wave (km/s) = 6.82031 7.20765 7.01665
#
# Compressibility (1/GPa) = 0.02157531
#
# Stress axis : x y z
#
# Youngs Moduli (GPa) = 60.74571 41.66433 84.06553
#
# Poissons Ratio (x) = 0.25989 0.45231
# Poissons Ratio (y) = 0.37892 0.31723
# Poissons Ratio (z) = 0.32684 0.15722
#
# Static dielectric constant tensor:
#      x y z
#    x 1.592280 0.000000 -0.014140 
#    y 0.000000 1.595490 0.000000 
#    z -0.014140 0.000000 1.550910 
# 
# From -- ./inp_files/367121.got.cif
#   From: 2010.05.17/outbox.cif.g08.bks.cpg/sg12_184_cif.got.tgz:367121.got - 2010.06.03 13:09:07.
