data_PCOD9177588
_publ_section_title
;
Structure prediction by ZEFSAII (Michael W. Deem and Ramdas Pophale) SiO2 
 PCOD9177588
Probable space group: C 2/M
;
_chemical_formula_sum "Si O2"
_cell_formula_units_Z 56
_cell_length_a 15.260559
_cell_length_b 14.015934
_cell_length_c 14.364543
_cell_angle_alpha 90.000000
_cell_angle_beta 127.983417
_cell_angle_gamma 90.000000
_cell_volume 2421.668094
_symmetry_space_group_name_H-M "C 2/M"
_symmetry_group_IT_number 12
_symmetry_cell_setting 'monoclinic'
loop_
_space_group_symop_operation_xyz
x,y,z
-x,y,-z
-x,-y,-z
x,-y,z
1/2+x,1/2+y,z
1/2-x,1/2+y,-z
1/2-x,1/2-y,-z
1/2+x,1/2-y,z
loop_
_atom_site_type_symbol
_atom_site_label
_atom_site_fract_x
_atom_site_fract_y
_atom_site_fract_z
Si Si1 0.650203 0.611352 0.007208
Si Si2 0.630057 0.797778 0.798929
Si Si3 0.325022 0.115192 0.374949
Si Si4 0.403299 0.115930 0.627136
Si Si5 0.580616 0.388155 0.688027
Si Si6 0.340886 0.613074 0.473568
Si Si7 0.087411 0.888701 0.186124
O O1 0.660895 0.500000 0.989132
O O2 0.768970 0.660498 0.075642
O O3 0.623101 0.614058 0.100790
O O4 0.536183 0.652855 0.889142
O O5 0.641364 0.839333 0.700432
O O6 0.507798 0.835409 0.745049
O O7 0.643920 0.684925 0.794418
O O8 0.397307 0.138183 0.512489
O O9 0.196932 0.145124 0.310749
O O10 0.326956 0.000000 0.364932
O O11 0.282652 0.147351 0.586170
O O12 0.413407 0.000000 0.642135
O O13 0.587516 0.500000 0.716023
O O14 0.628036 0.376935 0.614606
O O15 0.451275 0.355412 0.600780
O O16 0.336494 0.500000 0.490763
O O17 0.074700 0.000000 0.203443
#
# Coordination Sequence:
#
# PCOD9177588 Si02
#       7
#     8   8   8   8   8   8   8
#     4   8  13  23  40  64  94 123 152 180 214 272
#     4  11  19  26  43  70  97 126 148 180 238 277
#     4   9  17  27  40  67 104 130 147 172 222 288
#     4  10  19  29  44  70 103 125 141 177 234 293
#     4   9  19  35  49  59  82 122 172 207 217 249
#     4   8  17  34  49  59  81 123 167 200 220 252
#     4   7  11  22  39  58  89 129 157 177 202 257
#
# _framework density 23.124554
#
# number of rings (size 3 to 8) (size 9 to 14) (size 15 to 20)
#    0.000    3.143    0.000    4.286    4.000    1.714 
#    0.000    0.000    0.000    0.000    0.000    9.000 
#    4.286    0.143    8.571    0.571    0.000   35.143 
#
# Total GULP energy -156424.571743 kJ/mol
# GULP energy per Si atom -5586.591848 kJ/mol
# Density = 2.307192 g / cm^3
# Si number density = 23.124554 Si / 1000 Ang^3
#
#
#
# Elastic Constant Matrix: (Units=GPa)
#
#
# Indices 1 2 3 4 5 6 
#
# 1 84.1170 8.8134 22.9958 0.0000 17.6949 0.0000
# 2 8.8134 87.2480 43.1189 0.0000 2.1141 0.0000
# 3 22.9958 43.1189 145.5437 0.0000 41.5532 0.0000
# 4 0.0000 0.0000 0.0000 -65.4638 0.0000 -36.2975
# 5 17.6949 2.1141 41.5532 0.0000 40.6574 0.0000
# 6 0.0000 0.0000 0.0000 -36.2975 0.0000 -6.5806
#
#
#
# Elastic Compliance Matrix: (Units=1/GPa)
#
#
# Indices 1 2 3 4 5 6 
#
# 1 0.013213 -0.001108 -0.000189 0.000000 -0.005499 0.000000
# 2 -0.001108 0.014205 -0.005592 0.000000 0.005458 0.000000
# 3 -0.000189 -0.005592 0.011933 0.000000 -0.011822 0.000000
# 4 0.000000 0.000000 0.000000 0.007421 0.000000 -0.040935
# 5 -0.005499 0.005458 -0.011822 0.000000 0.038788 0.000000
# 6 0.000000 0.000000 0.000000 -0.040935 0.000000 0.073827
#
#
# Mechanical properties :
#
#
# Convention : Reuss Voigt Hill
#
# Bulk Modulus (GPa) = 39.10447 51.86276 45.48362
# Shear Modulus (GPa) = 27.51964 9.85466 18.68715
#
# Velocity S-wave (km/s) = 3.45347 2.06659 2.84581
# Velocity P-wave (km/s) = 5.73141 5.30761 5.52357
#
# Compressibility (1/GPa) = 0.02557252
#
# Stress axis : x y z
#
# Youngs Moduli (GPa) = 75.68364 70.39936 83.80407
#
# Poissons Ratio (x) = 0.07800 0.01586
# Poissons Ratio (y) = 0.08385 0.46860
# Poissons Ratio (z) = 0.01433 0.39365
#
# Static dielectric constant tensor:
#      x y z
#    x 1.917040 0.000000 0.016350 
#    y 0.000000 1.877930 0.000000 
#    z 0.016350 0.000000 1.866070 
# 
# From -- ./inp_files/310845.got.cif
#   From: 2010.05.17/outbox.cif.g08.bks.cpg/sg12_156_cif.got.tgz:310845.got - 2010.06.03 13:09:07.
