data_PCOD9177502
_publ_section_title
;
Structure prediction by ZEFSAII (Michael W. Deem and Ramdas Pophale) SiO2 
 PCOD9177502
Probable space group: C 2/M
;
_chemical_formula_sum "Si O2"
_cell_formula_units_Z 48
_cell_length_a 16.247641
_cell_length_b 7.509680
_cell_length_c 19.519937
_cell_angle_alpha 90.000000
_cell_angle_beta 48.456514
_cell_angle_gamma 90.000000
_cell_volume 1782.602271
_symmetry_space_group_name_H-M "C 2/M"
_symmetry_group_IT_number 12
_symmetry_cell_setting 'monoclinic'
loop_
_space_group_symop_operation_xyz
x,y,z
-x,y,-z
-x,-y,-z
x,-y,z
1/2+x,1/2+y,z
1/2-x,1/2+y,-z
1/2-x,1/2-y,-z
1/2+x,1/2-y,z
loop_
_atom_site_type_symbol
_atom_site_label
_atom_site_fract_x
_atom_site_fract_y
_atom_site_fract_z
Si Si1 0.606799 0.286788 0.527785
Si Si2 0.169182 0.789517 0.129885
Si Si3 0.857016 0.217603 0.641980
Si Si4 0.870160 0.718758 0.190004
Si Si5 0.095961 0.705226 0.017125
Si Si6 0.441391 0.209445 0.300829
O O1 0.608043 0.500000 0.523787
O O2 0.663530 0.227592 0.426138
O O3 0.479846 0.222924 0.590958
O O4 0.633252 0.242952 0.591638
O O5 0.127516 0.707714 0.081082
O O6 0.067997 0.771451 0.237829
O O7 0.182143 0.000000 0.110931
O O8 0.291928 0.718738 0.077542
O O9 0.756523 0.273703 0.745370
O O10 0.858620 0.000000 0.642763
O O11 0.089556 0.500000 0.998541
O O12 0.971210 0.778992 0.086340
O O13 0.900538 0.779634 0.250457
O O14 0.871975 0.500000 0.186196
O O15 0.445283 0.000000 0.290501
#
# Coordination Sequence:
#
# PCOD9177502 Si02
#       6
#     8   8   8   8   8   8
#     4   9  17  30  48  67  85 111 147 180 213 257
#     4   9  15  24  40  62  88 116 145 176 210 253
#     4   8  15  29  48  66  85 112 145 179 214 256
#     4   8  14  26  44  66  90 114 141 175 215 255
#     4   8  14  24  40  63  89 115 142 174 214 256
#     4  10  19  29  43  65  91 117 144 178 219 256
#
# _framework density 26.926926000000002
#
# number of rings (size 3 to 8) (size 9 to 14) (size 15 to 20)
#    0.000    3.333    0.000    3.000    0.000    1.333 
#    0.000    1.667    0.000   10.000    0.000    7.000 
#    0.000    0.000    0.000    0.000    0.000    0.000 
#
# Total GULP energy -134031.179271 kJ/mol
# GULP energy per Si atom -5584.632470 kJ/mol
# Density = 2.686564 g / cm^3
# Si number density = 26.926926 Si / 1000 Ang^3
#
#
#
# Elastic Constant Matrix: (Units=GPa)
#
#
# Indices 1 2 3 4 5 6 
#
# 1 78.5885 -2.0713 29.2854 0.0000 -5.5422 0.0001
# 2 -2.0713 74.6153 2.7560 0.0002 3.2508 0.0002
# 3 29.2854 2.7560 204.0101 0.0000 -8.4554 0.0000
# 4 0.0000 0.0002 0.0000 15.6793 0.0000 1.3980
# 5 -5.5422 3.2508 -8.4554 0.0000 54.9084 0.0000
# 6 0.0001 0.0002 0.0000 1.3980 0.0000 -10.9738
#
#
#
# Elastic Compliance Matrix: (Units=1/GPa)
#
#
# Indices 1 2 3 4 5 6 
#
# 1 0.013518 0.000400 -0.001902 0.000000 0.001048 0.000000
# 2 0.000400 0.013458 -0.000272 0.000000 -0.000798 0.000000
# 3 -0.001902 -0.000272 0.005204 0.000000 0.000626 0.000000
# 4 0.000000 0.000000 0.000000 0.063062 0.000000 0.008034
# 5 0.001048 -0.000798 0.000626 0.000000 0.018461 0.000000
# 6 0.000000 0.000000 0.000000 0.008034 0.000000 -0.090103
#
#
# Mechanical properties :
#
#
# Convention : Reuss Voigt Hill
#
# Bulk Modulus (GPa) = 34.92771 46.35045 40.63908
# Shear Modulus (GPa) = 136.25969 33.73903 84.99936
#
# Velocity S-wave (km/s) = 7.12133 3.54359 5.62452
# Velocity P-wave (km/s) = 8.97871 5.83040 7.57003
#
# Compressibility (1/GPa) = 0.02863057
#
# Stress axis : x y z
#
# Youngs Moduli (GPa) = 73.97609 74.30515 192.14451
#
# Poissons Ratio (x) = -0.02971 0.36555
# Poissons Ratio (y) = -0.02958 0.05232
# Poissons Ratio (z) = 0.14074 0.02023
#
# Static dielectric constant tensor:
#      x y z
#    x 2.220220 0.000000 -0.011100 
#    y 0.000000 2.020770 0.000000 
#    z -0.011100 0.000000 2.103350 
# 
# From -- ./inp_files/236323.got.cif
#   From: 2010.05.17/outbox.cif.g08.bks.cpg/sg12_119_cif.got.tgz:236323.got - 2010.06.03 13:09:07.
