data_PCOD9177784
_publ_section_title
;
Structure prediction by ZEFSAII (Michael W. Deem and Ramdas Pophale) SiO2 
 PCOD9177784
Probable space group: C 2/M
;
_chemical_formula_sum "Si O2"
_cell_formula_units_Z 64
_cell_length_a 5.333218
_cell_length_b 37.087299
_cell_length_c 28.977612
_cell_angle_alpha 90.000000
_cell_angle_beta 106.025749
_cell_angle_gamma 90.000000
_cell_volume 5508.872985
_symmetry_space_group_name_H-M "C 2/M"
_symmetry_group_IT_number 12
_symmetry_cell_setting 'monoclinic'
loop_
_space_group_symop_operation_xyz
x,y,z
-x,y,-z
-x,-y,-z
x,-y,z
1/2+x,1/2+y,z
1/2-x,1/2+y,-z
1/2-x,1/2-y,-z
1/2+x,1/2-y,z
loop_
_atom_site_type_symbol
_atom_site_label
_atom_site_fract_x
_atom_site_fract_y
_atom_site_fract_z
Si Si1 0.292084 0.543942 0.528056
Si Si2 0.412773 0.354050 0.941849
Si Si3 0.041482 0.043921 0.360991
Si Si4 0.587849 0.728821 0.058566
Si Si5 0.457104 0.044001 0.304739
Si Si6 0.086691 0.397890 0.057794
Si Si7 0.203982 0.456597 0.135989
Si Si8 0.291535 0.956332 0.194357
O O1 0.500000 0.555315 0.500000
O O2 0.292383 0.500000 0.528255
O O3 0.375304 0.555474 0.583535
O O4 0.000000 0.555315 0.500000
O O5 0.387639 0.312666 0.925092
O O6 0.644417 0.375380 0.928494
O O7 0.141065 0.375380 0.928494
O O8 0.500000 0.352616 0.000000
O O9 0.749318 0.055235 0.332919
O O10 0.249426 0.055235 0.332918
O O11 0.041883 0.000000 0.361258
O O12 0.360151 0.750000 0.073434
O O13 0.500000 0.728356 0.000000
O O14 0.374217 0.056217 0.249479
O O15 0.456305 0.000000 0.304206
O O16 0.129097 0.435376 0.086065
O O17 0.000000 0.402810 0.000000
O O18 0.194174 0.500000 0.129450
O O19 0.497263 0.446296 0.165963
O O20 0.000626 0.446296 0.165963
O O21 0.294385 0.000000 0.196257
#
# Coordination Sequence:
#
# PCOD9177784 Si02
#       8
#     8   8   8   8   8   8   8   8
#     4   9  15  21  27  36  53  75  95 113 131 155
#     4   9  17  28  40  55  74  93 111 129 152 181
#     4   9  15  21  30  43  56  72  93 113 137 174
#     4   9  15  23  37  56  75  93 111 129 147 170
#     4   9  15  23  34  46  58  70  87 115 152 190
#     4  10  19  30  42  54  70  91 111 133 160 192
#     4  10  19  30  42  54  66  82 107 136 168 205
#     4   9  17  28  40  52  64  76  93 126 169 205
#
# _framework density 11.617622000000001
#
# number of rings (size 3 to 8) (size 9 to 14) (size 15 to 20)
#    0.000    2.750    0.000    3.000    0.000    9.250 
#    0.000    0.000    0.000    4.500    0.000    0.000 
#    0.000    0.000    0.000    0.000    0.000    0.000 
#
# Total GULP energy -178175.773675 kJ/mol
# GULP energy per Si atom -5567.992927 kJ/mol
# Density = 1.159118 g / cm^3
# Si number density = 11.617622 Si / 1000 Ang^3
#
#
#
# Elastic Constant Matrix: (Units=GPa)
#
#
# Indices 1 2 3 4 5 6 
#
# 1 132.9469 32.0028 50.6155 0.0000 -0.8373 0.0000
# 2 32.0028 36.3052 26.6481 0.0000 -0.0787 0.0000
# 3 50.6155 26.6481 70.0829 0.0000 -0.0860 0.0000
# 4 0.0000 0.0000 0.0000 0.1191 0.0000 -0.1129
# 5 -0.8373 -0.0787 -0.0860 0.0000 12.6761 0.0000
# 6 0.0000 0.0000 0.0000 -0.1129 0.0000 7.8049
#
#
#
# Elastic Compliance Matrix: (Units=1/GPa)
#
#
# Indices 1 2 3 4 5 6 
#
# 1 0.011095 -0.005407 -0.005957 0.000000 0.000659 0.000000
# 2 -0.005407 0.040843 -0.011625 0.000000 -0.000183 0.000000
# 3 -0.005957 -0.011625 0.022991 0.000000 -0.000310 0.000000
# 4 0.000000 0.000000 0.000000 8.516298 0.000000 0.123210
# 5 0.000659 -0.000183 -0.000310 0.000000 0.078929 0.000000
# 6 0.000000 0.000000 0.000000 0.123210 0.000000 0.129908
#
#
# Mechanical properties :
#
#
# Convention : Reuss Voigt Hill
#
# Bulk Modulus (GPa) = 34.54043 50.87420 42.70731
# Shear Modulus (GPa) = 0.56461 12.79125 6.67793
#
# Velocity S-wave (km/s) = 0.69789 3.32176 2.40012
# Velocity P-wave (km/s) = 5.51770 7.65492 6.67243
#
# Compressibility (1/GPa) = 0.02895158
#
# Stress axis : x y z
#
# Youngs Moduli (GPa) = 90.12869 24.48409 43.49578
#
# Poissons Ratio (x) = 0.13238 0.25908
# Poissons Ratio (y) = 0.48731 0.50565
# Poissons Ratio (z) = 0.53686 0.28463
#
# Static dielectric constant tensor:
#      x y z
#    x 1.392890 0.000000 -0.000390 
#    y 0.000000 1.342240 0.000000 
#    z -0.000390 0.000000 1.366120 
# 
# From -- ./inp_files/331643.got.cif
#   From: 2010.05.17/outbox.cif.g08.bks.cpg/sg12_166_cif.got.tgz:331643.got - 2010.06.03 13:09:07.
