data_PCOD9177100
_publ_section_title
;
Structure prediction by ZEFSAII (Michael W. Deem and Ramdas Pophale) SiO2 
 PCOD9177100
Probable space group: C 2/M
;
_chemical_formula_sum "Si O2"
_cell_formula_units_Z 56
_cell_length_a 17.594013
_cell_length_b 23.110096
_cell_length_c 9.739364
_cell_angle_alpha 90.000000
_cell_angle_beta 48.537906
_cell_angle_gamma 90.000000
_cell_volume 2967.614129
_symmetry_space_group_name_H-M "C 2/M"
_symmetry_group_IT_number 12
_symmetry_cell_setting 'monoclinic'
loop_
_space_group_symop_operation_xyz
x,y,z
-x,y,-z
-x,-y,-z
x,-y,z
1/2+x,1/2+y,z
1/2-x,1/2+y,-z
1/2-x,1/2-y,-z
1/2+x,1/2-y,z
loop_
_atom_site_type_symbol
_atom_site_label
_atom_site_fract_x
_atom_site_fract_y
_atom_site_fract_z
Si Si1 0.104067 0.934503 0.460947
Si Si2 0.666050 0.313927 0.487308
Si Si3 0.363151 0.814496 0.447105
Si Si4 0.263102 0.935215 0.022739
Si Si5 0.758171 0.670543 0.855082
Si Si6 0.679906 0.216149 0.926669
Si Si7 0.962791 0.616737 0.907710
O O1 0.112675 0.876406 0.542335
O O2 0.195726 0.930824 0.240883
O O3 0.000000 0.931591 0.500000
O O4 0.109122 0.000000 0.517506
O O5 0.606583 0.254098 0.592387
O O6 0.760685 0.318085 0.478763
O O7 0.717040 0.300449 0.277222
O O8 0.332711 0.831776 0.637814
O O9 0.446753 0.858474 0.291723
O O10 0.257375 0.000000 0.978356
O O11 0.225321 0.890566 0.953553
O O12 0.378069 0.918517 0.926414
O O13 0.812321 0.700158 0.922322
O O14 0.669492 0.715493 0.922027
O O15 0.595636 0.174251 0.968199
O O16 0.000000 0.584744 0.000000
#
# Coordination Sequence:
#
# PCOD9177100 Si02
#       7
#     8   8   8   8   8   8   8
#     4  10  20  36  60  84 107 143 193 238 274 324
#     4  10  18  38  53  83 112 143 184 231 274 328
#     4  10  21  32  57  82 116 150 180 228 280 332
#     4  10  21  37  56  78 113 153 186 227 274 331
#     4   9  18  34  51  76 109 146 184 223 272 321
#     4   9  17  31  55  73 110 143 174 228 273 319
#     4  11  19  34  55  84 115 146 185 225 280 333
#
# _framework density 18.870377000000001
#
# number of rings (size 3 to 8) (size 9 to 14) (size 15 to 20)
#    0.000    2.143    4.286    0.000    0.000    3.714 
#    5.143    2.857    0.000    0.000    0.000    3.000 
#    0.000    0.000    0.000    0.000    0.000    0.000 
#
# Total GULP energy -155913.878514 kJ/mol
# GULP energy per Si atom -5568.352804 kJ/mol
# Density = 1.882743 g / cm^3
# Si number density = 18.870377 Si / 1000 Ang^3
#
#
#
# Elastic Constant Matrix: (Units=GPa)
#
#
# Indices 1 2 3 4 5 6 
#
# 1 25.7781 9.2884 1.2226 0.0000 2.9168 0.0000
# 2 9.2884 131.8959 -10.7972 0.0000 5.8537 0.0000
# 3 1.2226 -10.7972 55.9666 0.0000 11.5752 0.0000
# 4 0.0000 0.0000 0.0000 10.8552 0.0000 5.6869
# 5 2.9168 5.8537 11.5752 0.0000 19.1302 0.0000
# 6 0.0000 0.0000 0.0000 5.6869 0.0000 17.4748
#
#
#
# Elastic Compliance Matrix: (Units=1/GPa)
#
#
# Indices 1 2 3 4 5 6 
#
# 1 0.040341 -0.002639 -0.000326 0.000000 -0.005146 0.000000
# 2 -0.002639 0.008115 0.002347 0.000000 -0.003501 0.000000
# 3 -0.000326 0.002347 0.021108 0.000000 -0.013440 0.000000
# 4 0.000000 0.000000 0.000000 0.111056 0.000000 -0.036141
# 5 -0.005146 -0.003501 -0.013440 0.000000 0.062261 0.000000
# 6 0.000000 0.000000 0.000000 -0.036141 0.000000 0.068987
#
#
# Mechanical properties :
#
#
# Convention : Reuss Voigt Hill
#
# Bulk Modulus (GPa) = 14.63532 23.67427 19.15479
# Shear Modulus (GPa) = 14.88627 23.75383 19.32005
#
# Velocity S-wave (km/s) = 2.81173 3.55179 3.20321
# Velocity P-wave (km/s) = 4.27944 5.42156 4.88400
#
# Compressibility (1/GPa) = 0.06832786
#
# Stress axis : x y z
#
# Youngs Moduli (GPa) = 24.78850 123.22647 47.37651
#
# Poissons Ratio (x) = 0.32523 0.01545
# Poissons Ratio (y) = 0.06542 -0.11121
# Poissons Ratio (z) = 0.00808 -0.28925
#
# Static dielectric constant tensor:
#      x y z
#    x 1.662710 0.000000 0.003210 
#    y 0.000000 1.720860 0.000000 
#    z 0.003210 0.000000 1.668550 
# 
# From -- ./inp_files/79079.got.cif
#   From: 2010.05.17/outbox.cif.g08.bks.cpg/sg12_40_cif.got.tgz:79079.got - 2010.06.03 13:09:07.
