data_PCOD9177461
_publ_section_title
;
Structure prediction by ZEFSAII (Michael W. Deem and Ramdas Pophale) SiO2 
 PCOD9177461
Probable space group: C 2/M
;
_chemical_formula_sum "Si O2"
_cell_formula_units_Z 64
_cell_length_a 29.318913
_cell_length_b 8.194289
_cell_length_c 15.338286
_cell_angle_alpha 90.000000
_cell_angle_beta 87.978940
_cell_angle_gamma 90.000000
_cell_volume 3682.694796
_symmetry_space_group_name_H-M "C 2/M"
_symmetry_group_IT_number 12
_symmetry_cell_setting 'monoclinic'
loop_
_space_group_symop_operation_xyz
x,y,z
-x,y,-z
-x,-y,-z
x,-y,z
1/2+x,1/2+y,z
1/2-x,1/2+y,-z
1/2-x,1/2-y,-z
1/2+x,1/2-y,z
loop_
_atom_site_type_symbol
_atom_site_label
_atom_site_fract_x
_atom_site_fract_y
_atom_site_fract_z
Si Si1 0.411698 0.197449 0.832315
Si Si2 0.393633 0.810080 0.161066
Si Si3 0.767372 0.192162 0.879063
Si Si4 0.694278 0.307766 0.754509
Si Si5 0.239920 0.303411 0.403248
Si Si6 0.507720 0.199438 0.898691
Si Si7 0.334197 0.197198 0.719997
Si Si8 0.345866 0.306069 0.991553
O O1 0.463888 0.245887 0.844171
O O2 0.386034 0.237451 0.743282
O O3 0.381319 0.277126 0.910257
O O4 0.409422 0.000000 0.843806
O O5 0.358246 0.741315 0.233715
O O6 0.444320 0.739769 0.143437
O O7 0.398708 0.000000 0.179227
O O8 0.367821 0.785126 0.071069
O O9 0.721254 0.264303 0.842076
O O10 0.802728 0.225496 0.797215
O O11 0.796410 0.255451 0.960226
O O12 0.761152 0.000000 0.891308
O O13 0.696456 0.500000 0.747393
O O14 0.722608 0.240475 0.669839
O O15 0.241494 0.500000 0.402104
O O16 0.250000 0.250000 0.500000
O O17 0.190108 0.254601 0.368449
O O18 0.509902 0.000000 0.900705
O O19 0.500000 0.250912 0.000000
O O20 0.329755 0.000000 0.727653
O O21 0.342618 0.500000 0.010209
#
# Coordination Sequence:
#
# PCOD9177461 Si02
#       8
#     8   8   8   8   8   8   8   8
#     4   9  15  28  48  65  90 126 160 198 236 271
#     4  11  21  32  47  65  89 124 164 198 233 276
#     4   9  17  29  45  64  88 121 159 192 226 271
#     4  10  21  36  49  66  94 121 150 190 233 277
#     4   9  18  32  51  75  98 119 144 178 225 283
#     4   9  16  28  46  69  91 118 163 208 237 267
#     4   8  15  27  45  70  96 122 151 185 230 275
#     4  10  19  29  42  64  92 122 159 200 235 269
#
# _framework density 17.378578000000001
#
# number of rings (size 3 to 8) (size 9 to 14) (size 15 to 20)
#    0.000    2.625    1.250    2.250    0.000    4.500 
#    0.000    1.875    0.000    0.000    0.000    0.875 
#    0.000    7.000    0.000    0.000    0.000    0.000 
#
# Total GULP energy -178242.841575 kJ/mol
# GULP energy per Si atom -5570.088799 kJ/mol
# Density = 1.733902 g / cm^3
# Si number density = 17.378578 Si / 1000 Ang^3
#
#
#
# Elastic Constant Matrix: (Units=GPa)
#
#
# Indices 1 2 3 4 5 6 
#
# 1 161.1018 9.3045 51.0236 0.0000 12.9881 0.0000
# 2 9.3045 9.4983 2.2583 0.0000 3.6339 0.0000
# 3 51.0236 2.2583 85.6720 0.0000 15.5694 0.0000
# 4 0.0000 0.0000 0.0000 20.3054 0.0000 -1.1345
# 5 12.9881 3.6339 15.5694 0.0000 18.6840 0.0000
# 6 0.0000 0.0000 0.0000 -1.1345 0.0000 17.7880
#
#
#
# Elastic Compliance Matrix: (Units=1/GPa)
#
#
# Indices 1 2 3 4 5 6 
#
# 1 0.008069 -0.006618 -0.004532 0.000000 -0.000545 0.000000
# 2 -0.006618 0.119280 0.004923 0.000000 -0.022701 0.000000
# 3 -0.004532 0.004923 0.016314 0.000000 -0.011401 0.000000
# 4 0.000000 0.000000 0.000000 0.049424 0.000000 0.003152
# 5 -0.000545 -0.022701 -0.011401 0.000000 0.067817 0.000000
# 6 0.000000 0.000000 0.000000 0.003152 0.000000 0.056419
#
#
# Mechanical properties :
#
#
# Convention : Reuss Voigt Hill
#
# Bulk Modulus (GPa) = 7.62150 42.38277 25.00213
# Shear Modulus (GPa) = 13.38645 24.26787 18.82716
#
# Velocity S-wave (km/s) = 2.77841 3.74093 3.29501
# Velocity P-wave (km/s) = 3.83247 6.56508 5.37532
#
# Compressibility (1/GPa) = 0.13120783
#
# Stress axis : x y z
#
# Youngs Moduli (GPa) = 123.93430 8.38366 61.29798
#
# Poissons Ratio (x) = 0.05548 0.27780
# Poissons Ratio (y) = 0.82020 -0.30176
# Poissons Ratio (z) = 0.56167 -0.04127
#
# Static dielectric constant tensor:
#      x y z
#    x 1.648480 0.000000 0.000230 
#    y 0.000000 1.602160 0.000000 
#    z 0.000230 0.000000 1.606140 
# 
# From -- ./inp_files/244210.got.cif
#   From: 2010.05.17/outbox.cif.g08.bks.cpg/sg12_123_cif.got.tgz:244210.got - 2010.06.03 13:09:07.
