data_PCOD9177206
_publ_section_title
;
Structure prediction by ZEFSAII (Michael W. Deem and Ramdas Pophale) SiO2 
 PCOD9177206
Probable space group: C 2/M
;
_chemical_formula_sum "Si O2"
_cell_formula_units_Z 48
_cell_length_a 23.188297
_cell_length_b 21.850235
_cell_length_c 9.332063
_cell_angle_alpha 90.000000
_cell_angle_beta 152.914383
_cell_angle_gamma 90.000000
_cell_volume 2152.884406
_symmetry_space_group_name_H-M "C 2/M"
_symmetry_group_IT_number 12
_symmetry_cell_setting 'monoclinic'
loop_
_space_group_symop_operation_xyz
x,y,z
-x,y,-z
-x,-y,-z
x,-y,z
1/2+x,1/2+y,z
1/2-x,1/2+y,-z
1/2-x,1/2-y,-z
1/2+x,1/2-y,z
loop_
_atom_site_type_symbol
_atom_site_label
_atom_site_fract_x
_atom_site_fract_y
_atom_site_fract_z
Si Si1 0.357856 0.671778 0.736379
Si Si2 0.476010 0.336169 0.286578
Si Si3 0.635512 0.169514 0.754742
Si Si4 0.302414 0.732926 0.339956
Si Si5 0.649459 0.070944 0.337964
Si Si6 0.211825 0.931855 0.052753
O O1 0.323508 0.727720 0.555197
O O2 0.247707 0.619875 0.484888
O O3 0.500000 0.650165 0.000000
O O4 0.376520 0.689467 0.946864
O O5 0.500000 0.311115 0.500000
O O6 0.608308 0.324623 0.506957
O O7 0.420721 0.403585 0.187193
O O8 0.500000 0.145336 0.500000
O O9 0.640399 0.209147 0.618324
O O10 0.730026 0.114317 0.932634
O O11 0.677468 0.213955 0.977097
O O12 0.694726 0.069167 0.603519
O O13 0.661684 0.000000 0.311060
O O14 0.500000 0.087982 0.000000
O O15 0.198453 0.000000 0.969683
#
# Coordination Sequence:
#
# PCOD9177206 Si02
#       6
#     8   8   8   8   8   8
#     4   9  20  37  63  92 127 164 218 276 315 389
#     4  10  18  39  68  92 130 166 209 272 325 378
#     4  11  24  39  65  91 128 180 208 270 328 383
#     4  10  22  41  62  93 130 164 220 267 328 385
#     4   9  19  37  60  87 130 176 213 267 331 389
#     4  10  22  40  63  96 129 172 224 262 317 394
#
# _framework density 22.295669
#
# number of rings (size 3 to 8) (size 9 to 14) (size 15 to 20)
#    0.000    2.167    1.667    0.500    4.667    1.000 
#    0.000    9.167    0.000    0.000    0.000    0.000 
#    0.000    0.000    0.000    0.000    0.000    0.000 
#
# Total GULP energy -133704.198174 kJ/mol
# GULP energy per Si atom -5571.008257 kJ/mol
# Density = 2.224492 g / cm^3
# Si number density = 22.295669 Si / 1000 Ang^3
#
#
#
# Elastic Constant Matrix: (Units=GPa)
#
#
# Indices 1 2 3 4 5 6 
#
# 1 74.4196 28.0364 11.7893 0.0000 -18.9318 0.0000
# 2 28.0364 113.9256 36.3717 0.0000 -0.4920 0.0000
# 3 11.7893 36.3717 104.0156 0.0000 -15.8453 0.0000
# 4 0.0000 0.0000 0.0000 28.6473 0.0000 1.0686
# 5 -18.9318 -0.4920 -15.8453 0.0000 48.9486 0.0000
# 6 0.0000 0.0000 0.0000 1.0686 0.0000 22.2944
#
#
#
# Elastic Compliance Matrix: (Units=1/GPa)
#
#
# Indices 1 2 3 4 5 6 
#
# 1 0.016618 -0.004255 0.000607 0.000000 0.006581 0.000000
# 2 -0.004255 0.011024 -0.003793 0.000000 -0.002763 0.000000
# 3 0.000607 -0.003793 0.011467 0.000000 0.003909 0.000000
# 4 0.000000 0.000000 0.000000 0.034970 0.000000 -0.001676
# 5 0.006581 -0.002763 0.003909 0.000000 0.024212 0.000000
# 6 0.000000 0.000000 0.000000 -0.001676 0.000000 0.044935
#
#
# Mechanical properties :
#
#
# Convention : Reuss Voigt Hill
#
# Bulk Modulus (GPa) = 41.27755 49.41728 45.34741
# Shear Modulus (GPa) = 30.08698 34.38895 32.23796
#
# Velocity S-wave (km/s) = 3.67748 3.93161 3.80666
# Velocity P-wave (km/s) = 6.04861 6.54390 6.30113
#
# Compressibility (1/GPa) = 0.02422625
#
# Stress axis : x y z
#
# Youngs Moduli (GPa) = 60.17432 90.71168 87.20639
#
# Poissons Ratio (x) = 0.38598 -0.05292
# Poissons Ratio (y) = 0.25604 0.33081
# Poissons Ratio (z) = -0.03652 0.34411
#
# Static dielectric constant tensor:
#      x y z
#    x 1.948030 0.000000 0.004810 
#    y 0.000000 1.809990 0.000000 
#    z 0.004810 0.000000 1.903130 
# 
# From -- ./inp_files/99841.got.cif
#   From: 2010.05.17/outbox.cif.g08.bks.cpg/sg12_50_cif.got.tgz:99841.got - 2010.06.03 13:09:07.
