data_PCOD9177934
_publ_section_title
;
Structure prediction by ZEFSAII (Michael W. Deem and Ramdas Pophale) SiO2 
 PCOD9177934
Probable space group: C 2/M
;
_chemical_formula_sum "Si O2"
_cell_formula_units_Z 56
_cell_length_a 27.958657
_cell_length_b 7.603155
_cell_length_c 14.147503
_cell_angle_alpha 90.000000
_cell_angle_beta 61.378722
_cell_angle_gamma 90.000000
_cell_volume 2639.903585
_symmetry_space_group_name_H-M "C 2/M"
_symmetry_group_IT_number 12
_symmetry_cell_setting 'monoclinic'
loop_
_space_group_symop_operation_xyz
x,y,z
-x,y,-z
-x,-y,-z
x,-y,z
1/2+x,1/2+y,z
1/2-x,1/2+y,-z
1/2-x,1/2-y,-z
1/2+x,1/2-y,z
loop_
_atom_site_type_symbol
_atom_site_label
_atom_site_fract_x
_atom_site_fract_y
_atom_site_fract_z
Si Si1 0.112239 0.208747 0.628516
Si Si2 0.190606 0.214728 0.954506
Si Si3 0.176086 0.295922 0.382417
Si Si4 0.717873 0.289589 0.627545
Si Si5 0.182814 0.798049 0.170507
Si Si6 0.415578 0.285884 0.041007
Si Si7 0.017496 0.786170 0.834949
O O1 0.134663 0.228709 0.501167
O O2 0.157859 0.280303 0.659165
O O3 0.052028 0.274763 0.711747
O O4 0.110867 0.000000 0.646524
O O5 0.170147 0.272795 0.078056
O O6 0.146079 0.270388 0.919849
O O7 0.194462 0.000000 0.950102
O O8 0.251538 0.282344 0.884848
O O9 0.181135 0.500000 0.400140
O O10 0.237689 0.220808 0.339407
O O11 0.159722 0.278608 0.289208
O O12 0.711125 0.500000 0.650411
O O13 0.750000 0.250000 0.500000
O O14 0.166261 0.000000 0.185454
O O15 0.414048 0.500000 0.042291
O O16 0.456769 0.226848 0.918680
O O17 0.444496 0.237901 0.111303
O O18 0.013521 0.000000 0.836195
#
# Coordination Sequence:
#
# PCOD9177934 Si02
#       7
#     8   8   8   8   8   8   8
#     4   9  16  27  44  67  95 122 149 187 229 274
#     4   9  18  32  51  70  93 122 153 192 233 274
#     4  10  19  30  45  65  91 125 158 190 228 275
#     4   8  15  25  38  58  85 116 148 177 215 263
#     4  10  20  32  46  69  95 122 157 193 231 273
#     4   8  14  26  46  72  97 120 149 187 231 277
#     4   8  14  24  44  74  99 119 148 186 229 277
#
# _framework density 21.212896000000001
#
# number of rings (size 3 to 8) (size 9 to 14) (size 15 to 20)
#    0.000    3.143    0.000    1.714    2.000    1.143 
#    0.000    0.000    0.000    1.714    0.000    8.000 
#    0.000    0.000    0.000    0.000    0.000    0.000 
#
# Total GULP energy -155903.744395 kJ/mol
# GULP energy per Si atom -5567.990871 kJ/mol
# Density = 2.116461 g / cm^3
# Si number density = 21.212896 Si / 1000 Ang^3
#
#
#
# Elastic Constant Matrix: (Units=GPa)
#
#
# Indices 1 2 3 4 5 6 
#
# 1 25.5563 -7.3426 -10.5187 0.0000 0.6205 0.0000
# 2 -7.3426 36.8122 -5.7232 0.0001 -1.3492 0.0001
# 3 -10.5187 -5.7232 79.0355 0.0000 -3.4961 0.0000
# 4 0.0000 0.0001 0.0000 -7.1093 0.0000 -2.3451
# 5 0.6205 -1.3492 -3.4961 0.0000 29.4779 0.0000
# 6 0.0000 0.0001 0.0000 -2.3451 0.0000 6.0351
#
#
#
# Elastic Compliance Matrix: (Units=1/GPa)
#
#
# Indices 1 2 3 4 5 6 
#
# 1 0.044742 0.009976 0.006691 0.000000 0.000308 0.000000
# 2 0.009976 0.029765 0.003553 0.000000 0.001574 0.000000
# 3 0.006691 0.003553 0.013874 0.000000 0.001667 0.000000
# 4 0.000000 0.000000 0.000000 -0.124680 0.000000 -0.048448
# 5 0.000308 0.001574 0.001667 0.000000 0.034187 0.000000
# 6 0.000000 0.000000 0.000000 -0.048448 0.000000 0.146871
#
#
# Mechanical properties :
#
#
# Convention : Reuss Voigt Hill
#
# Bulk Modulus (GPa) = 7.76289 10.47056 9.11672
# Shear Modulus (GPa) = 33.95349 16.67998 25.31674
#
# Velocity S-wave (km/s) = 4.00510 2.80717 3.45840
# Velocity P-wave (km/s) = 5.00552 3.93111 4.50049
#
# Compressibility (1/GPa) = 0.12881805
#
# Stress axis : x y z
#
# Youngs Moduli (GPa) = 22.35054 33.59692 72.07732
#
# Poissons Ratio (x) = -0.33515 -0.48224
# Poissons Ratio (y) = -0.22296 -0.25606
# Poissons Ratio (z) = -0.14954 -0.11936
#
# Static dielectric constant tensor:
#      x y z
#    x 1.776220 0.000000 -0.005220 
#    y 0.000000 1.834480 0.000000 
#    z -0.005220 0.000000 1.808600 
# 
# From -- ./inp_files/243634.got.cif
#   From: 2010.05.17/outbox.cif.g08.bks.cpg/sg12_122_cif.got.tgz:243634.got - 2010.06.03 13:09:07.
