data_PCOD9177030
_publ_section_title
;
Structure prediction by ZEFSAII (Michael W. Deem and Ramdas Pophale) SiO2 
 PCOD9177030
Probable space group: C 2/M
;
_chemical_formula_sum "Si O2"
_cell_formula_units_Z 40
_cell_length_a 21.278502
_cell_length_b 14.032514
_cell_length_c 21.165275
_cell_angle_alpha 90.000000
_cell_angle_beta 18.994820
_cell_angle_gamma 90.000000
_cell_volume 2056.971721
_symmetry_space_group_name_H-M "C 2/M"
_symmetry_group_IT_number 12
_symmetry_cell_setting 'monoclinic'
loop_
_space_group_symop_operation_xyz
x,y,z
-x,y,-z
-x,-y,-z
x,-y,z
1/2+x,1/2+y,z
1/2-x,1/2+y,-z
1/2-x,1/2-y,-z
1/2+x,1/2-y,z
loop_
_atom_site_type_symbol
_atom_site_label
_atom_site_fract_x
_atom_site_fract_y
_atom_site_fract_z
Si Si1 0.928191 0.000000 0.466241
Si Si2 0.359011 0.000000 0.074708
Si Si3 0.859093 0.000000 0.074610
Si Si4 0.477323 0.000000 0.771953
Si Si5 0.571710 0.000000 0.533884
Si Si6 0.022399 0.000000 0.228335
Si Si7 0.407943 0.862688 0.230649
Si Si8 0.592170 0.637318 0.769227
O O1 0.789532 0.090920 0.608482
O O2 0.133621 0.000000 0.305141
O O3 0.980884 0.000000 0.341506
O O4 0.500000 0.000000 0.000000
O O5 0.419685 0.091440 0.974829
O O6 0.633688 0.000000 0.305059
O O7 0.000000 0.000000 0.000000
O O8 0.919794 0.908570 0.974702
O O9 0.518929 0.000000 0.658698
O O10 0.563002 0.091184 0.727618
O O11 0.249870 0.000000 0.000134
O O12 0.710352 0.090924 0.391651
O O13 0.936787 0.908808 0.272604
O O14 0.407690 0.750002 0.230939
#
# Coordination Sequence:
#
# PCOD9177030 Si02
#       8
#     4   4   4   4   4   4   8   8
#     4  10  20  39  57  81 117 150 183 228 284 330
#     4  10  22  42  60  77 113 153 189 235 280 325
#     4  10  22  42  60  77 113 153 189 235 280 325
#     4  10  18  37  58  84 119 148 180 224 282 339
#     4  10  20  39  57  81 117 150 183 228 284 330
#     4  10  18  37  58  84 119 148 180 224 282 339
#     4  10  22  36  58  89 113 144 190 229 277 338
#     4  10  22  36  58  89 113 144 190 229 277 338
#
# _framework density 19.446062999999999
#
# number of rings (size 3 to 8) (size 9 to 14) (size 15 to 20)
#    0.000    2.400    4.000    2.400    0.000    9.600 
#    0.000    2.000    0.000    0.000    0.000    0.000 
#    0.000    0.000    0.000    0.000    0.000    0.000 
#
# Total GULP energy -111613.715531 kJ/mol
# GULP energy per Si atom -5580.685777 kJ/mol
# Density = 1.940180 g / cm^3
# Si number density = 19.446063 Si / 1000 Ang^3
#
#
#
# Elastic Constant Matrix: (Units=GPa)
#
#
# Indices 1 2 3 4 5 6 
#
# 1 55.3200 17.0010 -0.9241 0.0046 -21.8259 0.0048
# 2 17.0010 201.4578 38.1698 0.0493 -15.0639 -0.0067
# 3 -0.9241 38.1698 126.5500 0.0675 -36.7294 -0.0084
# 4 0.0046 0.0493 0.0675 8.0428 -0.0114 0.4047
# 5 -21.8259 -15.0639 -36.7294 -0.0114 42.8607 -0.0025
# 6 0.0048 -0.0067 -0.0084 0.4047 -0.0025 2.4965
#
#
#
# Elastic Compliance Matrix: (Units=1/GPa)
#
#
# Indices 1 2 3 4 5 6 
#
# 1 0.025617 -0.001967 0.005811 -0.000026 0.017333 -0.000013
# 2 -0.001967 0.005429 -0.001849 -0.000018 -0.000677 0.000014
# 3 0.005811 -0.001849 0.012209 -0.000079 0.012772 0.000050
# 4 -0.000026 -0.000018 -0.000079 0.125358 -0.000055 -0.020323
# 5 0.017333 -0.000677 0.012772 -0.000055 0.042865 0.000059
# 6 -0.000013 0.000014 0.000050 -0.020323 0.000059 0.403860
#
#
# Mechanical properties :
#
#
# Convention : Reuss Voigt Hill
#
# Bulk Modulus (GPa) = 21.16557 54.64679 37.90618
# Shear Modulus (GPa) = 7.97328 32.61875 20.29602
#
# Velocity S-wave (km/s) = 2.02709 4.10005 3.23415
# Velocity P-wave (km/s) = 4.04805 7.11172 5.78633
#
# Compressibility (1/GPa) = 0.04724655
#
# Stress axis : x y z
#
# Youngs Moduli (GPa) = 39.03695 184.18293 81.90747
#
# Poissons Ratio (x) = 0.36223 -0.47597
# Poissons Ratio (y) = 0.07677 0.15141
# Poissons Ratio (z) = -0.22684 0.34047
#
# Static dielectric constant tensor:
#      x y z
#    x 1.741230 0.000000 -0.001090 
#    y 0.000000 1.620920 0.000010 
#    z -0.001090 0.000010 1.731430 
# 
# From -- ./inp_files/322097.got.cif
#   From: 2010.05.17/outbox.cif.g08.bks.cpg/sg12_162_cif.got.tgz:322097.got - 2010.06.03 13:09:07.
