data_PCOD9177118
_publ_section_title
;
Structure prediction by ZEFSAII (Michael W. Deem and Ramdas Pophale) SiO2 
 PCOD9177118
Probable space group: C 2/M
;
_chemical_formula_sum "Si O2"
_cell_formula_units_Z 44
_cell_length_a 13.137195
_cell_length_b 16.360811
_cell_length_c 9.171593
_cell_angle_alpha 90.000000
_cell_angle_beta 118.261430
_cell_angle_gamma 90.000000
_cell_volume 1736.311848
_symmetry_space_group_name_H-M "C 2/M"
_symmetry_group_IT_number 12
_symmetry_cell_setting 'monoclinic'
loop_
_space_group_symop_operation_xyz
x,y,z
-x,y,-z
-x,-y,-z
x,-y,z
1/2+x,1/2+y,z
1/2-x,1/2+y,-z
1/2-x,1/2-y,-z
1/2+x,1/2-y,z
loop_
_atom_site_type_symbol
_atom_site_label
_atom_site_fract_x
_atom_site_fract_y
_atom_site_fract_z
Si Si1 0.973004 0.909474 0.775608
Si Si2 0.296707 0.341126 0.059827
Si Si3 0.622734 0.150258 0.476068
Si Si4 0.049034 0.594961 0.872778
Si Si5 0.344199 0.331251 0.423513
Si Si6 0.756077 0.500000 0.303974
O O1 0.073354 0.853983 0.911754
O O2 0.935123 0.875005 0.592127
O O3 0.850660 0.929595 0.770751
O O4 0.972584 0.000000 0.202016
O O5 0.320016 0.359892 0.245347
O O6 0.250000 0.250000 0.000000
O O7 0.187657 0.398250 0.947685
O O8 0.511696 0.143535 0.297676
O O9 0.627946 0.235549 0.562914
O O10 0.725538 0.155107 0.428392
O O11 0.649992 0.071888 0.591605
O O12 0.015530 0.500000 0.835804
O O13 0.000000 0.621470 0.000000
#
# Coordination Sequence:
#
# PCOD9177118 Si02
#       6
#     8   8   8   8   8   4
#     4   9  20  37  59  88 114 146 199 241 295 333
#     4  12  24  38  56  86 125 158 186 235 298 356
#     4  10  18  38  59  88 115 147 200 240 291 339
#     4  11  22  35  59  87 120 145 189 245 302 340
#     4  10  21  35  61  87 114 154 195 242 283 346
#     4   8  18  36  62  87 112 150 194 250 287 338
#
# _framework density 25.341069000000001
#
# number of rings (size 3 to 8) (size 9 to 14) (size 15 to 20)
#    0.545    1.273    2.727    2.182    0.000    2.182 
#    0.000    0.000    4.000    2.182    0.000    0.000 
#    0.000    0.000    0.000    0.000    0.000    0.000 
#
# Total GULP energy -122506.432057 kJ/mol
# GULP energy per Si atom -5568.474184 kJ/mol
# Density = 2.528339 g / cm^3
# Si number density = 25.341069 Si / 1000 Ang^3
#
#
#
# Elastic Constant Matrix: (Units=GPa)
#
#
# Indices 1 2 3 4 5 6 
#
# 1 115.6289 -17.2644 38.1995 0.0000 22.7813 0.0000
# 2 -17.2644 64.2060 14.5364 0.0000 1.2035 0.0000
# 3 38.1995 14.5364 164.7993 0.0000 30.2084 0.0000
# 4 0.0000 0.0000 0.0000 41.0161 0.0000 26.2420
# 5 22.7813 1.2035 30.2084 0.0000 46.0689 0.0000
# 6 0.0000 0.0000 0.0000 26.2420 0.0000 22.9522
#
#
#
# Elastic Compliance Matrix: (Units=1/GPa)
#
#
# Indices 1 2 3 4 5 6 
#
# 1 0.010613 0.003387 -0.002024 0.000000 -0.004009 0.000000
# 2 0.003387 0.016986 -0.002154 0.000000 -0.000706 0.000000
# 3 -0.002024 -0.002154 0.007426 0.000000 -0.003812 0.000000
# 4 0.000000 0.000000 0.000000 0.090804 0.000000 -0.103819
# 5 -0.004009 -0.000706 -0.003812 0.000000 0.026208 0.000000
# 6 0.000000 0.000000 0.000000 -0.103819 0.000000 0.162269
#
#
# Mechanical properties :
#
#
# Convention : Reuss Voigt Hill
#
# Bulk Modulus (GPa) = 29.90118 46.17524 38.03821
# Shear Modulus (GPa) = 15.28889 42.61829 28.95359
#
# Velocity S-wave (km/s) = 2.45893 4.10541 3.38384
# Velocity P-wave (km/s) = 4.45947 6.38229 5.50547
#
# Compressibility (1/GPa) = 0.03344349
#
# Stress axis : x y z
#
# Youngs Moduli (GPa) = 94.22785 58.87032 134.66416
#
# Poissons Ratio (x) = -0.19939 0.27253
# Poissons Ratio (y) = -0.31915 0.29006
# Poissons Ratio (z) = 0.19069 0.12680
#
# Static dielectric constant tensor:
#      x y z
#    x 2.122120 0.000000 -0.036280 
#    y 0.000000 1.948170 0.000000 
#    z -0.036280 0.000000 1.956570 
# 
# From -- ./inp_files/158400.got.cif
#   From: 2010.05.17/outbox.cif.g08.bks.cpg/sg12_80_cif.got.tgz:158400.got - 2010.06.03 13:09:07.
