data_PCOD9177218
_publ_section_title
;
Structure prediction by ZEFSAII (Michael W. Deem and Ramdas Pophale) SiO2 
 PCOD9177218
Probable space group: C 2/M
;
_chemical_formula_sum "Si O2"
_cell_formula_units_Z 48
_cell_length_a 19.054624
_cell_length_b 16.821259
_cell_length_c 9.702855
_cell_angle_alpha 90.000000
_cell_angle_beta 47.982315
_cell_angle_gamma 90.000000
_cell_volume 2310.527511
_symmetry_space_group_name_H-M "C 2/M"
_symmetry_group_IT_number 12
_symmetry_cell_setting 'monoclinic'
loop_
_space_group_symop_operation_xyz
x,y,z
-x,y,-z
-x,-y,-z
x,-y,z
1/2+x,1/2+y,z
1/2-x,1/2+y,-z
1/2-x,1/2-y,-z
1/2+x,1/2-y,z
loop_
_atom_site_type_symbol
_atom_site_label
_atom_site_fract_x
_atom_site_fract_y
_atom_site_fract_z
Si Si1 0.100197 0.356890 0.392276
Si Si2 0.089761 0.849147 0.795953
Si Si3 0.193699 0.091241 0.911383
Si Si4 0.704937 0.592889 0.390763
Si Si5 0.657753 0.808579 0.623705
Si Si6 0.663068 0.702042 0.182295
O O1 0.193636 0.400764 0.212355
O O2 0.121131 0.338264 0.524865
O O3 0.095392 0.272234 0.319151
O O4 0.000000 0.397943 0.500000
O O5 0.174372 0.869214 0.789894
O O6 0.120639 0.889396 0.611806
O O7 0.082727 0.754411 0.782196
O O8 0.000000 0.879228 0.000000
O O9 0.166594 0.000000 0.945858
O O10 0.134655 0.140617 0.101221
O O11 0.705357 0.500000 0.354524
O O12 0.803080 0.619781 0.334743
O O13 0.691309 0.650038 0.277610
O O14 0.750000 0.750000 0.500000
O O15 0.750000 0.750000 0.000000
#
# Coordination Sequence:
#
# PCOD9177218 Si02
#       6
#     8   8   8   8   8   8
#     4  11  22  38  63  91 121 162 215 259 309 376
#     4  11  23  39  65  94 126 167 218 266 313 381
#     4  11  23  40  60  90 129 164 203 259 325 382
#     4  11  21  39  68  95 128 166 208 264 328 382
#     4  10  18  40  63  90 119 166 216 259 309 375
#     4  10  21  39  62  89 121 166 211 257 309 377
#
# _framework density 20.774477000000001
#
# number of rings (size 3 to 8) (size 9 to 14) (size 15 to 20)
#    0.000    1.333    6.667    2.000    2.333    1.667 
#    0.000    0.000    0.000    3.500    0.000    0.000 
#    0.000    0.000    0.000    0.000    0.000    0.000 
#
# Total GULP energy -133834.115238 kJ/mol
# GULP energy per Si atom -5576.421468 kJ/mol
# Density = 2.072719 g / cm^3
# Si number density = 20.774477 Si / 1000 Ang^3
#
#
#
# Elastic Constant Matrix: (Units=GPa)
#
#
# Indices 1 2 3 4 5 6 
#
# 1 44.2953 -2.7221 20.0748 0.0000 0.1191 0.0000
# 2 -2.7221 87.1557 30.6592 0.0000 12.4211 0.0000
# 3 20.0748 30.6592 83.5227 0.0000 18.0395 0.0000
# 4 0.0000 0.0000 0.0000 3.0999 0.0000 -4.7476
# 5 0.1191 12.4211 18.0395 0.0000 35.2083 0.0000
# 6 0.0000 0.0000 0.0000 -4.7476 0.0000 9.6061
#
#
#
# Elastic Compliance Matrix: (Units=1/GPa)
#
#
# Indices 1 2 3 4 5 6 
#
# 1 0.026494 0.003296 -0.008217 0.000000 0.002957 0.000000
# 2 0.003296 0.013774 -0.005393 0.000000 -0.002107 0.000000
# 3 -0.008217 -0.005393 0.017441 0.000000 -0.007005 0.000000
# 4 0.000000 0.000000 0.000000 1.327233 0.000000 0.655960
# 5 0.002957 -0.002107 -0.007005 0.000000 0.032725 0.000000
# 6 0.000000 0.000000 0.000000 0.655960 0.000000 0.428296
#
#
# Mechanical properties :
#
#
# Convention : Reuss Voigt Hill
#
# Bulk Modulus (GPa) = 26.96751 34.55529 30.76140
# Shear Modulus (GPa) = 2.66106 20.71363 11.68735
#
# Velocity S-wave (km/s) = 1.13301 3.16107 2.37445
# Velocity P-wave (km/s) = 3.83678 5.47657 4.72830
#
# Compressibility (1/GPa) = 0.03708165
#
# Stress axis : x y z
#
# Youngs Moduli (GPa) = 37.74411 72.59925 57.33769
#
# Poissons Ratio (x) = -0.23932 0.47113
# Poissons Ratio (y) = -0.12442 0.30924
# Poissons Ratio (z) = 0.31013 0.39156
#
# Static dielectric constant tensor:
#      x y z
#    x 1.826230 0.000000 -0.076420 
#    y 0.000000 1.781580 0.000000 
#    z -0.076420 0.000000 1.832140 
# 
# From -- ./inp_files/87747.got.cif
#   From: 2010.05.17/outbox.cif.g08.bks.cpg/sg12_44_cif.got.tgz:87747.got - 2010.06.03 13:09:07.
