data_PCOD9177596
_publ_section_title
;
Structure prediction by ZEFSAII (Michael W. Deem and Ramdas Pophale) SiO2 
 PCOD9177596
Probable space group: C 2/M
;
_chemical_formula_sum "Si O2"
_cell_formula_units_Z 48
_cell_length_a 5.546134
_cell_length_b 19.104431
_cell_length_c 22.676688
_cell_angle_alpha 90.000000
_cell_angle_beta 110.834034
_cell_angle_gamma 90.000000
_cell_volume 2245.621928
_symmetry_space_group_name_H-M "C 2/M"
_symmetry_group_IT_number 12
_symmetry_cell_setting 'monoclinic'
loop_
_space_group_symop_operation_xyz
x,y,z
-x,y,-z
-x,-y,-z
x,-y,z
1/2+x,1/2+y,z
1/2-x,1/2+y,-z
1/2-x,1/2-y,-z
1/2+x,1/2-y,z
loop_
_atom_site_type_symbol
_atom_site_label
_atom_site_fract_x
_atom_site_fract_y
_atom_site_fract_z
Si Si1 0.283027 0.585431 0.857237
Si Si2 0.423677 0.599421 0.330119
Si Si3 0.784830 0.919488 0.523428
Si Si4 0.146311 0.387831 0.716027
Si Si5 0.885700 0.415181 0.927557
Si Si6 0.955904 0.746959 0.374697
O O1 0.269646 0.500000 0.848338
O O2 0.583294 0.603820 0.895267
O O3 0.198220 0.622143 0.789299
O O4 0.080995 0.604510 0.891518
O O5 0.592382 0.579644 0.401468
O O6 0.130947 0.574228 0.310664
O O7 0.397796 0.683919 0.330927
O O8 0.594340 0.578709 0.288897
O O9 0.500000 0.887752 0.500000
O O10 0.000000 0.886735 0.500000
O O11 0.748189 0.000000 0.498583
O O12 0.106032 0.320375 0.670450
O O13 0.888946 0.500000 0.928701
O O14 0.000000 0.390599 0.000000
O O15 0.259403 0.750026 0.411420
#
# Coordination Sequence:
#
# PCOD9177596 Si02
#       6
#     8   8   8   8   8   8
#     4  10  19  29  44  71 102 129 163 202 240 289
#     4  10  19  33  53  71  96 128 161 198 244 291
#     4  10  21  36  53  74  99 129 165 198 232 285
#     4  10  19  31  49  72 101 127 157 201 249 292
#     4   9  17  30  46  64  95 138 172 199 236 282
#     4   8  16  30  48  67  91 121 155 193 237 284
#
# _framework density 21.374925999999999
#
# number of rings (size 3 to 8) (size 9 to 14) (size 15 to 20)
#    0.000    2.500    0.000    2.500    0.000    3.333 
#    0.000    0.000    0.000   27.000    0.000    0.000 
#    0.000  120.000    0.000    0.000    0.000    0.000 
#
# Total GULP energy -133731.226358 kJ/mol
# GULP energy per Si atom -5572.134432 kJ/mol
# Density = 2.132628 g / cm^3
# Si number density = 21.374926 Si / 1000 Ang^3
#
#
#
# Elastic Constant Matrix: (Units=GPa)
#
#
# Indices 1 2 3 4 5 6 
#
# 1 210.2498 0.8694 11.3389 0.0000 -3.4248 0.0000
# 2 0.8694 62.8210 -18.3071 0.0000 4.9889 0.0000
# 3 11.3389 -18.3071 53.5014 0.0000 4.5802 0.0000
# 4 0.0000 0.0000 0.0000 11.2669 0.0000 5.6144
# 5 -3.4248 4.9889 4.5802 0.0000 42.0264 0.0000
# 6 0.0000 0.0000 0.0000 5.6144 0.0000 -43.0768
#
#
#
# Elastic Compliance Matrix: (Units=1/GPa)
#
#
# Indices 1 2 3 4 5 6 
#
# 1 0.004834 -0.000474 -0.001237 0.000000 0.000585 0.000000
# 2 -0.000474 0.018057 0.006527 0.000000 -0.002893 0.000000
# 3 -0.001237 0.006527 0.021462 0.000000 -0.003215 0.000000
# 4 0.000000 0.000000 0.000000 0.083342 0.000000 0.010862
# 5 0.000585 -0.002893 -0.003215 0.000000 0.024536 0.000000
# 6 0.000000 0.000000 0.000000 0.010862 0.000000 -0.021799
#
#
# Mechanical properties :
#
#
# Convention : Reuss Voigt Hill
#
# Bulk Modulus (GPa) = 18.52367 34.93052 26.72710
# Shear Modulus (GPa) = 36.02425 24.22137 30.12281
#
# Velocity S-wave (km/s) = 4.10976 3.36991 3.75808
# Velocity P-wave (km/s) = 5.58615 5.61418 5.60018
#
# Compressibility (1/GPa) = 0.05398498
#
# Stress axis : x y z
#
# Youngs Moduli (GPa) = 206.84935 55.38147 46.59459
#
# Poissons Ratio (x) = 0.02624 0.05763
# Poissons Ratio (y) = 0.09800 -0.30411
# Poissons Ratio (z) = 0.25583 -0.36146
#
# Static dielectric constant tensor:
#      x y z
#    x 1.864650 0.000000 -0.005930 
#    y 0.000000 1.813820 0.000000 
#    z -0.005930 0.000000 1.718470 
# 
# From -- ./inp_files/192077.got.cif
#   From: 2010.05.17/outbox.cif.g08.bks.cpg/sg12_97_cif.got.tgz:192077.got - 2010.06.03 13:09:07.
