data_PCOD9177976
_publ_section_title
;
Structure prediction by ZEFSAII (Michael W. Deem and Ramdas Pophale) SiO2 
 PCOD9177976
Probable space group: C 2/M
;
_chemical_formula_sum "Si O2"
_cell_formula_units_Z 56
_cell_length_a 15.556324
_cell_length_b 7.421446
_cell_length_c 19.706161
_cell_angle_alpha 90.000000
_cell_angle_beta 74.491007
_cell_angle_gamma 90.000000
_cell_volume 2192.245286
_symmetry_space_group_name_H-M "C 2/M"
_symmetry_group_IT_number 12
_symmetry_cell_setting 'monoclinic'
loop_
_space_group_symop_operation_xyz
x,y,z
-x,y,-z
-x,-y,-z
x,-y,z
1/2+x,1/2+y,z
1/2-x,1/2+y,-z
1/2-x,1/2-y,-z
1/2+x,1/2-y,z
loop_
_atom_site_type_symbol
_atom_site_label
_atom_site_fract_x
_atom_site_fract_y
_atom_site_fract_z
Si Si1 0.628608 0.703320 0.460313
Si Si2 0.777452 0.779664 0.832931
Si Si3 0.454310 0.208378 0.885023
Si Si4 0.332855 0.284856 0.407063
Si Si5 0.870300 0.208028 0.685098
Si Si6 0.339138 0.784531 0.025755
Si Si7 0.540641 0.785308 0.738175
O O1 0.592900 0.500000 0.466619
O O2 0.609386 0.778495 0.539551
O O3 0.736136 0.700141 0.434391
O O4 0.608808 0.792847 0.392209
O O5 0.863816 0.716711 0.858104
O O6 0.795091 0.717740 0.752279
O O7 0.779126 0.000000 0.832386
O O8 0.689919 0.722121 0.893288
O O9 0.421371 0.287679 0.963650
O O10 0.528200 0.283532 0.817707
O O11 0.478317 0.000000 0.893587
O O12 0.324438 0.500000 0.416197
O O13 0.373192 0.248592 0.325111
O O14 0.960095 0.209291 0.710019
O O15 0.845139 0.000000 0.677144
O O16 0.351136 0.000000 0.027225
O O17 0.250000 0.750000 0.000000
O O18 0.528644 0.000000 0.744683
#
# Coordination Sequence:
#
# PCOD9177976 Si02
#       7
#     8   8   8   8   8   8   8
#     4   9  19  35  52  68  88 115 146 182 225 271
#     4   8  13  21  36  58  83 111 141 174 210 251
#     4   8  14  23  35  54  83 116 144 173 210 250
#     4  10  20  34  51  68  87 114 149 187 224 265
#     4   9  17  30  47  68  94 120 146 179 222 268
#     4   8  12  19  32  52  79 110 142 172 205 246
#     4  10  19  30  45  67  95 123 150 182 220 260
#
# _framework density 25.544585000000001
#
# number of rings (size 3 to 8) (size 9 to 14) (size 15 to 20)
#    0.000    3.143    0.000    0.857    0.000    2.286 
#    0.000    2.857    0.000    0.000    0.000    1.000 
#    0.000    8.000    0.000    0.000    0.000    0.000 
#
# Total GULP energy -156120.489833 kJ/mol
# GULP energy per Si atom -5575.731780 kJ/mol
# Density = 2.548644 g / cm^3
# Si number density = 25.544585 Si / 1000 Ang^3
#
#
#
# Elastic Constant Matrix: (Units=GPa)
#
#
# Indices 1 2 3 4 5 6 
#
# 1 34.5221 -2.4639 113.1993 0.0000 17.6399 0.0000
# 2 -2.4639 103.9533 13.2575 0.0000 -0.0330 0.0000
# 3 113.1993 13.2575 114.3654 0.0000 -63.1731 0.0000
# 4 0.0000 0.0000 0.0000 3.0984 0.0000 -5.2778
# 5 17.6399 -0.0330 -63.1731 0.0000 31.5421 0.0000
# 6 0.0000 0.0000 0.0000 -5.2778 0.0000 -3.9994
#
#
#
# Elastic Compliance Matrix: (Units=1/GPa)
#
#
# Indices 1 2 3 4 5 6 
#
# 1 0.000615 -0.000825 0.006617 0.000000 0.012908 0.000000
# 2 -0.000825 0.009563 0.000294 0.000000 0.001061 0.000000
# 3 0.006617 0.000294 -0.001094 0.000000 -0.005891 0.000000
# 4 0.000000 0.000000 0.000000 0.099370 0.000000 -0.131135
# 5 0.012908 0.001061 -0.005891 0.000000 0.012688 0.000000
# 6 0.000000 0.000000 0.000000 -0.131135 0.000000 -0.076984
#
#
# Mechanical properties :
#
#
# Convention : Reuss Voigt Hill
#
# Bulk Modulus (GPa) = 47.04389 55.64741 51.34565
# Shear Modulus (GPa) = 127.96809 14.71808 71.34309
#
# Velocity S-wave (km/s) = 7.08553 2.40296 5.29051
# Velocity P-wave (km/s) = 9.24100 5.43421 7.58046
#
# Compressibility (1/GPa) = 0.02125675
#
# Stress axis : x y z
#
# Youngs Moduli (GPa) = 1626.10109 104.57046 -914.38589
#
# Poissons Ratio (x) = 0.08629 6.05051
# Poissons Ratio (y) = 1.34190 0.26923
# Poissons Ratio (z) = -10.75995 -0.03079
#
# Static dielectric constant tensor:
#      x y z
#    x 1.999420 0.000000 0.006590 
#    y 0.000000 2.140410 0.000000 
#    z 0.006590 0.000000 2.132510 
# 
# From -- ./inp_files/319006.got.cif
#   From: 2010.05.17/outbox.cif.g08.bks.cpg/sg12_160_cif.got.tgz:319006.got - 2010.06.03 13:09:07.
