data_PCOD9177776
_publ_section_title
;
Structure prediction by ZEFSAII (Michael W. Deem and Ramdas Pophale) SiO2 
 PCOD9177776
Probable space group: C 2/M
;
_chemical_formula_sum "Si O2"
_cell_formula_units_Z 48
_cell_length_a 14.525566
_cell_length_b 14.711786
_cell_length_c 22.032810
_cell_angle_alpha 90.000000
_cell_angle_beta 146.991131
_cell_angle_gamma 90.000000
_cell_volume 2564.960126
_symmetry_space_group_name_H-M "C 2/M"
_symmetry_group_IT_number 12
_symmetry_cell_setting 'monoclinic'
loop_
_space_group_symop_operation_xyz
x,y,z
-x,y,-z
-x,-y,-z
x,-y,z
1/2+x,1/2+y,z
1/2-x,1/2+y,-z
1/2-x,1/2-y,-z
1/2+x,1/2-y,z
loop_
_atom_site_type_symbol
_atom_site_label
_atom_site_fract_x
_atom_site_fract_y
_atom_site_fract_z
Si Si1 0.090712 0.752511 0.650967
Si Si2 0.340854 0.895326 0.488948
Si Si3 0.316059 0.603312 0.462488
Si Si4 0.009963 0.500000 0.107551
Si Si5 0.918601 0.674456 0.776005
Si Si6 0.992308 0.184940 0.261682
Si Si7 0.219359 0.000000 0.845907
O O1 0.283447 0.773646 0.743353
O O2 0.053189 0.762300 0.701659
O O3 0.016528 0.658379 0.584621
O O4 0.974909 0.830433 0.556321
O O5 0.278338 0.892994 0.524665
O O6 0.191709 0.840836 0.372638
O O7 0.350717 0.000000 0.475288
O O8 0.371892 0.500000 0.484166
O O9 0.189100 0.632965 0.339634
O O10 0.003105 0.590642 0.144286
O O11 0.186456 0.500000 0.167238
O O12 0.862283 0.500000 0.976394
O O13 0.040188 0.749228 0.812951
O O14 0.892748 0.090206 0.209139
#
# Coordination Sequence:
#
# PCOD9177776 Si02
#       7
#     8   8   8   4   8   8   4
#     4  11  21  34  52  90 126 161 189 239 290 367
#     4  10  19  34  54  82 122 170 197 221 294 366
#     4  10  19  29  52  82 121 151 189 237 290 349
#     4  11  26  42  68  92 105 154 216 262 311 348
#     4  12  22  35  60  92 118 153 203 243 299 355
#     4  11  21  39  61  86 123 160 194 250 305 351
#     4  11  24  48  65  82 120 153 203 269 313 347
#
# _framework density 18.713742
#
# number of rings (size 3 to 8) (size 9 to 14) (size 15 to 20)
#    0.000    1.167    6.667    1.500    2.333    1.333 
#    1.500    0.833    0.000    0.000    0.000    1.167 
#    0.000    0.000    0.000    0.000    0.000    0.000 
#
# Total GULP energy -134149.616081 kJ/mol
# GULP energy per Si atom -5589.567337 kJ/mol
# Density = 1.867115 g / cm^3
# Si number density = 18.713742 Si / 1000 Ang^3
#
#
#
# Elastic Constant Matrix: (Units=GPa)
#
#
# Indices 1 2 3 4 5 6 
#
# 1 58.3860 36.4098 8.3130 0.0002 -5.4206 0.0000
# 2 36.4098 116.7195 13.9706 0.0006 -7.1538 0.0001
# 3 8.3130 13.9706 31.3756 0.0019 -4.9485 0.0002
# 4 0.0002 0.0006 0.0019 12.9216 0.0002 1.2170
# 5 -5.4206 -7.1538 -4.9485 0.0002 16.8471 0.0000
# 6 0.0000 0.0001 0.0002 1.2170 0.0000 22.9512
#
#
#
# Elastic Compliance Matrix: (Units=1/GPa)
#
#
# Indices 1 2 3 4 5 6 
#
# 1 0.021711 -0.006264 -0.002392 0.000000 0.003623 0.000000
# 2 -0.006264 0.010984 -0.002950 0.000000 0.001782 0.000000
# 3 -0.002392 -0.002950 0.035127 -0.000005 0.008296 0.000000
# 4 0.000000 0.000000 -0.000005 0.077778 -0.000002 -0.004124
# 5 0.003623 0.001782 0.008296 -0.000002 0.063717 0.000000
# 6 0.000000 0.000000 0.000000 -0.004124 0.000000 0.043789
#
#
# Mechanical properties :
#
#
# Convention : Reuss Voigt Hill
#
# Bulk Modulus (GPa) = 22.41627 35.98531 29.20079
# Shear Modulus (GPa) = 17.17102 20.39648 18.78375
#
# Velocity S-wave (km/s) = 3.03241 3.30498 3.17162
# Velocity P-wave (km/s) = 4.92598 5.81678 5.38981
#
# Compressibility (1/GPa) = 0.04461046
#
# Stress axis : x y z
#
# Youngs Moduli (GPa) = 46.06037 91.04208 28.46776
#
# Poissons Ratio (x) = 0.57030 0.06808
# Poissons Ratio (y) = 0.28853 0.08398
# Poissons Ratio (z) = 0.11016 0.26858
#
# Static dielectric constant tensor:
#      x y z
#    x 1.688700 0.000000 -0.000650 
#    y 0.000000 1.655180 0.000000 
#    z -0.000650 0.000000 1.606050 
# 
# From -- ./inp_files/142782.got.cif
#   From: 2010.05.17/outbox.cif.g08.bks.cpg/sg12_72_cif.got.tgz:142782.got - 2010.06.03 13:09:07.
