data_PCOD9177436
_publ_section_title
;
Structure prediction by ZEFSAII (Michael W. Deem and Ramdas Pophale) SiO2 
 PCOD9177436
Probable space group: C 2/M
;
_chemical_formula_sum "Si O2"
_cell_formula_units_Z 64
_cell_length_a 32.370675
_cell_length_b 9.061488
_cell_length_c 30.852559
_cell_angle_alpha 90.000000
_cell_angle_beta 150.333246
_cell_angle_gamma 90.000000
_cell_volume 4479.275721
_symmetry_space_group_name_H-M "C 2/M"
_symmetry_group_IT_number 12
_symmetry_cell_setting 'monoclinic'
loop_
_space_group_symop_operation_xyz
x,y,z
-x,y,-z
-x,-y,-z
x,-y,z
1/2+x,1/2+y,z
1/2-x,1/2+y,-z
1/2-x,1/2-y,-z
1/2+x,1/2-y,z
loop_
_atom_site_type_symbol
_atom_site_label
_atom_site_fract_x
_atom_site_fract_y
_atom_site_fract_z
Si Si1 0.574474 0.324833 0.664159
Si Si2 0.124625 0.174526 0.366981
Si Si3 0.955746 0.325197 0.192227
Si Si4 0.600266 0.829917 0.599122
Si Si5 0.207257 0.676919 0.003076
Si Si6 0.699443 0.175171 0.518304
Si Si7 0.376706 0.674979 0.468512
Si Si8 0.846936 0.676151 0.179980
O O1 0.589040 0.500000 0.679738
O O2 0.613094 0.257410 0.655439
O O3 0.474374 0.301405 0.569947
O O4 0.611240 0.244182 0.739488
O O5 0.205637 0.201521 0.410864
O O6 0.141503 0.258390 0.427510
O O7 0.040086 0.233356 0.268848
O O8 0.119506 0.000000 0.370757
O O9 0.974415 0.500000 0.208622
O O10 0.890754 0.293463 0.094044
O O11 0.906598 0.294994 0.192627
O O12 0.500000 0.829598 0.500000
O O13 0.637614 0.750452 0.591067
O O14 0.627070 0.000000 0.626929
O O15 0.218748 0.500000 0.012802
O O16 0.250000 0.750000 0.000000
O O17 0.257727 0.748387 0.088542
O O18 0.677904 0.252874 0.543598
O O19 0.685787 0.000000 0.509120
O O20 0.363086 0.500000 0.453326
O O21 0.837696 0.500000 0.175104
#
# Coordination Sequence:
#
# PCOD9177436 Si02
#       8
#     8   8   8   8   8   8   8   8
#     4  10  19  29  42  62  87 113 143 177 209 247
#     4  10  20  31  44  62  83 110 144 180 215 249
#     4   9  18  30  44  61  83 112 143 175 212 253
#     4   9  17  29  44  61  83 111 140 172 210 250
#     4   9  17  29  43  60  82 109 140 173 210 250
#     4  10  20  32  44  60  84 112 143 179 215 250
#     4  10  19  30  45  63  83 111 145 177 211 250
#     4  10  19  29  42  62  86 113 144 175 210 251
#
# _framework density 14.288024
#
# number of rings (size 3 to 8) (size 9 to 14) (size 15 to 20)
#    0.000    2.375    0.000    4.125    0.000    9.500 
#    0.000    0.000    0.000    0.000    0.000    0.000 
#    0.000    1.000    0.000   10.500    0.000    5.750 
#
# Total GULP energy -178404.942655 kJ/mol
# GULP energy per Si atom -5575.154458 kJ/mol
# Density = 1.425550 g / cm^3
# Si number density = 14.288024 Si / 1000 Ang^3
#
#
#
# Elastic Constant Matrix: (Units=GPa)
#
#
# Indices 1 2 3 4 5 6 
#
# 1 63.1291 41.7845 13.4132 0.0000 -8.1629 0.0000
# 2 41.7845 79.0635 45.0750 0.0000 -3.2572 -0.0001
# 3 13.4132 45.0750 68.0947 0.0000 -3.9747 0.0000
# 4 0.0000 0.0000 0.0000 26.1189 0.0000 -3.1537
# 5 -8.1629 -3.2572 -3.9747 0.0000 17.2091 0.0000
# 6 0.0000 -0.0001 0.0000 -3.1537 0.0000 25.2283
#
#
#
# Elastic Compliance Matrix: (Units=1/GPa)
#
#
# Indices 1 2 3 4 5 6 
#
# 1 0.028062 -0.018612 0.007464 0.000000 0.011512 0.000000
# 2 -0.018612 0.032668 -0.018360 0.000000 -0.006886 0.000000
# 3 0.007464 -0.018360 0.025719 0.000000 0.006006 0.000000
# 4 0.000000 0.000000 0.000000 0.038873 0.000000 0.004859
# 5 0.011512 -0.006886 0.006006 0.000000 0.063653 0.000000
# 6 0.000000 0.000000 0.000000 0.004859 0.000000 0.040245
#
#
# Mechanical properties :
#
#
# Convention : Reuss Voigt Hill
#
# Bulk Modulus (GPa) = 36.45138 45.64806 41.04972
# Shear Modulus (GPa) = 16.81344 21.04557 18.92951
#
# Velocity S-wave (km/s) = 3.43410 3.84207 3.64380
# Velocity P-wave (km/s) = 6.42583 7.19026 6.81877
#
# Compressibility (1/GPa) = 0.02743380
#
# Stress axis : x y z
#
# Youngs Moduli (GPa) = 35.63521 30.61103 38.88165
#
# Poissons Ratio (x) = 0.56973 -0.29023
# Poissons Ratio (y) = 0.66324 0.71387
# Poissons Ratio (z) = -0.26599 0.56202
#
# Static dielectric constant tensor:
#      x y z
#    x 1.452320 0.000000 -0.002400 
#    y 0.000000 1.473740 0.000000 
#    z -0.002400 0.000000 1.473610 
# 
# From -- ./inp_files/243882.got.cif
#   From: 2010.05.17/outbox.cif.g08.bks.cpg/sg12_122_cif.got.tgz:243882.got - 2010.06.03 13:09:07.
