data_PCOD9177217
_publ_section_title
;
Structure prediction by ZEFSAII (Michael W. Deem and Ramdas Pophale) SiO2 
 PCOD9177217
Probable space group: C 2/M
;
_chemical_formula_sum "Si O2"
_cell_formula_units_Z 36
_cell_length_a 10.939866
_cell_length_b 13.173276
_cell_length_c 12.101526
_cell_angle_alpha 90.000000
_cell_angle_beta 86.604020
_cell_angle_gamma 90.000000
_cell_volume 1740.935312
_symmetry_space_group_name_H-M "C 2/M"
_symmetry_group_IT_number 12
_symmetry_cell_setting 'monoclinic'
loop_
_space_group_symop_operation_xyz
x,y,z
-x,y,-z
-x,-y,-z
x,-y,z
1/2+x,1/2+y,z
1/2-x,1/2+y,-z
1/2-x,1/2-y,-z
1/2+x,1/2-y,z
loop_
_atom_site_type_symbol
_atom_site_label
_atom_site_fract_x
_atom_site_fract_y
_atom_site_fract_z
Si Si1 0.382237 0.500000 0.587072
Si Si2 0.515469 0.680593 0.291002
Si Si3 0.838934 0.000000 0.216703
Si Si4 0.876093 0.219647 0.930292
Si Si5 0.000000 0.685663 0.500000
Si Si6 0.358594 0.500000 0.972086
Si Si7 0.332896 0.000000 0.573283
O O1 0.500000 0.500000 0.500000
O O2 0.390327 0.601824 0.658149
O O3 0.267963 0.500000 0.515512
O O4 0.418314 0.602373 0.238276
O O5 0.578507 0.751896 0.194381
O O6 0.461859 0.744165 0.397485
O O7 0.728172 0.000000 0.305173
O O8 0.793194 0.000000 0.093503
O O9 0.750000 0.250000 0.000000
O O10 0.000000 0.229217 0.000000
O O11 0.843001 0.102151 0.908998
O O12 0.097326 0.605780 0.447210
O O13 0.500000 0.500000 0.000000
#
# Coordination Sequence:
#
# PCOD9177217 Si02
#       7
#     4   8   4   8   4   4   4
#     4  11  20  39  61  92 111 155 212 257 294 360
#     4  11  21  40  64  93 122 155 215 256 307 361
#     4  11  19  37  69  86 114 164 210 257 293 363
#     4  11  24  41  65  97 127 167 213 259 314 374
#     4  11  26  39  56  94 128 169 188 259 322 378
#     4  10  18  40  62  90 120 160 209 256 305 365
#     4  11  25  41  57  86 132 163 207 240 326 372
#
# _framework density 20.678539000000001
#
# number of rings (size 3 to 8) (size 9 to 14) (size 15 to 20)
#    0.000    1.111    7.778    0.667    3.111    5.333 
#    0.000    0.556    0.000    0.000    0.000    0.000 
#    0.000    0.000    0.000    0.000    0.000    0.000 
#
# Total GULP energy -100227.202935 kJ/mol
# GULP energy per Si atom -5568.177941 kJ/mol
# Density = 2.063147 g / cm^3
# Si number density = 20.678539 Si / 1000 Ang^3
#
#
#
# Elastic Constant Matrix: (Units=GPa)
#
#
# Indices 1 2 3 4 5 6 
#
# 1 53.6975 5.1871 25.3805 0.0000 -20.3116 0.0000
# 2 5.1871 66.5891 16.1827 0.0000 -10.9096 0.0000
# 3 25.3805 16.1827 170.3640 0.0000 -24.3039 0.0000
# 4 0.0000 0.0000 0.0000 46.7118 0.0000 -2.2418
# 5 -20.3116 -10.9096 -24.3039 0.0000 34.6307 0.0000
# 6 0.0000 0.0000 0.0000 -2.2418 0.0000 50.8089
#
#
#
# Elastic Compliance Matrix: (Units=1/GPa)
#
#
# Indices 1 2 3 4 5 6 
#
# 1 0.024436 0.000714 -0.001813 0.000000 0.013285 0.000000
# 2 0.000714 0.015975 -0.000940 0.000000 0.004791 0.000000
# 3 -0.001813 -0.000940 0.006707 0.000000 0.003347 0.000000
# 4 0.000000 0.000000 0.000000 0.021453 0.000000 0.000947
# 5 0.013285 0.004791 0.003347 0.000000 0.040526 0.000000
# 6 0.000000 0.000000 0.000000 0.000947 0.000000 0.019723
#
#
# Mechanical properties :
#
#
# Convention : Reuss Voigt Hill
#
# Bulk Modulus (GPa) = 23.23499 42.68346 32.95922
# Shear Modulus (GPa) = 33.95666 42.69029 38.32348
#
# Velocity S-wave (km/s) = 4.05671 4.54858 4.30966
# Velocity P-wave (km/s) = 5.76222 6.94783 6.38261
#
# Compressibility (1/GPa) = 0.04303854
#
# Stress axis : x y z
#
# Youngs Moduli (GPa) = 40.92341 62.59636 149.10441
#
# Poissons Ratio (x) = -0.04467 0.27033
# Poissons Ratio (y) = -0.02920 0.14020
# Poissons Ratio (z) = 0.07420 0.05886
#
# Static dielectric constant tensor:
#      x y z
#    x 1.754130 0.000000 -0.047400 
#    y 0.000000 1.769490 0.000000 
#    z -0.047400 0.000000 2.149480 
# 
# From -- ./inp_files/129094.got.cif
#   From: 2010.05.17/outbox.cif.g08.bks.cpg/sg12_65_cif.got.tgz:129094.got - 2010.06.03 13:09:07.
