data_PCOD9177544
_publ_section_title
;
Structure prediction by ZEFSAII (Michael W. Deem and Ramdas Pophale) SiO2 
 PCOD9177544
Probable space group: C 2/M
;
_chemical_formula_sum "Si O2"
_cell_formula_units_Z 64
_cell_length_a 16.521386
_cell_length_b 35.351535
_cell_length_c 5.503533
_cell_angle_alpha 90.000000
_cell_angle_beta 105.755018
_cell_angle_gamma 90.000000
_cell_volume 3093.614109
_symmetry_space_group_name_H-M "C 2/M"
_symmetry_group_IT_number 12
_symmetry_cell_setting 'monoclinic'
loop_
_space_group_symop_operation_xyz
x,y,z
-x,y,-z
-x,-y,-z
x,-y,z
1/2+x,1/2+y,z
1/2-x,1/2+y,-z
1/2-x,1/2-y,-z
1/2+x,1/2-y,z
loop_
_atom_site_type_symbol
_atom_site_label
_atom_site_fract_x
_atom_site_fract_y
_atom_site_fract_z
Si Si1 0.126572 0.356950 0.462305
Si Si2 0.251606 0.294268 0.549462
Si Si3 0.708587 0.665630 0.912576
Si Si4 0.387723 0.878803 0.049981
Si Si5 0.254924 0.570844 0.562555
Si Si6 0.021289 0.837576 0.768332
Si Si7 0.323084 0.957423 0.004594
Si Si8 0.045283 0.920586 0.286975
O O1 0.161441 0.314797 0.469461
O O2 0.078759 0.366965 0.180976
O O3 0.204433 0.388523 0.530780
O O4 0.081174 0.361340 0.678078
O O5 0.250000 0.250000 0.500000
O O6 0.294867 0.312506 0.346860
O O7 0.284148 0.307431 0.842653
O O8 0.788825 0.637439 0.967954
O O9 0.616965 0.647451 0.857018
O O10 0.390431 0.923815 0.070935
O O11 0.224645 0.550689 0.289114
O O12 0.355267 0.572957 0.633479
O O13 0.230394 0.549628 0.792690
O O14 0.000000 0.816749 0.500000
O O15 0.965020 0.875093 0.720008
O O16 0.000000 0.816146 0.000000
O O17 0.355196 0.000000 0.030637
O O18 0.000000 0.934260 0.500000
O O19 0.000000 0.934102 0.000000
#
# Coordination Sequence:
#
# PCOD9177544 Si02
#       8
#     8   8   8   8   8   8   8   8
#     4   8  16  25  42  54  73  88 117 137 175 212
#     4  10  19  29  44  60  81 102 119 140 181 225
#     4  10  19  31  44  60  81  96 124 154 180 231
#     4   8  16  25  42  54  68  91 113 144 184 208
#     4  10  19  31  44  56  70  92 114 152 187 222
#     4  10  21  27  43  64  78  93 123 156 196 215
#     4  10  19  29  44  56  68  88 118 146 188 230
#     4  10  21  27  43  60  69  82 120 143 191 217
#
# _framework density 20.687778000000002
#
# number of rings (size 3 to 8) (size 9 to 14) (size 15 to 20)
#    0.000    2.500    0.000    2.250   21.000    0.000 
#    0.000    0.000    0.000    7.500    0.000    0.000 
#    0.000    0.000    0.000    0.000    0.000    0.000 
#
# Total GULP energy -178270.364650 kJ/mol
# GULP energy per Si atom -5570.948895 kJ/mol
# Density = 2.064069 g / cm^3
# Si number density = 20.687778 Si / 1000 Ang^3
#
#
#
# Elastic Constant Matrix: (Units=GPa)
#
#
# Indices 1 2 3 4 5 6 
#
# 1 48.2561 -2.8597 23.5120 0.0000 -12.4399 0.0000
# 2 -2.8597 94.9335 9.1981 0.0000 -13.2845 0.0000
# 3 23.5120 9.1981 163.6039 0.0000 -47.3177 0.0000
# 4 0.0000 0.0000 0.0000 16.4107 0.0000 -5.5251
# 5 -12.4399 -13.2845 -47.3177 0.0000 38.3941 0.0000
# 6 0.0000 0.0000 0.0000 -5.5251 0.0000 -9.0072
#
#
#
# Elastic Compliance Matrix: (Units=1/GPa)
#
#
# Indices 1 2 3 4 5 6 
#
# 1 0.023200 0.001706 -0.001686 0.000000 0.006029 0.000000
# 2 0.001706 0.011255 0.000634 0.000000 0.005229 0.000000
# 3 -0.001686 0.000634 0.009672 0.000000 0.011593 0.000000
# 4 0.000000 0.000000 0.000000 0.050506 0.000000 -0.030980
# 5 0.006029 0.005229 0.011593 0.000000 0.044096 0.000000
# 6 0.000000 0.000000 0.000000 -0.030980 0.000000 -0.092019
#
#
# Mechanical properties :
#
#
# Convention : Reuss Voigt Hill
#
# Bulk Modulus (GPa) = 22.00962 40.72161 31.36562
# Shear Modulus (GPa) = 82.58051 27.62238 55.10144
#
# Velocity S-wave (km/s) = 6.32489 3.65801 5.16649
# Velocity P-wave (km/s) = 8.00006 6.12927 7.12632
#
# Compressibility (1/GPa) = 0.04543467
#
# Stress axis : x y z
#
# Youngs Moduli (GPa) = 43.10410 88.84689 103.39166
#
# Poissons Ratio (x) = -0.15156 0.17436
# Poissons Ratio (y) = -0.07353 -0.06559
# Poissons Ratio (z) = 0.07269 -0.05636
#
# Static dielectric constant tensor:
#      x y z
#    x 1.820090 0.000000 -0.022720 
#    y 0.000000 1.701890 0.000000 
#    z -0.022720 0.000000 1.860380 
# 
# From -- ./inp_files/26657.got.cif
#   From: 2010.05.17/outbox.cif.g08.bks.cpg/sg12_14_cif.got.tgz:26657.got - 2010.06.03 13:09:07.
