data_PCOD9177675
_publ_section_title
;
Structure prediction by ZEFSAII (Michael W. Deem and Ramdas Pophale) SiO2 
 PCOD9177675
Probable space group: C 2/M
;
_chemical_formula_sum "Si O2"
_cell_formula_units_Z 56
_cell_length_a 11.785655
_cell_length_b 25.566034
_cell_length_c 21.545800
_cell_angle_alpha 90.000000
_cell_angle_beta 151.507842
_cell_angle_gamma 90.000000
_cell_volume 3096.942319
_symmetry_space_group_name_H-M "C 2/M"
_symmetry_group_IT_number 12
_symmetry_cell_setting 'monoclinic'
loop_
_space_group_symop_operation_xyz
x,y,z
-x,y,-z
-x,-y,-z
x,-y,z
1/2+x,1/2+y,z
1/2-x,1/2+y,-z
1/2-x,1/2-y,-z
1/2+x,1/2-y,z
loop_
_atom_site_type_symbol
_atom_site_label
_atom_site_fract_x
_atom_site_fract_y
_atom_site_fract_z
Si Si1 0.287274 0.557180 0.347905
Si Si2 0.212620 0.661568 0.983530
Si Si3 0.672657 0.666125 0.701767
Si Si4 0.873245 0.727224 0.376443
Si Si5 0.261570 0.910387 0.111680
Si Si6 0.135956 0.200823 0.817084
Si Si7 0.789158 0.806328 0.828793
O O1 0.500000 0.557473 0.500000
O O2 0.295518 0.500000 0.320223
O O3 0.335340 0.608550 0.330044
O O4 0.017346 0.562807 0.245452
O O5 0.232809 0.667190 0.067108
O O6 0.439250 0.691156 0.064188
O O7 0.235331 0.605730 0.959817
O O8 0.953096 0.681028 0.839789
O O9 0.556736 0.712760 0.605941
O O10 0.583692 0.668427 0.729531
O O11 0.601916 0.721767 0.266180
O O12 0.881402 0.697120 0.314127
O O13 0.000000 0.708492 0.500000
O O14 0.262344 0.856919 0.153593
O O15 0.000000 0.934631 0.000000
O O16 0.260526 0.253168 0.852636
#
# Coordination Sequence:
#
# PCOD9177675 Si02
#       7
#     8   8   8   8   8   8   8
#     4  10  21  36  53  74  98 125 163 208 248 287
#     4   9  18  30  44  68  96 120 158 199 234 279
#     4  10  20  31  49  69  95 129 160 198 240 287
#     4  10  21  32  42  66 100 130 163 197 230 282
#     4   9  18  33  53  74  98 127 160 201 246 288
#     4  10  19  29  46  69  96 131 162 189 236 293
#     4   9  19  30  46  70  98 130 160 195 235 284
#
# _framework density 18.082350999999999
#
# number of rings (size 3 to 8) (size 9 to 14) (size 15 to 20)
#    0.000    2.429    0.000    2.571    0.000   18.571 
#    0.000    0.000    0.000    6.857    0.000    3.000 
#    0.000   21.714    0.000    0.000    0.000    0.000 
#
# Total GULP energy -155874.150048 kJ/mol
# GULP energy per Si atom -5566.933930 kJ/mol
# Density = 1.804119 g / cm^3
# Si number density = 18.082351 Si / 1000 Ang^3
#
#
#
# Elastic Constant Matrix: (Units=GPa)
#
#
# Indices 1 2 3 4 5 6 
#
# 1 71.6331 26.7482 23.7668 0.0157 -14.4793 0.0042
# 2 26.7482 86.4561 21.2724 0.0879 -11.4933 0.0077
# 3 23.7668 21.2724 81.8702 0.3742 -17.9846 0.0462
# 4 0.0157 0.0879 0.3742 120.2491 0.0851 5.3872
# 5 -14.4793 -11.4933 -17.9846 0.0851 31.7993 0.0131
# 6 0.0042 0.0077 0.0462 5.3872 0.0131 12.5222
#
#
#
# Elastic Compliance Matrix: (Units=1/GPa)
#
#
# Indices 1 2 3 4 5 6 
#
# 1 0.017413 -0.004022 -0.002955 0.000006 0.004804 0.000000
# 2 -0.004022 0.013546 -0.001917 -0.000005 0.001980 0.000000
# 3 -0.002955 -0.001917 0.014984 -0.000048 0.006437 -0.000039
# 4 0.000006 -0.000005 -0.000048 0.008480 -0.000047 -0.003648
# 5 0.004804 0.001980 0.006437 -0.000047 0.037991 -0.000046
# 6 0.000000 0.000000 -0.000039 -0.003648 -0.000046 0.081428
#
#
# Mechanical properties :
#
#
# Convention : Reuss Voigt Hill
#
# Bulk Modulus (GPa) = 35.51589 42.61492 39.06540
# Shear Modulus (GPa) = 24.87388 44.12560 34.49974
#
# Velocity S-wave (km/s) = 3.71292 4.94526 4.37272
# Velocity P-wave (km/s) = 6.16967 7.49838 6.86624
#
# Compressibility (1/GPa) = 0.02815641
#
# Stress axis : x y z
#
# Youngs Moduli (GPa) = 57.42788 73.82375 66.73564
#
# Poissons Ratio (x) = 0.29690 0.19719
# Poissons Ratio (y) = 0.23096 0.12793
# Poissons Ratio (z) = 0.16969 0.14152
#
# Static dielectric constant tensor:
#      x y z
#    x 1.660960 0.000000 -0.009860 
#    y 0.000000 1.622260 -0.000010 
#    z -0.009860 -0.000010 1.705590 
# 
# From -- ./inp_files/170486.got.cif
#   From: 2010.05.17/outbox.cif.g08.bks.cpg/sg12_86_cif.got.tgz:170486.got - 2010.06.03 13:09:07.
