data_PCOD9177065
_publ_section_title
;
Structure prediction by ZEFSAII (Michael W. Deem and Ramdas Pophale) SiO2 
 PCOD9177065
Probable space group: C 2/M
;
_chemical_formula_sum "Si O2"
_cell_formula_units_Z 56
_cell_length_a 28.750860
_cell_length_b 15.620934
_cell_length_c 8.565376
_cell_angle_alpha 90.000000
_cell_angle_beta 129.740521
_cell_angle_gamma 90.000000
_cell_volume 2958.019422
_symmetry_space_group_name_H-M "C 2/M"
_symmetry_group_IT_number 12
_symmetry_cell_setting 'monoclinic'
loop_
_space_group_symop_operation_xyz
x,y,z
-x,y,-z
-x,-y,-z
x,-y,z
1/2+x,1/2+y,z
1/2-x,1/2+y,-z
1/2-x,1/2-y,-z
1/2+x,1/2-y,z
loop_
_atom_site_type_symbol
_atom_site_label
_atom_site_fract_x
_atom_site_fract_y
_atom_site_fract_z
Si Si1 0.219561 0.696088 0.295497
Si Si2 0.591752 0.759771 0.373528
Si Si3 0.125969 0.173030 0.930352
Si Si4 0.427296 0.596061 0.873095
Si Si5 0.196910 0.198151 0.798743
Si Si6 0.972224 0.312198 0.286571
Si Si7 0.106508 0.401699 0.144534
O O1 0.250000 0.750000 0.500000
O O2 0.268172 0.661179 0.275947
O O3 0.176126 0.619694 0.255004
O O4 0.174585 0.765591 0.120071
O O5 0.597856 0.672780 0.286800
O O6 0.646342 0.760188 0.613967
O O7 0.526794 0.766313 0.313719
O O8 0.593020 0.838846 0.258331
O O9 0.161355 0.141115 0.851199
O O10 0.073266 0.236874 0.761698
O O11 0.095612 0.113748 0.998199
O O12 0.408061 0.500000 0.787433
O O13 0.500000 0.600097 0.000000
O O14 0.250000 0.250000 0.000000
O O15 0.000000 0.355338 0.500000
O O16 0.935690 0.373148 0.090930
O O17 0.096645 0.500000 0.160980
#
# Coordination Sequence:
#
# PCOD9177065 Si02
#       7
#     8   8   8   8   8   8   8
#     4  10  18  37  63  85 115 160 207 253 303 357
#     4  12  20  39  67  89 123 163 208 254 313 377
#     4  10  19  36  58  90 120 152 203 250 310 372
#     4  11  21  36  61  94 124 156 201 253 309 372
#     4  10  21  35  65  91 116 163 205 256 313 364
#     4  11  21  36  64  93 125 167 202 251 321 381
#     4  11  24  40  63  94 126 163 212 260 306 368
#
# _framework density 18.931587
#
# number of rings (size 3 to 8) (size 9 to 14) (size 15 to 20)
#    0.000    1.286    7.143    0.429    0.000    1.429 
#    0.000    4.286    0.000    3.429    0.000    0.000 
#    0.000    0.000    0.000    0.000    0.000    0.000 
#
# Total GULP energy -156010.146012 kJ/mol
# GULP energy per Si atom -5571.790929 kJ/mol
# Density = 1.888850 g / cm^3
# Si number density = 18.931587 Si / 1000 Ang^3
#
#
#
# Elastic Constant Matrix: (Units=GPa)
#
#
# Indices 1 2 3 4 5 6 
#
# 1 150.2308 19.5551 42.5012 0.0000 -9.2310 0.0000
# 2 19.5551 94.5951 43.1801 0.0000 -7.0162 0.0000
# 3 42.5012 43.1801 112.1706 0.0000 2.3297 0.0000
# 4 0.0000 0.0000 0.0000 3.8487 0.0000 7.5485
# 5 -9.2310 -7.0162 2.3297 0.0000 30.8961 0.0000
# 6 0.0000 0.0000 0.0000 7.5485 0.0000 8.8914
#
#
#
# Elastic Compliance Matrix: (Units=1/GPa)
#
#
# Indices 1 2 3 4 5 6 
#
# 1 0.007645 -0.000060 -0.002925 0.000000 0.002491 0.000000
# 2 -0.000060 0.013168 -0.005116 0.000000 0.003358 0.000000
# 3 -0.002925 -0.005116 0.012054 0.000000 -0.002945 0.000000
# 4 0.000000 0.000000 0.000000 -0.390662 0.000000 0.331661
# 5 0.002491 0.003358 -0.002945 0.000000 0.034095 0.000000
# 6 0.000000 0.000000 0.000000 0.331661 0.000000 -0.169103
#
#
# Mechanical properties :
#
#
# Convention : Reuss Voigt Hill
#
# Bulk Modulus (GPa) = 60.00953 63.05212 61.53083
# Shear Modulus (GPa) = -10.61471 25.51126 7.44828
#
# Velocity S-wave (km/s) = -2.37045 3.67488 1.98566
# Velocity P-wave (km/s) = 4.92695 7.16826 6.15056
#
# Compressibility (1/GPa) = 0.01666402
#
# Stress axis : x y z
#
# Youngs Moduli (GPa) = 130.80661 75.94029 82.96095
#
# Poissons Ratio (x) = 0.00459 0.24267
# Poissons Ratio (y) = 0.00790 0.42443
# Poissons Ratio (z) = 0.38262 0.38851
#
# Static dielectric constant tensor:
#      x y z
#    x 1.744910 0.000000 -0.007490 
#    y 0.000000 1.639630 0.000000 
#    z -0.007490 0.000000 1.693670 
# 
# From -- ./inp_files/111720.got.cif
#   From: 2010.05.17/outbox.cif.g08.bks.cpg/sg12_56_cif.got.tgz:111720.got - 2010.06.03 13:09:07.
