data_PCOD9177921
_publ_section_title
;
Structure prediction by ZEFSAII (Michael W. Deem and Ramdas Pophale) SiO2 
 PCOD9177921
Probable space group: C 2/M
;
_chemical_formula_sum "Si O2"
_cell_formula_units_Z 64
_cell_length_a 22.803741
_cell_length_b 9.109494
_cell_length_c 28.718709
_cell_angle_alpha 90.000000
_cell_angle_beta 137.054894
_cell_angle_gamma 90.000000
_cell_volume 4064.451703
_symmetry_space_group_name_H-M "C 2/M"
_symmetry_group_IT_number 12
_symmetry_cell_setting 'monoclinic'
loop_
_space_group_symop_operation_xyz
x,y,z
-x,y,-z
-x,-y,-z
x,-y,z
1/2+x,1/2+y,z
1/2-x,1/2+y,-z
1/2-x,1/2-y,-z
1/2+x,1/2-y,z
loop_
_atom_site_type_symbol
_atom_site_label
_atom_site_fract_x
_atom_site_fract_y
_atom_site_fract_z
Si Si1 0.476823 0.325764 0.878255
Si Si2 0.861179 0.176076 0.730424
Si Si3 0.193617 0.825400 0.402978
Si Si4 0.176430 0.324451 0.153427
Si Si5 0.025075 0.674765 0.568343
Si Si6 0.581611 0.171472 0.011867
Si Si7 0.130963 0.174879 0.469530
Si Si8 0.705387 0.674738 0.696052
O O1 0.482328 0.500000 0.885297
O O2 0.448893 0.286921 0.809276
O O3 0.395272 0.265552 0.860054
O O4 0.558869 0.257117 0.951788
O O5 0.858855 0.207902 0.674307
O O6 0.781677 0.259856 0.708368
O O7 0.847695 0.000000 0.728499
O O8 0.143667 0.794369 0.421871
O O9 0.282809 0.736886 0.456095
O O10 0.213799 0.000000 0.414579
O O11 0.156835 0.500000 0.145778
O O12 0.163076 0.285989 0.091419
O O13 0.264242 0.300487 0.232635
O O14 0.028910 0.500000 0.577653
O O15 0.116721 0.746759 0.632724
O O16 0.000000 0.701907 0.500000
O O17 0.951556 0.746004 0.557428
O O18 0.587405 0.000000 0.003967
O O19 0.500000 0.189323 0.000000
O O20 0.124922 0.000000 0.472543
O O21 0.698774 0.500000 0.684850
#
# Coordination Sequence:
#
# PCOD9177921 Si02
#       8
#     8   8   8   8   8   8   8   8
#     4   9  15  21  33  55  80 107 141 175 202 239
#     4   9  17  29  43  61  89 121 146 171 213 262
#     4   9  18  33  50  66  88 116 142 173 217 262
#     4   8  15  26  37  51  76 110 141 171 210 250
#     4  11  23  36  48  63  88 119 144 171 215 264
#     4   8  13  22  34  48  73 109 141 168 205 249
#     4  10  20  33  50  70  87 108 144 184 215 249
#     4  10  19  30  45  65  87 112 148 187 214 247
#
# _framework density 15.746282000000001
#
# number of rings (size 3 to 8) (size 9 to 14) (size 15 to 20)
#    0.000    2.750    0.000    3.000    0.000    8.250 
#    0.000    0.000    0.000    0.000    0.000    0.000 
#    0.000    1.000    0.000    2.000    0.000    4.875 
#
# Total GULP energy -178139.715322 kJ/mol
# GULP energy per Si atom -5566.866104 kJ/mol
# Density = 1.571044 g / cm^3
# Si number density = 15.746282 Si / 1000 Ang^3
#
#
#
# Elastic Constant Matrix: (Units=GPa)
#
#
# Indices 1 2 3 4 5 6 
#
# 1 31.1316 21.7362 30.6585 0.0000 -4.4201 0.0000
# 2 21.7362 43.7723 57.1282 0.0000 -5.7483 0.0000
# 3 30.6585 57.1282 154.4808 0.0000 -22.1637 0.0000
# 4 0.0000 0.0000 0.0000 24.5809 0.0000 -2.8992
# 5 -4.4201 -5.7483 -22.1637 0.0000 17.1541 0.0000
# 6 0.0000 0.0000 0.0000 -2.8992 0.0000 14.1170
#
#
#
# Elastic Compliance Matrix: (Units=1/GPa)
#
#
# Indices 1 2 3 4 5 6 
#
# 1 0.049562 -0.023205 -0.000660 0.000000 0.004141 0.000000
# 2 -0.023205 0.055876 -0.017467 0.000000 -0.009824 0.000000
# 3 -0.000660 -0.017467 0.014976 0.000000 0.013326 0.000000
# 4 0.000000 0.000000 0.000000 0.041692 0.000000 0.008562
# 5 0.004141 -0.009824 0.013326 0.000000 0.073288 0.000000
# 6 0.000000 0.000000 0.000000 0.008562 0.000000 0.072595
#
#
# Mechanical properties :
#
#
# Convention : Reuss Voigt Hill
#
# Bulk Modulus (GPa) = 26.49208 49.82562 38.15885
# Shear Modulus (GPa) = 12.39965 19.16119 15.78042
#
# Velocity S-wave (km/s) = 2.80923 3.49215 3.16914
# Velocity P-wave (km/s) = 5.23290 6.92616 6.13819
#
# Compressibility (1/GPa) = 0.03774714
#
# Stress axis : x y z
#
# Youngs Moduli (GPa) = 20.17667 17.89689 66.77426
#
# Poissons Ratio (x) = 0.41531 0.04410
# Poissons Ratio (y) = 0.46821 1.16637
# Poissons Ratio (z) = 0.01333 0.31261
#
# Static dielectric constant tensor:
#      x y z
#    x 1.492820 0.000000 -0.021420 
#    y 0.000000 1.524900 0.000000 
#    z -0.021420 0.000000 1.585120 
# 
# From -- ./inp_files/365249.got.cif
#   From: 2010.05.17/outbox.cif.g08.bks.cpg/sg12_183_cif.got.tgz:365249.got - 2010.06.03 13:09:07.
