data_PCOD9177410
_publ_section_title
;
Structure prediction by ZEFSAII (Michael W. Deem and Ramdas Pophale) SiO2 
 PCOD9177410
Probable space group: C 2/M
;
_chemical_formula_sum "Si O2"
_cell_formula_units_Z 56
_cell_length_a 26.876000
_cell_length_b 8.934508
_cell_length_c 19.504292
_cell_angle_alpha 90.000000
_cell_angle_beta 48.133807
_cell_angle_gamma 90.000000
_cell_volume 3487.787418
_symmetry_space_group_name_H-M "C 2/M"
_symmetry_group_IT_number 12
_symmetry_cell_setting 'monoclinic'
loop_
_space_group_symop_operation_xyz
x,y,z
-x,y,-z
-x,-y,-z
x,-y,z
1/2+x,1/2+y,z
1/2-x,1/2+y,-z
1/2-x,1/2-y,-z
1/2+x,1/2-y,z
loop_
_atom_site_type_symbol
_atom_site_label
_atom_site_fract_x
_atom_site_fract_y
_atom_site_fract_z
Si Si1 0.777304 0.667861 0.040366
Si Si2 0.050211 0.670759 0.518565
Si Si3 0.443435 0.680179 0.997221
Si Si4 0.060465 0.179229 0.290625
Si Si5 0.433069 0.832201 0.864219
Si Si6 0.158637 0.820785 0.327065
Si Si7 0.791314 0.822865 0.166678
O O1 0.749209 0.500000 0.078064
O O2 0.855559 0.653341 0.955238
O O3 0.750000 0.750000 0.000000
O O4 0.767903 0.777629 0.112205
O O5 0.064054 0.500000 0.527530
O O6 0.114984 0.752492 0.428899
O O7 0.000000 0.664147 0.500000
O O8 0.008756 0.761549 0.613172
O O9 0.441103 0.500000 0.992129
O O10 0.369581 0.724881 0.094028
O O11 0.500000 0.720652 0.000000
O O12 0.459975 0.747632 0.907118
O O13 0.065818 0.248245 0.209738
O O14 0.119427 0.221847 0.291404
O O15 0.060721 0.000000 0.286025
O O16 0.461529 0.000000 0.830982
O O17 0.234332 0.760485 0.262284
O O18 0.158097 0.000000 0.330148
O O19 0.788279 0.000000 0.181496
#
# Coordination Sequence:
#
# PCOD9177410 Si02
#       7
#     8   8   8   8   8   8   8
#     4  10  19  29  41  60  89 122 153 185 222 266
#     4   9  17  29  45  65  92 126 162 197 230 264
#     4   9  19  36  54  70  90 117 151 193 239 285
#     4  10  19  30  45  66  95 130 163 193 226 267
#     4  10  20  31  45  67  92 119 153 191 231 275
#     4  10  19  30  45  67  97 130 162 193 226 268
#     4  10  19  30  46  67  90 118 153 190 230 275
#
# _framework density 16.056025000000002
#
# number of rings (size 3 to 8) (size 9 to 14) (size 15 to 20)
#    0.000    2.286    0.000    3.429    0.000    8.286 
#    0.000    0.000    0.000    0.000    0.000    1.000 
#    0.000    0.000    0.000    0.000    0.000    0.000 
#
# Total GULP energy -155899.106315 kJ/mol
# GULP energy per Si atom -5567.825226 kJ/mol
# Density = 1.601948 g / cm^3
# Si number density = 16.056025 Si / 1000 Ang^3
#
#
#
# Elastic Constant Matrix: (Units=GPa)
#
#
# Indices 1 2 3 4 5 6 
#
# 1 59.6785 26.6355 20.5874 -0.0030 -5.5183 -0.0021
# 2 26.6355 67.5641 35.9023 -0.0077 -2.6933 -0.0012
# 3 20.5874 35.9023 93.4581 -0.0039 -13.0000 0.0001
# 4 -0.0030 -0.0077 -0.0039 31.1268 -0.0001 -0.6252
# 5 -5.5183 -2.6933 -13.0000 -0.0001 20.2441 0.0028
# 6 -0.0021 -0.0012 0.0001 -0.6252 0.0028 14.2066
#
#
#
# Elastic Compliance Matrix: (Units=1/GPa)
#
#
# Indices 1 2 3 4 5 6 
#
# 1 0.020846 -0.007428 -0.001192 0.000000 0.003929 0.000002
# 2 -0.007428 0.021344 -0.007082 0.000004 -0.003733 0.000002
# 3 -0.001192 -0.007082 0.014832 0.000000 0.008257 -0.000002
# 4 0.000000 0.000004 0.000000 0.032155 0.000000 0.001415
# 5 0.003929 -0.003733 0.008257 0.000000 0.055274 -0.000011
# 6 0.000002 0.000002 -0.000002 0.001415 -0.000011 0.070452
#
#
# Mechanical properties :
#
#
# Convention : Reuss Voigt Hill
#
# Bulk Modulus (GPa) = 39.03670 42.99456 41.01563
# Shear Modulus (GPa) = 19.61965 22.28721 20.95343
#
# Velocity S-wave (km/s) = 3.49943 3.72975 3.61642
# Velocity P-wave (km/s) = 6.37915 6.73677 6.56040
#
# Compressibility (1/GPa) = 0.02561692
#
# Stress axis : x y z
#
# Youngs Moduli (GPa) = 47.97029 46.85234 67.42255
#
# Poissons Ratio (x) = 0.34802 0.08037
# Poissons Ratio (y) = 0.35633 0.47750
# Poissons Ratio (z) = 0.05719 0.33182
#
# Static dielectric constant tensor:
#      x y z
#    x 1.507730 0.000000 -0.041600 
#    y 0.000000 1.565410 0.000000 
#    z -0.041600 0.000000 1.546920 
# 
# From -- ./inp_files/288208.got.cif
#   From: 2010.05.17/outbox.cif.g08.bks.cpg/sg12_145_cif.got.tgz:288208.got - 2010.06.03 13:09:07.
