data_PCOD9177449
_publ_section_title
;
Structure prediction by ZEFSAII (Michael W. Deem and Ramdas Pophale) SiO2 
 PCOD9177449
Probable space group: C 2/M
;
_chemical_formula_sum "Si O2"
_cell_formula_units_Z 64
_cell_length_a 25.491979
_cell_length_b 8.716576
_cell_length_c 17.021875
_cell_angle_alpha 90.000000
_cell_angle_beta 109.747967
_cell_angle_gamma 90.000000
_cell_volume 3559.862746
_symmetry_space_group_name_H-M "C 2/M"
_symmetry_group_IT_number 12
_symmetry_cell_setting 'monoclinic'
loop_
_space_group_symop_operation_xyz
x,y,z
-x,y,-z
-x,-y,-z
x,-y,z
1/2+x,1/2+y,z
1/2-x,1/2+y,-z
1/2-x,1/2-y,-z
1/2+x,1/2-y,z
loop_
_atom_site_type_symbol
_atom_site_label
_atom_site_fract_x
_atom_site_fract_y
_atom_site_fract_z
Si Si1 0.988778 0.677191 0.765355
Si Si2 0.656186 0.674737 0.961701
Si Si3 0.471737 0.330217 0.068970
Si Si4 0.367766 0.812450 0.742041
Si Si5 0.692464 0.683911 0.707094
Si Si6 0.242185 0.315140 0.409837
Si Si7 0.804013 0.683532 0.862660
Si Si8 0.108473 0.316813 0.779815
O O1 0.984015 0.500000 0.738693
O O2 0.926329 0.743807 0.735860
O O3 0.007020 0.695527 0.865109
O O4 0.044293 0.742841 0.751558
O O5 0.673838 0.500000 0.955377
O O6 0.594585 0.675998 0.969311
O O7 0.644378 0.755409 0.872392
O O8 0.693446 0.748335 0.048728
O O9 0.485501 0.500000 0.110444
O O10 0.500000 0.319931 0.000000
O O11 0.316418 0.769621 0.659921
O O12 0.351399 0.764188 0.823078
O O13 0.370119 0.000000 0.745877
O O14 0.684861 0.500000 0.704502
O O15 0.710106 0.731335 0.628356
O O16 0.745760 0.717523 0.789799
O O17 0.639365 0.764468 0.717242
O O18 0.242499 0.500000 0.413148
O O19 0.250000 0.250000 0.500000
O O20 0.809279 0.500000 0.872282
O O21 0.106465 0.500000 0.784965
#
# Coordination Sequence:
#
# PCOD9177449 Si02
#       8
#     8   8   8   8   8   8   8   8
#     4   9  17  29  46  67  90 120 159 197 231 273
#     4  10  19  29  42  62  92 129 164 201 245 282
#     4   9  17  27  38  57  88 123 158 197 240 281
#     4   8  15  30  51  73  98 125 152 191 243 286
#     4   9  19  35  52  70  95 126 156 190 237 286
#     4   9  18  34  57  82 103 122 146 182 233 289
#     4   9  17  30  48  68  90 121 163 205 242 281
#     4  10  20  32  47  68  93 126 169 205 230 268
#
# _framework density 17.978221000000001
#
# number of rings (size 3 to 8) (size 9 to 14) (size 15 to 20)
#    0.000    2.875    0.000    3.000    0.000    2.750 
#    0.000    2.500    0.000    0.750    0.000    5.250 
#    0.000    0.000    0.000    0.000    0.000    0.000 
#
# Total GULP energy -178172.672799 kJ/mol
# GULP energy per Si atom -5567.896025 kJ/mol
# Density = 1.793730 g / cm^3
# Si number density = 17.978221 Si / 1000 Ang^3
#
#
#
# Elastic Constant Matrix: (Units=GPa)
#
#
# Indices 1 2 3 4 5 6 
#
# 1 96.0668 22.5342 38.1068 0.0000 -25.5094 0.0000
# 2 22.5342 13.7752 11.5071 0.0000 -6.8214 0.0000
# 3 38.1068 11.5071 63.5301 0.0000 -16.4201 0.0000
# 4 0.0000 0.0000 0.0000 25.8206 0.0000 -3.0272
# 5 -25.5094 -6.8214 -16.4201 0.0000 21.6681 0.0000
# 6 0.0000 0.0000 0.0000 -3.0272 0.0000 10.3278
#
#
#
# Elastic Compliance Matrix: (Units=1/GPa)
#
#
# Indices 1 2 3 4 5 6 
#
# 1 0.021996 -0.024700 -0.005020 0.000000 0.014315 0.000000
# 2 -0.024700 0.119975 -0.005806 0.000000 0.004291 0.000000
# 3 -0.005020 -0.005806 0.022140 0.000000 0.009040 0.000000
# 4 0.000000 0.000000 0.000000 0.040107 0.000000 0.011756
# 5 0.014315 0.004291 0.009040 0.000000 0.071205 0.000000
# 6 0.000000 0.000000 0.000000 0.011756 0.000000 0.100272
#
#
# Mechanical properties :
#
#
# Convention : Reuss Voigt Hill
#
# Bulk Modulus (GPa) = 10.74589 35.29647 23.02118
# Shear Modulus (GPa) = 10.46539 18.31155 14.38847
#
# Velocity S-wave (km/s) = 2.41532 3.19492 2.83208
# Velocity P-wave (km/s) = 3.71060 5.76936 4.85047
#
# Compressibility (1/GPa) = 0.09305880
#
# Stress axis : x y z
#
# Youngs Moduli (GPa) = 45.46367 8.33508 45.16774
#
# Poissons Ratio (x) = 0.20587 0.22673
# Poissons Ratio (y) = 1.12293 0.26226
# Poissons Ratio (z) = 0.22821 0.04840
#
# Static dielectric constant tensor:
#      x y z
#    x 1.674970 0.000000 -0.006280 
#    y 0.000000 1.652980 0.000000 
#    z -0.006280 0.000000 1.588270 
# 
# From -- ./inp_files/248473.got.cif
#   From: 2010.05.17/outbox.cif.g08.bks.cpg/sg12_125_cif.got.tgz:248473.got - 2010.06.03 13:09:07.
