data_PCOD9177895
_publ_section_title
;
Structure prediction by ZEFSAII (Michael W. Deem and Ramdas Pophale) SiO2 
 PCOD9177895
Probable space group: C 2/M
;
_chemical_formula_sum "Si O2"
_cell_formula_units_Z 58
_cell_length_a 25.038269
_cell_length_b 7.791462
_cell_length_c 12.034310
_cell_angle_alpha 90.000000
_cell_angle_beta 111.515722
_cell_angle_gamma 90.000000
_cell_volume 2184.114455
_symmetry_space_group_name_H-M "C 2/M"
_symmetry_group_IT_number 12
_symmetry_cell_setting 'monoclinic'
loop_
_space_group_symop_operation_xyz
x,y,z
-x,y,-z
-x,-y,-z
x,-y,z
1/2+x,1/2+y,z
1/2-x,1/2+y,-z
1/2-x,1/2-y,-z
1/2+x,1/2-y,z
loop_
_atom_site_type_symbol
_atom_site_label
_atom_site_fract_x
_atom_site_fract_y
_atom_site_fract_z
Si Si1 0.500000 0.500000 0.000000
Si Si2 0.853864 0.700459 0.727363
Si Si3 0.604437 0.208191 0.468104
Si Si4 0.269900 0.197770 0.355877
Si Si5 0.853591 0.698113 0.971325
Si Si6 0.986113 0.309023 0.151936
Si Si7 0.183409 0.200820 0.826259
Si Si8 0.444269 0.702425 0.344888
O O1 0.511898 0.652473 0.103101
O O2 0.868082 0.500000 0.749812
O O3 0.893527 0.766994 0.658264
O O4 0.786772 0.711204 0.643591
O O5 0.856117 0.781048 0.851443
O O6 0.668162 0.265164 0.558484
O O7 0.558840 0.271648 0.524503
O O8 0.602931 0.000000 0.470106
O O9 0.272288 0.211663 0.223114
O O10 0.265880 0.000000 0.384546
O O11 0.834865 0.500000 0.946004
O O12 0.919029 0.701795 0.064223
O O13 0.815704 0.774626 0.041239
O O14 0.007118 0.500000 0.138247
O O15 0.984797 0.292245 0.285157
O O16 0.119984 0.263562 0.740261
O O17 0.187077 0.000000 0.805084
O O18 0.448647 0.500000 0.325915
#
# Coordination Sequence:
#
# PCOD9177895 Si02
#       8
#     2   8   8   8   8   8   8   8
#     4  12  22  36  60  94 118 140 166 204 268 324
#     4  10  20  33  47  67  97 137 181 222 269 316
#     4   9  18  31  48  69  98 136 180 228 271 308
#     4  10  19  30  44  67  96 129 176 231 277 312
#     4   9  19  34  51  71 100 136 173 211 257 318
#     4  10  20  36  58  86 117 142 166 206 258 318
#     4   9  17  29  48  67  90 131 172 215 267 313
#     4   9  16  30  51  76 104 134 174 217 258 309
#
# _framework density 26.555385999999999
#
# number of rings (size 3 to 8) (size 9 to 14) (size 15 to 20)
#    0.000    2.483    0.690    1.862    0.966    5.517 
#    0.000    0.000    0.000    0.000    0.000    1.931 
#    0.000    5.517    0.000    0.000    0.000    0.000 
#
# Total GULP energy -162015.652297 kJ/mol
# GULP energy per Si atom -5586.746631 kJ/mol
# Density = 2.649494 g / cm^3
# Si number density = 26.555386 Si / 1000 Ang^3
#
#
#
# Elastic Constant Matrix: (Units=GPa)
#
#
# Indices 1 2 3 4 5 6 
#
# 1 153.2727 27.4586 43.3864 0.0000 -29.7002 0.0000
# 2 27.4586 88.1313 31.2471 0.0000 -19.2930 0.0000
# 3 43.3864 31.2471 191.0366 0.0000 -42.5622 0.0000
# 4 0.0000 0.0000 0.0000 26.4433 0.0000 -19.0309
# 5 -29.7002 -19.2930 -42.5622 0.0000 48.2678 0.0000
# 6 0.0000 0.0000 0.0000 -19.0309 0.0000 3.6813
#
#
#
# Elastic Compliance Matrix: (Units=1/GPa)
#
#
# Indices 1 2 3 4 5 6 
#
# 1 0.007657 -0.001355 -0.000732 0.000000 0.003525 0.000000
# 2 -0.001355 0.012882 -0.001043 0.000000 0.003396 0.000000
# 3 -0.000732 -0.001043 0.006693 0.000000 0.005035 0.000000
# 4 0.000000 0.000000 0.000000 -0.013900 0.000000 -0.071861
# 5 0.003525 0.003396 0.005035 0.000000 0.028683 0.000000
# 6 0.000000 0.000000 0.000000 -0.071861 0.000000 -0.099850
#
#
# Mechanical properties :
#
#
# Convention : Reuss Voigt Hill
#
# Bulk Modulus (GPa) = 47.68006 70.73609 59.20807
# Shear Modulus (GPa) = -112.14670 37.70170 -37.22250
#
# Velocity S-wave (km/s) = -6.50561 3.77203 -3.74798
# Velocity P-wave (km/s) = 6.19973 6.75766 1.90123
#
# Compressibility (1/GPa) = 0.02097313
#
# Stress axis : x y z
#
# Youngs Moduli (GPa) = 130.59568 77.62843 149.40657
#
# Poissons Ratio (x) = 0.10515 0.10940
# Poissons Ratio (y) = 0.17690 0.15580
# Poissons Ratio (z) = 0.09562 0.08095
#
# Static dielectric constant tensor:
#      x y z
#    x 2.101800 0.000000 0.076580 
#    y 0.000000 1.907390 0.000000 
#    z 0.076580 0.000000 2.190410 
# 
# From -- ./inp_files/186655.got.cif
#   From: 2010.05.17/outbox.cif.g08.bks.cpg/sg12_94_cif.got.tgz:186655.got - 2010.06.03 13:09:07.
