data_PCOD9177981
_publ_section_title
;
Structure prediction by ZEFSAII (Michael W. Deem and Ramdas Pophale) SiO2 
 PCOD9177981
Probable space group: C 2/M
;
_chemical_formula_sum "Si O2"
_cell_formula_units_Z 56
_cell_length_a 29.537508
_cell_length_b 8.964245
_cell_length_c 17.865681
_cell_angle_alpha 90.000000
_cell_angle_beta 131.253341
_cell_angle_gamma 90.000000
_cell_volume 3556.397133
_symmetry_space_group_name_H-M "C 2/M"
_symmetry_group_IT_number 12
_symmetry_cell_setting 'monoclinic'
loop_
_space_group_symop_operation_xyz
x,y,z
-x,y,-z
-x,-y,-z
x,-y,z
1/2+x,1/2+y,z
1/2-x,1/2+y,-z
1/2-x,1/2-y,-z
1/2+x,1/2-y,z
loop_
_atom_site_type_symbol
_atom_site_label
_atom_site_fract_x
_atom_site_fract_y
_atom_site_fract_z
Si Si1 0.590436 0.674060 0.074194
Si Si2 0.712266 0.320025 0.391778
Si Si3 0.453326 0.822285 0.127025
Si Si4 0.345790 0.322603 0.086683
Si Si5 0.234965 0.827272 0.249209
Si Si6 0.258867 0.676572 0.126051
Si Si7 0.583220 0.821773 0.223972
O O1 0.572993 0.500000 0.056823
O O2 0.663110 0.680260 0.155901
O O3 0.569395 0.757932 0.126050
O O4 0.568028 0.751942 0.974835
O O5 0.710460 0.500000 0.393762
O O6 0.750000 0.250000 0.500000
O O7 0.741275 0.279930 0.342470
O O8 0.644312 0.256683 0.317364
O O9 0.409851 0.752490 0.141759
O O10 0.524564 0.791550 0.210530
O O11 0.445009 0.000000 0.115414
O O12 0.350481 0.500000 0.081207
O O13 0.315958 0.292232 0.134899
O O14 0.297833 0.258864 0.974293
O O15 0.265758 0.731610 0.218200
O O16 0.253314 0.000000 0.262083
O O17 0.247311 0.500000 0.111518
O O18 0.592173 0.000000 0.229227
#
# Coordination Sequence:
#
# PCOD9177981 Si02
#       7
#     8   8   8   8   8   8   8
#     4  10  19  30  45  67  96 131 167 200 238 285
#     4  10  21  37  56  77  99 125 158 199 248 295
#     4  11  21  31  45  67  95 132 170 202 239 283
#     4  10  20  31  44  65  96 132 169 207 242 282
#     4   9  18  31  48  71  98 128 161 198 241 289
#     4  10  19  30  46  68  94 129 169 205 243 285
#     4  10  21  34  48  69  97 127 163 202 240 290
#
# _framework density 15.746273
#
# number of rings (size 3 to 8) (size 9 to 14) (size 15 to 20)
#    0.000    2.000    1.429    3.857    0.000    8.571 
#    0.000    0.000    0.000    0.000    0.000    1.000 
#    0.000    8.000    0.000    0.000    0.000    0.000 
#
# Total GULP energy -156232.597920 kJ/mol
# GULP energy per Si atom -5579.735640 kJ/mol
# Density = 1.571043 g / cm^3
# Si number density = 15.746273 Si / 1000 Ang^3
#
#
#
# Elastic Constant Matrix: (Units=GPa)
#
#
# Indices 1 2 3 4 5 6 
#
# 1 124.5449 64.9924 48.1370 0.0000 -7.3084 0.0000
# 2 64.9924 78.9478 37.6897 0.0000 -4.7250 0.0000
# 3 48.1370 37.6897 68.4849 0.0000 -13.2431 0.0000
# 4 0.0000 0.0000 0.0000 20.3770 0.0000 -1.5195
# 5 -7.3084 -4.7250 -13.2431 0.0000 16.1405 0.0000
# 6 0.0000 0.0000 0.0000 -1.5195 0.0000 29.1575
#
#
#
# Elastic Compliance Matrix: (Units=1/GPa)
#
#
# Indices 1 2 3 4 5 6 
#
# 1 0.015329 -0.010124 -0.005270 0.000000 -0.000347 0.000000
# 2 -0.010124 0.024011 -0.006686 0.000000 -0.003041 0.000000
# 3 -0.005270 -0.006686 0.025133 0.000000 0.016278 0.000000
# 4 0.000000 0.000000 0.000000 0.049266 0.000000 0.002568
# 5 -0.000347 -0.003041 0.016278 0.000000 0.074265 0.000000
# 6 0.000000 0.000000 0.000000 0.002568 0.000000 0.034430
#
#
# Mechanical properties :
#
#
# Convention : Reuss Voigt Hill
#
# Bulk Modulus (GPa) = 49.22951 63.73509 56.48230
# Shear Modulus (GPa) = 18.29052 21.21223 19.75138
#
# Velocity S-wave (km/s) = 3.41189 3.67430 3.54553
# Velocity P-wave (km/s) = 6.84496 7.65277 7.26011
#
# Compressibility (1/GPa) = 0.02031302
#
# Stress axis : x y z
#
# Youngs Moduli (GPa) = 65.23653 41.64746 39.78806
#
# Poissons Ratio (x) = 0.42165 0.20967
# Poissons Ratio (y) = 0.66046 0.26603
# Poissons Ratio (z) = 0.34378 0.27846
#
# Static dielectric constant tensor:
#      x y z
#    x 1.555210 0.000000 0.001470 
#    y 0.000000 1.526040 0.000000 
#    z 0.001470 0.000000 1.495500 
# 
# From -- ./inp_files/291937.got.cif
#   From: 2010.05.17/outbox.cif.g08.bks.cpg/sg12_146_cif.got.tgz:291937.got - 2010.06.03 13:09:07.
