data_PCOD9177278
_publ_section_title
;
Structure prediction by ZEFSAII (Michael W. Deem and Ramdas Pophale) SiO2 
 PCOD9177278
Probable space group: C 2/M
;
_chemical_formula_sum "Si O2"
_cell_formula_units_Z 52
_cell_length_a 5.101646
_cell_length_b 25.053149
_cell_length_c 22.951690
_cell_angle_alpha 90.000000
_cell_angle_beta 83.952914
_cell_angle_gamma 90.000000
_cell_volume 2917.185183
_symmetry_space_group_name_H-M "C 2/M"
_symmetry_group_IT_number 12
_symmetry_cell_setting 'monoclinic'
loop_
_space_group_symop_operation_xyz
x,y,z
-x,y,-z
-x,-y,-z
x,-y,z
1/2+x,1/2+y,z
1/2-x,1/2+y,-z
1/2-x,1/2-y,-z
1/2+x,1/2-y,z
loop_
_atom_site_type_symbol
_atom_site_label
_atom_site_fract_x
_atom_site_fract_y
_atom_site_fract_z
Si Si1 0.867436 0.271358 0.562838
Si Si2 0.147718 0.613144 0.660400
Si Si3 0.303891 0.000000 0.576102
Si Si4 0.129979 0.712103 0.745819
Si Si5 0.684341 0.387474 0.581858
Si Si6 0.232819 0.000000 0.343610
Si Si7 0.500000 0.788911 0.000000
Si Si8 0.148094 0.714099 0.876371
O O1 0.630514 0.236903 0.594713
O O2 0.777175 0.331446 0.553609
O O3 0.000000 0.249577 0.500000
O O4 0.170879 0.662589 0.702376
O O5 0.377934 0.615810 0.605708
O O6 0.197714 0.555443 0.688341
O O7 0.863607 0.611054 0.636066
O O8 0.252329 0.057260 0.547177
O O9 0.586320 0.000000 0.601333
O O10 0.071813 0.000000 0.630322
O O11 0.363360 0.755617 0.738508
O O12 0.122669 0.690232 0.812676
O O13 0.551929 0.816972 0.936576
O O14 0.750000 0.750000 0.000000
O O15 0.446215 0.735215 0.877667
#
# Coordination Sequence:
#
# PCOD9177278 Si02
#       8
#     8   8   4   8   8   4   4   8
#     4  10  21  35  49  66  89 114 139 168 200 238
#     4  10  19  30  46  64  85 111 139 169 201 245
#     4   8  16  30  47  66  84 102 132 173 208 234
#     4  10  19  28  38  59  89 112 132 166 209 244
#     4  10  19  32  49  66  84 109 139 170 204 243
#     4   8  16  30  44  60  81 109 140 168 198 232
#     4   8  12  20  34  48  64  97 138 163 188 232
#     4   8  14  23  34  49  73 103 132 163 197 235
#
# _framework density 17.825403000000001
#
# number of rings (size 3 to 8) (size 9 to 14) (size 15 to 20)
#    0.000    2.769    0.000    1.846    0.000    3.692 
#    0.000    0.385    0.000    0.000    0.000    9.692 
#    0.000    0.615    0.000    0.000    0.000  127.385 
#
# Total GULP energy -144756.082450 kJ/mol
# GULP energy per Si atom -5567.541633 kJ/mol
# Density = 1.778483 g / cm^3
# Si number density = 17.825403 Si / 1000 Ang^3
#
#
#
# Elastic Constant Matrix: (Units=GPa)
#
#
# Indices 1 2 3 4 5 6 
#
# 1 93.0276 9.7945 -1.2638 0.0000 -11.7290 0.0000
# 2 9.7945 116.9982 28.2842 0.0000 -2.5269 0.0000
# 3 -1.2638 28.2842 57.5482 0.0000 -3.3904 0.0000
# 4 0.0000 0.0000 0.0000 23.1479 0.0000 -4.8666
# 5 -11.7290 -2.5269 -3.3904 0.0000 16.9470 0.0000
# 6 0.0000 0.0000 0.0000 -4.8666 0.0000 22.9889
#
#
#
# Elastic Compliance Matrix: (Units=1/GPa)
#
#
# Indices 1 2 3 4 5 6 
#
# 1 0.011941 -0.001137 0.001313 0.000000 0.008357 0.000000
# 2 -0.001137 0.009812 -0.004865 0.000000 -0.000297 0.000000
# 3 0.001313 -0.004865 0.020044 0.000000 0.004193 0.000000
# 4 0.000000 0.000000 0.000000 0.045213 0.000000 0.009571
# 5 0.008357 -0.000297 0.004193 0.000000 0.065586 0.000000
# 6 0.000000 0.000000 0.000000 0.009571 0.000000 0.045525
#
#
# Mechanical properties :
#
#
# Convention : Reuss Voigt Hill
#
# Bulk Modulus (GPa) = 30.84539 37.91155 34.37847
# Shear Modulus (GPa) = 22.90382 28.00068 25.45225
#
# Velocity S-wave (km/s) = 3.58844 3.96767 3.78281
# Velocity P-wave (km/s) = 5.87460 6.50418 6.19739
#
# Compressibility (1/GPa) = 0.03241976
#
# Stress axis : x y z
#
# Youngs Moduli (GPa) = 83.74712 101.91639 49.89106
#
# Poissons Ratio (x) = 0.11584 -0.06552
# Poissons Ratio (y) = 0.09519 0.24272
# Poissons Ratio (z) = -0.10998 0.49581
#
# Static dielectric constant tensor:
#      x y z
#    x 1.837290 0.000000 0.115070 
#    y 0.000000 1.642950 0.000000 
#    z 0.115070 0.000000 1.717630 
# 
# From -- ./inp_files/331343.got.cif
#   From: 2010.05.17/outbox.cif.g08.bks.cpg/sg12_166_cif.got.tgz:331343.got - 2010.06.03 13:09:07.
