data_PCOD9177632
_publ_section_title
;
Structure prediction by ZEFSAII (Michael W. Deem and Ramdas Pophale) SiO2 
 PCOD9177632
Probable space group: C 2/M
;
_chemical_formula_sum "Si O2"
_cell_formula_units_Z 56
_cell_length_a 20.128689
_cell_length_b 7.574279
_cell_length_c 28.893866
_cell_angle_alpha 90.000000
_cell_angle_beta 141.001355
_cell_angle_gamma 90.000000
_cell_volume 2772.180874
_symmetry_space_group_name_H-M "C 2/M"
_symmetry_group_IT_number 12
_symmetry_cell_setting 'monoclinic'
loop_
_space_group_symop_operation_xyz
x,y,z
-x,y,-z
-x,-y,-z
x,-y,z
1/2+x,1/2+y,z
1/2-x,1/2+y,-z
1/2-x,1/2-y,-z
1/2+x,1/2-y,z
loop_
_atom_site_type_symbol
_atom_site_label
_atom_site_fract_x
_atom_site_fract_y
_atom_site_fract_z
Si Si1 0.016119 0.202392 0.228600
Si Si2 0.675525 0.207371 0.392274
Si Si3 0.637927 0.713305 0.207948
Si Si4 0.628005 0.206911 0.675406
Si Si5 0.601857 0.213739 0.454385
Si Si6 0.662805 0.284732 0.801067
Si Si7 0.101707 0.711238 0.081920
O O1 0.113466 0.203394 0.317201
O O2 0.059655 0.282919 0.204856
O O3 0.917445 0.279806 0.203196
O O4 0.986322 0.000000 0.202039
O O5 0.633463 0.273707 0.419438
O O6 0.801339 0.232735 0.460723
O O7 0.651913 0.000000 0.376755
O O8 0.643038 0.500000 0.215188
O O9 0.758578 0.781510 0.278475
O O10 0.599585 0.752772 0.135501
O O11 0.515584 0.279027 0.597489
O O12 0.627400 0.222784 0.730998
O O13 0.629076 0.000000 0.663791
O O14 0.599794 0.000000 0.452294
O O15 0.659483 0.500000 0.798022
O O16 0.783553 0.225952 0.873263
O O17 0.102450 0.500000 0.076182
O O18 0.000000 0.782305 0.000000
#
# Coordination Sequence:
#
# PCOD9177632 Si02
#       7
#     8   8   8   8   8   8   8
#     4  10  19  32  48  70  99 128 158 194 240 287
#     4  10  19  29  45  69  95 125 161 202 242 279
#     4   9  19  33  51  73  98 127 157 193 237 284
#     4   9  16  30  49  69  92 121 162 204 237 276
#     4   9  17  29  45  67  93 122 160 204 244 279
#     4   9  17  29  49  72  94 124 159 194 232 279
#     4   9  18  34  54  75  98 125 157 192 232 279
#
# _framework density 20.200703000000001
#
# number of rings (size 3 to 8) (size 9 to 14) (size 15 to 20)
#    0.000    2.714    1.429    0.429    0.000    2.000 
#    0.000    1.429    0.000    4.286    0.000    0.000 
#    0.000    0.000    0.000    0.000    0.000    0.000 
#
# Total GULP energy -156148.099107 kJ/mol
# GULP energy per Si atom -5576.717825 kJ/mol
# Density = 2.015473 g / cm^3
# Si number density = 20.200703 Si / 1000 Ang^3
#
#
#
# Elastic Constant Matrix: (Units=GPa)
#
#
# Indices 1 2 3 4 5 6 
#
# 1 122.5189 -10.5185 53.4247 0.0000 18.7166 -0.0001
# 2 -10.5185 45.2209 -4.5676 0.0000 2.2328 -0.0005
# 3 53.4247 -4.5676 110.2715 0.0000 22.3859 0.0000
# 4 0.0000 0.0000 0.0000 10.7149 0.0000 -5.1752
# 5 18.7166 2.2328 22.3859 0.0000 18.6132 0.0000
# 6 -0.0001 -0.0005 0.0000 -5.1752 0.0000 9.7826
#
#
#
# Elastic Compliance Matrix: (Units=1/GPa)
#
#
# Indices 1 2 3 4 5 6 
#
# 1 0.011118 0.002527 -0.003904 0.000000 -0.006788 0.000000
# 2 0.002527 0.023137 0.001076 0.000001 -0.006611 0.000002
# 3 -0.003904 0.001076 0.013539 0.000000 -0.012487 0.000000
# 4 0.000000 0.000001 0.000000 0.125358 -0.000001 0.066317
# 5 -0.006788 -0.006611 -0.012487 -0.000001 0.076362 -0.000001
# 6 0.000000 0.000002 0.000000 0.066317 -0.000001 0.137305
#
#
# Mechanical properties :
#
#
# Convention : Reuss Voigt Hill
#
# Bulk Modulus (GPa) = 21.18981 39.40985 30.29983
# Shear Modulus (GPa) = 12.40226 23.80031 18.10129
#
# Velocity S-wave (km/s) = 2.48049 3.43620 2.99669
# Velocity P-wave (km/s) = 4.32622 5.94095 5.19668
#
# Compressibility (1/GPa) = 0.04719250
#
# Stress axis : x y z
#
# Youngs Moduli (GPa) = 89.94235 43.22165 73.85805
#
# Poissons Ratio (x) = -0.10922 0.28834
# Poissons Ratio (y) = -0.22728 -0.07948
# Poissons Ratio (z) = 0.35113 -0.04651
#
# Static dielectric constant tensor:
#      x y z
#    x 1.731210 0.000000 0.042280 
#    y 0.000000 1.743780 0.000000 
#    z 0.042280 0.000000 1.705700 
# 
# From -- ./inp_files/280291.got.cif
#   From: 2010.05.17/outbox.cif.g08.bks.cpg/sg12_141_cif.got.tgz:280291.got - 2010.06.03 13:09:07.
