data_PCOD9177259
_publ_section_title
;
Structure prediction by ZEFSAII (Michael W. Deem and Ramdas Pophale) SiO2 
 PCOD9177259
Probable space group: C 2/M
;
_chemical_formula_sum "Si O2"
_cell_formula_units_Z 52
_cell_length_a 21.952224
_cell_length_b 21.066740
_cell_length_c 5.560813
_cell_angle_alpha 90.000000
_cell_angle_beta 68.049674
_cell_angle_gamma 90.000000
_cell_volume 2385.239250
_symmetry_space_group_name_H-M "C 2/M"
_symmetry_group_IT_number 12
_symmetry_cell_setting 'monoclinic'
loop_
_space_group_symop_operation_xyz
x,y,z
-x,y,-z
-x,-y,-z
x,-y,z
1/2+x,1/2+y,z
1/2-x,1/2+y,-z
1/2-x,1/2-y,-z
1/2+x,1/2-y,z
loop_
_atom_site_type_symbol
_atom_site_label
_atom_site_fract_x
_atom_site_fract_y
_atom_site_fract_z
Si Si1 0.039099 0.500000 0.692092
Si Si2 0.574745 0.422861 0.923832
Si Si3 0.344361 0.908718 0.412090
Si Si4 0.170626 0.742697 0.602791
Si Si5 0.146536 0.077263 0.317879
Si Si6 0.206556 0.600852 0.013935
Si Si7 0.671074 0.756695 0.102412
O O1 0.085929 0.438478 0.628829
O O2 0.000000 0.500000 0.500000
O O3 0.000000 0.500000 0.000000
O O4 0.573028 0.500000 0.922296
O O5 0.617668 0.405824 0.623421
O O6 0.500000 0.399980 0.000000
O O7 0.602643 0.407079 0.147925
O O8 0.342145 0.832642 0.390908
O O9 0.299072 0.926720 0.708532
O O10 0.322814 0.931982 0.179603
O O11 0.250000 0.750000 0.500000
O O12 0.143895 0.768659 0.391947
O O13 0.145010 0.769755 0.890876
O O14 0.155895 0.000000 0.303188
O O15 0.217395 0.108537 0.164865
O O16 0.166460 0.666878 0.096431
O O17 0.750000 0.750000 0.000000
#
# Coordination Sequence:
#
# PCOD9177259 Si02
#       7
#     4   8   8   8   8   8   8
#     4  12  26  42  56  74 108 162 213 238 261 326
#     4   9  17  30  43  58  85 127 170 203 231 270
#     4  10  21  34  53  73 103 143 179 229 284 329
#     4   8  14  27  47  73  99 121 157 207 271 337
#     4  10  19  27  42  66  94 125 162 203 244 303
#     4  10  19  31  48  75 103 127 167 211 284 336
#     4   8  14  25  42  65  98 124 146 190 248 326
#
# _framework density 21.800750000000001
#
# number of rings (size 3 to 8) (size 9 to 14) (size 15 to 20)
#    0.000    2.615    0.000    2.308    2.154    1.846 
#    0.000    0.000    0.000    0.000    0.000    0.000 
#    0.000  196.923    0.000    0.000    0.000    0.000 
#
# Total GULP energy -144855.732777 kJ/mol
# GULP energy per Si atom -5571.374338 kJ/mol
# Density = 2.175113 g / cm^3
# Si number density = 21.800750 Si / 1000 Ang^3
#
#
#
# Elastic Constant Matrix: (Units=GPa)
#
#
# Indices 1 2 3 4 5 6 
#
# 1 101.8953 7.0592 46.4678 0.0000 32.2717 0.0000
# 2 7.0592 80.3606 8.2686 0.0000 3.4436 0.0000
# 3 46.4678 8.2686 185.7550 0.0000 55.8652 0.0000
# 4 0.0000 0.0000 0.0000 3.0100 0.0000 -49.9420
# 5 32.2717 3.4436 55.8652 0.0000 58.9840 0.0000
# 6 0.0000 0.0000 0.0000 -49.9420 0.0000 160.6342
#
#
#
# Elastic Compliance Matrix: (Units=1/GPa)
#
#
# Indices 1 2 3 4 5 6 
#
# 1 0.012184 -0.000697 -0.001432 0.000000 -0.005269 0.000000
# 2 -0.000697 0.012544 -0.000389 0.000000 0.000018 0.000000
# 3 -0.001432 -0.000389 0.007714 0.000000 -0.006500 0.000000
# 4 0.000000 0.000000 0.000000 -0.079890 0.000000 -0.024838
# 5 -0.005269 0.000018 -0.006500 0.000000 0.025991 0.000000
# 6 0.000000 0.000000 0.000000 -0.024838 0.000000 -0.001497
#
#
# Mechanical properties :
#
#
# Convention : Reuss Voigt Hill
#
# Bulk Modulus (GPa) = 36.48982 54.62245 45.55614
# Shear Modulus (GPa) = -569.45149 64.94000 -252.25575
#
# Velocity S-wave (km/s) = -16.17944 5.46376 -10.76851
# Velocity P-wave (km/s) = 18.22795 8.05687 11.56168
#
# Compressibility (1/GPa) = 0.02740490
#
# Stress axis : x y z
#
# Youngs Moduli (GPa) = 82.07313 79.71655 129.63836
#
# Poissons Ratio (x) = 0.05557 0.18568
# Poissons Ratio (y) = 0.05722 0.05048
# Poissons Ratio (z) = 0.11755 0.03104
#
# Static dielectric constant tensor:
#      x y z
#    x 1.762810 0.000000 0.067870 
#    y 0.000000 1.859120 0.000000 
#    z 0.067870 0.000000 1.895460 
# 
# From -- ./inp_files/21820.got.cif
#   From: 2010.05.17/outbox.cif.g08.bks.cpg/sg12_11_cif.got.tgz:21820.got - 2010.06.03 13:09:07.
