data_PCOD9177840
_publ_section_title
;
Structure prediction by ZEFSAII (Michael W. Deem and Ramdas Pophale) SiO2 
 PCOD9177840
Probable space group: C 2/M
;
_chemical_formula_sum "Si O2"
_cell_formula_units_Z 40
_cell_length_a 14.468925
_cell_length_b 7.304205
_cell_length_c 14.505910
_cell_angle_alpha 90.000000
_cell_angle_beta 100.894565
_cell_angle_gamma 90.000000
_cell_volume 1505.411942
_symmetry_space_group_name_H-M "C 2/M"
_symmetry_group_IT_number 12
_symmetry_cell_setting 'monoclinic'
loop_
_space_group_symop_operation_xyz
x,y,z
-x,y,-z
-x,-y,-z
x,-y,z
1/2+x,1/2+y,z
1/2-x,1/2+y,-z
1/2-x,1/2-y,-z
1/2+x,1/2-y,z
loop_
_atom_site_type_symbol
_atom_site_label
_atom_site_fract_x
_atom_site_fract_y
_atom_site_fract_z
Si Si1 0.102941 0.276790 0.301473
Si Si2 0.321924 0.790426 0.293612
Si Si3 0.859574 0.281667 0.495053
Si Si4 0.472518 0.796500 0.896150
Si Si5 0.236055 0.217782 0.104072
O O1 0.104084 0.500000 0.299852
O O2 0.209336 0.211666 0.297811
O O3 0.085258 0.218407 0.403674
O O4 0.029468 0.217825 0.208238
O O5 0.370184 0.707956 0.393321
O O6 0.317359 0.716256 0.188820
O O7 0.355926 0.000000 0.293445
O O8 0.875030 0.500000 0.491954
O O9 0.750000 0.250000 0.500000
O O10 0.360746 0.811565 0.888149
O O11 0.517969 0.000000 0.902925
O O12 0.500000 0.708155 0.000000
O O13 0.225922 0.000000 0.116230
O O14 0.250000 0.250000 0.000000
#
# Coordination Sequence:
#
# PCOD9177840 Si02
#       5
#     8   8   8   8   8
#     4   8  13  21  35  55  78 104 131 160 196 239
#     4   8  14  23  35  53  77 103 129 162 203 242
#     4   8  12  19  32  51  75 100 126 157 196 240
#     4   9  17  29  44  63  88 115 141 170 205 245
#     4  10  19  30  44  62  85 112 142 175 210 248
#
# _framework density 26.570799999999998
#
# number of rings (size 3 to 8) (size 9 to 14) (size 15 to 20)
#    0.000    3.400    0.000    0.600    0.000    1.200 
#    0.000    0.000    0.000    0.000    0.000    1.400 
#    0.000   11.200    0.000    0.000    0.000    0.000 
#
# Total GULP energy -111458.314541 kJ/mol
# GULP energy per Si atom -5572.915727 kJ/mol
# Density = 2.651032 g / cm^3
# Si number density = 26.570800 Si / 1000 Ang^3
#
#
#
# Elastic Constant Matrix: (Units=GPa)
#
#
# Indices 1 2 3 4 5 6 
#
# 1 85.3044 -5.8958 8.3029 0.0000 16.1294 0.0000
# 2 -5.8958 130.0627 11.2348 0.0000 0.3399 0.0000
# 3 8.3029 11.2348 379.2915 0.0000 15.2832 0.0000
# 4 0.0000 0.0000 0.0000 -33.3053 0.0000 2.6755
# 5 16.1294 0.3399 15.2832 0.0000 11.8406 0.0000
# 6 0.0000 0.0000 0.0000 2.6755 0.0000 -6.6118
#
#
#
# Elastic Compliance Matrix: (Units=1/GPa)
#
#
# Indices 1 2 3 4 5 6 
#
# 1 0.015969 0.000736 0.000534 0.000000 -0.022463 0.000000
# 2 0.000736 0.007742 -0.000207 0.000000 -0.000959 0.000000
# 3 0.000534 -0.000207 0.002806 0.000000 -0.004343 0.000000
# 4 0.000000 0.000000 0.000000 -0.031034 0.000000 -0.012558
# 5 -0.022463 -0.000959 -0.004343 0.000000 0.120687 0.000000
# 6 0.000000 0.000000 0.000000 -0.012558 0.000000 -0.156326
#
#
# Mechanical properties :
#
#
# Convention : Reuss Voigt Hill
#
# Bulk Modulus (GPa) = 34.91125 69.10473 52.00799
# Shear Modulus (GPa) = -152.74416 33.11915 -59.81250
#
# Velocity S-wave (km/s) = -7.59016 3.53434 -4.74968
# Velocity P-wave (km/s) = 7.97788 6.53603 3.23473
#
# Compressibility (1/GPa) = 0.02864406
#
# Stress axis : x y z
#
# Youngs Moduli (GPa) = 62.62130 129.15969 356.38834
#
# Poissons Ratio (x) = -0.09512 -0.19022
# Poissons Ratio (y) = -0.04612 0.07371
# Poissons Ratio (z) = -0.03342 0.02671
#
# Static dielectric constant tensor:
#      x y z
#    x 2.111810 0.000000 -0.063580 
#    y 0.000000 2.414110 0.000000 
#    z -0.063580 0.000000 2.267000 
# 
# From -- ./inp_files/228940.got.cif
#   From: 2010.05.17/outbox.cif.g08.bks.cpg/sg12_115_cif.got.tgz:228940.got - 2010.06.03 13:09:07.
