data_PCOD9177680
_publ_section_title
;
Structure prediction by ZEFSAII (Michael W. Deem and Ramdas Pophale) SiO2 
 PCOD9177680
Probable space group: C 2/M
;
_chemical_formula_sum "Si O2"
_cell_formula_units_Z 40
_cell_length_a 21.937946
_cell_length_b 11.905073
_cell_length_c 15.249529
_cell_angle_alpha 90.000000
_cell_angle_beta 156.935315
_cell_angle_gamma 90.000000
_cell_volume 1560.327424
_symmetry_space_group_name_H-M "C 2/M"
_symmetry_group_IT_number 12
_symmetry_cell_setting 'monoclinic'
loop_
_space_group_symop_operation_xyz
x,y,z
-x,y,-z
-x,-y,-z
x,-y,z
1/2+x,1/2+y,z
1/2-x,1/2+y,-z
1/2-x,1/2-y,-z
1/2+x,1/2-y,z
loop_
_atom_site_type_symbol
_atom_site_label
_atom_site_fract_x
_atom_site_fract_y
_atom_site_fract_z
Si Si1 0.720177 0.128176 0.703579
Si Si2 0.355300 0.625214 0.376258
Si Si3 0.945861 0.158625 0.185233
Si Si4 0.893965 0.616155 0.193347
Si Si5 0.194900 0.872902 0.387706
O O1 0.740189 0.258242 0.763013
O O2 0.531204 0.126442 0.444338
O O3 0.786820 0.131596 0.692361
O O4 0.752666 0.000000 0.779842
O O5 0.500000 0.629087 0.500000
O O6 0.282504 0.500000 0.270148
O O7 0.433671 0.627284 0.577444
O O8 0.927920 0.290416 0.168783
O O9 0.017993 0.124067 0.189183
O O10 0.773745 0.121123 0.984281
O O11 0.908209 0.500000 0.164949
O O12 0.250000 0.750000 0.500000
O O13 0.257409 0.000000 0.496426
#
# Coordination Sequence:
#
# PCOD9177680 Si02
#       5
#     8   8   8   8   8
#     4   9  19  32  47  71  96 118 150 191 235 278
#     4  10  19  30  45  66  93 125 158 188 221 269
#     4  10  19  29  46  71  96 122 150 187 235 278
#     4   9  16  28  45  67  95 120 148 189 234 279
#     4  11  19  29  46  69  97 123 149 188 236 281
#
# _framework density 25.635643000000002
#
# number of rings (size 3 to 8) (size 9 to 14) (size 15 to 20)
#    0.000    2.200    4.000    1.800    0.000    0.400 
#    0.000    0.000    0.000    0.000    0.000   22.400 
#    0.000   97.600    0.000    0.000    0.000    0.000 
#
# Total GULP energy -111505.919676 kJ/mol
# GULP energy per Si atom -5575.295984 kJ/mol
# Density = 2.557730 g / cm^3
# Si number density = 25.635643 Si / 1000 Ang^3
#
#
#
# Elastic Constant Matrix: (Units=GPa)
#
#
# Indices 1 2 3 4 5 6 
#
# 1 92.3064 31.9276 37.9772 0.0000 0.2500 0.0000
# 2 31.9276 342.2481 34.6600 0.0000 -5.9232 0.0000
# 3 37.9772 34.6600 68.0046 0.0000 7.0820 0.0000
# 4 0.0000 0.0000 0.0000 -70.6394 0.0000 -83.8619
# 5 0.2500 -5.9232 7.0820 0.0000 37.6629 0.0000
# 6 0.0000 0.0000 0.0000 -83.8619 0.0000 -61.7183
#
#
#
# Elastic Compliance Matrix: (Units=1/GPa)
#
#
# Indices 1 2 3 4 5 6 
#
# 1 0.014223 -0.000513 -0.007816 0.000000 0.001295 0.000000
# 2 -0.000513 0.003123 -0.001384 0.000000 0.000755 0.000000
# 3 -0.007816 -0.001384 0.020188 0.000000 -0.003962 0.000000
# 4 0.000000 0.000000 0.000000 0.023089 0.000000 -0.031373
# 5 0.001295 0.000755 -0.003962 0.000000 0.027406 0.000000
# 6 0.000000 0.000000 0.000000 -0.031373 0.000000 0.026426
#
#
# Mechanical properties :
#
#
# Convention : Reuss Voigt Hill
#
# Bulk Modulus (GPa) = 55.22498 79.07655 67.15077
# Shear Modulus (GPa) = 35.73528 7.59398 21.66463
#
# Velocity S-wave (km/s) = 3.73764 1.72299 2.91021
# Velocity P-wave (km/s) = 6.34158 5.90522 6.12728
#
# Compressibility (1/GPa) = 0.01810775
#
# Stress axis : x y z
#
# Youngs Moduli (GPa) = 70.30740 320.21439 49.53475
#
# Poissons Ratio (x) = 0.16423 0.38718
# Poissons Ratio (y) = 0.03606 0.06855
# Poissons Ratio (z) = 0.54955 0.44313
#
# Static dielectric constant tensor:
#      x y z
#    x 1.996290 0.000000 -0.065700 
#    y 0.000000 2.107250 0.000000 
#    z -0.065700 0.000000 2.136980 
# 
# From -- ./inp_files/283406.got.cif
#   From: 2010.05.17/outbox.cif.g08.bks.cpg/sg12_142_cif.got.tgz:283406.got - 2010.06.03 13:09:07.
