data_PCOD9177677
_publ_section_title
;
Structure prediction by ZEFSAII (Michael W. Deem and Ramdas Pophale) SiO2 
 PCOD9177677
Probable space group: C 2/M
;
_chemical_formula_sum "Si O2"
_cell_formula_units_Z 64
_cell_length_a 20.098803
_cell_length_b 9.243286
_cell_length_c 24.725073
_cell_angle_alpha 90.000000
_cell_angle_beta 55.800543
_cell_angle_gamma 90.000000
_cell_volume 3799.135511
_symmetry_space_group_name_H-M "C 2/M"
_symmetry_group_IT_number 12
_symmetry_cell_setting 'monoclinic'
loop_
_space_group_symop_operation_xyz
x,y,z
-x,y,-z
-x,-y,-z
x,-y,z
1/2+x,1/2+y,z
1/2-x,1/2+y,-z
1/2-x,1/2-y,-z
1/2+x,1/2-y,z
loop_
_atom_site_type_symbol
_atom_site_label
_atom_site_fract_x
_atom_site_fract_y
_atom_site_fract_z
Si Si1 0.834341 0.669949 0.466468
Si Si2 0.859742 0.830693 0.679901
Si Si3 0.530299 0.329835 0.664789
Si Si4 0.797076 0.332842 0.058003
Si Si5 0.591982 0.830457 0.448192
Si Si6 0.874737 0.832752 0.927265
Si Si7 0.219558 0.666774 0.188399
Si Si8 0.547946 0.167129 0.203173
O O1 0.828229 0.500000 0.455718
O O2 0.750000 0.750000 0.500000
O O3 0.899707 0.746966 0.398583
O O4 0.863698 0.680975 0.514991
O O5 0.866882 0.760150 0.617863
O O6 0.798712 0.746905 0.747147
O O7 0.948204 0.817494 0.667103
O O8 0.839879 0.000000 0.686426
O O9 0.548216 0.500000 0.662725
O O10 0.511432 0.255229 0.730760
O O11 0.819965 0.500000 0.054936
O O12 0.711092 0.332409 0.065494
O O13 0.780725 0.252198 0.121808
O O14 0.857868 0.247720 0.991258
O O15 0.500000 0.782134 0.500000
O O16 0.589194 0.000000 0.433007
O O17 0.935753 0.746807 0.860818
O O18 0.897678 0.000000 0.924094
O O19 0.243005 0.500000 0.185337
O O20 0.134167 0.666918 0.195076
O O21 0.523951 0.000000 0.207365
#
# Coordination Sequence:
#
# PCOD9177677 Si02
#       8
#     8   8   8   8   8   8   8   8
#     4  11  23  38  55  74  99 129 161 200 246 297
#     4  10  19  29  46  70  94 119 154 200 242 283
#     4  10  19  31  47  68  93 121 155 196 242 289
#     4   9  15  22  32  47  72 106 146 188 230 277
#     4  10  20  35  54  74  97 126 161 200 244 292
#     4   9  15  22  32  48  72 105 146 188 230 277
#     4   9  16  25  37  54  80 113 149 188 233 283
#     4   9  16  25  38  56  79 110 149 191 234 278
#
# _framework density 16.845938
#
# number of rings (size 3 to 8) (size 9 to 14) (size 15 to 20)
#    0.000    2.375    1.250    2.625    0.000    8.250 
#    0.000    0.000    0.000    0.000    0.000    0.000 
#    0.000    0.000    0.000    1.125    0.000   21.250 
#
# Total GULP energy -178460.389186 kJ/mol
# GULP energy per Si atom -5576.887162 kJ/mol
# Density = 1.680760 g / cm^3
# Si number density = 16.845938 Si / 1000 Ang^3
#
#
#
# Elastic Constant Matrix: (Units=GPa)
#
#
# Indices 1 2 3 4 5 6 
#
# 1 15.4916 21.9619 14.3266 0.0000 0.6226 0.0004
# 2 21.9619 180.3078 117.3753 0.0000 7.8092 0.0010
# 3 14.3266 117.3753 177.9945 0.0000 17.6526 0.0000
# 4 0.0000 0.0000 0.0000 38.7711 0.0000 2.7910
# 5 0.6226 7.8092 17.6526 0.0000 5.9633 0.0000
# 6 0.0004 0.0010 0.0000 2.7910 0.0000 13.0399
#
#
#
# Elastic Compliance Matrix: (Units=1/GPa)
#
#
# Indices 1 2 3 4 5 6 
#
# 1 0.078190 -0.009271 -0.000813 0.000000 0.006385 -0.000002
# 2 -0.009271 0.011157 -0.007444 0.000000 0.008391 -0.000001
# 3 -0.000813 -0.007444 0.013614 0.000000 -0.030466 0.000001
# 4 0.000000 0.000000 0.000000 0.026196 0.000000 -0.005607
# 5 0.006385 0.008391 -0.030466 0.000000 0.246224 -0.000001
# 6 -0.000002 -0.000001 0.000001 -0.005607 -0.000001 0.077888
#
#
# Mechanical properties :
#
#
# Convention : Reuss Voigt Hill
#
# Bulk Modulus (GPa) = 14.72634 75.68018 45.20326
# Shear Modulus (GPa) = 9.78553 26.23018 18.00786
#
# Velocity S-wave (km/s) = 2.41277 3.95024 3.27306
# Velocity P-wave (km/s) = 4.06481 8.11347 6.41681
#
# Compressibility (1/GPa) = 0.06790554
#
# Stress axis : x y z
#
# Youngs Moduli (GPa) = 12.78943 89.62680 73.45603
#
# Poissons Ratio (x) = 0.83092 0.05973
# Poissons Ratio (y) = 0.11857 0.54677
# Poissons Ratio (z) = 0.01040 0.66714
#
# Static dielectric constant tensor:
#      x y z
#    x 1.542810 0.000000 0.004420 
#    y 0.000000 1.565180 0.000000 
#    z 0.004420 0.000000 1.558250 
# 
# From -- ./inp_files/346083.got.cif
#   From: 2010.05.17/outbox.cif.g08.bks.cpg/sg12_174_cif.got.tgz:346083.got - 2010.06.03 13:09:07.
