data_PCOD9177304
_publ_section_title
;
Structure prediction by ZEFSAII (Michael W. Deem and Ramdas Pophale) SiO2 
 PCOD9177304
Probable space group: C 2/M
;
_chemical_formula_sum "Si O2"
_cell_formula_units_Z 64
_cell_length_a 31.884391
_cell_length_b 14.160930
_cell_length_c 9.502811
_cell_angle_alpha 90.000000
_cell_angle_beta 99.436089
_cell_angle_gamma 90.000000
_cell_volume 4232.582932
_symmetry_space_group_name_H-M "C 2/M"
_symmetry_group_IT_number 12
_symmetry_cell_setting 'monoclinic'
loop_
_space_group_symop_operation_xyz
x,y,z
-x,y,-z
-x,-y,-z
x,-y,z
1/2+x,1/2+y,z
1/2-x,1/2+y,-z
1/2-x,1/2-y,-z
1/2+x,1/2-y,z
loop_
_atom_site_type_symbol
_atom_site_label
_atom_site_fract_x
_atom_site_fract_y
_atom_site_fract_z
Si Si1 0.185834 0.205333 0.271629
Si Si2 0.016853 0.114938 0.356116
Si Si3 0.698935 0.390117 0.564626
Si Si4 0.723904 0.613718 0.030283
Si Si5 0.092788 0.885906 0.210722
Si Si6 0.217832 0.391579 0.189964
Si Si7 0.644941 0.614485 0.791385
Si Si8 0.058517 0.885330 0.887289
O O1 0.201774 0.178273 0.434803
O O2 0.139247 0.159508 0.231630
O O3 0.185712 0.315529 0.233899
O O4 0.218789 0.159664 0.178660
O O5 0.064025 0.141151 0.329508
O O6 0.000000 0.146147 0.500000
O O7 0.983839 0.145267 0.216280
O O8 0.016604 0.000000 0.359301
O O9 0.692736 0.500000 0.515674
O O10 0.740501 0.388831 0.686293
O O11 0.659792 0.360694 0.643299
O O12 0.722682 0.500000 0.042359
O O13 0.764494 0.635868 0.955344
O O14 0.681830 0.643464 0.919980
O O15 0.097926 0.000000 0.213373
O O16 0.067123 0.860067 0.053958
O O17 0.203010 0.500000 0.177886
O O18 0.644791 0.500000 0.793923
O O19 0.599278 0.646285 0.818922
O O20 0.057590 0.000000 0.885265
#
# Coordination Sequence:
#
# PCOD9177304 Si02
#       8
#     8   8   8   8   8   8   8   8
#     4  12  19  27  46  69  86 108 152 192 215 247
#     4   9  18  28  39  57  87 124 149 167 202 254
#     4   9  18  29  43  63  88 114 142 180 220 260
#     4   9  16  29  45  64  87 111 141 178 215 257
#     4  10  19  28  40  64  90 113 146 182 212 247
#     4   9  20  35  45  57  86 122 149 177 223 268
#     4   8  14  25  40  59  85 117 142 164 208 257
#     4   9  15  26  41  55  83 123 148 165 201 253
#
# _framework density 15.120789
#
# number of rings (size 3 to 8) (size 9 to 14) (size 15 to 20)
#    0.000    2.625    1.250    3.750    1.750    1.500 
#    0.000    0.000    0.000    0.000    0.000    0.000 
#    0.000    2.500    0.000    0.000    0.000    0.125 
#
# Total GULP energy -178236.945201 kJ/mol
# GULP energy per Si atom -5569.904538 kJ/mol
# Density = 1.508637 g / cm^3
# Si number density = 15.120789 Si / 1000 Ang^3
#
#
#
# Elastic Constant Matrix: (Units=GPa)
#
#
# Indices 1 2 3 4 5 6 
#
# 1 49.2287 21.6031 21.6269 0.0000 -15.2928 0.0000
# 2 21.6031 30.7340 18.8695 0.0000 -15.5473 0.0000
# 3 21.6269 18.8695 79.0831 0.0000 -23.4149 0.0000
# 4 0.0000 0.0000 0.0000 9.7805 0.0000 -3.5175
# 5 -15.2928 -15.5473 -23.4149 0.0000 22.4757 0.0000
# 6 0.0000 0.0000 0.0000 -3.5175 0.0000 10.3975
#
#
#
# Elastic Compliance Matrix: (Units=1/GPa)
#
#
# Indices 1 2 3 4 5 6 
#
# 1 0.030853 -0.016704 -0.002397 0.000000 0.006941 0.000000
# 2 -0.016704 0.059425 -0.001164 0.000000 0.028528 0.000000
# 3 -0.002397 -0.001164 0.018591 0.000000 0.016932 0.000000
# 4 0.000000 0.000000 0.000000 0.116407 0.000000 0.039381
# 5 0.006941 0.028528 0.016932 0.000000 0.086589 0.000000
# 6 0.000000 0.000000 0.000000 0.039381 0.000000 0.109499
#
#
# Mechanical properties :
#
#
# Convention : Reuss Voigt Hill
#
# Bulk Modulus (GPa) = 14.63290 31.47164 23.05227
# Shear Modulus (GPa) = 10.31623 14.99383 12.65503
#
# Velocity S-wave (km/s) = 2.61483 3.15239 2.89611
# Velocity P-wave (km/s) = 4.33761 5.84027 5.14410
#
# Compressibility (1/GPa) = 0.06833915
#
# Stress axis : x y z
#
# Youngs Moduli (GPa) = 32.41222 16.82806 53.78833
#
# Poissons Ratio (x) = 0.28109 0.12891
# Poissons Ratio (y) = 0.54140 0.06263
# Poissons Ratio (z) = 0.07768 0.01960
#
# Static dielectric constant tensor:
#      x y z
#    x 1.515280 0.000000 -0.010950 
#    y 0.000000 1.484790 0.000000 
#    z -0.010950 0.000000 1.537380 
# 
# From -- ./inp_files/111205.got.cif
#   From: 2010.05.17/outbox.cif.g08.bks.cpg/sg12_56_cif.got.tgz:111205.got - 2010.06.03 13:09:07.
