data_PCOD9177844
_publ_section_title
;
Structure prediction by ZEFSAII (Michael W. Deem and Ramdas Pophale) SiO2 
 PCOD9177844
Probable space group: C 2/M
;
_chemical_formula_sum "Si O2"
_cell_formula_units_Z 64
_cell_length_a 32.806741
_cell_length_b 8.883715
_cell_length_c 31.115882
_cell_angle_alpha 90.000000
_cell_angle_beta 150.325904
_cell_angle_gamma 90.000000
_cell_volume 4489.550254
_symmetry_space_group_name_H-M "C 2/M"
_symmetry_group_IT_number 12
_symmetry_cell_setting 'monoclinic'
loop_
_space_group_symop_operation_xyz
x,y,z
-x,y,-z
-x,-y,-z
x,-y,z
1/2+x,1/2+y,z
1/2-x,1/2+y,-z
1/2-x,1/2-y,-z
1/2+x,1/2-y,z
loop_
_atom_site_type_symbol
_atom_site_label
_atom_site_fract_x
_atom_site_fract_y
_atom_site_fract_z
Si Si1 0.339707 0.180182 0.175310
Si Si2 0.547285 0.820266 0.804682
Si Si3 0.787491 0.820558 0.467749
Si Si4 0.072146 0.178886 0.662038
Si Si5 0.369627 0.679016 0.634346
Si Si6 0.202989 0.319564 0.997877
Si Si7 0.109458 0.318920 0.513686
Si Si8 0.598590 0.172729 0.598847
O O1 0.401683 0.215504 0.192231
O O2 0.377027 0.250090 0.252403
O O3 0.250674 0.248480 0.081634
O O4 0.334377 0.000000 0.173412
O O5 0.461683 0.734273 0.726906
O O6 0.532451 0.000000 0.790694
O O7 0.607623 0.785835 0.900137
O O8 0.696937 0.761491 0.396705
O O9 0.843396 0.786437 0.561043
O O10 0.826480 0.739439 0.462546
O O11 0.786982 0.000000 0.461127
O O12 0.111411 0.225837 0.652207
O O13 0.979720 0.246852 0.577773
O O14 0.067799 0.000000 0.662150
O O15 0.362597 0.500000 0.633687
O O16 0.212421 0.500000 0.006632
O O17 0.250000 0.250000 0.000000
O O18 0.101280 0.500000 0.504681
O O19 0.134261 0.278593 0.585480
O O20 0.500000 0.171872 0.500000
O O21 0.622797 0.000000 0.630330
#
# Coordination Sequence:
#
# PCOD9177844 Si02
#       8
#     8   8   8   8   8   8   8   8
#     4  10  19  30  44  62  86 116 147 179 215 254
#     4   9  18  30  44  61  83 113 144 176 214 253
#     4  10  20  32  45  62  85 112 144 182 218 250
#     4  11  20  28  42  64  88 114 145 179 213 253
#     4  10  20  31  44  62  84 112 145 180 215 252
#     4   9  17  29  43  61  85 112 143 177 214 255
#     4  10  19  31  46  62  84 114 146 178 214 256
#     4   8  16  30  44  59  82 112 142 174 212 252
#
# _framework density 14.255324
#
# number of rings (size 3 to 8) (size 9 to 14) (size 15 to 20)
#    0.000    2.375    0.000    5.250    0.000    9.250 
#    0.000    0.000    0.000    0.000    0.000    0.000 
#    0.000    1.000    0.000   10.500    0.000    4.500 
#
# Total GULP energy -178371.545230 kJ/mol
# GULP energy per Si atom -5574.110788 kJ/mol
# Density = 1.422288 g / cm^3
# Si number density = 14.255324 Si / 1000 Ang^3
#
#
#
# Elastic Constant Matrix: (Units=GPa)
#
#
# Indices 1 2 3 4 5 6 
#
# 1 93.9167 46.2044 44.0659 0.0000 -7.1892 0.0000
# 2 46.2044 69.8865 50.9239 0.0000 -5.8067 0.0001
# 3 44.0659 50.9239 99.0659 0.0000 -6.5687 0.0000
# 4 0.0000 0.0000 0.0000 25.5293 0.0000 -0.0275
# 5 -7.1892 -5.8067 -6.5687 0.0000 19.0318 0.0000
# 6 0.0000 0.0001 0.0000 -0.0275 0.0000 22.7983
#
#
#
# Elastic Compliance Matrix: (Units=1/GPa)
#
#
# Indices 1 2 3 4 5 6 
#
# 1 0.016353 -0.008666 -0.002646 0.000000 0.002620 0.000000
# 2 -0.008666 0.027638 -0.010245 0.000000 0.001623 0.000000
# 3 -0.002646 -0.010245 0.016645 0.000000 0.001620 0.000000
# 4 0.000000 0.000000 0.000000 0.039171 0.000000 0.000047
# 5 0.002620 0.001623 0.001620 0.000000 0.054588 0.000000
# 6 0.000000 0.000000 0.000000 0.000047 0.000000 0.043863
#
#
# Mechanical properties :
#
#
# Convention : Reuss Voigt Hill
#
# Bulk Modulus (GPa) = 57.06761 60.58416 58.82588
# Shear Modulus (GPa) = 20.22558 21.58352 20.90455
#
# Velocity S-wave (km/s) = 3.77079 3.89532 3.83356
# Velocity P-wave (km/s) = 7.68622 7.92609 7.80708
#
# Compressibility (1/GPa) = 0.01752308
#
# Stress axis : x y z
#
# Youngs Moduli (GPa) = 61.15024 36.18168 60.07916
#
# Poissons Ratio (x) = 0.31356 0.15895
# Poissons Ratio (y) = 0.52994 0.61550
# Poissons Ratio (z) = 0.16178 0.37067
#
# Static dielectric constant tensor:
#      x y z
#    x 1.469970 0.000000 -0.019190 
#    y 0.000000 1.472780 0.000000 
#    z -0.019190 0.000000 1.470660 
# 
# From -- ./inp_files/249029.got.cif
#   From: 2010.05.17/outbox.cif.g08.bks.cpg/sg12_125_cif.got.tgz:249029.got - 2010.06.03 13:09:07.
