data_PCOD9177758
_publ_section_title
;
Structure prediction by ZEFSAII (Michael W. Deem and Ramdas Pophale) SiO2 
 PCOD9177758
Probable space group: C 2/M
;
_chemical_formula_sum "Si O2"
_cell_formula_units_Z 44
_cell_length_a 26.761197
_cell_length_b 8.297113
_cell_length_c 14.719831
_cell_angle_alpha 90.000000
_cell_angle_beta 30.679977
_cell_angle_gamma 90.000000
_cell_volume 1667.676871
_symmetry_space_group_name_H-M "C 2/M"
_symmetry_group_IT_number 12
_symmetry_cell_setting 'monoclinic'
loop_
_space_group_symop_operation_xyz
x,y,z
-x,y,-z
-x,-y,-z
x,-y,z
1/2+x,1/2+y,z
1/2-x,1/2+y,-z
1/2-x,1/2-y,-z
1/2+x,1/2-y,z
loop_
_atom_site_type_symbol
_atom_site_label
_atom_site_fract_x
_atom_site_fract_y
_atom_site_fract_z
Si Si1 0.882300 0.000000 0.185325
Si Si2 0.260626 0.183803 0.083353
Si Si3 0.368407 0.188721 0.559430
Si Si4 0.450074 0.166864 0.908179
Si Si5 0.441927 0.500000 0.893595
Si Si6 0.297123 0.819106 0.313142
Si Si7 0.001393 0.000000 0.387632
O O1 0.836157 0.840162 0.301536
O O2 0.863173 0.000000 0.101998
O O3 0.000000 0.000000 0.000000
O O4 0.199062 0.296189 0.245839
O O5 0.221881 0.000000 0.149496
O O6 0.250000 0.250000 0.000000
O O7 0.370081 0.171763 0.952308
O O8 0.299943 0.258320 0.586271
O O9 0.449557 0.327198 0.448034
O O10 0.397489 0.000000 0.503733
O O11 0.500867 0.337004 0.820327
O O12 0.507427 0.000000 0.817893
O O13 0.383772 0.165719 0.101585
O O14 0.417532 0.500000 0.823256
O O15 0.288867 0.000000 0.362775
O O16 0.000000 0.000000 0.500000
#
# Coordination Sequence:
#
# PCOD9177758 Si02
#       7
#     4   8   8   8   4   8   4
#     4  10  20  36  66 104 125 140 184 248 315 373
#     4  10  19  29  49  79 107 134 184 257 299 340
#     4  11  21  38  58  80 109 160 213 248 297 346
#     4   8  17  30  49  77 104 138 184 228 290 349
#     4  10  22  38  58  74 122 164 182 230 311 354
#     4   9  16  33  59  89 121 151 185 237 303 362
#     4  12  28  42  54  78 121 170 214 249 277 352
#
# _framework density 26.384007
#
# number of rings (size 3 to 8) (size 9 to 14) (size 15 to 20)
#    0.000    2.182    2.727    1.636    7.636    1.455 
#    0.000    0.000    0.000    1.091    0.000    0.000 
#    0.000    0.000    0.000    0.000    0.000    0.000 
#
# Total GULP energy -122724.999954 kJ/mol
# GULP energy per Si atom -5578.409089 kJ/mol
# Density = 2.632396 g / cm^3
# Si number density = 26.384007 Si / 1000 Ang^3
#
#
#
# Elastic Constant Matrix: (Units=GPa)
#
#
# Indices 1 2 3 4 5 6 
#
# 1 96.2473 23.9850 30.1593 0.0000 15.3583 0.0000
# 2 23.9850 329.0938 43.9351 0.0000 2.6549 0.0001
# 3 30.1593 43.9351 64.7099 0.0000 20.7993 0.0000
# 4 0.0000 0.0000 0.0000 887.0227 0.0000 433.8100
# 5 15.3583 2.6549 20.7993 0.0000 16.9775 0.0000
# 6 0.0000 0.0001 0.0000 433.8100 0.0000 235.1158
#
#
#
# Elastic Compliance Matrix: (Units=1/GPa)
#
#
# Indices 1 2 3 4 5 6 
#
# 1 0.012701 -0.000435 -0.003221 0.000000 -0.007475 0.000000
# 2 -0.000435 0.003505 -0.003510 0.000000 0.004145 0.000000
# 3 -0.003221 -0.003510 0.030063 0.000000 -0.033368 0.000000
# 4 0.000000 0.000000 0.000000 0.011547 0.000000 -0.021305
# 5 -0.007475 0.004145 -0.033368 0.000000 0.105894 0.000000
# 6 0.000000 0.000000 0.000000 -0.021305 0.000000 0.043563
#
#
# Mechanical properties :
#
#
# Convention : Reuss Voigt Hill
#
# Bulk Modulus (GPa) = 31.31187 76.24553 53.77870
# Shear Modulus (GPa) = 21.52851 253.95465 137.74158
#
# Velocity S-wave (km/s) = 2.85961 9.82152 7.23324
# Velocity P-wave (km/s) = 4.77459 12.55298 9.49669
#
# Compressibility (1/GPa) = 0.03193677
#
# Stress axis : x y z
#
# Youngs Moduli (GPa) = 78.73702 285.26874 33.26361
#
# Poissons Ratio (x) = 0.12418 0.10715
# Poissons Ratio (y) = 0.03427 0.11674
# Poissons Ratio (z) = 0.25363 1.00116
#
# Static dielectric constant tensor:
#      x y z
#    x 2.093140 0.000000 0.023920 
#    y 0.000000 2.127620 0.000000 
#    z 0.023920 0.000000 2.075240 
# 
# From -- ./inp_files/295032.got.cif
#   From: 2010.05.17/outbox.cif.g08.bks.cpg/sg12_148_cif.got.tgz:295032.got - 2010.06.03 13:09:07.
