data_PCOD9177533
_publ_section_title
;
Structure prediction by ZEFSAII (Michael W. Deem and Ramdas Pophale) SiO2 
 PCOD9177533
Probable space group: C 2/M
;
_chemical_formula_sum "Si O2"
_cell_formula_units_Z 64
_cell_length_a 30.594128
_cell_length_b 7.636179
_cell_length_c 15.826772
_cell_angle_alpha 90.000000
_cell_angle_beta 117.419235
_cell_angle_gamma 90.000000
_cell_volume 3282.113430
_symmetry_space_group_name_H-M "C 2/M"
_symmetry_group_IT_number 12
_symmetry_cell_setting 'monoclinic'
loop_
_space_group_symop_operation_xyz
x,y,z
-x,y,-z
-x,-y,-z
x,-y,z
1/2+x,1/2+y,z
1/2-x,1/2+y,-z
1/2-x,1/2-y,-z
1/2+x,1/2-y,z
loop_
_atom_site_type_symbol
_atom_site_label
_atom_site_fract_x
_atom_site_fract_y
_atom_site_fract_z
Si Si1 0.674157 0.203332 0.876793
Si Si2 0.931580 0.700932 0.259540
Si Si3 0.813359 0.211638 0.429302
Si Si4 0.636835 0.792412 0.351058
Si Si5 0.587347 0.292578 0.570761
Si Si6 0.722770 0.292006 0.092918
Si Si7 0.038692 0.287299 0.350509
Si Si8 0.792742 0.711580 0.730021
O O1 0.620396 0.283385 0.814394
O O2 0.721011 0.277552 0.867174
O O3 0.670057 0.000000 0.846822
O O4 0.690447 0.213261 0.988797
O O5 0.931573 0.500000 0.228408
O O6 0.930682 0.702795 0.360487
O O7 0.984185 0.778417 0.280032
O O8 0.827547 0.267459 0.536483
O O9 0.858067 0.269451 0.408352
O O10 0.760270 0.274259 0.351658
O O11 0.813539 0.000000 0.428435
O O12 0.583457 0.722341 0.331508
O O13 0.663935 0.722022 0.292337
O O14 0.630382 0.000000 0.333002
O O15 0.589245 0.500000 0.589134
O O16 0.553251 0.261944 0.459106
O O17 0.724353 0.500000 0.078647
O O18 0.702986 0.258702 0.168372
O O19 0.038096 0.500000 0.347058
O O20 0.792177 0.500000 0.723702
#
# Coordination Sequence:
#
# PCOD9177533 Si02
#       8
#     8   8   8   8   8   8   8   8
#     4   9  19  35  52  71  95 120 147 183 229 278
#     4  10  19  31  49  69  90 121 157 190 227 271
#     4   9  18  30  44  66  96 127 156 188 227 270
#     4   9  18  31  47  67  92 124 159 194 228 262
#     4  10  19  29  43  67  98 127 155 188 227 271
#     4  10  20  33  51  74  96 118 146 183 229 279
#     4   9  18  32  47  65  92 124 159 195 226 261
#     4  10  19  31  48  69  94 124 156 189 228 272
#
# _framework density 19.499631999999998
#
# number of rings (size 3 to 8) (size 9 to 14) (size 15 to 20)
#    0.000    2.500    0.000    2.250    0.000    4.500 
#    0.000    0.000    0.000    0.750    0.000    5.250 
#    0.000    0.000    0.000    0.000    0.000    0.000 
#
# Total GULP energy -178574.022912 kJ/mol
# GULP energy per Si atom -5580.438216 kJ/mol
# Density = 1.945525 g / cm^3
# Si number density = 19.499632 Si / 1000 Ang^3
#
#
#
# Elastic Constant Matrix: (Units=GPa)
#
#
# Indices 1 2 3 4 5 6 
#
# 1 108.3815 -1.0910 56.7058 0.0000 6.7571 0.0000
# 2 -1.0910 43.1997 -7.5829 0.0000 5.6069 0.0000
# 3 56.7058 -7.5829 45.5805 0.0000 3.9817 0.0000
# 4 0.0000 0.0000 0.0000 18.0633 0.0000 -1.0598
# 5 6.7571 5.6069 3.9817 0.0000 36.5649 0.0000
# 6 0.0000 0.0000 0.0000 -1.0598 0.0000 2.1793
#
#
#
# Elastic Compliance Matrix: (Units=1/GPa)
#
#
# Indices 1 2 3 4 5 6 
#
# 1 0.027650 -0.005435 -0.035265 0.000000 -0.000436 0.000000
# 2 -0.005435 0.025546 0.011374 0.000000 -0.004152 0.000000
# 3 -0.035265 0.011374 0.067933 0.000000 -0.002625 0.000000
# 4 0.000000 0.000000 0.000000 0.056987 0.000000 0.027712
# 5 -0.000436 -0.004152 -0.002625 0.000000 0.028352 0.000000
# 6 0.000000 0.000000 0.000000 0.027712 0.000000 0.472340
#
#
# Mechanical properties :
#
#
# Convention : Reuss Voigt Hill
#
# Bulk Modulus (GPa) = 16.00560 32.58059 24.29310
# Shear Modulus (GPa) = 6.59383 21.30347 13.94865
#
# Velocity S-wave (km/s) = 1.84089 3.30889 2.67747
# Velocity P-wave (km/s) = 3.56994 5.59848 4.69507
#
# Compressibility (1/GPa) = 0.06247812
#
# Stress axis : x y z
#
# Youngs Moduli (GPa) = 36.16667 39.14441 14.72045
#
# Poissons Ratio (x) = 0.21275 0.51911
# Poissons Ratio (y) = 0.19657 -0.16744
# Poissons Ratio (z) = 1.27540 -0.44524
#
# Static dielectric constant tensor:
#      x y z
#    x 1.728050 0.000000 0.026970 
#    y 0.000000 1.734440 0.000000 
#    z 0.026970 0.000000 1.641860 
# 
# From -- ./inp_files/248966.got.cif
#   From: 2010.05.17/outbox.cif.g08.bks.cpg/sg12_125_cif.got.tgz:248966.got - 2010.06.03 13:09:07.
