data_PCOD9177249
_publ_section_title
;
Structure prediction by ZEFSAII (Michael W. Deem and Ramdas Pophale) SiO2 
 PCOD9177249
Probable space group: C 2/M
;
_chemical_formula_sum "Si O2"
_cell_formula_units_Z 44
_cell_length_a 17.322127
_cell_length_b 28.303919
_cell_length_c 8.216187
_cell_angle_alpha 90.000000
_cell_angle_beta 145.157429
_cell_angle_gamma 90.000000
_cell_volume 2301.442958
_symmetry_space_group_name_H-M "C 2/M"
_symmetry_group_IT_number 12
_symmetry_cell_setting 'monoclinic'
loop_
_space_group_symop_operation_xyz
x,y,z
-x,y,-z
-x,-y,-z
x,-y,z
1/2+x,1/2+y,z
1/2-x,1/2+y,-z
1/2-x,1/2-y,-z
1/2+x,1/2-y,z
loop_
_atom_site_type_symbol
_atom_site_label
_atom_site_fract_x
_atom_site_fract_y
_atom_site_fract_z
Si Si1 0.758466 0.147145 0.373564
Si Si2 0.500000 0.380545 0.000000
Si Si3 0.879497 0.719500 0.675111
Si Si4 0.294689 0.554046 0.256836
Si Si5 0.894098 0.053507 0.078314
Si Si6 0.645958 0.728562 0.689971
O O1 0.905901 0.147352 0.713834
O O2 0.655371 0.166402 0.330257
O O3 0.728544 0.096004 0.245681
O O4 0.773889 0.185847 0.258317
O O5 0.398350 0.412424 0.931733
O O6 0.750000 0.750000 0.500000
O O7 0.895737 0.731373 0.514779
O O8 0.000000 0.735631 0.000000
O O9 0.243764 0.500000 0.186773
O O10 0.305058 0.565979 0.082284
O O11 0.450385 0.553289 0.589331
O O12 0.860317 0.000000 0.970563
O O13 0.500000 0.710594 0.500000
O O14 0.750000 0.750000 0.000000
#
# Coordination Sequence:
#
# PCOD9177249 Si02
#       6
#     8   4   8   8   8   8
#     4  10  22  32  56  79 115 149 189 232 287 339
#     4  10  19  26  46  80 110 146 188 228 279 336
#     4  10  22  41  60  81 112 145 188 238 294 340
#     4   8  15  29  47  75 110 149 186 228 275 333
#     4   8  14  25  42  68 112 150 184 226 275 322
#     4  11  24  37  58  81 111 145 192 238 289 346
#
# _framework density 19.11844
#
# number of rings (size 3 to 8) (size 9 to 14) (size 15 to 20)
#    0.000    2.545    0.000    3.545   12.727    0.727 
#    0.000    0.000    0.000    0.545    0.000    0.000 
#    0.000    5.818    0.000    0.000    0.000    0.000 
#
# Total GULP energy -122526.281906 kJ/mol
# GULP energy per Si atom -5569.376450 kJ/mol
# Density = 1.907493 g / cm^3
# Si number density = 19.118440 Si / 1000 Ang^3
#
#
#
# Elastic Constant Matrix: (Units=GPa)
#
#
# Indices 1 2 3 4 5 6 
#
# 1 45.3706 34.6518 7.9586 0.0000 -20.0638 0.0000
# 2 34.6518 93.5254 13.9933 0.0000 -19.3186 0.0000
# 3 7.9586 13.9933 83.7330 0.0000 -20.2788 0.0000
# 4 0.0000 0.0000 0.0000 14.0502 0.0000 -4.2521
# 5 -20.0638 -19.3186 -20.2788 0.0000 27.1317 0.0000
# 6 0.0000 0.0000 0.0000 -4.2521 0.0000 43.6895
#
#
#
# Elastic Compliance Matrix: (Units=1/GPa)
#
#
# Indices 1 2 3 4 5 6 
#
# 1 0.040593 -0.010341 0.004098 0.000000 0.025719 0.000000
# 2 -0.010341 0.015171 -0.000963 0.000000 0.002436 0.000000
# 3 0.004098 -0.000963 0.014997 0.000000 0.013554 0.000000
# 4 0.000000 0.000000 0.000000 0.073334 0.000000 0.007137
# 5 0.025719 0.002436 0.013554 0.000000 0.067741 0.000000
# 6 0.000000 0.000000 0.000000 0.007137 0.000000 0.023583
#
#
# Mechanical properties :
#
#
# Convention : Reuss Voigt Hill
#
# Bulk Modulus (GPa) = 17.74603 37.31515 27.53059
# Shear Modulus (GPa) = 18.61428 28.04263 23.32845
#
# Velocity S-wave (km/s) = 3.12369 3.83402 3.49694
# Velocity P-wave (km/s) = 4.72358 6.25778 5.54401
#
# Compressibility (1/GPa) = 0.05635062
#
# Stress axis : x y z
#
# Youngs Moduli (GPa) = 24.63495 65.91650 66.68161
#
# Poissons Ratio (x) = 0.68162 -0.27329
# Poissons Ratio (y) = 0.25474 0.06418
# Poissons Ratio (z) = -0.10097 0.06345
#
# Static dielectric constant tensor:
#      x y z
#    x 1.742890 0.000000 -0.017070 
#    y 0.000000 1.715560 0.000000 
#    z -0.017070 0.000000 1.639320 
# 
# From -- ./inp_files/80545.got.cif
#   From: 2010.05.17/outbox.cif.g08.bks.cpg/sg12_41_cif.got.tgz:80545.got - 2010.06.03 13:09:07.
