data_PCOD9177641
_publ_section_title
;
Structure prediction by ZEFSAII (Michael W. Deem and Ramdas Pophale) SiO2 
 PCOD9177641
Probable space group: C 2/M
;
_chemical_formula_sum "Si O2"
_cell_formula_units_Z 64
_cell_length_a 29.504633
_cell_length_b 8.393525
_cell_length_c 16.202715
_cell_angle_alpha 90.000000
_cell_angle_beta 88.722552
_cell_angle_gamma 90.000000
_cell_volume 4011.570658
_symmetry_space_group_name_H-M "C 2/M"
_symmetry_group_IT_number 12
_symmetry_cell_setting 'monoclinic'
loop_
_space_group_symop_operation_xyz
x,y,z
-x,y,-z
-x,-y,-z
x,-y,z
1/2+x,1/2+y,z
1/2-x,1/2+y,-z
1/2-x,1/2-y,-z
1/2+x,1/2-y,z
loop_
_atom_site_type_symbol
_atom_site_label
_atom_site_fract_x
_atom_site_fract_y
_atom_site_fract_z
Si Si1 0.703043 0.693038 0.686681
Si Si2 0.806755 0.190996 0.673417
Si Si3 0.141632 0.307294 0.169385
Si Si4 0.548900 0.806192 0.095860
Si Si5 0.801305 0.309434 0.992108
Si Si6 0.801829 0.192076 0.493415
Si Si7 0.353023 0.690321 0.152236
Si Si8 0.447505 0.807523 0.096666
O O1 0.703798 0.500000 0.688029
O O2 0.755164 0.749515 0.689716
O O3 0.682687 0.744569 0.598404
O O4 0.673858 0.748695 0.765775
O O5 0.838619 0.251043 0.744921
O O6 0.822126 0.244757 0.580532
O O7 0.805902 0.000000 0.674654
O O8 0.141677 0.500000 0.168916
O O9 0.090627 0.252445 0.150193
O O10 0.174045 0.253352 0.092720
O O11 0.497999 0.755686 0.121222
O O12 0.548702 0.000000 0.096771
O O13 0.557413 0.761314 0.999875
O O14 0.801073 0.500000 0.990059
O O15 0.829367 0.255829 0.070792
O O16 0.750000 0.250000 0.000000
O O17 0.750000 0.250000 0.500000
O O18 0.802940 0.000000 0.493244
O O19 0.349772 0.500000 0.150473
O O20 0.405466 0.739752 0.148395
O O21 0.445608 0.000000 0.099844
#
# Coordination Sequence:
#
# PCOD9177641 Si02
#       8
#     8   8   8   8   8   8   8   8
#     4   9  18  32  47  63  89 126 155 179 217 272
#     4  10  19  29  45  70  93 115 148 193 229 257
#     4  10  19  32  47  64  88 122 154 179 217 273
#     4   8  15  30  51  68  83 113 155 188 222 273
#     4  11  22  34  46  61  89 127 160 186 216 258
#     4   8  15  29  46  63  86 115 149 185 224 263
#     4  11  21  31  45  68  94 120 152 185 223 268
#     4   9  16  31  52  68  85 113 151 192 228 267
#
# _framework density 15.953849999999999
#
# number of rings (size 3 to 8) (size 9 to 14) (size 15 to 20)
#    0.000    2.500    1.250    2.625    0.000    5.500 
#    0.000    1.875    0.000    0.000    0.000    0.875 
#    0.000    7.000    0.000    0.000    0.000    0.000 
#
# Total GULP energy -178298.826787 kJ/mol
# GULP energy per Si atom -5571.838337 kJ/mol
# Density = 1.591754 g / cm^3
# Si number density = 15.953850 Si / 1000 Ang^3
#
#
#
# Elastic Constant Matrix: (Units=GPa)
#
#
# Indices 1 2 3 4 5 6 
#
# 1 104.9161 11.6540 58.2736 0.0000 18.7511 0.0000
# 2 11.6540 11.9470 13.8551 0.0000 2.6750 0.0000
# 3 58.2736 13.8551 126.6970 0.0000 25.1938 0.0000
# 4 0.0000 0.0000 0.0000 12.9098 0.0000 3.2326
# 5 18.7511 2.6750 25.1938 0.0000 12.7655 0.0000
# 6 0.0000 0.0000 0.0000 3.2326 0.0000 20.5588
#
#
#
# Elastic Compliance Matrix: (Units=1/GPa)
#
#
# Indices 1 2 3 4 5 6 
#
# 1 0.014546 -0.007468 -0.003187 0.000000 -0.013512 0.000000
# 2 -0.007468 0.099702 -0.009045 0.000000 0.007928 0.000000
# 3 -0.003187 -0.009045 0.014879 0.000000 -0.022789 0.000000
# 4 0.000000 0.000000 0.000000 0.080636 0.000000 -0.012679
# 5 -0.013512 0.007928 -0.022789 0.000000 0.141499 0.000000
# 6 0.000000 0.000000 0.000000 -0.012679 0.000000 0.050635
#
#
# Mechanical properties :
#
#
# Convention : Reuss Voigt Hill
#
# Bulk Modulus (GPa) = 11.14472 45.68059 28.41265
# Shear Modulus (GPa) = 10.61110 19.89865 15.25487
#
# Velocity S-wave (km/s) = 2.58177 3.53549 3.09558
# Velocity P-wave (km/s) = 3.98600 6.73509 5.53397
#
# Compressibility (1/GPa) = 0.08972858
#
# Stress axis : x y z
#
# Youngs Moduli (GPa) = 68.74770 10.02989 67.20734
#
# Poissons Ratio (x) = 0.07490 0.21417
# Poissons Ratio (y) = 0.51341 0.60786
# Poissons Ratio (z) = 0.21908 0.09072
#
# Static dielectric constant tensor:
#      x y z
#    x 1.517180 0.000000 -0.000590 
#    y 0.000000 1.552720 0.000000 
#    z -0.000590 0.000000 1.556150 
# 
# From -- ./inp_files/248353.got.cif
#   From: 2010.05.17/outbox.cif.g08.bks.cpg/sg12_125_cif.got.tgz:248353.got - 2010.06.03 13:09:07.
