data_PCOD9177375
_publ_section_title
;
Structure prediction by ZEFSAII (Michael W. Deem and Ramdas Pophale) SiO2 
 PCOD9177375
Probable space group: C 2/M
;
_chemical_formula_sum "Si O2"
_cell_formula_units_Z 44
_cell_length_a 8.737994
_cell_length_b 27.880534
_cell_length_c 9.795523
_cell_angle_alpha 90.000000
_cell_angle_beta 57.027167
_cell_angle_gamma 90.000000
_cell_volume 2002.006664
_symmetry_space_group_name_H-M "C 2/M"
_symmetry_group_IT_number 12
_symmetry_cell_setting 'monoclinic'
loop_
_space_group_symop_operation_xyz
x,y,z
-x,y,-z
-x,-y,-z
x,-y,z
1/2+x,1/2+y,z
1/2-x,1/2+y,-z
1/2-x,1/2-y,-z
1/2+x,1/2-y,z
loop_
_atom_site_type_symbol
_atom_site_label
_atom_site_fract_x
_atom_site_fract_y
_atom_site_fract_z
Si Si1 0.033925 0.145405 0.784908
Si Si2 0.713579 0.206657 0.914269
Si Si3 0.301147 0.229990 0.622839
Si Si4 0.253779 0.055469 0.743405
Si Si5 0.500000 0.387513 0.500000
Si Si6 0.850198 0.554601 0.372382
O O1 0.165280 0.190437 0.749968
O O2 0.102530 0.096729 0.820407
O O3 0.047489 0.139763 0.614552
O O4 0.828091 0.161541 0.911700
O O5 0.796143 0.225982 0.731186
O O6 0.500000 0.197628 0.000000
O O7 0.750000 0.250000 0.000000
O O8 0.500000 0.208073 0.500000
O O9 0.250000 0.250000 0.500000
O O10 0.302790 0.054027 0.557432
O O11 0.438678 0.070706 0.733378
O O12 0.207112 0.000000 0.803259
O O13 0.314622 0.417467 0.618820
O O14 0.846698 0.500000 0.324783
#
# Coordination Sequence:
#
# PCOD9177375 Si02
#       6
#     8   8   8   8   4   8
#     4  11  22  35  57  86 120 162 203 250 311 358
#     4  12  24  45  63  87 124 168 209 251 309 379
#     4  12  23  40  63  93 126 159 203 261 308 359
#     4   8  16  31  50  78 115 158 202 245 297 367
#     4  10  19  28  48  88 120 152 200 250 301 358
#     4   8  14  27  46  74 119 160 191 239 304 360
#
# _framework density 21.977951000000001
#
# number of rings (size 3 to 8) (size 9 to 14) (size 15 to 20)
#    0.000    1.818    3.636    2.455    5.091    0.727 
#    0.000    0.000    0.000    0.545    0.000    2.545 
#    0.000    0.364    0.000    0.000    0.000    0.000 
#
# Total GULP energy -122811.393107 kJ/mol
# GULP energy per Si atom -5582.336050 kJ/mol
# Density = 2.192793 g / cm^3
# Si number density = 21.977951 Si / 1000 Ang^3
#
#
#
# Elastic Constant Matrix: (Units=GPa)
#
#
# Indices 1 2 3 4 5 6 
#
# 1 129.0258 72.8216 24.5452 0.0000 -40.7834 0.0000
# 2 72.8216 116.0156 18.1590 0.0000 -28.5906 0.0000
# 3 24.5452 18.1590 59.7699 0.0000 -4.5289 0.0000
# 4 0.0000 0.0000 0.0000 11.8805 0.0000 -19.4143
# 5 -40.7834 -28.5906 -4.5289 0.0000 47.3587 0.0000
# 6 0.0000 0.0000 0.0000 -19.4143 0.0000 45.0814
#
#
#
# Elastic Compliance Matrix: (Units=1/GPa)
#
#
# Indices 1 2 3 4 5 6 
#
# 1 0.014846 -0.006712 -0.003421 0.000000 0.008406 0.000000
# 2 -0.006712 0.013589 -0.001197 0.000000 0.002309 0.000000
# 3 -0.003421 -0.001197 0.018354 0.000000 -0.001913 0.000000
# 4 0.000000 0.000000 0.000000 0.284112 0.000000 0.122353
# 5 0.008406 0.002309 -0.001913 0.000000 0.029565 0.000000
# 6 0.000000 0.000000 0.000000 0.122353 0.000000 0.074873
#
#
# Mechanical properties :
#
#
# Convention : Reuss Voigt Hill
#
# Bulk Modulus (GPa) = 41.44227 59.54031 50.49129
# Shear Modulus (GPa) = 10.72863 33.48316 22.10589
#
# Velocity S-wave (km/s) = 2.21182 3.90742 3.17491
# Velocity P-wave (km/s) = 5.04183 6.89253 6.03851
#
# Compressibility (1/GPa) = 0.02412995
#
# Stress axis : x y z
#
# Youngs Moduli (GPa) = 67.35693 73.58914 54.48302
#
# Poissons Ratio (x) = 0.49392 0.18637
# Poissons Ratio (y) = 0.45209 0.06523
# Poissons Ratio (z) = 0.23041 0.08810
#
# Static dielectric constant tensor:
#      x y z
#    x 1.909880 0.000000 -0.074260 
#    y 0.000000 1.791180 0.000000 
#    z -0.074260 0.000000 1.870000 
# 
# From -- ./inp_files/124741.got.cif
#   From: 2010.05.17/outbox.cif.g08.bks.cpg/sg12_63_cif.got.tgz:124741.got - 2010.06.03 13:09:07.
