data_PCOD9177150
_publ_section_title
;
Structure prediction by ZEFSAII (Michael W. Deem and Ramdas Pophale) SiO2 
 PCOD9177150
Probable space group: C 2/M
;
_chemical_formula_sum "Si O2"
_cell_formula_units_Z 40
_cell_length_a 13.439559
_cell_length_b 12.830735
_cell_length_c 15.923892
_cell_angle_alpha 90.000000
_cell_angle_beta 39.672244
_cell_angle_gamma 90.000000
_cell_volume 1752.973162
_symmetry_space_group_name_H-M "C 2/M"
_symmetry_group_IT_number 12
_symmetry_cell_setting 'monoclinic'
loop_
_space_group_symop_operation_xyz
x,y,z
-x,y,-z
-x,-y,-z
x,-y,z
1/2+x,1/2+y,z
1/2-x,1/2+y,-z
1/2-x,1/2-y,-z
1/2+x,1/2-y,z
loop_
_atom_site_type_symbol
_atom_site_label
_atom_site_fract_x
_atom_site_fract_y
_atom_site_fract_z
Si Si1 0.813583 0.000000 0.604677
Si Si2 0.316541 0.620739 0.111462
Si Si3 0.814907 0.500000 0.123146
Si Si4 0.325749 0.621571 0.298153
Si Si5 0.121302 0.194055 0.184210
Si Si6 0.111873 0.789391 0.507570
O O1 0.734588 0.000000 0.746696
O O2 0.784594 0.106357 0.573259
O O3 0.000000 0.000000 0.500000
O O4 0.301889 0.500000 0.094746
O O5 0.262287 0.630424 0.244320
O O6 0.216781 0.698943 0.119960
O O7 0.500000 0.645443 0.000000
O O8 0.740013 0.600991 0.127722
O O9 0.000000 0.500000 0.000000
O O10 0.331392 0.500000 0.317346
O O11 0.502138 0.665505 0.187638
O O12 0.219578 0.688417 0.429682
O O13 0.002374 0.200791 0.340157
O O14 0.000000 0.783517 0.500000
#
# Coordination Sequence:
#
# PCOD9177150 Si02
#       6
#     4   8   4   8   8   8
#     4  10  18  38  64  82 133 169 206 264 329 375
#     4  10  23  44  65  86 127 175 212 261 326 390
#     4  12  22  36  64 100 123 170 220 266 321 384
#     4  11  24  40  65  96 128 166 218 269 324 380
#     4  12  22  41  64  94 130 167 213 273 317 389
#     4  11  20  38  65  91 127 172 211 258 336 383
#
# _framework density 22.818375
#
# number of rings (size 3 to 8) (size 9 to 14) (size 15 to 20)
#    0.000    1.000    7.000    1.200    0.000    2.000 
#    1.800    0.000    0.000    0.000    0.000    0.000 
#    0.000    0.000    0.000    0.000    0.000    0.000 
#
# Total GULP energy -111909.850523 kJ/mol
# GULP energy per Si atom -5595.492526 kJ/mol
# Density = 2.276644 g / cm^3
# Si number density = 22.818375 Si / 1000 Ang^3
#
#
#
# Elastic Constant Matrix: (Units=GPa)
#
#
# Indices 1 2 3 4 5 6 
#
# 1 74.2030 48.5274 8.0145 0.0000 -18.2078 0.0000
# 2 48.5274 158.5216 28.4889 0.0000 -30.0797 0.0000
# 3 8.0145 28.4889 85.0088 -0.0001 -10.7201 0.0001
# 4 0.0000 0.0000 -0.0001 37.0807 0.0001 -18.6869
# 5 -18.2078 -30.0797 -10.7201 0.0001 33.1265 0.0000
# 6 0.0000 0.0000 0.0001 -18.6869 0.0000 27.9939
#
#
#
# Elastic Compliance Matrix: (Units=1/GPa)
#
#
# Indices 1 2 3 4 5 6 
#
# 1 0.017756 -0.004409 0.000552 0.000000 0.005935 0.000000
# 2 -0.004409 0.008975 -0.001950 0.000000 0.005096 0.000000
# 3 0.000552 -0.001950 0.012698 0.000000 0.002642 0.000000
# 4 0.000000 0.000000 0.000000 0.040640 0.000000 0.027128
# 5 0.005935 0.005096 0.002642 0.000000 0.038931 0.000000
# 6 0.000000 0.000000 0.000000 0.027128 0.000000 0.053831
#
#
# Mechanical properties :
#
#
# Convention : Reuss Voigt Hill
#
# Bulk Modulus (GPa) = 35.94942 54.19943 45.07443
# Shear Modulus (GPa) = 25.81084 35.15373 30.48228
#
# Velocity S-wave (km/s) = 3.36690 3.92929 3.65891
# Velocity P-wave (km/s) = 5.55909 6.66257 6.13569
#
# Compressibility (1/GPa) = 0.02781686
#
# Stress axis : x y z
#
# Youngs Moduli (GPa) = 56.31742 111.41860 78.75240
#
# Poissons Ratio (x) = 0.49121 -0.04346
# Poissons Ratio (y) = 0.24829 0.15354
# Poissons Ratio (z) = -0.03108 0.21722
#
# Static dielectric constant tensor:
#      x y z
#    x 1.884950 0.000000 0.036230 
#    y 0.000000 1.867800 0.000000 
#    z 0.036230 0.000000 1.832910 
# 
# From -- ./inp_files/270523.got.cif
#   From: 2010.05.17/outbox.cif.g08.bks.cpg/sg12_136_cif.got.tgz:270523.got - 2010.06.03 13:09:07.
