data_PCOD9177696
_publ_section_title
;
Structure prediction by ZEFSAII (Michael W. Deem and Ramdas Pophale) SiO2 
 PCOD9177696
Probable space group: C 2/M
;
_chemical_formula_sum "Si O2"
_cell_formula_units_Z 56
_cell_length_a 27.820176
_cell_length_b 7.312221
_cell_length_c 16.867985
_cell_angle_alpha 90.000000
_cell_angle_beta 135.892463
_cell_angle_gamma 90.000000
_cell_volume 2388.285027
_symmetry_space_group_name_H-M "C 2/M"
_symmetry_group_IT_number 12
_symmetry_cell_setting 'monoclinic'
loop_
_space_group_symop_operation_xyz
x,y,z
-x,y,-z
-x,-y,-z
x,-y,z
1/2+x,1/2+y,z
1/2-x,1/2+y,-z
1/2-x,1/2-y,-z
1/2+x,1/2-y,z
loop_
_atom_site_type_symbol
_atom_site_label
_atom_site_fract_x
_atom_site_fract_y
_atom_site_fract_z
Si Si1 0.024538 0.223078 0.941555
Si Si2 0.791174 0.281558 0.131992
Si Si3 0.177430 0.778323 0.122673
Si Si4 0.921296 0.723246 0.381987
Si Si5 0.092641 0.220582 0.316777
Si Si6 0.210401 0.221851 0.341428
Si Si7 0.355262 0.210290 0.464350
O O1 0.969820 0.280786 0.811877
O O2 0.024727 0.000000 0.944193
O O3 0.101098 0.280931 0.008224
O O4 0.000000 0.281180 0.000000
O O5 0.795000 0.500000 0.143097
O O6 0.739236 0.214044 0.139886
O O7 0.870676 0.220419 0.247808
O O8 0.750000 0.250000 0.000000
O O9 0.182677 0.730996 0.221464
O O10 0.179952 0.000000 0.122587
O O11 0.925135 0.500000 0.383106
O O12 0.877896 0.785052 0.407708
O O13 0.000000 0.780153 0.500000
O O14 0.161711 0.288706 0.353781
O O15 0.086877 0.282881 0.400143
O O16 0.093212 0.000000 0.318197
O O17 0.288495 0.290534 0.428672
O O18 0.209490 0.000000 0.347372
O O19 0.337339 0.000000 0.425683
#
# Coordination Sequence:
#
# PCOD9177696 Si02
#       7
#     8   8   8   8   8   8   8
#     4   9  15  25  44  71  98 124 159 200 237 280
#     4  10  20  35  56  79 102 129 168 216 261 305
#     4   9  15  27  49  73  94 123 163 201 235 282
#     4   9  18  34  56  77  97 132 180 218 247 295
#     4  10  19  29  46  75 104 127 157 200 244 287
#     4   9  15  27  48  71  94 124 164 198 228 277
#     4  10  19  32  50  71  96 129 167 202 239 288
#
# _framework density 23.447787999999999
#
# number of rings (size 3 to 8) (size 9 to 14) (size 15 to 20)
#    0.000    2.571    2.857    0.429    0.000    1.143 
#    0.000    0.714    0.000    2.143    0.000    0.000 
#    0.000    0.000    0.000    0.000    0.000    0.000 
#
# Total GULP energy -156126.570916 kJ/mol
# GULP energy per Si atom -5575.948961 kJ/mol
# Density = 2.339442 g / cm^3
# Si number density = 23.447788 Si / 1000 Ang^3
#
#
#
# Elastic Constant Matrix: (Units=GPa)
#
#
# Indices 1 2 3 4 5 6 
#
# 1 67.3986 1.3273 60.4223 0.0000 13.9713 0.0000
# 2 1.3273 95.3464 -4.1681 0.0000 4.7469 0.0000
# 3 60.4223 -4.1681 174.3327 0.0000 14.6976 0.0000
# 4 0.0000 0.0000 0.0000 4.0679 0.0000 -15.3032
# 5 13.9713 4.7469 14.6976 0.0000 40.5873 0.0000
# 6 0.0000 0.0000 0.0000 -15.3032 0.0000 -27.1399
#
#
#
# Elastic Compliance Matrix: (Units=1/GPa)
#
#
# Indices 1 2 3 4 5 6 
#
# 1 0.022509 -0.000386 -0.007387 0.000000 -0.005028 0.000000
# 2 -0.000386 0.010579 0.000495 0.000000 -0.001284 0.000000
# 3 -0.007387 0.000495 0.008354 0.000000 -0.000540 0.000000
# 4 0.000000 0.000000 0.000000 0.078760 0.000000 -0.044410
# 5 -0.005028 -0.001284 -0.000540 0.000000 0.026715 0.000000
# 6 0.000000 0.000000 0.000000 -0.044410 0.000000 -0.011805
#
#
# Mechanical properties :
#
#
# Convention : Reuss Voigt Hill
#
# Bulk Modulus (GPa) = 37.19365 50.24895 43.72130
# Shear Modulus (GPa) = 31.52003 22.13615 26.82809
#
# Velocity S-wave (km/s) = 3.67040 3.07589 3.38622
# Velocity P-wave (km/s) = 5.81887 5.83879 5.82884
#
# Compressibility (1/GPa) = 0.02688631
#
# Stress axis : x y z
#
# Youngs Moduli (GPa) = 44.42618 94.52699 119.70674
#
# Poissons Ratio (x) = 0.03648 0.88425
# Poissons Ratio (y) = 0.01715 -0.05924
# Poissons Ratio (z) = 0.32817 -0.04678
#
# Static dielectric constant tensor:
#      x y z
#    x 1.846660 0.000000 0.053800 
#    y 0.000000 1.905680 0.000000 
#    z 0.053800 0.000000 1.957500 
# 
# From -- ./inp_files/250544.got.cif
#   From: 2010.05.17/outbox.cif.g08.bks.cpg/sg12_126_cif.got.tgz:250544.got - 2010.06.03 13:09:07.
