data_PCOD9177574
_publ_section_title
;
Structure prediction by ZEFSAII (Michael W. Deem and Ramdas Pophale) SiO2 
 PCOD9177574
Probable space group: C 2/M
;
_chemical_formula_sum "Si O2"
_cell_formula_units_Z 48
_cell_length_a 31.725479
_cell_length_b 8.985815
_cell_length_c 10.512284
_cell_angle_alpha 90.000000
_cell_angle_beta 101.551304
_cell_angle_gamma 90.000000
_cell_volume 2936.135903
_symmetry_space_group_name_H-M "C 2/M"
_symmetry_group_IT_number 12
_symmetry_cell_setting 'monoclinic'
loop_
_space_group_symop_operation_xyz
x,y,z
-x,y,-z
-x,-y,-z
x,-y,z
1/2+x,1/2+y,z
1/2-x,1/2+y,-z
1/2-x,1/2-y,-z
1/2+x,1/2-y,z
loop_
_atom_site_type_symbol
_atom_site_label
_atom_site_fract_x
_atom_site_fract_y
_atom_site_fract_z
Si Si1 0.608313 0.822978 0.284804
Si Si2 0.296874 0.178417 0.652784
Si Si3 0.030882 0.820778 0.636907
Si Si4 0.478279 0.320635 0.855562
Si Si5 0.883696 0.677454 0.409132
Si Si6 0.296238 0.676283 0.374384
O O1 0.656262 0.790181 0.260933
O O2 0.569515 0.740510 0.193615
O O3 0.609205 0.783988 0.436386
O O4 0.601414 0.000000 0.272234
O O5 0.295552 0.270859 0.521221
O O6 0.252614 0.209423 0.700761
O O7 0.296460 0.000000 0.621491
O O8 0.077051 0.747248 0.644220
O O9 0.000000 0.780086 0.500000
O O10 0.007353 0.775340 0.752533
O O11 0.035599 0.000000 0.639110
O O12 0.476400 0.500000 0.854451
O O13 0.500000 0.271283 0.000000
O O14 0.883702 0.500000 0.399694
O O15 0.837105 0.740169 0.341069
O O16 0.303232 0.500000 0.370868
#
# Coordination Sequence:
#
# PCOD9177574 Si02
#       6
#     8   8   8   8   8   8
#     4   9  17  29  45  66  93 124 157 191 229 276
#     4   8  15  26  39  61  92 124 155 190 232 277
#     4  10  19  32  50  70  91 121 161 194 229 283
#     4  10  21  35  49  68  95 123 155 197 237 274
#     4  10  19  29  44  68  97 124 155 194 236 276
#     4   9  15  24  40  62  92 125 155 188 231 279
#
# _framework density 16.348016999999999
#
# number of rings (size 3 to 8) (size 9 to 14) (size 15 to 20)
#    0.000    2.667    1.667    2.000    0.000    4.667 
#    0.000    0.000    0.000    0.000    0.000    1.167 
#    0.000    0.000    0.000    0.000    0.000    0.000 
#
# Total GULP energy -133630.575212 kJ/mol
# GULP energy per Si atom -5567.940634 kJ/mol
# Density = 1.631081 g / cm^3
# Si number density = 16.348017 Si / 1000 Ang^3
#
#
#
# Elastic Constant Matrix: (Units=GPa)
#
#
# Indices 1 2 3 4 5 6 
#
# 1 176.1600 44.3669 58.1637 0.0000 25.6000 0.0000
# 2 44.3669 21.1365 22.2804 0.0000 7.0080 0.0000
# 3 58.1637 22.2804 68.7953 0.0000 6.8525 0.0000
# 4 0.0000 0.0000 0.0000 10.5412 0.0000 6.8809
# 5 25.6000 7.0080 6.8525 0.0000 16.2052 0.0000
# 6 0.0000 0.0000 0.0000 6.8809 0.0000 30.0991
#
#
#
# Elastic Compliance Matrix: (Units=1/GPa)
#
#
# Indices 1 2 3 4 5 6 
#
# 1 0.014004 -0.021856 -0.003654 0.000000 -0.011127 0.000000
# 2 -0.021856 0.114473 -0.017856 0.000000 -0.007428 0.000000
# 3 -0.003654 -0.017856 0.023034 0.000000 0.003754 0.000000
# 4 0.000000 0.000000 0.000000 0.111506 0.000000 -0.025491
# 5 -0.011127 -0.007428 0.003754 0.000000 0.080911 0.000000
# 6 0.000000 0.000000 0.000000 -0.025491 0.000000 0.039051
#
#
# Mechanical properties :
#
#
# Convention : Reuss Voigt Hill
#
# Bulk Modulus (GPa) = 15.43666 57.30153 36.36910
# Shear Modulus (GPa) = 10.17703 20.78781 15.48242
#
# Velocity S-wave (km/s) = 2.49775 3.56979 3.08076
# Velocity P-wave (km/s) = 4.21680 7.21930 5.91184
#
# Compressibility (1/GPa) = 0.06478084
#
# Stress axis : x y z
#
# Youngs Moduli (GPa) = 71.40603 8.73571 43.41443
#
# Poissons Ratio (x) = 0.19092 0.15862
# Poissons Ratio (y) = 1.56062 0.77520
# Poissons Ratio (z) = 0.26089 0.15598
#
# Static dielectric constant tensor:
#      x y z
#    x 1.586460 0.000000 0.015090 
#    y 0.000000 1.542630 0.000000 
#    z 0.015090 0.000000 1.523620 
# 
# From -- ./inp_files/185501.got.cif
#   From: 2010.05.17/outbox.cif.g08.bks.cpg/sg12_93_cif.got.tgz:185501.got - 2010.06.03 13:09:07.
