data_PCOD9177479
_publ_section_title
;
Structure prediction by ZEFSAII (Michael W. Deem and Ramdas Pophale) SiO2 
 PCOD9177479
Probable space group: C 2/M
;
_chemical_formula_sum "Si O2"
_cell_formula_units_Z 64
_cell_length_a 32.633956
_cell_length_b 8.909414
_cell_length_c 16.461237
_cell_angle_alpha 90.000000
_cell_angle_beta 69.995135
_cell_angle_gamma 90.000000
_cell_volume 4497.319317
_symmetry_space_group_name_H-M "C 2/M"
_symmetry_group_IT_number 12
_symmetry_cell_setting 'monoclinic'
loop_
_space_group_symop_operation_xyz
x,y,z
-x,y,-z
-x,-y,-z
x,-y,z
1/2+x,1/2+y,z
1/2-x,1/2+y,-z
1/2-x,1/2-y,-z
1/2+x,1/2-y,z
loop_
_atom_site_type_symbol
_atom_site_label
_atom_site_fract_x
_atom_site_fract_y
_atom_site_fract_z
Si Si1 0.992684 0.827702 0.407279
Si Si2 0.596229 0.178360 0.510768
Si Si3 0.264446 0.179147 0.363096
Si Si4 0.207012 0.679798 0.988019
Si Si5 0.180933 0.179125 0.531284
Si Si6 0.259696 0.320486 0.189254
Si Si7 0.336071 0.820897 0.820481
Si Si8 0.589109 0.319954 0.336682
O O1 0.950562 0.727100 0.420984
O O2 0.000000 0.827988 0.500000
O O3 0.039861 0.778827 0.342327
O O4 0.983715 0.000000 0.389178
O O5 0.635711 0.249126 0.534375
O O6 0.597959 0.244520 0.418047
O O7 0.600011 0.000000 0.505025
O O8 0.217555 0.209289 0.437264
O O9 0.300099 0.249423 0.399379
O O10 0.265870 0.252187 0.273758
O O11 0.269897 0.000000 0.354408
O O12 0.211439 0.500000 0.980042
O O13 0.206877 0.750449 0.898887
O O14 0.250000 0.750000 0.000000
O O15 0.169616 0.712759 0.079696
O O16 0.176929 0.000000 0.542495
O O17 0.264008 0.500000 0.187230
O O18 0.210378 0.285830 0.191333
O O19 0.374517 0.732860 0.750797
O O20 0.342904 0.000000 0.807016
O O21 0.589797 0.500000 0.346900
#
# Coordination Sequence:
#
# PCOD9177479 Si02
#       8
#     8   8   8   8   8   8   8   8
#     4   8  16  30  43  58  82 110 141 175 210 250
#     4  11  20  29  44  63  84 112 145 178 212 252
#     4  10  20  32  46  64  85 111 144 180 215 250
#     4   9  17  29  43  60  83 111 142 177 214 251
#     4  10  20  33  47  62  84 113 143 178 216 251
#     4  10  19  30  44  62  85 115 147 177 212 253
#     4   9  18  29  42  62  87 113 143 178 212 250
#     4  10  19  29  43  62  85 114 145 176 211 253
#
# _framework density 14.230700000000001
#
# number of rings (size 3 to 8) (size 9 to 14) (size 15 to 20)
#    0.000    2.375    0.000    5.250    0.000    9.250 
#    0.000    0.000    0.000    0.000    0.000    0.000 
#    0.000    1.000    0.000   10.500    0.000    5.750 
#
# Total GULP energy -178374.366866 kJ/mol
# GULP energy per Si atom -5574.198965 kJ/mol
# Density = 1.419831 g / cm^3
# Si number density = 14.230700 Si / 1000 Ang^3
#
#
#
# Elastic Constant Matrix: (Units=GPa)
#
#
# Indices 1 2 3 4 5 6 
#
# 1 97.0183 54.9078 51.6247 0.0000 -5.1147 0.0000
# 2 54.9078 74.0301 54.2683 0.0000 -2.2195 0.0000
# 3 51.6247 54.2683 112.6827 0.0000 -0.2171 0.0000
# 4 0.0000 0.0000 0.0000 25.4424 0.0000 -0.3328
# 5 -5.1147 -2.2195 -0.2171 0.0000 19.1712 0.0000
# 6 0.0000 0.0000 0.0000 -0.3328 0.0000 22.0611
#
#
#
# Elastic Compliance Matrix: (Units=1/GPa)
#
#
# Indices 1 2 3 4 5 6 
#
# 1 0.018585 -0.011500 -0.002969 0.000000 0.003593 0.000000
# 2 -0.011500 0.028098 -0.008263 0.000000 0.000091 0.000000
# 3 -0.002969 -0.008263 0.014211 0.000000 -0.001588 0.000000
# 4 0.000000 0.000000 0.000000 0.039312 0.000000 0.000593
# 5 0.003593 0.000091 -0.001588 0.000000 0.053113 0.000000
# 6 0.000000 0.000000 0.000000 0.000593 0.000000 0.045338
#
#
# Mechanical properties :
#
#
# Convention : Reuss Voigt Hill
#
# Bulk Modulus (GPa) = 64.81201 67.25919 66.03560
# Shear Modulus (GPa) = 20.05897 21.53030 20.79463
#
# Velocity S-wave (km/s) = 3.75848 3.89388 3.82678
# Velocity P-wave (km/s) = 8.02979 8.22086 8.12588
#
# Compressibility (1/GPa) = 0.01542924
#
# Stress axis : x y z
#
# Youngs Moduli (GPa) = 53.80573 35.59007 70.36691
#
# Poissons Ratio (x) = 0.40930 0.20894
# Poissons Ratio (y) = 0.61878 0.58144
# Poissons Ratio (z) = 0.15976 0.29408
#
# Static dielectric constant tensor:
#      x y z
#    x 1.461770 0.000000 -0.013080 
#    y 0.000000 1.470510 0.000000 
#    z -0.013080 0.000000 1.475340 
# 
# From -- ./inp_files/243968.got.cif
#   From: 2010.05.17/outbox.cif.g08.bks.cpg/sg12_122_cif.got.tgz:243968.got - 2010.06.03 13:09:07.
