data_PCOD9177293
_publ_section_title
;
Structure prediction by ZEFSAII (Michael W. Deem and Ramdas Pophale) SiO2 
 PCOD9177293
Probable space group: C 2/M
;
_chemical_formula_sum "Si O2"
_cell_formula_units_Z 56
_cell_length_a 30.162387
_cell_length_b 7.558284
_cell_length_c 14.042865
_cell_angle_alpha 90.000000
_cell_angle_beta 78.714514
_cell_angle_gamma 90.000000
_cell_volume 3139.532510
_symmetry_space_group_name_H-M "C 2/M"
_symmetry_group_IT_number 12
_symmetry_cell_setting 'monoclinic'
loop_
_space_group_symop_operation_xyz
x,y,z
-x,y,-z
-x,-y,-z
x,-y,z
1/2+x,1/2+y,z
1/2-x,1/2+y,-z
1/2-x,1/2-y,-z
1/2+x,1/2-y,z
loop_
_atom_site_type_symbol
_atom_site_label
_atom_site_fract_x
_atom_site_fract_y
_atom_site_fract_z
Si Si1 0.197939 0.286700 0.916712
Si Si2 0.353244 0.216987 0.871996
Si Si3 0.859137 0.284231 0.246523
Si Si4 0.447147 0.215636 0.916002
Si Si5 0.223787 0.300283 0.605876
Si Si6 0.718164 0.203113 0.238310
Si Si7 0.548060 0.784152 0.864594
O O1 0.202592 0.500000 0.917149
O O2 0.163295 0.243172 0.846229
O O3 0.245707 0.210431 0.863450
O O4 0.176946 0.227422 0.024723
O O5 0.404395 0.273757 0.871942
O O6 0.328208 0.275681 0.786331
O O7 0.352658 0.000000 0.871009
O O8 0.860178 0.500000 0.251439
O O9 0.823357 0.213133 0.339318
O O10 0.910937 0.223920 0.219576
O O11 0.497064 0.272755 0.862331
O O12 0.446590 0.000000 0.915579
O O13 0.442360 0.266574 0.029296
O O14 0.210606 0.500000 0.594055
O O15 0.250000 0.250000 0.500000
O O16 0.257589 0.291389 0.682090
O O17 0.711285 0.000000 0.269484
O O18 0.547966 0.000000 0.863679
#
# Coordination Sequence:
#
# PCOD9177293 Si02
#       7
#     8   8   8   8   8   8   8
#     4   9  15  25  39  56  84 119 150 176 203 238
#     4   9  15  23  35  55  86 121 148 173 206 241
#     4   8  13  22  38  59  83 110 136 167 210 250
#     4   8  12  17  30  53  84 118 146 170 197 237
#     4  10  20  34  50  65  83 105 133 175 220 261
#     4  10  19  28  40  60  86 114 144 174 207 251
#     4   8  11  17  31  54  83 114 144 169 199 244
#
# _framework density 17.837049
#
# number of rings (size 3 to 8) (size 9 to 14) (size 15 to 20)
#    0.000    3.143    1.429    3.000    0.000    0.000 
#    0.000    0.714    0.000    0.000    0.000    1.000 
#    0.000   29.714    0.000    0.000    0.000    0.000 
#
# Total GULP energy -155924.782740 kJ/mol
# GULP energy per Si atom -5568.742241 kJ/mol
# Density = 1.779645 g / cm^3
# Si number density = 17.837049 Si / 1000 Ang^3
#
#
#
# Elastic Constant Matrix: (Units=GPa)
#
#
# Indices 1 2 3 4 5 6 
#
# 1 150.0367 -5.5036 58.7310 0.0000 -16.9877 0.0000
# 2 -5.5036 33.0311 0.7308 0.0000 -4.8661 0.0000
# 3 58.7310 0.7308 79.6376 0.0000 -25.7875 0.0000
# 4 0.0000 0.0000 0.0000 8.7300 0.0000 -1.5948
# 5 -16.9877 -4.8661 -25.7875 0.0000 17.4632 0.0000
# 6 0.0000 0.0000 0.0000 -1.5948 0.0000 6.9947
#
#
#
# Elastic Compliance Matrix: (Units=1/GPa)
#
#
# Indices 1 2 3 4 5 6 
#
# 1 0.009483 0.001549 -0.007437 0.000000 -0.001325 0.000000
# 2 0.001549 0.032856 0.003849 0.000000 0.016346 0.000000
# 3 -0.007437 0.003849 0.030682 0.000000 0.039145 0.000000
# 4 0.000000 0.000000 0.000000 0.119526 0.000000 0.027252
# 5 -0.001325 0.016346 0.039145 0.000000 0.118333 0.000000
# 6 0.000000 0.000000 0.000000 0.027252 0.000000 0.149179
#
#
# Mechanical properties :
#
#
# Convention : Reuss Voigt Hill
#
# Bulk Modulus (GPa) = 14.50484 41.18022 27.84253
# Shear Modulus (GPa) = 10.26450 20.55406 15.40928
#
# Velocity S-wave (km/s) = 2.40148 3.39827 2.94239
# Velocity P-wave (km/s) = 3.97982 6.20763 5.21410
#
# Compressibility (1/GPa) = 0.06894252
#
# Stress axis : x y z
#
# Youngs Moduli (GPa) = 105.45292 30.43630 32.59281
#
# Poissons Ratio (x) = -0.04716 0.24239
# Poissons Ratio (y) = -0.16338 -0.12544
# Poissons Ratio (z) = 0.78424 -0.11714
#
# Static dielectric constant tensor:
#      x y z
#    x 1.664290 0.000000 -0.031530 
#    y 0.000000 1.632510 0.000000 
#    z -0.031530 0.000000 1.599410 
# 
# From -- ./inp_files/247794.got.cif
#   From: 2010.05.17/outbox.cif.g08.bks.cpg/sg12_124_cif.got.tgz:247794.got - 2010.06.03 13:09:07.
