data_PCOD9177818
_publ_section_title
;
Structure prediction by ZEFSAII (Michael W. Deem and Ramdas Pophale) SiO2 
 PCOD9177818
Probable space group: C 2/M
;
_chemical_formula_sum "Si O2"
_cell_formula_units_Z 56
_cell_length_a 28.599200
_cell_length_b 7.593238
_cell_length_c 14.057413
_cell_angle_alpha 90.000000
_cell_angle_beta 119.155896
_cell_angle_gamma 90.000000
_cell_volume 2665.928182
_symmetry_space_group_name_H-M "C 2/M"
_symmetry_group_IT_number 12
_symmetry_cell_setting 'monoclinic'
loop_
_space_group_symop_operation_xyz
x,y,z
-x,y,-z
-x,-y,-z
x,-y,z
1/2+x,1/2+y,z
1/2-x,1/2+y,-z
1/2-x,1/2-y,-z
1/2+x,1/2-y,z
loop_
_atom_site_type_symbol
_atom_site_label
_atom_site_fract_x
_atom_site_fract_y
_atom_site_fract_z
Si Si1 0.312360 0.702048 0.951059
Si Si2 0.976293 0.785900 0.830465
Si Si3 0.880226 0.783951 0.619081
Si Si4 0.918824 0.784406 0.970310
Si Si5 0.720356 0.708549 0.371274
Si Si6 0.692626 0.795223 0.850966
Si Si7 0.675527 0.704061 0.628834
O O1 0.304927 0.500000 0.911832
O O2 0.331599 0.704838 0.080116
O O3 0.359307 0.780311 0.933665
O O4 0.252839 0.780194 0.895338
O O5 0.939999 0.729103 0.705934
O O6 0.943688 0.736019 0.893560
O O7 0.977415 0.000000 0.829717
O O8 0.037238 0.728585 0.907423
O O9 0.839534 0.729745 0.663934
O O10 0.856662 0.722412 0.494492
O O11 0.877918 0.000000 0.615180
O O12 0.916495 0.000000 0.969409
O O13 0.717992 0.500000 0.352821
O O14 0.750000 0.750000 0.500000
O O15 0.761082 0.780726 0.333525
O O16 0.664770 0.782504 0.721406
O O17 0.697085 0.000000 0.881009
O O18 0.662039 0.500000 0.621768
#
# Coordination Sequence:
#
# PCOD9177818 Si02
#       7
#     8   8   8   8   8   8   8
#     4   9  18  32  49  70  94 118 149 191 235 275
#     4   8  13  23  41  69  98 120 147 181 225 276
#     4   8  15  25  40  62  93 125 150 183 226 269
#     4   8  14  24  43  70  96 119 145 185 231 273
#     4   9  16  26  40  61  90 125 157 186 222 267
#     4  10  20  32  48  69  91 121 156 190 231 279
#     4  10  19  30  43  64  93 125 157 192 230 270
#
# _framework density 21.005817
#
# number of rings (size 3 to 8) (size 9 to 14) (size 15 to 20)
#    0.000    3.143    0.000    3.000    2.000    0.571 
#    0.000    0.000    0.000    0.857    0.000   14.000 
#    0.000    0.000    0.000    0.000    0.000    0.000 
#
# Total GULP energy -156014.816360 kJ/mol
# GULP energy per Si atom -5571.957727 kJ/mol
# Density = 2.095801 g / cm^3
# Si number density = 21.005817 Si / 1000 Ang^3
#
#
#
# Elastic Constant Matrix: (Units=GPa)
#
#
# Indices 1 2 3 4 5 6 
#
# 1 34.9809 -0.7287 -6.4393 0.0000 1.2111 0.0000
# 2 -0.7287 49.5660 2.3343 0.0000 0.8490 0.0000
# 3 -6.4393 2.3343 82.8659 0.0000 -2.2928 0.0000
# 4 0.0000 0.0000 0.0000 6.9193 0.0000 -7.3994
# 5 1.2111 0.8490 -2.2928 0.0000 31.1842 0.0000
# 6 0.0000 0.0000 0.0000 -7.3994 0.0000 7.8662
#
#
#
# Elastic Compliance Matrix: (Units=1/GPa)
#
#
# Indices 1 2 3 4 5 6 
#
# 1 0.029036 0.000339 0.002220 0.000000 -0.000974 0.000000
# 2 0.000339 0.020217 -0.000560 0.000000 -0.000605 0.000000
# 3 0.002220 -0.000560 0.012279 0.000000 0.000832 0.000000
# 4 0.000000 0.000000 0.000000-24.369549 0.000000-22.923566
# 5 -0.000974 -0.000605 0.000832 0.000000 0.032183 0.000000
# 6 0.000000 0.000000 0.000000-22.923566 0.000000-21.436255
#
#
# Mechanical properties :
#
#
# Convention : Reuss Voigt Hill
#
# Bulk Modulus (GPa) = 15.26015 17.52727 16.39371
# Shear Modulus (GPa) = -0.10942 20.67704 10.28381
#
# Velocity S-wave (km/s) = -0.22848 3.14084 2.21502
# Velocity P-wave (km/s) = 2.68531 4.63845 3.78986
#
# Compressibility (1/GPa) = 0.06553018
#
# Stress axis : x y z
#
# Youngs Moduli (GPa) = 34.43952 49.46371 81.44005
#
# Poissons Ratio (x) = -0.01677 -0.18079
# Poissons Ratio (y) = -0.01168 0.04560
# Poissons Ratio (z) = -0.07645 0.02769
#
# Static dielectric constant tensor:
#      x y z
#    x 1.745640 0.000000 0.016740 
#    y 0.000000 1.919150 0.000000 
#    z 0.016740 0.000000 1.809280 
# 
# From -- ./inp_files/248584.got.cif
#   From: 2010.05.17/outbox.cif.g08.bks.cpg/sg12_125_cif.got.tgz:248584.got - 2010.06.03 13:09:07.
