data_PCOD9177805
_publ_section_title
;
Structure prediction by ZEFSAII (Michael W. Deem and Ramdas Pophale) SiO2 
 PCOD9177805
Probable space group: C 2/M
;
_chemical_formula_sum "Si O2"
_cell_formula_units_Z 64
_cell_length_a 24.725597
_cell_length_b 7.389710
_cell_length_c 22.552576
_cell_angle_alpha 90.000000
_cell_angle_beta 131.935921
_cell_angle_gamma 90.000000
_cell_volume 3065.354023
_symmetry_space_group_name_H-M "C 2/M"
_symmetry_group_IT_number 12
_symmetry_cell_setting 'monoclinic'
loop_
_space_group_symop_operation_xyz
x,y,z
-x,y,-z
-x,-y,-z
x,-y,z
1/2+x,1/2+y,z
1/2-x,1/2+y,-z
1/2-x,1/2-y,-z
1/2+x,1/2-y,z
loop_
_atom_site_type_symbol
_atom_site_label
_atom_site_fract_x
_atom_site_fract_y
_atom_site_fract_z
Si Si1 0.314571 0.784961 0.758782
Si Si2 0.082903 0.720005 0.545514
Si Si3 0.137783 0.280346 0.329206
Si Si4 0.318903 0.706811 0.271079
Si Si5 0.064329 0.220723 0.735530
Si Si6 0.600268 0.210863 0.426960
Si Si7 0.527520 0.289085 0.833509
Si Si8 0.521026 0.281824 0.080317
O O1 0.311771 0.717497 0.688342
O O2 0.256418 0.708366 0.762306
O O3 0.395627 0.759170 0.842557
O O4 0.300755 0.000000 0.744936
O O5 0.085820 0.500000 0.548147
O O6 0.133153 0.791311 0.634313
O O7 0.107059 0.785760 0.498117
O O8 0.000000 0.770876 0.500000
O O9 0.140080 0.500000 0.332133
O O10 0.143679 0.214842 0.401468
O O11 0.056642 0.226014 0.249023
O O12 0.304139 0.500000 0.241376
O O13 0.370179 0.786015 0.257696
O O14 0.070082 0.284255 0.807834
O O15 0.985769 0.277514 0.652231
O O16 0.063002 0.000000 0.733814
O O17 0.619842 0.000000 0.445119
O O18 0.546966 0.500000 0.852305
O O19 0.527417 0.212762 0.899847
O O20 0.514072 0.500000 0.074918
O O21 0.500000 0.214738 0.000000
#
# Coordination Sequence:
#
# PCOD9177805 Si02
#       8
#     8   8   8   8   8   8   8   8
#     4   9  18  32  47  66  91 118 148 178 212 260
#     4  10  19  30  43  62  88 116 150 189 227 263
#     4   8  14  26  44  61  81 111 144 180 219 255
#     4  10  20  31  44  63  89 120 151 182 218 260
#     4   9  16  26  42  63  85 113 147 181 217 253
#     4   9  16  27  43  62  83 109 145 189 228 259
#     4   8  14  25  42  65  89 109 137 177 214 252
#     4   9  17  30  50  74  94 112 138 175 218 261
#
# _framework density 20.878502000000001
#
# number of rings (size 3 to 8) (size 9 to 14) (size 15 to 20)
#    0.000    3.000    1.250    0.000    0.000    1.500 
#    0.000    0.625    0.000    0.750    0.000    0.000 
#    0.000    0.000    0.000    0.000    0.000    0.000 
#
# Total GULP energy -178297.835001 kJ/mol
# GULP energy per Si atom -5571.807344 kJ/mol
# Density = 2.083098 g / cm^3
# Si number density = 20.878502 Si / 1000 Ang^3
#
#
#
# Elastic Constant Matrix: (Units=GPa)
#
#
# Indices 1 2 3 4 5 6 
#
# 1 164.4242 -3.4550 60.4132 0.0000 -46.2612 0.0000
# 2 -3.4550 72.5112 -6.9544 0.0001 -0.3960 -0.0001
# 3 60.4132 -6.9544 48.4056 0.0000 -28.5069 0.0000
# 4 0.0000 0.0001 0.0000 19.8176 0.0000 -7.1461
# 5 -46.2612 -0.3960 -28.5069 0.0000 36.1058 0.0000
# 6 0.0000 -0.0001 0.0000 -7.1461 0.0000 9.4506
#
#
#
# Elastic Compliance Matrix: (Units=1/GPa)
#
#
# Indices 1 2 3 4 5 6 
#
# 1 0.012047 -0.000469 -0.011243 0.000000 0.006553 0.000000
# 2 -0.000469 0.014209 0.004419 0.000000 0.003045 0.000000
# 3 -0.011243 0.004419 0.050223 0.000000 0.025296 0.000000
# 4 0.000000 0.000000 0.000000 0.069377 0.000000 0.052460
# 5 0.006553 0.003045 0.025296 0.000000 0.056098 0.000000
# 6 0.000000 0.000000 0.000000 0.052460 0.000000 0.145482
#
#
# Mechanical properties :
#
#
# Convention : Reuss Voigt Hill
#
# Bulk Modulus (GPa) = 16.15666 42.81652 29.48659
# Shear Modulus (GPa) = 13.06670 28.76394 20.91532
#
# Velocity S-wave (km/s) = 2.50440 3.71574 3.16850
# Velocity P-wave (km/s) = 4.01471 6.24187 5.24780
#
# Compressibility (1/GPa) = 0.06189396
#
# Stress axis : x y z
#
# Youngs Moduli (GPa) = 83.01048 70.37732 19.91118
#
# Poissons Ratio (x) = 0.03297 0.22386
# Poissons Ratio (y) = 0.03889 -0.08799
# Poissons Ratio (z) = 0.93330 -0.31101
#
# Static dielectric constant tensor:
#      x y z
#    x 1.850580 0.000000 -0.023460 
#    y 0.000000 1.764430 0.000000 
#    z -0.023460 0.000000 1.724080 
# 
# From -- ./inp_files/323677.got.cif
#   From: 2010.05.17/outbox.cif.g08.bks.cpg/sg12_162_cif.got.tgz:323677.got - 2010.06.03 13:09:07.
