data_PCOD9177160
_publ_section_title
;
Structure prediction by ZEFSAII (Michael W. Deem and Ramdas Pophale) SiO2 
 PCOD9177160
Probable space group: C 2/M
;
_chemical_formula_sum "Si O2"
_cell_formula_units_Z 40
_cell_length_a 13.794441
_cell_length_b 13.362385
_cell_length_c 11.965772
_cell_angle_alpha 90.000000
_cell_angle_beta 106.222309
_cell_angle_gamma 90.000000
_cell_volume 2117.794029
_symmetry_space_group_name_H-M "C 2/M"
_symmetry_group_IT_number 12
_symmetry_cell_setting 'monoclinic'
loop_
_space_group_symop_operation_xyz
x,y,z
-x,y,-z
-x,-y,-z
x,-y,z
1/2+x,1/2+y,z
1/2-x,1/2+y,-z
1/2-x,1/2-y,-z
1/2+x,1/2-y,z
loop_
_atom_site_type_symbol
_atom_site_label
_atom_site_fract_x
_atom_site_fract_y
_atom_site_fract_z
Si Si1 0.930932 0.000000 0.084209
Si Si2 0.520982 0.500000 0.345831
Si Si3 0.500000 0.167105 0.500000
Si Si4 0.364645 0.327196 0.361586
Si Si5 0.729754 0.665563 0.902275
Si Si6 0.554182 0.000000 0.357992
Si Si7 0.397285 0.000000 0.893056
Si Si8 0.271332 0.500000 0.464299
O O1 0.856495 0.906368 0.074850
O O2 0.008691 0.000000 0.211069
O O3 0.000000 0.000000 0.000000
O O4 0.459018 0.402689 0.367880
O O5 0.635352 0.500000 0.421769
O O6 0.403781 0.239399 0.452905
O O7 0.501664 0.099011 0.389413
O O8 0.316777 0.293483 0.229032
O O9 0.285586 0.400927 0.394557
O O10 0.826661 0.596039 0.901885
O O11 0.750000 0.750000 0.000000
O O12 0.575651 0.000000 0.231848
O O13 0.657487 0.000000 0.464712
O O14 0.500000 0.000000 0.000000
#
# Coordination Sequence:
#
# PCOD9177160 Si02
#       8
#     4   4   4   8   8   4   4   4
#     4   9  20  41  58  88 128 148 190 261 305 349
#     4   9  17  34  65  88 115 151 185 244 313 350
#     4  11  24  41  60  90 126 165 192 255 310 360
#     4  10  18  38  65  86 117 151 199 249 299 356
#     4  10  22  41  63  90 117 160 210 251 295 362
#     4  11  26  43  55  88 134 160 200 247 306 367
#     4  11  24  45  63  84 127 173 202 248 311 367
#     4  11  17  39  63  89 113 154 197 245 306 360
#
# _framework density 18.887578000000001
#
# number of rings (size 3 to 8) (size 9 to 14) (size 15 to 20)
#    0.000    1.800    4.000    1.800    2.800    1.600 
#    7.200    0.000    0.000    0.000    0.000    0.000 
#    0.000    0.000    0.000    0.000    0.000    0.000 
#
# Total GULP energy -111500.082370 kJ/mol
# GULP energy per Si atom -5575.004118 kJ/mol
# Density = 1.884459 g / cm^3
# Si number density = 18.887578 Si / 1000 Ang^3
#
#
#
# Elastic Constant Matrix: (Units=GPa)
#
#
# Indices 1 2 3 4 5 6 
#
# 1 54.2674 -1.5981 27.3833 0.0000 -1.6009 0.0000
# 2 -1.5981 82.0662 47.5404 0.0000 -5.8672 0.0000
# 3 27.3833 47.5404 137.1797 0.0000 2.4264 0.0000
# 4 0.0000 0.0000 0.0000 14.2897 0.0000 0.5073
# 5 -1.6009 -5.8672 2.4264 0.0000 39.8774 0.0000
# 6 0.0000 0.0000 0.0000 0.5073 0.0000 -1.7365
#
#
#
# Elastic Compliance Matrix: (Units=1/GPa)
#
#
# Indices 1 2 3 4 5 6 
#
# 1 0.021431 0.003803 -0.005627 0.000000 0.001762 0.000000
# 2 0.003803 0.016188 -0.006421 0.000000 0.002925 0.000000
# 3 -0.005627 -0.006421 0.010670 0.000000 -0.001820 0.000000
# 4 0.000000 0.000000 0.000000 0.069262 0.000000 0.020234
# 5 0.001762 0.002925 -0.001820 0.000000 0.025689 0.000000
# 6 0.000000 0.000000 0.000000 0.020234 0.000000 -0.569968
#
#
# Mechanical properties :
#
#
# Convention : Reuss Voigt Hill
#
# Bulk Modulus (GPa) = 31.44736 46.68494 39.06615
# Shear Modulus (GPa) = -12.51131 23.83196 5.66033
#
# Velocity S-wave (km/s) = -2.57652 3.55601 1.73302
# Velocity P-wave (km/s) = 2.79904 6.45222 4.97322
#
# Compressibility (1/GPa) = 0.03179917
#
# Stress axis : x y z
#
# Youngs Moduli (GPa) = 46.66209 61.77390 93.71759
#
# Poissons Ratio (x) = -0.23493 0.52735
# Poissons Ratio (y) = -0.17746 0.60176
# Poissons Ratio (z) = 0.26257 0.39665
#
# Static dielectric constant tensor:
#      x y z
#    x 1.639330 0.000000 -0.005480 
#    y 0.000000 1.701970 0.000000 
#    z -0.005480 0.000000 1.660840 
# 
# From -- ./inp_files/141186.got.cif
#   From: 2010.05.17/outbox.cif.g08.bks.cpg/sg12_71_cif.got.tgz:141186.got - 2010.06.03 13:09:07.
