data_PCOD9177032
_publ_section_title
;
Structure prediction by ZEFSAII (Michael W. Deem and Ramdas Pophale) SiO2 
 PCOD9177032
Probable space group: C 2/M
;
_chemical_formula_sum "Si O2"
_cell_formula_units_Z 44
_cell_length_a 15.091484
_cell_length_b 30.570708
_cell_length_c 11.478023
_cell_angle_alpha 90.000000
_cell_angle_beta 152.734997
_cell_angle_gamma 90.000000
_cell_volume 2425.890363
_symmetry_space_group_name_H-M "C 2/M"
_symmetry_group_IT_number 12
_symmetry_cell_setting 'monoclinic'
loop_
_space_group_symop_operation_xyz
x,y,z
-x,y,-z
-x,-y,-z
x,-y,z
1/2+x,1/2+y,z
1/2-x,1/2+y,-z
1/2-x,1/2-y,-z
1/2+x,1/2-y,z
loop_
_atom_site_type_symbol
_atom_site_label
_atom_site_fract_x
_atom_site_fract_y
_atom_site_fract_z
Si Si1 0.033697 0.000000 0.676720
Si Si2 0.337374 0.925161 0.018916
Si Si3 0.500000 0.878291 0.000000
Si Si4 0.400064 0.000000 0.752618
Si Si5 0.623825 0.194069 0.322181
Si Si6 0.395770 0.155787 0.259282
Si Si7 0.971016 0.785888 0.100733
O O1 0.828401 0.000000 0.499183
O O2 0.000000 0.000000 0.500000
O O3 0.160973 0.043282 0.845343
O O4 0.345049 0.905450 0.895912
O O5 0.344986 0.885971 0.119966
O O6 0.522533 0.957531 0.225820
O O7 0.397047 0.847185 0.786403
O O8 0.500000 0.000000 0.000000
O O9 0.549582 0.182538 0.363420
O O10 0.848363 0.205001 0.602013
O O11 0.482087 0.232916 0.113221
O O12 0.500000 0.142173 0.500000
O O13 0.215783 0.188137 0.072917
O O14 0.000000 0.799715 0.000000
#
# Coordination Sequence:
#
# PCOD9177032 Si02
#       7
#     4   8   4   4   8   8   8
#     4  11  19  36  63  86 121 150 186 237 304 371
#     4  10  22  36  59  93 118 149 196 241 301 360
#     4  10  18  37  58  90 124 152 190 255 302 334
#     4  11  19  40  59  84 118 153 181 239 307 355
#     4  10  22  38  59  83 122 156 205 251 289 354
#     4  11  23  40  59  86 120 159 201 246 296 353
#     4  11  21  39  59  84 116 164 208 244 297 346
#
# _framework density 18.137671000000001
#
# number of rings (size 3 to 8) (size 9 to 14) (size 15 to 20)
#    0.000    1.455    5.455    0.545    0.000    4.364 
#    0.000    4.545    0.000    1.091    0.000    0.000 
#    0.000    0.000    0.000    0.000    0.000    0.000 
#
# Total GULP energy -122557.384761 kJ/mol
# GULP energy per Si atom -5570.790216 kJ/mol
# Density = 1.809639 g / cm^3
# Si number density = 18.137671 Si / 1000 Ang^3
#
#
#
# Elastic Constant Matrix: (Units=GPa)
#
#
# Indices 1 2 3 4 5 6 
#
# 1 91.9410 35.4559 32.9820 0.0000 5.2477 0.0000
# 2 35.4559 92.5314 32.9086 0.0000 13.0851 0.0000
# 3 32.9820 32.9086 65.4504 0.0000 17.8859 -0.0001
# 4 0.0000 0.0000 0.0000 8.2787 0.0000 -2.0107
# 5 5.2477 13.0851 17.8859 0.0000 32.5997 0.0000
# 6 0.0000 0.0000 -0.0001 -2.0107 0.0000 23.9252
#
#
#
# Elastic Compliance Matrix: (Units=1/GPa)
#
#
# Indices 1 2 3 4 5 6 
#
# 1 0.014326 -0.003692 -0.006044 0.000000 0.002492 0.000000
# 2 -0.003692 0.014218 -0.004577 0.000000 -0.002601 0.000000
# 3 -0.006044 -0.004577 0.023360 0.000000 -0.010007 0.000000
# 4 0.000000 0.000000 0.000000 0.123309 0.000000 0.010363
# 5 0.002492 -0.002601 -0.010007 0.000000 0.036808 0.000000
# 6 0.000000 0.000000 0.000000 0.010363 0.000000 0.042668
#
#
# Mechanical properties :
#
#
# Convention : Reuss Voigt Hill
#
# Bulk Modulus (GPa) = 42.95977 50.29063 46.62520
# Shear Modulus (GPa) = 17.17770 22.86580 20.02175
#
# Velocity S-wave (km/s) = 3.08079 3.55446 3.32607
# Velocity P-wave (km/s) = 6.03257 6.68079 6.36493
#
# Compressibility (1/GPa) = 0.02327759
#
# Stress axis : x y z
#
# Youngs Moduli (GPa) = 69.80144 70.33487 42.80773
#
# Poissons Ratio (x) = 0.25971 0.25872
# Poissons Ratio (y) = 0.25774 0.19594
# Poissons Ratio (z) = 0.42186 0.32193
#
# Static dielectric constant tensor:
#      x y z
#    x 1.556060 0.000000 -0.042290 
#    y 0.000000 1.682280 0.000000 
#    z -0.042290 0.000000 1.579180 
# 
# From -- ./inp_files/149573.got.cif
#   From: 2010.05.17/outbox.cif.g08.bks.cpg/sg12_75_cif.got.tgz:149573.got - 2010.06.03 13:09:07.
