data_PCOD9177795
_publ_section_title
;
Structure prediction by ZEFSAII (Michael W. Deem and Ramdas Pophale) SiO2 
 PCOD9177795
Probable space group: C 2/M
;
_chemical_formula_sum "Si O2"
_cell_formula_units_Z 64
_cell_length_a 29.551255
_cell_length_b 7.415513
_cell_length_c 15.673813
_cell_angle_alpha 90.000000
_cell_angle_beta 94.722313
_cell_angle_gamma 90.000000
_cell_volume 3423.064068
_symmetry_space_group_name_H-M "C 2/M"
_symmetry_group_IT_number 12
_symmetry_cell_setting 'monoclinic'
loop_
_space_group_symop_operation_xyz
x,y,z
-x,y,-z
-x,-y,-z
x,-y,z
1/2+x,1/2+y,z
1/2-x,1/2+y,-z
1/2-x,1/2-y,-z
1/2+x,1/2-y,z
loop_
_atom_site_type_symbol
_atom_site_label
_atom_site_fract_x
_atom_site_fract_y
_atom_site_fract_z
Si Si1 0.617919 0.720638 0.186505
Si Si2 0.694827 0.208627 0.894382
Si Si3 0.033595 0.782099 0.705572
Si Si4 0.096521 0.288024 0.875188
Si Si5 0.705227 0.280511 0.095591
Si Si6 0.445695 0.709443 0.473108
Si Si7 0.069546 0.779413 0.345383
Si Si8 0.047225 0.204720 0.037466
O O1 0.617767 0.500000 0.183559
O O2 0.665716 0.777297 0.153629
O O3 0.606138 0.774967 0.280739
O O4 0.576993 0.782993 0.118404
O O5 0.646355 0.284123 0.857869
O O6 0.743803 0.284334 0.875201
O O7 0.695594 0.000000 0.867730
O O8 0.694418 0.219765 0.997568
O O9 0.060327 0.731814 0.794330
O O10 0.058192 0.714613 0.622742
O O11 0.980925 0.724714 0.693917
O O12 0.032823 0.000000 0.701287
O O13 0.101398 0.500000 0.895505
O O14 0.078614 0.199901 0.958871
O O15 0.705774 0.500000 0.093370
O O16 0.500000 0.712127 0.500000
O O17 0.431649 0.500000 0.465959
O O18 0.424012 0.784965 0.556303
O O19 0.069096 0.000000 0.348251
O O20 0.035491 0.000000 0.063648
O O21 0.000000 0.291184 0.000000
#
# Coordination Sequence:
#
# PCOD9177795 Si02
#       8
#     8   8   8   8   8   8   8   8
#     4   9  15  23  39  63  84 104 131 168 209 246
#     4   9  18  30  42  57  79 107 138 176 214 244
#     4   9  16  27  44  63  84 111 141 169 200 244
#     4  11  21  30  40  58  85 115 143 171 207 246
#     4   9  16  28  45  61  77 101 139 179 212 246
#     4   7  11  21  39  62  84 105 130 166 209 245
#     4   8  13  23  41  66  89 104 128 170 213 246
#     4  10  19  30  43  60  84 113 143 170 198 238
#
# _framework density 18.6967
#
# number of rings (size 3 to 8) (size 9 to 14) (size 15 to 20)
#    0.000    3.000    1.250    2.625    0.000    2.750 
#    0.000    0.000    0.000    3.375    0.000    0.875 
#    0.000    0.000    0.000    0.000    0.000    0.000 
#
# Total GULP energy -178326.357235 kJ/mol
# GULP energy per Si atom -5572.698664 kJ/mol
# Density = 1.865415 g / cm^3
# Si number density = 18.696700 Si / 1000 Ang^3
#
#
#
# Elastic Constant Matrix: (Units=GPa)
#
#
# Indices 1 2 3 4 5 6 
#
# 1 82.5955 -0.4285 4.4650 0.0000 -25.5925 0.0000
# 2 -0.4285 63.4752 -7.4444 0.0000 -0.0069 0.0000
# 3 4.4650 -7.4444 57.6403 0.0000 -29.4783 0.0000
# 4 0.0000 0.0000 0.0000 -10.8477 0.0000 -10.4661
# 5 -25.5925 -0.0069 -29.4783 0.0000 28.0755 0.0000
# 6 0.0000 0.0000 0.0000 -10.4661 0.0000 -0.6322
#
#
#
# Elastic Compliance Matrix: (Units=1/GPa)
#
#
# Indices 1 2 3 4 5 6 
#
# 1 0.025172 0.002743 0.021899 0.000000 0.045939 0.000000
# 2 0.002743 0.016587 0.006934 0.000000 0.009785 0.000000
# 3 0.021899 0.006934 0.057789 0.000000 0.080640 0.000000
# 4 0.000000 0.000000 0.000000 0.006157 0.000000 -0.101927
# 5 0.045939 0.009785 0.080640 0.000000 0.162166 0.000000
# 6 0.000000 0.000000 0.000000 -0.101927 0.000000 0.105643
#
#
# Mechanical properties :
#
#
# Convention : Reuss Voigt Hill
#
# Bulk Modulus (GPa) = 6.14629 21.87725 14.01177
# Shear Modulus (GPa) = 13.71381 17.12704 15.42042
#
# Velocity S-wave (km/s) = 2.71124 3.02991 2.87499
# Velocity P-wave (km/s) = 3.61878 4.89561 4.30480
#
# Compressibility (1/GPa) = 0.16269975
#
# Stress axis : x y z
#
# Youngs Moduli (GPa) = 39.72660 60.28819 17.30433
#
# Poissons Ratio (x) = -0.16538 -0.37894
# Poissons Ratio (y) = -0.10898 -0.11999
# Poissons Ratio (z) = -0.86996 -0.41804
#
# Static dielectric constant tensor:
#      x y z
#    x 1.667830 0.000000 -0.017090 
#    y 0.000000 1.777160 0.000000 
#    z -0.017090 0.000000 1.636080 
# 
# From -- ./inp_files/248456.got.cif
#   From: 2010.05.17/outbox.cif.g08.bks.cpg/sg12_125_cif.got.tgz:248456.got - 2010.06.03 13:09:07.
