data_PCOD9177593
_publ_section_title
;
Structure prediction by ZEFSAII (Michael W. Deem and Ramdas Pophale) SiO2 
 PCOD9177593
Probable space group: C 2/M
;
_chemical_formula_sum "Si O2"
_cell_formula_units_Z 48
_cell_length_a 10.347642
_cell_length_b 21.100542
_cell_length_c 14.823004
_cell_angle_alpha 90.000000
_cell_angle_beta 42.577556
_cell_angle_gamma 90.000000
_cell_volume 2189.753596
_symmetry_space_group_name_H-M "C 2/M"
_symmetry_group_IT_number 12
_symmetry_cell_setting 'monoclinic'
loop_
_space_group_symop_operation_xyz
x,y,z
-x,y,-z
-x,-y,-z
x,-y,z
1/2+x,1/2+y,z
1/2-x,1/2+y,-z
1/2-x,1/2-y,-z
1/2+x,1/2-y,z
loop_
_atom_site_type_symbol
_atom_site_label
_atom_site_fract_x
_atom_site_fract_y
_atom_site_fract_z
Si Si1 0.528332 0.241950 0.273067
Si Si2 0.829954 0.105736 0.652165
Si Si3 0.425033 0.103813 0.371497
Si Si4 0.402755 0.613917 0.335727
Si Si5 0.873456 0.924710 0.149021
Si Si6 0.089280 0.718789 0.856644
O O1 0.412050 0.180000 0.361213
O O2 0.437853 0.310939 0.337161
O O3 0.728628 0.235820 0.222087
O O4 0.545928 0.239100 0.155432
O O5 0.694173 0.072208 0.649066
O O6 0.688106 0.154429 0.773132
O O7 0.000000 0.132994 0.500000
O O8 0.948433 0.077728 0.674957
O O9 0.307931 0.093257 0.523549
O O10 0.646249 0.086181 0.254729
O O11 0.433515 0.602890 0.214820
O O12 0.905519 0.000000 0.136783
O O13 0.000000 0.899304 0.000000
O O14 0.000000 0.711131 0.000000
#
# Coordination Sequence:
#
# PCOD9177593 Si02
#       6
#     8   8   8   8   8   8
#     4  10  20  32  52  86 124 152 190 248 308 358
#     4   8  18  35  54  81 113 142 180 237 299 352
#     4  10  20  37  62  88 118 157 200 248 304 368
#     4  10  20  37  62  88 118 157 200 248 304 368
#     4  11  26  45  62  86 123 165 211 261 305 350
#     4  10  19  29  44  70 109 155 196 230 276 348
#
# _framework density 21.920273999999999
#
# number of rings (size 3 to 8) (size 9 to 14) (size 15 to 20)
#    0.000    2.167    0.000    2.500    0.000   10.667 
#    0.000    4.167    0.000    5.000    0.000    0.000 
#    0.000    0.000    0.000    0.000    0.000    0.000 
#
# Total GULP energy -133757.024696 kJ/mol
# GULP energy per Si atom -5573.209362 kJ/mol
# Density = 2.187038 g / cm^3
# Si number density = 21.920274 Si / 1000 Ang^3
#
#
#
# Elastic Constant Matrix: (Units=GPa)
#
#
# Indices 1 2 3 4 5 6 
#
# 1 103.9676 3.5205 22.3360 -0.0014 21.2608 -0.0006
# 2 3.5205 66.8354 7.7695 -0.0009 3.0548 -0.0004
# 3 22.3360 7.7695 110.9403 -0.0034 20.4395 -0.0012
# 4 -0.0014 -0.0009 -0.0034 -47.9130 0.0019 -39.8233
# 5 21.2608 3.0548 20.4395 0.0019 37.7115 0.0008
# 6 -0.0006 -0.0004 -0.0012 -39.8233 0.0008 -28.0901
#
#
#
# Elastic Compliance Matrix: (Units=1/GPa)
#
#
# Indices 1 2 3 4 5 6 
#
# 1 0.011014 -0.000189 -0.001181 0.000001 -0.005554 -0.000002
# 2 -0.000189 0.015106 -0.000904 0.000001 -0.000627 -0.000001
# 3 -0.001181 -0.000904 0.010197 0.000002 -0.004788 -0.000004
# 4 0.000001 0.000001 0.000002 0.117037 -0.000004 -0.165923
# 5 -0.005554 -0.000627 -0.004788 -0.000004 0.032294 0.000007
# 6 -0.000002 -0.000001 -0.000004 -0.165923 0.000007 0.199628
#
#
# Mechanical properties :
#
#
# Convention : Reuss Voigt Hill
#
# Bulk Modulus (GPa) = 31.47779 38.77726 35.12752
# Shear Modulus (GPa) = 12.48706 8.88284 10.68495
#
# Velocity S-wave (km/s) = 2.38934 2.01523 2.21021
# Velocity P-wave (km/s) = 4.69076 4.81076 4.75114
#
# Compressibility (1/GPa) = 0.03176843
#
# Stress axis : x y z
#
# Youngs Moduli (GPa) = 90.79107 66.19947 98.06760
#
# Poissons Ratio (x) = 0.01251 0.11582
# Poissons Ratio (y) = 0.01716 0.08869
# Poissons Ratio (z) = 0.10723 0.05987
#
# Static dielectric constant tensor:
#      x y z
#    x 1.844220 0.000000 0.000250 
#    y 0.000000 1.836130 0.000000 
#    z 0.000250 0.000000 1.772500 
# 
# From -- ./inp_files/207930.got.cif
#   From: 2010.05.17/outbox.cif.g08.bks.cpg/sg12_104_cif.got.tgz:207930.got - 2010.06.03 13:09:07.
