data_PCOD9177192
_publ_section_title
;
Structure prediction by ZEFSAII (Michael W. Deem and Ramdas Pophale) SiO2 
 PCOD9177192
Probable space group: C 2/M
;
_chemical_formula_sum "Si O2"
_cell_formula_units_Z 28
_cell_length_a 8.899329
_cell_length_b 12.180000
_cell_length_c 19.599683
_cell_angle_alpha 90.000000
_cell_angle_beta 40.264805
_cell_angle_gamma 90.000000
_cell_volume 1373.099415
_symmetry_space_group_name_H-M "C 2/M"
_symmetry_group_IT_number 12
_symmetry_cell_setting 'monoclinic'
loop_
_space_group_symop_operation_xyz
x,y,z
-x,y,-z
-x,-y,-z
x,-y,z
1/2+x,1/2+y,z
1/2-x,1/2+y,-z
1/2-x,1/2-y,-z
1/2+x,1/2-y,z
loop_
_atom_site_type_symbol
_atom_site_label
_atom_site_fract_x
_atom_site_fract_y
_atom_site_fract_z
Si Si1 0.133504 0.123431 0.704916
Si Si2 0.181625 0.500000 0.876530
Si Si3 0.856671 0.000000 0.479290
Si Si4 0.356744 0.000000 0.262723
Si Si5 0.952547 0.327850 0.346859
O O1 0.140319 0.209213 0.641249
O O2 0.288986 0.170261 0.712479
O O3 0.863878 0.101936 0.817264
O O4 0.226682 0.000000 0.657417
O O5 0.062661 0.500000 0.843099
O O6 0.000000 0.500000 0.000000
O O7 0.698900 0.107299 0.544200
O O8 0.000000 0.000000 0.500000
O O9 0.073567 0.000000 0.353130
O O10 0.432579 0.102265 0.283530
#
# Coordination Sequence:
#
# PCOD9177192 Si02
#       5
#     8   4   4   4   8
#     4  10  21  38  63  91 125 160 210 248 301 365
#     4  10  22  42  62  90 123 156 212 260 306 362
#     4   8  17  35  61  91 127 163 205 238 305 370
#     4  10  19  39  65  89 125 171 200 258 303 358
#     4  10  18  39  63  91 129 163 198 251 304 371
#
# _framework density 20.391822000000001
#
# number of rings (size 3 to 8) (size 9 to 14) (size 15 to 20)
#    0.857    1.714    2.857    1.714    0.000    0.000 
#    0.000   34.286    0.000    0.000    0.000    0.000 
#    0.000    0.000    0.000    0.000    0.000    0.000 
#
# Total GULP energy -78020.186894 kJ/mol
# GULP energy per Si atom -5572.870492 kJ/mol
# Density = 2.034541 g / cm^3
# Si number density = 20.391822 Si / 1000 Ang^3
#
#
#
# Elastic Constant Matrix: (Units=GPa)
#
#
# Indices 1 2 3 4 5 6 
#
# 1 146.0981 49.2766 43.5734 -0.0001 17.6116 0.0000
# 2 49.2766 127.4510 37.2133 -0.0001 12.0701 0.0001
# 3 43.5734 37.2133 123.8014 -0.0001 22.0037 0.0000
# 4 -0.0001 -0.0001 -0.0001 3.3293 0.0001 1.3937
# 5 17.6116 12.0701 22.0037 0.0001 26.3731 0.0000
# 6 0.0000 0.0001 0.0000 1.3937 0.0000 34.3156
#
#
#
# Elastic Compliance Matrix: (Units=1/GPa)
#
#
# Indices 1 2 3 4 5 6 
#
# 1 0.008584 -0.002523 -0.001702 0.000000 -0.003158 0.000000
# 2 -0.002523 0.009442 -0.001739 0.000000 -0.001185 0.000000
# 3 -0.001702 -0.001739 0.010398 0.000000 -0.006743 0.000000
# 4 0.000000 0.000000 0.000000 0.305558 -0.000001 -0.012410
# 5 -0.003158 -0.001185 -0.006743 -0.000001 0.046194 0.000000
# 6 0.000000 0.000000 0.000000 -0.012410 0.000000 0.029645
#
#
# Mechanical properties :
#
#
# Convention : Reuss Voigt Hill
#
# Bulk Modulus (GPa) = 60.62348 73.05300 66.83824
# Shear Modulus (GPa) = 11.70285 30.62276 21.16280
#
# Velocity S-wave (km/s) = 2.39822 3.87940 3.22500
# Velocity P-wave (km/s) = 6.12066 7.48123 6.83488
#
# Compressibility (1/GPa) = 0.01649526
#
# Stress axis : x y z
#
# Youngs Moduli (GPa) = 116.49851 105.91297 96.17614
#
# Poissons Ratio (x) = 0.26721 0.16365
# Poissons Ratio (y) = 0.29391 0.16730
# Poissons Ratio (z) = 0.19823 0.18423
#
# Static dielectric constant tensor:
#      x y z
#    x 1.745480 0.000000 0.006480 
#    y 0.000000 1.816600 0.000000 
#    z 0.006480 0.000000 1.758720 
# 
# From -- ./inp_files/254861.got.cif
#   From: 2010.05.17/outbox.cif.g08.bks.cpg/sg12_128_cif.got.tgz:254861.got - 2010.06.03 13:09:07.
