data_PCOD9177308
_publ_section_title
;
Structure prediction by ZEFSAII (Michael W. Deem and Ramdas Pophale) SiO2 
 PCOD9177308
Probable space group: C 2/M
;
_chemical_formula_sum "Si O2"
_cell_formula_units_Z 64
_cell_length_a 32.199244
_cell_length_b 9.088182
_cell_length_c 16.182728
_cell_angle_alpha 90.000000
_cell_angle_beta 109.679742
_cell_angle_gamma 90.000000
_cell_volume 4458.986030
_symmetry_space_group_name_H-M "C 2/M"
_symmetry_group_IT_number 12
_symmetry_cell_setting 'monoclinic'
loop_
_space_group_symop_operation_xyz
x,y,z
-x,y,-z
-x,-y,-z
x,-y,z
1/2+x,1/2+y,z
1/2-x,1/2+y,-z
1/2-x,1/2-y,-z
1/2+x,1/2-y,z
loop_
_atom_site_type_symbol
_atom_site_label
_atom_site_fract_x
_atom_site_fract_y
_atom_site_fract_z
Si Si1 0.332976 0.825924 0.688017
Si Si2 0.411605 0.325904 0.837087
Si Si3 0.317949 0.173607 0.014506
Si Si4 0.997951 0.330574 0.098947
Si Si5 0.741461 0.173722 0.863178
Si Si6 0.907422 0.825300 0.031519
Si Si7 0.766893 0.175644 0.315053
Si Si8 0.706091 0.176114 0.508009
O O1 0.370248 0.734947 0.758950
O O2 0.284282 0.795394 0.692954
O O3 0.330001 0.796417 0.587505
O O4 0.341157 0.000000 0.705128
O O5 0.416526 0.500000 0.829102
O O6 0.456843 0.245015 0.842399
O O7 0.404353 0.299360 0.930301
O O8 0.286538 0.253923 0.927058
O O9 0.320334 0.000000 0.997180
O O10 0.293969 0.191201 0.086850
O O11 0.365867 0.245592 0.044361
O O12 0.995314 0.500000 0.123715
O O13 0.953885 0.242003 0.091820
O O14 0.000000 0.328785 0.000000
O O15 0.726763 0.254653 0.770351
O O16 0.748034 0.000000 0.852887
O O17 0.906177 0.000000 0.044472
O O18 0.797725 0.251309 0.404803
O O19 0.772969 0.000000 0.319172
O O20 0.750000 0.250000 0.500000
O O21 0.711801 0.000000 0.518395
#
# Coordination Sequence:
#
# PCOD9177308 Si02
#       8
#     8   8   8   8   8   8   8   8
#     4   9  18  29  41  60  85 113 143 174 209 251
#     4  10  19  28  41  62  86 112 142 176 211 250
#     4  10  20  32  45  62  85 113 146 181 216 254
#     4   9  17  29  44  60  81 110 141 174 211 251
#     4  10  20  32  45  62  85 113 145 182 219 252
#     4  10  19  30  44  62  85 113 145 178 213 252
#     4  10  19  30  45  63  84 113 147 180 216 258
#     4   9  17  29  43  60  84 112 143 178 214 253
#
# _framework density 14.353039000000001
#
# number of rings (size 3 to 8) (size 9 to 14) (size 15 to 20)
#    0.000    2.375    0.000    4.125    0.000    9.500 
#    0.000    0.000    0.000    0.000    0.000    0.000 
#    0.000    1.000    0.000   10.500    0.000    5.000 
#
# Total GULP energy -178409.113599 kJ/mol
# GULP energy per Si atom -5575.284800 kJ/mol
# Density = 1.432037 g / cm^3
# Si number density = 14.353039 Si / 1000 Ang^3
#
#
#
# Elastic Constant Matrix: (Units=GPa)
#
#
# Indices 1 2 3 4 5 6 
#
# 1 60.8202 43.3236 4.9769 0.0000 9.0854 0.0000
# 2 43.3236 88.3048 43.3472 0.0000 8.1565 0.0000
# 3 4.9769 43.3472 61.4362 0.0000 5.7253 0.0000
# 4 0.0000 0.0000 0.0000 25.6082 0.0000 3.3727
# 5 9.0854 8.1565 5.7253 0.0000 15.3655 0.0000
# 6 0.0000 0.0000 0.0000 3.3727 0.0000 25.3248
#
#
#
# Elastic Compliance Matrix: (Units=1/GPa)
#
#
# Indices 1 2 3 4 5 6 
#
# 1 0.032618 -0.021573 0.013788 0.000000 -0.012972 0.000000
# 2 -0.021573 0.031942 -0.021132 0.000000 0.003674 0.000000
# 3 0.013788 -0.021132 0.030856 0.000000 -0.008432 0.000000
# 4 0.000000 0.000000 0.000000 0.039747 0.000000 -0.005293
# 5 -0.012972 0.003674 -0.008432 0.000000 0.073943 0.000000
# 6 0.000000 0.000000 0.000000 -0.005293 0.000000 0.040192
#
#
# Mechanical properties :
#
#
# Convention : Reuss Voigt Hill
#
# Bulk Modulus (GPa) = 26.60858 43.76184 35.18521
# Shear Modulus (GPa) = 15.64155 21.18726 18.41441
#
# Velocity S-wave (km/s) = 3.30475 3.84624 3.58573
# Velocity P-wave (km/s) = 5.75680 7.09088 6.45838
#
# Compressibility (1/GPa) = 0.03758187
#
# Stress axis : x y z
#
# Youngs Moduli (GPa) = 30.65758 31.30626 32.40852
#
# Poissons Ratio (x) = 0.67537 -0.44684
# Poissons Ratio (y) = 0.66137 0.68487
# Poissons Ratio (z) = -0.42269 0.66157
#
# Static dielectric constant tensor:
#      x y z
#    x 1.455780 0.000000 -0.005510 
#    y 0.000000 1.475280 0.000000 
#    z -0.005510 0.000000 1.476790 
# 
# From -- ./inp_files/244025.got.cif
#   From: 2010.05.17/outbox.cif.g08.bks.cpg/sg12_123_cif.got.tgz:244025.got - 2010.06.03 13:09:07.
