data_PCOD9177452
_publ_section_title
;
Structure prediction by ZEFSAII (Michael W. Deem and Ramdas Pophale) SiO2 
 PCOD9177452
Probable space group: C 2/M
;
_chemical_formula_sum "Si O2"
_cell_formula_units_Z 56
_cell_length_a 24.245245
_cell_length_b 7.418184
_cell_length_c 20.154117
_cell_angle_alpha 90.000000
_cell_angle_beta 53.273200
_cell_angle_gamma 90.000000
_cell_volume 2905.288888
_symmetry_space_group_name_H-M "C 2/M"
_symmetry_group_IT_number 12
_symmetry_cell_setting 'monoclinic'
loop_
_space_group_symop_operation_xyz
x,y,z
-x,y,-z
-x,-y,-z
x,-y,z
1/2+x,1/2+y,z
1/2-x,1/2+y,-z
1/2-x,1/2-y,-z
1/2+x,1/2-y,z
loop_
_atom_site_type_symbol
_atom_site_label
_atom_site_fract_x
_atom_site_fract_y
_atom_site_fract_z
Si Si1 0.951731 0.719970 0.096657
Si Si2 0.458477 0.220351 0.844276
Si Si3 0.064910 0.707562 0.504116
Si Si4 0.532021 0.778872 0.314232
Si Si5 0.301606 0.783602 0.162485
Si Si6 0.188118 0.284774 0.994590
Si Si7 0.347372 0.214716 0.674854
O O1 0.952044 0.500000 0.095906
O O2 0.985333 0.776484 0.141885
O O3 0.873433 0.780210 0.142083
O O4 0.000000 0.774920 0.000000
O O5 0.469770 0.278718 0.760586
O O6 0.383990 0.281202 0.924134
O O7 0.458295 0.000000 0.843603
O O8 0.083286 0.500000 0.506206
O O9 0.032723 0.783763 0.594713
O O10 0.125715 0.787599 0.415410
O O11 0.000000 0.706004 0.500000
O O12 0.601782 0.721613 0.302638
O O13 0.531532 0.000000 0.315239
O O14 0.231807 0.743236 0.251538
O O15 0.306241 0.000000 0.156560
O O16 0.297170 0.715664 0.089901
O O17 0.180749 0.500000 0.994172
O O18 0.250000 0.250000 0.000000
O O19 0.358753 0.000000 0.663377
#
# Coordination Sequence:
#
# PCOD9177452 Si02
#       7
#     8   8   8   8   8   8   8
#     4   9  15  27  43  57  77 111 151 181 205 237
#     4   9  15  24  41  62  82 106 141 181 211 239
#     4   7  11  21  38  60  84 108 135 169 208 248
#     4   8  13  22  40  66  87 104 136 179 214 246
#     4  10  19  29  43  63  87 113 142 176 209 246
#     4  10  19  29  42  63  89 113 135 166 211 256
#     4   9  16  27  44  65  89 114 137 168 213 259
#
# _framework density 19.275193000000002
#
# number of rings (size 3 to 8) (size 9 to 14) (size 15 to 20)
#    0.000    3.143    1.429    2.571    0.000    1.714 
#    0.000    0.000    0.000    6.000    0.000    0.000 
#    0.000    0.000    0.000    0.000    0.000    0.000 
#
# Total GULP energy -156098.163696 kJ/mol
# GULP energy per Si atom -5574.934418 kJ/mol
# Density = 1.923132 g / cm^3
# Si number density = 19.275193 Si / 1000 Ang^3
#
#
#
# Elastic Constant Matrix: (Units=GPa)
#
#
# Indices 1 2 3 4 5 6 
#
# 1 124.5055 0.8360 100.5284 -0.0137 -20.9040 0.0068
# 2 0.8360 60.4568 4.5050 -0.0193 1.3909 -0.0030
# 3 100.5284 4.5050 213.4272 -0.0082 -6.0401 0.0039
# 4 -0.0137 -0.0193 -0.0082 11.1448 -0.0068 -9.2608
# 5 -20.9040 1.3909 -6.0401 -0.0068 14.6816 0.0044
# 6 0.0068 -0.0030 0.0039 -9.2608 0.0044 4.7755
#
#
#
# Elastic Compliance Matrix: (Units=1/GPa)
#
#
# Indices 1 2 3 4 5 6 
#
# 1 0.018290 -0.000183 -0.007966 0.000006 0.022782 -0.000029
# 2 -0.000183 0.016612 -0.000320 -0.000062 -0.001966 -0.000107
# 3 -0.007966 -0.000320 0.008220 -0.000001 -0.007931 0.000010
# 4 0.000006 -0.000062 -0.000001 -0.146756 0.000031 -0.284593
# 5 0.022782 -0.001966 -0.007931 0.000031 0.097473 -0.000056
# 6 -0.000029 -0.000107 0.000010 -0.284593 -0.000056 -0.342489
#
#
# Mechanical properties :
#
#
# Convention : Reuss Voigt Hill
#
# Bulk Modulus (GPa) = 38.19249 67.79201 52.99225
# Shear Modulus (GPa) = -15.48076 25.62175 5.07050
#
# Velocity S-wave (km/s) = -2.83705 3.64986 1.62367
# Velocity P-wave (km/s) = 3.02084 7.28072 5.57380
#
# Compressibility (1/GPa) = 0.02618316
#
# Stress axis : x y z
#
# Youngs Moduli (GPa) = 54.67368 60.19630 121.65264
#
# Poissons Ratio (x) = 0.01104 0.96915
# Poissons Ratio (y) = 0.01003 0.03892
# Poissons Ratio (z) = 0.43556 0.01926
#
# Static dielectric constant tensor:
#      x y z
#    x 1.648620 0.000000 0.023440 
#    y 0.000000 1.766790 0.000000 
#    z 0.023440 0.000000 1.698410 
# 
# From -- ./inp_files/320738.got.cif
#   From: 2010.05.17/outbox.cif.g08.bks.cpg/sg12_161_cif.got.tgz:320738.got - 2010.06.03 13:09:07.
