data_PCOD9177172
_publ_section_title
;
Structure prediction by ZEFSAII (Michael W. Deem and Ramdas Pophale) SiO2 
 PCOD9177172
Probable space group: C 2/M
;
_chemical_formula_sum "Si O2"
_cell_formula_units_Z 64
_cell_length_a 16.118234
_cell_length_b 27.567071
_cell_length_c 12.184687
_cell_angle_alpha 90.000000
_cell_angle_beta 151.847975
_cell_angle_gamma 90.000000
_cell_volume 2554.418514
_symmetry_space_group_name_H-M "C 2/M"
_symmetry_group_IT_number 12
_symmetry_cell_setting 'monoclinic'
loop_
_space_group_symop_operation_xyz
x,y,z
-x,y,-z
-x,-y,-z
x,-y,z
1/2+x,1/2+y,z
1/2-x,1/2+y,-z
1/2-x,1/2-y,-z
1/2+x,1/2-y,z
loop_
_atom_site_type_symbol
_atom_site_label
_atom_site_fract_x
_atom_site_fract_y
_atom_site_fract_z
Si Si1 0.721345 0.077595 0.189911
Si Si2 0.496807 0.446720 0.316794
Si Si3 0.676050 0.683351 0.637545
Si Si4 0.230346 0.807568 0.464094
Si Si5 0.453058 0.101354 0.721524
Si Si6 0.768340 0.879758 0.918784
Si Si7 0.712400 0.791819 0.719745
Si Si8 0.788951 0.943660 0.739940
O O1 0.858527 0.060433 0.255468
O O2 0.720957 0.135458 0.208856
O O3 0.813699 0.057598 0.406581
O O4 0.533351 0.069696 0.914669
O O5 0.473228 0.500000 0.239296
O O6 0.799044 0.425794 0.475626
O O7 0.441057 0.405768 0.166911
O O8 0.500000 0.679366 0.500000
O O9 0.616786 0.683187 0.441391
O O10 0.760433 0.735015 0.769044
O O11 0.250000 0.750000 0.500000
O O12 0.385151 0.845352 0.674086
O O13 0.223426 0.813426 0.323256
O O14 0.614755 0.112586 0.827536
O O15 0.796189 0.824730 0.912030
O O16 0.713349 0.909501 0.746771
O O17 0.500000 0.794634 0.500000
O O18 0.744404 0.000000 0.703910
O O19 0.000000 0.938890 0.000000
#
# Coordination Sequence:
#
# PCOD9177172 Si02
#       8
#     8   8   8   8   8   8   8   8
#     4  10  21  41  64  98 144 184 250 305 361 433
#     4  10  21  39  67 106 145 189 250 308 376 455
#     4  10  21  39  67 100 143 194 248 298 367 445
#     4  10  21  39  69 103 144 193 239 302 374 444
#     4  11  23  42  70 105 139 193 248 311 369 450
#     4  11  21  41  74 106 149 191 249 305 377 443
#     4  10  18  38  67 104 147 185 241 304 369 448
#     4  11  25  44  67 104 151 193 241 305 381 463
#
# _framework density 25.054625999999999
#
# number of rings (size 3 to 8) (size 9 to 14) (size 15 to 20)
#    0.000    1.625    3.750    1.500    0.000    5.000 
#    0.000    6.250    0.000    0.750    0.000   11.375 
#    0.000    0.000    0.000    0.000    0.000    0.000 
#
# Total GULP energy -178736.001726 kJ/mol
# GULP energy per Si atom -5585.500054 kJ/mol
# Density = 2.499760 g / cm^3
# Si number density = 25.054626 Si / 1000 Ang^3
#
#
#
# Elastic Constant Matrix: (Units=GPa)
#
#
# Indices 1 2 3 4 5 6 
#
# 1 129.5685 6.9880 29.0056 0.0000 -2.1236 0.0000
# 2 6.9880 154.7808 51.5603 0.0000 -7.3835 0.0000
# 3 29.0056 51.5603 137.9218 0.0000 -18.4726 0.0000
# 4 0.0000 0.0000 0.0000 29.8647 0.0000 -17.3543
# 5 -2.1236 -7.3835 -18.4726 0.0000 30.7936 0.0000
# 6 0.0000 0.0000 0.0000 -17.3543 0.0000 36.4946
#
#
#
# Elastic Compliance Matrix: (Units=1/GPa)
#
#
# Indices 1 2 3 4 5 6 
#
# 1 0.008114 0.000229 -0.001859 0.000000 -0.000501 0.000000
# 2 0.000229 0.007387 -0.002795 0.000000 0.000110 0.000000
# 3 -0.001859 -0.002795 0.009329 0.000000 0.004798 0.000000
# 4 0.000000 0.000000 0.000000 0.046270 0.000000 0.022003
# 5 -0.000501 0.000110 0.004798 0.000000 0.035344 0.000000
# 6 0.000000 0.000000 0.000000 0.022003 0.000000 0.037864
#
#
# Mechanical properties :
#
#
# Convention : Reuss Voigt Hill
#
# Bulk Modulus (GPa) = 62.57993 66.37544 64.47768
# Shear Modulus (GPa) = 31.54893 41.74505 36.64699
#
# Velocity S-wave (km/s) = 3.55238 4.08629 3.82865
# Velocity P-wave (km/s) = 6.46974 6.98667 6.73316
#
# Compressibility (1/GPa) = 0.01597956
#
# Stress axis : x y z
#
# Youngs Moduli (GPa) = 123.25097 135.37892 107.19424
#
# Poissons Ratio (x) = -0.03101 0.19928
# Poissons Ratio (y) = -0.02823 0.29959
# Poissons Ratio (z) = 0.22913 0.37836
#
# Static dielectric constant tensor:
#      x y z
#    x 2.063190 0.000000 0.026300 
#    y 0.000000 1.949350 0.000000 
#    z 0.026300 0.000000 2.028140 
# 
# From -- ./inp_files/150294.got.cif
#   From: 2010.05.17/outbox.cif.g08.bks.cpg/sg12_76_cif.got.tgz:150294.got - 2010.06.03 13:09:07.
