data_PCOD9177714
_publ_section_title
;
Structure prediction by ZEFSAII (Michael W. Deem and Ramdas Pophale) SiO2 
 PCOD9177714
Probable space group: C 2/M
;
_chemical_formula_sum "Si O2"
_cell_formula_units_Z 56
_cell_length_a 27.496362
_cell_length_b 15.551887
_cell_length_c 9.384022
_cell_angle_alpha 90.000000
_cell_angle_beta 59.474005
_cell_angle_gamma 90.000000
_cell_volume 3456.619772
_symmetry_space_group_name_H-M "C 2/M"
_symmetry_group_IT_number 12
_symmetry_cell_setting 'monoclinic'
loop_
_space_group_symop_operation_xyz
x,y,z
-x,y,-z
-x,-y,-z
x,-y,z
1/2+x,1/2+y,z
1/2-x,1/2+y,-z
1/2-x,1/2-y,-z
1/2+x,1/2-y,z
loop_
_atom_site_type_symbol
_atom_site_label
_atom_site_fract_x
_atom_site_fract_y
_atom_site_fract_z
Si Si1 0.429776 0.599327 0.258536
Si Si2 0.752528 0.820832 0.285392
Si Si3 0.057892 0.100138 0.102479
Si Si4 0.310461 0.660144 0.484968
Si Si5 0.678132 0.903929 0.154784
Si Si6 0.651752 0.274927 0.087408
Si Si7 0.789798 0.909375 0.804965
O O1 0.416201 0.500000 0.314939
O O2 0.491676 0.618427 0.228218
O O3 0.378108 0.657582 0.383978
O O4 0.434285 0.604111 0.080318
O O5 0.714531 0.750403 0.422895
O O6 0.787984 0.863014 0.361245
O O7 0.711817 0.879864 0.250077
O O8 0.798943 0.779864 0.107638
O O9 0.098767 0.170330 0.110804
O O10 0.069396 0.000000 0.126405
O O11 0.288948 0.595955 0.637561
O O12 0.641635 0.822076 0.157212
O O13 0.652888 0.000000 0.202056
O O14 0.727913 0.907185 0.963551
O O15 0.677171 0.328677 0.181304
O O16 0.816344 0.000000 0.812641
#
# Coordination Sequence:
#
# PCOD9177714 Si02
#       7
#     8   8   8   8   8   8   8
#     4   9  18  31  48  76 106 133 167 199 239 306
#     4  10  20  31  50  73 102 135 173 201 248 312
#     4   9  18  32  51  74 102 137 172 199 236 300
#     4  11  18  31  49  75 106 136 160 204 254 293
#     4  10  20  34  49  69  98 136 173 208 245 297
#     4  11  17  35  50  70  99 138 171 207 245 297
#     4  10  19  29  47  73 104 134 163 198 250 301
#
# _framework density 16.200797999999999
#
# number of rings (size 3 to 8) (size 9 to 14) (size 15 to 20)
#    0.000    2.000    4.286    2.571    0.000    1.714 
#    0.000    0.714    0.000    2.571    0.000    4.000 
#    0.000    0.000    0.000    0.000    0.000    0.000 
#
# Total GULP energy -155883.046770 kJ/mol
# GULP energy per Si atom -5567.251670 kJ/mol
# Density = 1.616392 g / cm^3
# Si number density = 16.200798 Si / 1000 Ang^3
#
#
#
# Elastic Constant Matrix: (Units=GPa)
#
#
# Indices 1 2 3 4 5 6 
#
# 1 81.2162 52.8758 23.6436 0.0000 -2.4901 0.0000
# 2 52.8758 113.7032 18.6733 0.0000 0.2418 0.0000
# 3 23.6436 18.6733 59.6305 0.0000 6.4378 0.0000
# 4 0.0000 0.0000 0.0000 2.6596 0.0000 -1.9602
# 5 -2.4901 0.2418 6.4378 0.0000 26.0179 0.0000
# 6 0.0000 0.0000 0.0000 -1.9602 0.0000 23.7826
#
#
#
# Elastic Compliance Matrix: (Units=1/GPa)
#
#
# Indices 1 2 3 4 5 6 
#
# 1 0.019252 -0.008063 -0.005462 0.000000 0.003269 0.000000
# 2 -0.008063 0.012659 -0.000690 0.000000 -0.000719 0.000000
# 3 -0.005462 -0.000690 0.019734 0.000000 -0.005399 0.000000
# 4 0.000000 0.000000 0.000000 0.400313 0.000000 0.032994
# 5 0.003269 -0.000719 -0.005399 0.000000 0.040091 0.000000
# 6 0.000000 0.000000 0.000000 0.032994 0.000000 0.044767
#
#
# Mechanical properties :
#
#
# Convention : Reuss Voigt Hill
#
# Bulk Modulus (GPa) = 43.07105 49.43726 46.25415
# Shear Modulus (GPa) = 8.72624 21.11584 14.92104
#
# Velocity S-wave (km/s) = 2.32336 3.61416 3.03810
# Velocity P-wave (km/s) = 5.81728 6.92804 6.39682
#
# Compressibility (1/GPa) = 0.02321745
#
# Stress axis : x y z
#
# Youngs Moduli (GPa) = 51.94137 78.99399 50.67304
#
# Poissons Ratio (x) = 0.63693 0.27676
# Poissons Ratio (y) = 0.41881 0.03494
# Poissons Ratio (z) = 0.28368 0.05448
#
# Static dielectric constant tensor:
#      x y z
#    x 1.552820 0.000000 0.018370 
#    y 0.000000 1.585800 0.000000 
#    z 0.018370 0.000000 1.551620 
# 
# From -- ./inp_files/96748.got.cif
#   From: 2010.05.17/outbox.cif.g08.bks.cpg/sg12_49_cif.got.tgz:96748.got - 2010.06.03 13:09:07.
