data_PCOD9177806
_publ_section_title
;
Structure prediction by ZEFSAII (Michael W. Deem and Ramdas Pophale) SiO2 
 PCOD9177806
Probable space group: C 2/M
;
_chemical_formula_sum "Si O2"
_cell_formula_units_Z 60
_cell_length_a 32.337391
_cell_length_b 16.901160
_cell_length_c 25.346368
_cell_angle_alpha 90.000000
_cell_angle_beta 161.407954
_cell_angle_gamma 90.000000
_cell_volume 4416.653401
_symmetry_space_group_name_H-M "C 2/M"
_symmetry_group_IT_number 12
_symmetry_cell_setting 'monoclinic'
loop_
_space_group_symop_operation_xyz
x,y,z
-x,y,-z
-x,-y,-z
x,-y,z
1/2+x,1/2+y,z
1/2-x,1/2+y,-z
1/2-x,1/2-y,-z
1/2+x,1/2-y,z
loop_
_atom_site_type_symbol
_atom_site_label
_atom_site_fract_x
_atom_site_fract_y
_atom_site_fract_z
Si Si1 0.718430 0.906650 0.436859
Si Si2 0.600585 0.819804 0.394786
Si Si3 0.512182 0.319803 0.217984
Si Si4 0.254255 0.405490 0.874836
Si Si5 0.274972 0.593953 0.774973
Si Si6 0.870307 0.266535 0.740612
Si Si7 0.486904 0.094510 0.607482
Si Si8 0.000000 0.795084 0.000000
O O1 0.645492 0.878772 0.402222
O O2 0.658728 0.853685 0.317458
O O3 0.867970 0.878771 0.624699
O O4 0.708705 0.000000 0.417409
O O5 0.518266 0.750001 0.268268
O O6 0.732658 0.778997 0.575453
O O7 0.530380 0.862932 0.357611
O O8 0.547064 0.278997 0.204270
O O9 0.375917 0.362931 0.048689
O O10 0.267431 0.500000 0.897441
O O11 0.257422 0.390306 0.815917
O O12 0.117386 0.381355 0.734772
O O13 0.305380 0.500000 0.805381
O O14 0.140431 0.609694 0.581941
O O15 0.388187 0.647963 0.888186
O O16 0.940567 0.257345 0.881133
O O17 0.492586 0.000000 0.622592
#
# Coordination Sequence:
#
# PCOD9177806 Si02
#       8
#     8   8   8   8   8   8   8   4
#     4   9  17  30  47  65  89 114 140 177 222 264
#     4   9  17  30  45  65  88 114 146 176 212 256
#     4   9  17  30  45  65  88 114 146 176 212 256
#     4  10  19  30  43  62  90 120 146 175 211 250
#     4  10  20  30  43  64  89 117 145 175 215 259
#     4   9  18  29  45  67  87 112 141 180 224 254
#     4  10  19  30  43  62  90 120 146 175 211 250
#     4  12  17  30  49  64  86 114 140 188 215 254
#
# _framework density 13.584946
#
# number of rings (size 3 to 8) (size 9 to 14) (size 15 to 20)
#    0.000    2.400    2.667    3.000    0.000    2.133 
#    0.000    0.333    0.000    0.000    0.000    0.000 
#    0.000    0.000    0.000    6.933    0.000    0.000 
#
# Total GULP energy -167178.726152 kJ/mol
# GULP energy per Si atom -5572.624205 kJ/mol
# Density = 1.355403 g / cm^3
# Si number density = 13.584946 Si / 1000 Ang^3
#
#
#
# Elastic Constant Matrix: (Units=GPa)
#
#
# Indices 1 2 3 4 5 6 
#
# 1 101.9773 56.7175 76.8882 -0.0002 -4.0196 -0.0001
# 2 56.7175 89.1899 56.7118 -0.0001 -1.2150 -0.0001
# 3 76.8882 56.7118 101.9147 -0.0001 -3.8527 -0.0001
# 4 -0.0002 -0.0001 -0.0001 21.9300 -0.0003 -0.6235
# 5 -4.0196 -1.2150 -3.8527 -0.0003 27.8354 -0.0002
# 6 -0.0001 -0.0001 -0.0001 -0.6235 -0.0002 21.9369
#
#
#
# Elastic Compliance Matrix: (Units=1/GPa)
#
#
# Indices 1 2 3 4 5 6 
#
# 1 0.024669 -0.005983 -0.015237 0.000000 0.001192 0.000000
# 2 -0.005983 0.018812 -0.005987 0.000000 -0.000872 0.000000
# 3 -0.015237 -0.005987 0.024675 0.000000 0.000954 0.000000
# 4 0.000000 0.000000 0.000000 0.045636 0.000000 0.001297
# 5 0.001192 -0.000872 0.000954 0.000000 0.036192 0.000000
# 6 0.000000 0.000000 0.000000 0.001297 0.000000 0.045622
#
#
# Mechanical properties :
#
#
# Convention : Reuss Voigt Hill
#
# Bulk Modulus (GPa) = 72.77049 74.85745 73.81397
# Shear Modulus (GPa) = 19.63865 21.19142 20.41503
#
# Velocity S-wave (km/s) = 3.80625 3.95387 3.88076
# Velocity P-wave (km/s) = 8.54401 8.72164 8.63328
#
# Compressibility (1/GPa) = 0.01374183
#
# Stress axis : x y z
#
# Youngs Moduli (GPa) = 40.53741 53.15806 40.52668
#
# Poissons Ratio (x) = 0.31803 0.61749
# Poissons Ratio (y) = 0.24252 0.24265
# Poissons Ratio (z) = 0.61766 0.31828
#
# Static dielectric constant tensor:
#      x y z
#    x 1.434100 0.000000 -0.002960 
#    y 0.000000 1.425020 0.000000 
#    z -0.002960 0.000000 1.434070 
# 
# From -- ./inp_files/347386.got.cif
#   From: 2010.05.17/outbox.cif.g08.bks.cpg/sg12_174_cif.got.tgz:347386.got - 2010.06.03 13:09:07.
