data_PCOD9177317
_publ_section_title
;
Structure prediction by ZEFSAII (Michael W. Deem and Ramdas Pophale) SiO2 
 PCOD9177317
Probable space group: C 2/M
;
_chemical_formula_sum "Si O2"
_cell_formula_units_Z 56
_cell_length_a 34.121483
_cell_length_b 7.617548
_cell_length_c 21.958866
_cell_angle_alpha 90.000000
_cell_angle_beta 147.656683
_cell_angle_gamma 90.000000
_cell_volume 3053.512297
_symmetry_space_group_name_H-M "C 2/M"
_symmetry_group_IT_number 12
_symmetry_cell_setting 'monoclinic'
loop_
_space_group_symop_operation_xyz
x,y,z
-x,y,-z
-x,-y,-z
x,-y,z
1/2+x,1/2+y,z
1/2-x,1/2+y,-z
1/2-x,1/2-y,-z
1/2+x,1/2-y,z
loop_
_atom_site_type_symbol
_atom_site_label
_atom_site_fract_x
_atom_site_fract_y
_atom_site_fract_z
Si Si1 0.419369 0.705037 0.404943
Si Si2 0.878866 0.708719 0.487546
Si Si3 0.853671 0.208678 0.087461
Si Si4 0.739651 0.214610 0.577126
Si Si5 0.511689 0.711983 0.257662
Si Si6 0.304484 0.287720 0.156055
Si Si7 0.129245 0.796669 0.322680
O O1 0.500000 0.783573 0.500000
O O2 0.424910 0.500000 0.394818
O O3 0.398146 0.714976 0.447579
O O4 0.356051 0.777872 0.278033
O O5 0.876169 0.500000 0.476798
O O6 0.800951 0.766418 0.414069
O O7 0.940537 0.749421 0.619234
O O8 0.835808 0.276786 0.132011
O O9 0.929356 0.278206 0.159275
O O10 0.863991 0.000000 0.107520
O O11 0.780629 0.237408 0.952472
O O12 0.822018 0.274779 0.669262
O O13 0.686582 0.285852 0.454314
O O14 0.738169 0.000000 0.571391
O O15 0.510164 0.500000 0.249672
O O16 0.556004 0.781213 0.256691
O O17 0.305420 0.500000 0.156218
O O18 0.114154 0.000000 0.288389
#
# Coordination Sequence:
#
# PCOD9177317 Si02
#       7
#     8   8   8   8   8   8   8
#     4  10  20  34  49  63  84 114 145 176 209 251
#     4  10  19  28  41  64  92 118 143 175 214 252
#     4   9  17  30  47  65  85 108 137 175 213 249
#     4   8  14  24  36  55  85 114 138 169 209 248
#     4   9  16  27  44  65  88 116 147 175 208 252
#     4   9  18  31  46  63  83 110 140 170 210 254
#     4   8  13  22  38  58  81 111 143 171 202 247
#
# _framework density 18.339535000000001
#
# number of rings (size 3 to 8) (size 9 to 14) (size 15 to 20)
#    0.000    3.000    0.000    1.286    0.000    4.286 
#    0.000    2.857    0.000    0.000    0.000    1.000 
#    0.000    8.000    0.000    0.000    0.000    0.000 
#
# Total GULP energy -155881.087265 kJ/mol
# GULP energy per Si atom -5567.181688 kJ/mol
# Density = 1.829779 g / cm^3
# Si number density = 18.339535 Si / 1000 Ang^3
#
#
#
# Elastic Constant Matrix: (Units=GPa)
#
#
# Indices 1 2 3 4 5 6 
#
# 1 146.4822 -7.0804 73.1734 0.0000 35.6591 0.0000
# 2 -7.0804 35.6804 -5.0700 -0.0001 3.5212 0.0000
# 3 73.1734 -5.0700 89.6835 0.0000 22.6292 0.0000
# 4 0.0000 -0.0001 0.0000 13.4645 0.0000 -4.8120
# 5 35.6591 3.5212 22.6292 0.0000 29.1383 0.0000
# 6 0.0000 0.0000 0.0000 -4.8120 0.0000 -30.2302
#
#
#
# Elastic Compliance Matrix: (Units=1/GPa)
#
#
# Indices 1 2 3 4 5 6 
#
# 1 0.013709 0.002577 -0.008368 0.000000 -0.010590 0.000000
# 2 0.002577 0.029545 0.001573 0.000000 -0.007945 0.000000
# 3 -0.008368 0.001573 0.019316 0.000000 -0.004950 0.000000
# 4 0.000000 0.000000 0.000000 0.070272 0.000000 -0.011186
# 5 -0.010590 -0.007945 -0.004950 0.000000 0.052084 0.000000
# 6 0.000000 0.000000 0.000000 -0.011186 0.000000 -0.031299
#
#
# Mechanical properties :
#
#
# Convention : Reuss Voigt Hill
#
# Bulk Modulus (GPa) = 18.47287 43.76581 31.11934
# Shear Modulus (GPa) = 27.76105 16.52940 22.14522
#
# Velocity S-wave (km/s) = 3.89489 3.00542 3.47870
# Velocity P-wave (km/s) = 5.50649 5.99662 5.75677
#
# Compressibility (1/GPa) = 0.05413344
#
# Stress axis : x y z
#
# Youngs Moduli (GPa) = 72.94283 33.84617 51.77144
#
# Poissons Ratio (x) = -0.08721 0.43321
# Poissons Ratio (y) = -0.18794 -0.08142
# Poissons Ratio (z) = 0.61037 -0.05323
#
# Static dielectric constant tensor:
#      x y z
#    x 1.697990 0.000000 0.035330 
#    y 0.000000 1.695220 0.000000 
#    z 0.035330 0.000000 1.599920 
# 
# From -- ./inp_files/295154.got.cif
#   From: 2010.05.17/outbox.cif.g08.bks.cpg/sg12_148_cif.got.tgz:295154.got - 2010.06.03 13:09:07.
