data_PCOD9177989
_publ_section_title
;
Structure prediction by ZEFSAII (Michael W. Deem and Ramdas Pophale) SiO2 
 PCOD9177989
Probable space group: C 2/M
;
_chemical_formula_sum "Si O2"
_cell_formula_units_Z 48
_cell_length_a 28.108509
_cell_length_b 8.785400
_cell_length_c 12.234777
_cell_angle_alpha 90.000000
_cell_angle_beta 109.089503
_cell_angle_gamma 90.000000
_cell_volume 2855.165455
_symmetry_space_group_name_H-M "C 2/M"
_symmetry_group_IT_number 12
_symmetry_cell_setting 'monoclinic'
loop_
_space_group_symop_operation_xyz
x,y,z
-x,y,-z
-x,-y,-z
x,-y,z
1/2+x,1/2+y,z
1/2-x,1/2+y,-z
1/2-x,1/2-y,-z
1/2+x,1/2-y,z
loop_
_atom_site_type_symbol
_atom_site_label
_atom_site_fract_x
_atom_site_fract_y
_atom_site_fract_z
Si Si1 0.304905 0.818337 0.524520
Si Si2 0.571363 0.181222 0.758376
Si Si3 0.375716 0.319654 0.396717
Si Si4 0.967066 0.179248 0.630258
Si Si5 0.105264 0.682763 0.248206
Si Si6 0.945846 0.315644 0.007337
O O1 0.250000 0.750000 0.500000
O O2 0.331941 0.756126 0.435706
O O3 0.341982 0.779381 0.654295
O O4 0.301968 0.000000 0.516150
O O5 0.614517 0.254357 0.716076
O O6 0.517851 0.225559 0.665007
O O7 0.567290 0.238068 0.880787
O O8 0.577482 0.000000 0.763091
O O9 0.367710 0.500000 0.386936
O O10 0.427152 0.291373 0.504102
O O11 0.937411 0.229084 0.716618
O O12 0.979280 0.000000 0.639159
O O13 0.097157 0.500000 0.255717
O O14 0.096639 0.718786 0.114840
O O15 0.949714 0.500000 0.018018
O O16 0.000000 0.263265 0.000000
#
# Coordination Sequence:
#
# PCOD9177989 Si02
#       6
#     8   8   8   8   8   8
#     4  10  20  35  58  81 100 125 162 208 258 306
#     4  11  20  30  48  71 100 138 173 205 243 294
#     4  10  21  35  49  70 102 133 166 209 254 297
#     4  10  19  30  45  68 101 137 168 205 248 290
#     4   9  17  32  52  74  99 132 171 205 243 296
#     4   9  16  29  49  72 101 136 172 207 239 282
#
# _framework density 16.811634000000002
#
# number of rings (size 3 to 8) (size 9 to 14) (size 15 to 20)
#    0.000    2.167    1.667    2.500    0.000    4.667 
#    0.000    2.500    0.000    1.000    0.000    0.000 
#    0.000    0.000    0.000    0.000    0.000    0.000 
#
# Total GULP energy -133843.446534 kJ/mol
# GULP energy per Si atom -5576.810272 kJ/mol
# Density = 1.677337 g / cm^3
# Si number density = 16.811634 Si / 1000 Ang^3
#
#
#
# Elastic Constant Matrix: (Units=GPa)
#
#
# Indices 1 2 3 4 5 6 
#
# 1 110.3718 40.5359 66.9371 0.0000 -13.3799 0.0000
# 2 40.5359 28.7967 39.7375 0.0000 -10.3053 0.0000
# 3 66.9371 39.7375 110.6476 0.0000 -27.8801 0.0000
# 4 0.0000 0.0000 0.0000 14.9366 0.0000 -6.5527
# 5 -13.3799 -10.3053 -27.8801 0.0000 17.9915 0.0000
# 6 0.0000 0.0000 0.0000 -6.5527 0.0000 27.6730
#
#
#
# Elastic Compliance Matrix: (Units=1/GPa)
#
#
# Indices 1 2 3 4 5 6 
#
# 1 0.020075 -0.022940 -0.005668 0.000000 -0.006994 0.000000
# 2 -0.022940 0.095095 -0.017797 0.000000 0.009830 0.000000
# 3 -0.005668 -0.017797 0.024982 0.000000 0.024304 0.000000
# 4 0.000000 0.000000 0.000000 0.074711 0.000000 0.017691
# 5 -0.006994 0.009830 0.024304 0.000000 0.093672 0.000000
# 6 0.000000 0.000000 0.000000 0.017691 0.000000 0.040325
#
#
# Mechanical properties :
#
#
# Convention : Reuss Voigt Hill
#
# Bulk Modulus (GPa) = 21.12339 60.47080 40.79710
# Shear Modulus (GPa) = 10.93008 18.96058 14.94533
#
# Velocity S-wave (km/s) = 2.55257 3.36195 2.98482
# Velocity P-wave (km/s) = 4.61297 7.14969 6.01654
#
# Compressibility (1/GPa) = 0.04734088
#
# Stress axis : x y z
#
# Youngs Moduli (GPa) = 49.81255 10.51580 40.02818
#
# Poissons Ratio (x) = 0.24123 0.22690
# Poissons Ratio (y) = 1.14270 0.71240
# Poissons Ratio (z) = 0.28236 0.18715
#
# Static dielectric constant tensor:
#      x y z
#    x 1.543900 0.000000 -0.001300 
#    y 0.000000 1.561480 0.000000 
#    z -0.001300 0.000000 1.602120 
# 
# From -- ./inp_files/172079.got.cif
#   From: 2010.05.17/outbox.cif.g08.bks.cpg/sg12_87_cif.got.tgz:172079.got - 2010.06.03 13:09:07.
