data_PCOD9177906
_publ_section_title
;
Structure prediction by ZEFSAII (Michael W. Deem and Ramdas Pophale) SiO2 
 PCOD9177906
Probable space group: C 2/M
;
_chemical_formula_sum "Si O2"
_cell_formula_units_Z 64
_cell_length_a 32.817093
_cell_length_b 8.923566
_cell_length_c 16.453979
_cell_angle_alpha 90.000000
_cell_angle_beta 69.190414
_cell_angle_gamma 90.000000
_cell_volume 4504.146532
_symmetry_space_group_name_H-M "C 2/M"
_symmetry_group_IT_number 12
_symmetry_cell_setting 'monoclinic'
loop_
_space_group_symop_operation_xyz
x,y,z
-x,y,-z
-x,-y,-z
x,-y,z
1/2+x,1/2+y,z
1/2-x,1/2+y,-z
1/2-x,1/2-y,-z
1/2+x,1/2-y,z
loop_
_atom_site_type_symbol
_atom_site_label
_atom_site_fract_x
_atom_site_fract_y
_atom_site_fract_z
Si Si1 0.336069 0.321500 0.317854
Si Si2 0.240171 0.679136 0.310982
Si Si3 0.707118 0.320528 0.489138
Si Si4 0.403799 0.319474 0.984751
Si Si5 0.819173 0.321186 0.966498
Si Si6 0.410529 0.822679 0.158694
Si Si7 0.735539 0.678815 0.137246
Si Si8 0.999653 0.828041 0.098904
O O1 0.343475 0.500000 0.303499
O O2 0.289507 0.287916 0.307688
O O3 0.330321 0.288504 0.417987
O O4 0.374207 0.232344 0.247299
O O5 0.235502 0.500000 0.312767
O O6 0.206875 0.749469 0.400162
O O7 0.234239 0.748660 0.226686
O O8 0.711722 0.500000 0.480673
O O9 0.750000 0.250000 0.500000
O O10 0.401778 0.500000 0.989965
O O11 0.364098 0.253192 0.962088
O O12 0.451359 0.278876 0.914380
O O13 0.401701 0.255752 0.077898
O O14 0.823707 0.500000 0.955080
O O15 0.799938 0.250581 0.897910
O O16 0.782495 0.292053 0.061705
O O17 0.458797 0.772013 0.152420
O O18 0.408815 0.000000 0.148990
O O19 0.729700 0.500000 0.145928
O O20 0.992629 0.000000 0.130264
O O21 0.000000 0.828760 0.000000
#
# Coordination Sequence:
#
# PCOD9177906 Si02
#       8
#     8   8   8   8   8   8   8   8
#     4   9  18  30  43  60  85 116 145 173 209 255
#     4  10  19  30  45  63  84 113 146 179 214 251
#     4   9  17  29  44  61  82 110 142 176 213 252
#     4  10  19  31  46  61  82 114 146 175 212 257
#     4  10  20  32  46  64  85 110 143 183 218 246
#     4  11  20  27  41  64  87 112 143 179 213 247
#     4  10  20  32  45  62  86 115 145 177 213 253
#     4   8  16  30  44  58  80 111 142 172 209 253
#
# _framework density 14.209128
#
# number of rings (size 3 to 8) (size 9 to 14) (size 15 to 20)
#    0.000    2.375    0.000    5.250    0.000    9.250 
#    0.000    0.000    0.000    0.000    0.000    0.000 
#    0.000    1.000    0.000   10.500    0.000    5.000 
#
# Total GULP energy -178373.964308 kJ/mol
# GULP energy per Si atom -5574.186385 kJ/mol
# Density = 1.417679 g / cm^3
# Si number density = 14.209128 Si / 1000 Ang^3
#
#
#
# Elastic Constant Matrix: (Units=GPa)
#
#
# Indices 1 2 3 4 5 6 
#
# 1 100.5511 50.8093 47.9837 0.0000 -2.8173 0.0000
# 2 50.8093 73.0437 56.0538 0.0000 -4.4271 0.0000
# 3 47.9837 56.0538 105.9387 0.0000 5.1470 0.0000
# 4 0.0000 0.0000 0.0000 23.6392 0.0000 1.4912
# 5 -2.8173 -4.4271 5.1470 0.0000 18.7284 0.0000
# 6 0.0000 0.0000 0.0000 1.4912 0.0000 22.2352
#
#
#
# Elastic Compliance Matrix: (Units=1/GPa)
#
#
# Indices 1 2 3 4 5 6 
#
# 1 0.015657 -0.009031 -0.002355 0.000000 0.000868 0.000000
# 2 -0.009031 0.029829 -0.012131 0.000000 0.009026 0.000000
# 3 -0.002355 -0.012131 0.017313 0.000000 -0.007980 0.000000
# 4 0.000000 0.000000 0.000000 0.042482 0.000000 -0.002849
# 5 0.000868 0.009026 -0.007980 0.000000 0.057852 0.000000
# 6 0.000000 0.000000 0.000000 -0.002849 0.000000 0.045165
#
#
# Mechanical properties :
#
#
# Convention : Reuss Voigt Hill
#
# Bulk Modulus (GPa) = 63.43636 65.46969 64.45302
# Shear Modulus (GPa) = 19.18749 21.23301 20.21025
#
# Velocity S-wave (km/s) = 3.67872 3.86984 3.77549
# Velocity P-wave (km/s) = 7.92374 8.13286 8.02898
#
# Compressibility (1/GPa) = 0.01576383
#
# Stress axis : x y z
#
# Youngs Moduli (GPa) = 63.86975 33.52484 57.76126
#
# Poissons Ratio (x) = 0.30276 0.13605
# Poissons Ratio (y) = 0.57679 0.70070
# Poissons Ratio (z) = 0.15044 0.40669
#
# Static dielectric constant tensor:
#      x y z
#    x 1.464060 0.000000 -0.006090 
#    y 0.000000 1.469260 0.000000 
#    z -0.006090 0.000000 1.469140 
# 
# From -- ./inp_files/243884.got.cif
#   From: 2010.05.17/outbox.cif.g08.bks.cpg/sg12_122_cif.got.tgz:243884.got - 2010.06.03 13:09:07.
