data_PCOD9177540
_publ_section_title
;
Structure prediction by ZEFSAII (Michael W. Deem and Ramdas Pophale) SiO2 
 PCOD9177540
Probable space group: C 2/M
;
_chemical_formula_sum "Si O2"
_cell_formula_units_Z 48
_cell_length_a 20.085971
_cell_length_b 7.610455
_cell_length_c 16.454619
_cell_angle_alpha 90.000000
_cell_angle_beta 75.184555
_cell_angle_gamma 90.000000
_cell_volume 2431.685942
_symmetry_space_group_name_H-M "C 2/M"
_symmetry_group_IT_number 12
_symmetry_cell_setting 'monoclinic'
loop_
_space_group_symop_operation_xyz
x,y,z
-x,y,-z
-x,-y,-z
x,-y,z
1/2+x,1/2+y,z
1/2-x,1/2+y,-z
1/2-x,1/2-y,-z
1/2+x,1/2-y,z
loop_
_atom_site_type_symbol
_atom_site_label
_atom_site_fract_x
_atom_site_fract_y
_atom_site_fract_z
Si Si1 0.933209 0.791731 0.783940
Si Si2 0.201030 0.785154 0.263805
Si Si3 0.561938 0.293372 0.035308
Si Si4 0.274788 0.789478 0.402197
Si Si5 0.659865 0.211815 0.866028
Si Si6 0.587315 0.211893 0.723606
O O1 0.872120 0.721788 0.746445
O O2 0.931892 0.717750 0.876296
O O3 0.010422 0.768494 0.727509
O O4 0.920036 0.000000 0.794403
O O5 0.223757 0.725851 0.346645
O O6 0.263285 0.734886 0.183687
O O7 0.200272 0.000000 0.266360
O O8 0.546337 0.500000 0.050565
O O9 0.500000 0.216080 0.000000
O O10 0.630442 0.276456 0.960227
O O11 0.250000 0.750000 0.500000
O O12 0.351766 0.726753 0.355173
O O13 0.277023 0.000000 0.394099
O O14 0.609763 0.269846 0.807580
O O15 0.658505 0.000000 0.868084
O O16 0.587703 0.000000 0.724164
#
# Coordination Sequence:
#
# PCOD9177540 Si02
#       6
#     8   8   8   8   8   8
#     4  10  19  32  50  70  98 134 164 196 240 284
#     4   8  17  34  52  71  97 128 162 199 239 285
#     4  10  19  29  43  70 103 129 162 206 242 273
#     4   9  18  35  57  77  96 121 157 199 240 289
#     4   9  17  31  50  68  91 130 172 202 233 280
#     4   9  18  32  50  72  98 126 159 199 240 284
#
# _framework density 19.739391999999999
#
# number of rings (size 3 to 8) (size 9 to 14) (size 15 to 20)
#    0.000    2.833    1.667    2.000    0.000    2.333 
#    0.000    5.000    0.000    5.000    0.000    0.000 
#    0.000    0.000    0.000    0.000    0.000    0.000 
#
# Total GULP energy -133846.445961 kJ/mol
# GULP energy per Si atom -5576.935248 kJ/mol
# Density = 1.969446 g / cm^3
# Si number density = 19.739392 Si / 1000 Ang^3
#
#
#
# Elastic Constant Matrix: (Units=GPa)
#
#
# Indices 1 2 3 4 5 6 
#
# 1 189.6874 1.5573 88.5895 0.0000 4.4750 0.0000
# 2 1.5573 35.3852 -2.3017 0.0000 6.8776 0.0000
# 3 88.5895 -2.3017 149.6153 0.0000 -3.6216 0.0000
# 4 0.0000 0.0000 0.0000 20.8051 0.0000 -8.0750
# 5 4.4750 6.8776 -3.6216 0.0000 16.3419 0.0000
# 6 0.0000 0.0000 0.0000 -8.0750 0.0000 15.5459
#
#
#
# Elastic Compliance Matrix: (Units=1/GPa)
#
#
# Indices 1 2 3 4 5 6 
#
# 1 0.007433 -0.000032 -0.004475 0.000000 -0.003013 0.000000
# 2 -0.000032 0.030782 0.000180 0.000000 -0.012906 0.000000
# 3 -0.004475 0.000180 0.009414 0.000000 0.003236 0.000000
# 4 0.000000 0.000000 0.000000 0.060202 0.000000 0.031271
# 5 -0.003013 -0.012906 0.003236 0.000000 0.068166 0.000000
# 6 0.000000 0.000000 0.000000 0.031271 0.000000 0.080569
#
#
# Mechanical properties :
#
#
# Convention : Reuss Voigt Hill
#
# Bulk Modulus (GPa) = 25.65683 61.15310 43.40496
# Shear Modulus (GPa) = 17.97193 29.66144 23.81668
#
# Velocity S-wave (km/s) = 3.02066 3.88061 3.47732
# Velocity P-wave (km/s) = 5.01914 7.15027 6.17730
#
# Compressibility (1/GPa) = 0.03897598
#
# Stress axis : x y z
#
# Youngs Moduli (GPa) = 134.53586 32.48647 106.22031
#
# Poissons Ratio (x) = 0.00106 0.47529
# Poissons Ratio (y) = 0.00437 -0.01916
# Poissons Ratio (z) = 0.60200 -0.00586
#
# Static dielectric constant tensor:
#      x y z
#    x 1.705970 0.000000 0.002230 
#    y 0.000000 1.772490 0.000000 
#    z 0.002230 0.000000 1.679810 
# 
# From -- ./inp_files/222419.got.cif
#   From: 2010.05.17/outbox.cif.g08.bks.cpg/sg12_112_cif.got.tgz:222419.got - 2010.06.03 13:09:07.
