data_PCOD9177974
_publ_section_title
;
Structure prediction by ZEFSAII (Michael W. Deem and Ramdas Pophale) SiO2 
 PCOD9177974
Probable space group: C 2/M
;
_chemical_formula_sum "Si O2"
_cell_formula_units_Z 48
_cell_length_a 20.999557
_cell_length_b 7.356713
_cell_length_c 20.020369
_cell_angle_alpha 90.000000
_cell_angle_beta 129.965511
_cell_angle_gamma 90.000000
_cell_volume 2370.495942
_symmetry_space_group_name_H-M "C 2/M"
_symmetry_group_IT_number 12
_symmetry_cell_setting 'monoclinic'
loop_
_space_group_symop_operation_xyz
x,y,z
-x,y,-z
-x,-y,-z
x,-y,z
1/2+x,1/2+y,z
1/2-x,1/2+y,-z
1/2-x,1/2-y,-z
1/2+x,1/2-y,z
loop_
_atom_site_type_symbol
_atom_site_label
_atom_site_fract_x
_atom_site_fract_y
_atom_site_fract_z
Si Si1 0.715167 0.783085 0.549689
Si Si2 0.905082 0.222057 0.929525
Si Si3 0.135434 0.720857 0.733942
Si Si4 0.971821 0.721859 0.555328
Si Si5 0.240820 0.216598 0.071953
Si Si6 0.717648 0.720557 0.267554
O O1 0.750000 0.750000 0.500000
O O2 0.620954 0.714347 0.492582
O O3 0.771823 0.715952 0.649431
O O4 0.710585 0.000000 0.555526
O O5 0.843728 0.280660 0.948519
O O6 0.859734 0.279567 0.830181
O O7 0.906450 0.000000 0.930798
O O8 0.000000 0.282742 0.000000
O O9 0.132722 0.500000 0.733545
O O10 0.180424 0.783612 0.831807
O O11 0.198509 0.769015 0.716428
O O12 0.042909 0.782451 0.654734
O O13 0.970766 0.500000 0.555960
O O14 0.000000 0.773643 0.500000
O O15 0.239715 0.000000 0.079850
O O16 0.250000 0.250000 0.000000
O O17 0.713679 0.500000 0.265077
#
# Coordination Sequence:
#
# PCOD9177974 Si02
#       6
#     8   8   8   8   8   8
#     4  10  19  30  45  67  94 118 141 178 225 265
#     4   8  14  26  45  66  85 111 150 186 213 251
#     4   8  13  24  44  68  86 107 148 192 217 241
#     4   9  14  24  46  70  85 106 150 193 214 244
#     4   9  17  29  46  67  92 116 141 181 226 261
#     4   8  13  24  43  64  84 110 147 187 217 244
#
# _framework density 20.248927999999999
#
# number of rings (size 3 to 8) (size 9 to 14) (size 15 to 20)
#    0.000    3.333    1.667    2.000    0.000    0.000 
#    3.000    0.000    0.000    5.000    0.000    0.000 
#    0.000    0.000    0.000    0.000    0.000    0.000 
#
# Total GULP energy -133815.845416 kJ/mol
# GULP energy per Si atom -5575.660226 kJ/mol
# Density = 2.020284 g / cm^3
# Si number density = 20.248928 Si / 1000 Ang^3
#
#
#
# Elastic Constant Matrix: (Units=GPa)
#
#
# Indices 1 2 3 4 5 6 
#
# 1 145.1032 1.9789 130.2793 0.0000 4.4694 0.0000
# 2 1.9789 72.0647 5.1707 0.0000 4.3189 0.0001
# 3 130.2793 5.1707 224.2955 0.0000 0.9135 0.0000
# 4 0.0000 0.0000 0.0000 -0.5614 0.0000 -15.8345
# 5 4.4694 4.3189 0.9135 0.0000 40.7691 0.0000
# 6 0.0000 0.0001 0.0000 -15.8345 0.0000 3.5501
#
#
#
# Elastic Compliance Matrix: (Units=1/GPa)
#
#
# Indices 1 2 3 4 5 6 
#
# 1 0.014488 0.000292 -0.008416 0.000000 -0.001431 0.000000
# 2 0.000292 0.013993 -0.000486 0.000000 -0.001503 0.000000
# 3 -0.008416 -0.000486 0.009355 0.000000 0.000765 0.000000
# 4 0.000000 0.000000 0.000000 -0.014048 0.000000 -0.062655
# 5 -0.001431 -0.001503 0.000765 0.000000 0.024827 0.000000
# 6 0.000000 0.000000 0.000000 -0.062655 0.000000 0.002221
#
#
# Mechanical properties :
#
#
# Convention : Reuss Voigt Hill
#
# Bulk Modulus (GPa) = 48.50660 79.59124 64.04892
# Shear Modulus (GPa) = 66.72903 29.02053 47.87478
#
# Velocity S-wave (km/s) = 5.74682 3.78985 4.86769
# Velocity P-wave (km/s) = 8.24874 7.65130 7.95563
#
# Compressibility (1/GPa) = 0.02061575
#
# Stress axis : x y z
#
# Youngs Moduli (GPa) = 69.02253 71.46234 106.89614
#
# Poissons Ratio (x) = -0.02085 0.89965
# Poissons Ratio (y) = -0.02014 0.05194
# Poissons Ratio (z) = 0.58090 0.03473
#
# Static dielectric constant tensor:
#      x y z
#    x 1.678080 0.000000 0.001180 
#    y 0.000000 1.801080 0.000000 
#    z 0.001180 0.000000 1.736630 
# 
# From -- ./inp_files/250922.got.cif
#   From: 2010.05.17/outbox.cif.g08.bks.cpg/sg12_126_cif.got.tgz:250922.got - 2010.06.03 13:09:07.
