data_PCOD9177208
_publ_section_title
;
Structure prediction by ZEFSAII (Michael W. Deem and Ramdas Pophale) SiO2 
 PCOD9177208
Probable space group: C 2/M
;
_chemical_formula_sum "Si O2"
_cell_formula_units_Z 32
_cell_length_a 13.979776
_cell_length_b 19.123912
_cell_length_c 10.820452
_cell_angle_alpha 90.000000
_cell_angle_beta 149.237086
_cell_angle_gamma 90.000000
_cell_volume 1479.642381
_symmetry_space_group_name_H-M "C 2/M"
_symmetry_group_IT_number 12
_symmetry_cell_setting 'monoclinic'
loop_
_space_group_symop_operation_xyz
x,y,z
-x,y,-z
-x,-y,-z
x,-y,z
1/2+x,1/2+y,z
1/2-x,1/2+y,-z
1/2-x,1/2-y,-z
1/2+x,1/2-y,z
loop_
_atom_site_type_symbol
_atom_site_label
_atom_site_fract_x
_atom_site_fract_y
_atom_site_fract_z
Si Si1 0.435786 0.757778 0.627339
Si Si2 0.261345 0.358798 0.029850
Si Si3 0.355308 0.500000 0.722651
Si Si4 0.603307 0.500000 0.744024
Si Si5 0.280717 0.362053 0.764036
O O1 0.250000 0.750000 0.500000
O O2 0.549608 0.686090 0.736504
O O3 0.349836 0.797673 0.414928
O O4 0.587056 0.808431 0.860432
O O5 0.273155 0.430582 0.113847
O O6 0.249880 0.379970 0.872432
O O7 0.463294 0.500000 0.710675
O O8 0.248648 0.427259 0.634264
O O9 0.500000 0.500000 0.000000
O O10 0.500000 0.500000 0.500000
O O11 0.500000 0.342443 0.000000
#
# Coordination Sequence:
#
# PCOD9177208 Si02
#       5
#     8   8   4   4   8
#     4  11  23  40  64  99 137 174 230 288 342 411
#     4  11  24  42  66  96 135 185 227 283 347 407
#     4  10  18  39  71  91 134 181 220 285 337 395
#     4  12  24  43  65 103 143 178 231 293 349 413
#     4  11  19  39  70  96 127 177 236 276 340 402
#
# _framework density 21.626847000000001
#
# number of rings (size 3 to 8) (size 9 to 14) (size 15 to 20)
#    0.000    1.000    7.500    0.750    0.000    5.000 
#    0.000    3.750    0.000    6.000    0.000    0.000 
#    0.000    0.000    0.000    0.000    0.000    0.000 
#
# Total GULP energy -89358.315453 kJ/mol
# GULP energy per Si atom -5584.894716 kJ/mol
# Density = 2.157762 g / cm^3
# Si number density = 21.626847 Si / 1000 Ang^3
#
#
#
# Elastic Constant Matrix: (Units=GPa)
#
#
# Indices 1 2 3 4 5 6 
#
# 1 78.6522 4.9658 24.3274 0.0000 10.2792 0.0000
# 2 4.9658 128.6315 40.1801 0.0000 11.7615 0.0000
# 3 24.3274 40.1801 85.2792 0.0000 11.6550 0.0000
# 4 0.0000 0.0000 0.0000 26.5545 0.0000 -12.4282
# 5 10.2792 11.7615 11.6550 0.0000 49.6955 0.0000
# 6 0.0000 0.0000 0.0000 -12.4282 0.0000 13.9772
#
#
#
# Elastic Compliance Matrix: (Units=1/GPa)
#
#
# Indices 1 2 3 4 5 6 
#
# 1 0.014244 0.000968 -0.004221 0.000000 -0.002186 0.000000
# 2 0.000968 0.009250 -0.004451 0.000000 -0.001346 0.000000
# 3 -0.004221 -0.004451 0.015253 0.000000 -0.001651 0.000000
# 4 0.000000 0.000000 0.000000 0.064501 0.000000 0.057353
# 5 -0.002186 -0.001346 -0.001651 0.000000 0.021280 0.000000
# 6 0.000000 0.000000 0.000000 0.057353 0.000000 0.122543
#
#
# Mechanical properties :
#
#
# Convention : Reuss Voigt Hill
#
# Bulk Modulus (GPa) = 42.84334 47.94550 45.39442
# Shear Modulus (GPa) = 18.50085 32.91807 25.70946
#
# Velocity S-wave (km/s) = 2.92799 3.90563 3.45160
# Velocity P-wave (km/s) = 5.59322 6.52351 6.07620
#
# Compressibility (1/GPa) = 0.02334085
#
# Stress axis : x y z
#
# Youngs Moduli (GPa) = 70.20365 108.10790 65.56153
#
# Poissons Ratio (x) = -0.10470 0.27674
# Poissons Ratio (y) = -0.06799 0.29179
# Poissons Ratio (z) = 0.29633 0.48114
#
# Static dielectric constant tensor:
#      x y z
#    x 1.883150 0.000000 -0.024900 
#    y 0.000000 1.890770 0.000000 
#    z -0.024900 0.000000 1.810260 
# 
# From -- ./inp_files/145968.got.cif
#   From: 2010.05.17/outbox.cif.g08.bks.cpg/sg12_73_cif.got.tgz:145968.got - 2010.06.03 13:09:07.
