data_PCOD9177678
_publ_section_title
;
Structure prediction by ZEFSAII (Michael W. Deem and Ramdas Pophale) SiO2 
 PCOD9177678
Probable space group: C 2/M
;
_chemical_formula_sum "Si O2"
_cell_formula_units_Z 64
_cell_length_a 33.479248
_cell_length_b 13.600738
_cell_length_c 9.384759
_cell_angle_alpha 90.000000
_cell_angle_beta 97.188331
_cell_angle_gamma 90.000000
_cell_volume 4239.692347
_symmetry_space_group_name_H-M "C 2/M"
_symmetry_group_IT_number 12
_symmetry_cell_setting 'monoclinic'
loop_
_space_group_symop_operation_xyz
x,y,z
-x,y,-z
-x,-y,-z
x,-y,z
1/2+x,1/2+y,z
1/2-x,1/2+y,-z
1/2-x,1/2-y,-z
1/2+x,1/2-y,z
loop_
_atom_site_type_symbol
_atom_site_label
_atom_site_fract_x
_atom_site_fract_y
_atom_site_fract_z
Si Si1 0.081142 0.619182 0.374319
Si Si2 0.257230 0.212992 0.661850
Si Si3 0.997372 0.619671 0.834569
Si Si4 0.258418 0.111555 0.135745
Si Si5 0.800935 0.887255 0.158305
Si Si6 0.844709 0.303677 0.094926
Si Si7 0.841266 0.381854 0.776008
Si Si8 0.921769 0.619124 0.297707
O O1 0.079355 0.500000 0.375597
O O2 0.123064 0.644642 0.317213
O O3 0.078430 0.650861 0.537251
O O4 0.043124 0.652900 0.263425
O O5 0.250000 0.250000 0.500000
O O6 0.259192 0.308282 0.765053
O O7 0.219978 0.149324 0.705887
O O8 0.298170 0.151769 0.697234
O O9 0.996308 0.500000 0.836346
O O10 0.036929 0.647400 0.763040
O O11 0.000000 0.652195 0.000000
O O12 0.304967 0.137745 0.130037
O O13 0.254503 0.000000 0.186276
O O14 0.234624 0.119356 0.976105
O O15 0.834364 0.809804 0.123002
O O16 0.814195 0.000000 0.172312
O O17 0.883690 0.338515 0.197222
O O18 0.848768 0.329242 0.930416
O O19 0.841530 0.500000 0.798242
O O20 0.919212 0.500000 0.293025
#
# Coordination Sequence:
#
# PCOD9177678 Si02
#       8
#     8   8   8   8   8   8   8   8
#     4   9  19  30  43  66  99 134 160 193 238 286
#     4  11  22  33  48  71  98 129 164 206 249 294
#     4   9  16  29  46  66  94 130 165 193 231 286
#     4  10  19  34  52  68  92 126 168 207 245 287
#     4  10  20  37  54  68  93 129 168 211 253 289
#     4  11  19  32  50  73  92 123 166 204 241 289
#     4  11  20  32  48  69  99 131 166 203 243 287
#     4  10  19  29  46  71 100 130 160 196 238 286
#
# _framework density 15.095435
#
# number of rings (size 3 to 8) (size 9 to 14) (size 15 to 20)
#    0.000    1.875    2.500    3.375    3.500    4.500 
#    0.000    0.000    0.000    0.000    0.000    0.000 
#    0.000    7.500    0.000    0.000    0.000    0.250 
#
# Total GULP energy -178506.930350 kJ/mol
# GULP energy per Si atom -5578.341573 kJ/mol
# Density = 1.506108 g / cm^3
# Si number density = 15.095435 Si / 1000 Ang^3
#
#
#
# Elastic Constant Matrix: (Units=GPa)
#
#
# Indices 1 2 3 4 5 6 
#
# 1 87.2009 22.6862 51.5805 0.0000 -17.7454 0.0000
# 2 22.6862 69.0836 25.1609 0.0000 -12.4461 0.0000
# 3 51.5805 25.1609 121.2675 0.0000 -14.4353 0.0000
# 4 0.0000 0.0000 0.0000 15.3331 0.0000 0.6676
# 5 -17.7454 -12.4461 -14.4353 0.0000 22.4151 0.0000
# 6 0.0000 0.0000 0.0000 0.6676 0.0000 16.8707
#
#
#
# Elastic Compliance Matrix: (Units=1/GPa)
#
#
# Indices 1 2 3 4 5 6 
#
# 1 0.017240 -0.001935 -0.005886 0.000000 0.008784 0.000000
# 2 -0.001935 0.017011 -0.001911 0.000000 0.006683 0.000000
# 3 -0.005886 -0.001911 0.011334 0.000000 0.001578 0.000000
# 4 0.000000 0.000000 0.000000 0.065331 0.000000 -0.002585
# 5 0.008784 0.006683 0.001578 0.000000 0.056294 0.000000
# 6 0.000000 0.000000 0.000000 -0.002585 0.000000 0.059377
#
#
# Mechanical properties :
#
#
# Convention : Reuss Voigt Hill
#
# Bulk Modulus (GPa) = 38.28345 52.93414 45.60880
# Shear Modulus (GPa) = 19.62654 22.79875 21.21265
#
# Velocity S-wave (km/s) = 3.60969 3.89048 3.75271
# Velocity P-wave (km/s) = 6.54134 7.43798 7.00403
#
# Compressibility (1/GPa) = 0.02612095
#
# Stress axis : x y z
#
# Youngs Moduli (GPa) = 58.00338 58.78689 88.22897
#
# Poissons Ratio (x) = 0.11377 0.51931
# Poissons Ratio (y) = 0.11226 0.16858
# Poissons Ratio (z) = 0.34141 0.11233
#
# Static dielectric constant tensor:
#      x y z
#    x 1.489200 0.000000 -0.009450 
#    y 0.000000 1.490520 0.000000 
#    z -0.009450 0.000000 1.506640 
# 
# From -- ./inp_files/111268.got.cif
#   From: 2010.05.17/outbox.cif.g08.bks.cpg/sg12_56_cif.got.tgz:111268.got - 2010.06.03 13:09:07.
