data_PCOD9177715
_publ_section_title
;
Structure prediction by ZEFSAII (Michael W. Deem and Ramdas Pophale) SiO2 
 PCOD9177715
Probable space group: C 2/M
;
_chemical_formula_sum "Si O2"
_cell_formula_units_Z 40
_cell_length_a 24.903087
_cell_length_b 9.194836
_cell_length_c 12.960639
_cell_angle_alpha 90.000000
_cell_angle_beta 58.614521
_cell_angle_gamma 90.000000
_cell_volume 2533.495435
_symmetry_space_group_name_H-M "C 2/M"
_symmetry_group_IT_number 12
_symmetry_cell_setting 'monoclinic'
loop_
_space_group_symop_operation_xyz
x,y,z
-x,y,-z
-x,-y,-z
x,-y,z
1/2+x,1/2+y,z
1/2-x,1/2+y,-z
1/2-x,1/2-y,-z
1/2+x,1/2-y,z
loop_
_atom_site_type_symbol
_atom_site_label
_atom_site_fract_x
_atom_site_fract_y
_atom_site_fract_z
Si Si1 0.207143 0.826075 0.400822
Si Si2 0.662809 0.673178 0.669118
Si Si3 0.337773 0.826400 0.984882
Si Si4 0.692967 0.673200 0.186912
Si Si5 0.573447 0.174850 0.915125
O O1 0.272519 0.741914 0.351984
O O2 0.165004 0.798694 0.543837
O O3 0.177663 0.786368 0.320038
O O4 0.220982 0.000000 0.383631
O O5 0.662820 0.500000 0.685046
O O6 0.605742 0.747061 0.786203
O O7 0.343776 0.752296 0.867662
O O8 0.341852 0.000000 0.968833
O O9 0.267308 0.792963 0.096415
O O10 0.388002 0.781297 0.020709
O O11 0.685449 0.500000 0.182647
O O12 0.580468 0.000000 0.896694
O O13 0.500000 0.208201 0.000000
#
# Coordination Sequence:
#
# PCOD9177715 Si02
#       5
#     8   8   8   8   8
#     4   9  17  31  48  69  99 129 154 188 239 291
#     4  10  19  29  47  73  98 123 157 199 237 277
#     4   9  17  29  45  68  94 120 156 195 231 277
#     4   9  16  28  47  68  95 124 149 189 237 283
#     4  10  20  35  52  67  93 132 164 193 234 283
#
# _framework density 15.788463
#
# number of rings (size 3 to 8) (size 9 to 14) (size 15 to 20)
#    0.000    2.600    2.000    0.600    0.000    2.800 
#    0.000    0.000    0.000    1.200    0.000    8.400 
#    0.000    0.000    0.000    0.000    0.000    0.000 
#
# Total GULP energy -111444.747758 kJ/mol
# GULP energy per Si atom -5572.237388 kJ/mol
# Density = 1.575253 g / cm^3
# Si number density = 15.788463 Si / 1000 Ang^3
#
#
#
# Elastic Constant Matrix: (Units=GPa)
#
#
# Indices 1 2 3 4 5 6 
#
# 1 73.1656 32.7413 62.6967 0.0000 9.2679 0.0000
# 2 32.7413 28.3735 55.5677 0.0000 2.9931 0.0000
# 3 62.6967 55.5677 144.5232 0.0000 17.6366 0.0000
# 4 0.0000 0.0000 0.0000 27.9464 0.0000 3.8563
# 5 9.2679 2.9931 17.6366 0.0000 28.3362 0.0000
# 6 0.0000 0.0000 0.0000 3.8563 0.0000 19.1497
#
#
#
# Elastic Compliance Matrix: (Units=1/GPa)
#
#
# Indices 1 2 3 4 5 6 
#
# 1 0.029681 -0.040748 0.003734 0.000000 -0.007728 0.000000
# 2 -0.040748 0.210730 -0.067374 0.000000 0.033002 0.000000
# 3 0.003734 -0.067374 0.032990 0.000000 -0.014638 0.000000
# 4 0.000000 0.000000 0.000000 0.036806 0.000000 -0.007412
# 5 -0.007728 0.033002 -0.014638 0.000000 0.043443 0.000000
# 6 0.000000 0.000000 0.000000 -0.007412 0.000000 0.053713
#
#
# Mechanical properties :
#
#
# Convention : Reuss Voigt Hill
#
# Bulk Modulus (GPa) = 15.47352 60.89709 38.18530
# Shear Modulus (GPa) = 7.84091 21.42357 14.63224
#
# Velocity S-wave (km/s) = 2.23092 3.68763 3.04759
# Velocity P-wave (km/s) = 4.05682 7.53564 6.05160
#
# Compressibility (1/GPa) = 0.06462653
#
# Stress axis : x y z
#
# Youngs Moduli (GPa) = 33.69108 4.74540 30.31187
#
# Poissons Ratio (x) = 0.19336 -0.11318
# Poissons Ratio (y) = 1.37284 2.04223
# Poissons Ratio (z) = -0.12580 0.31972
#
# Static dielectric constant tensor:
#      x y z
#    x 1.503430 0.000000 0.021840 
#    y 0.000000 1.528280 0.000000 
#    z 0.021840 0.000000 1.539870 
# 
# From -- ./inp_files/93666.got.cif
#   From: 2010.05.17/outbox.cif.g08.bks.cpg/sg12_47_cif.got.tgz:93666.got - 2010.06.03 13:09:07.
