data_PCOD9177493
_publ_section_title
;
Structure prediction by ZEFSAII (Michael W. Deem and Ramdas Pophale) SiO2 
 PCOD9177493
Probable space group: C 2/M
;
_chemical_formula_sum "Si O2"
_cell_formula_units_Z 64
_cell_length_a 24.354984
_cell_length_b 7.604578
_cell_length_c 18.810613
_cell_angle_alpha 90.000000
_cell_angle_beta 87.882495
_cell_angle_gamma 90.000000
_cell_volume 3481.522911
_symmetry_space_group_name_H-M "C 2/M"
_symmetry_group_IT_number 12
_symmetry_cell_setting 'monoclinic'
loop_
_space_group_symop_operation_xyz
x,y,z
-x,y,-z
-x,-y,-z
x,-y,z
1/2+x,1/2+y,z
1/2-x,1/2+y,-z
1/2-x,1/2-y,-z
1/2+x,1/2-y,z
loop_
_atom_site_type_symbol
_atom_site_label
_atom_site_fract_x
_atom_site_fract_y
_atom_site_fract_z
Si Si1 0.303964 0.798469 0.757579
Si Si2 0.821597 0.214956 0.221412
Si Si3 0.687310 0.285785 0.934110
Si Si4 0.380602 0.293315 0.625583
Si Si5 0.686001 0.288979 0.506513
Si Si6 0.815782 0.797017 0.913459
Si Si7 0.499814 0.285227 0.583318
Si Si8 0.385207 0.715250 0.356753
O O1 0.241517 0.724200 0.761305
O O2 0.346114 0.721070 0.699237
O O3 0.326629 0.789549 0.837051
O O4 0.297854 0.000000 0.736602
O O5 0.838512 0.265196 0.140253
O O6 0.862249 0.272655 0.281551
O O7 0.819849 0.000000 0.221968
O O8 0.690165 0.500000 0.936768
O O9 0.749738 0.217455 0.925565
O O10 0.662908 0.227575 0.011253
O O11 0.386778 0.500000 0.610610
O O12 0.345591 0.219203 0.561353
O O13 0.442796 0.224232 0.621325
O O14 0.614547 0.500000 0.644439
O O15 0.750000 0.250000 0.500000
O O16 0.657100 0.226982 0.579931
O O17 0.831858 0.000000 0.905826
O O18 0.500000 0.234005 0.500000
O O19 0.501969 0.500000 0.583794
O O20 0.554259 0.226766 0.622231
O O21 0.180617 0.000000 0.507019
#
# Coordination Sequence:
#
# PCOD9177493 Si02
#       8
#     8   8   8   8   8   8   8   8
#     4  10  19  30  43  62  91 120 146 179 221 270
#     4   8  14  24  39  61  88 116 144 173 210 259
#     4   8  14  24  38  60  91 122 148 175 212 260
#     4  10  19  30  45  65  87 112 147 188 223 255
#     4  10  19  29  43  64  90 118 146 175 211 259
#     4   9  15  24  40  61  87 119 151 180 211 254
#     4   9  15  27  45  64  84 109 145 188 224 254
#     4   9  15  25  43  64  85 112 145 179 216 256
#
# _framework density 18.382760000000001
#
# number of rings (size 3 to 8) (size 9 to 14) (size 15 to 20)
#    0.000    2.875    1.250    2.250    0.000    2.000 
#    0.000    0.000    0.000    1.125    0.000    0.875 
#    0.000    7.000    0.000    0.000    0.000    0.000 
#
# Total GULP energy -178240.932379 kJ/mol
# GULP energy per Si atom -5570.029137 kJ/mol
# Density = 1.834092 g / cm^3
# Si number density = 18.382760 Si / 1000 Ang^3
#
#
#
# Elastic Constant Matrix: (Units=GPa)
#
#
# Indices 1 2 3 4 5 6 
#
# 1 110.3581 1.1394 71.7028 0.0000 22.8691 0.0000
# 2 1.1394 34.1563 -3.1681 0.0000 2.7184 0.0000
# 3 71.7028 -3.1681 157.5612 0.0000 30.5043 0.0000
# 4 0.0000 0.0000 0.0000 5.7173 0.0000 -2.2999
# 5 22.8691 2.7184 30.5043 0.0000 11.2290 0.0000
# 6 0.0000 0.0000 0.0000 -2.2999 0.0000 9.6722
#
#
#
# Elastic Compliance Matrix: (Units=1/GPa)
#
#
# Indices 1 2 3 4 5 6 
#
# 1 0.016060 0.001527 -0.001844 0.000000 -0.028070 0.000000
# 2 0.001527 0.031388 0.004239 0.000000 -0.022223 0.000000
# 3 -0.001844 0.004239 0.014223 0.000000 -0.035909 0.000000
# 4 0.000000 0.000000 0.000000 0.193408 0.000000 0.045990
# 5 -0.028070 -0.022223 -0.035909 0.000000 0.249150 0.000000
# 6 0.000000 0.000000 0.000000 0.045990 0.000000 0.114325
#
#
# Mechanical properties :
#
#
# Convention : Reuss Voigt Hill
#
# Bulk Modulus (GPa) = 14.38523 49.04709 31.71616
# Shear Modulus (GPa) = 7.88790 20.81715 14.35253
#
# Velocity S-wave (km/s) = 2.07370 3.36881 2.79724
# Velocity P-wave (km/s) = 3.68457 6.47076 5.26530
#
# Compressibility (1/GPa) = 0.06951575
#
# Stress axis : x y z
#
# Youngs Moduli (GPa) = 62.26551 31.85928 70.30838
#
# Poissons Ratio (x) = -0.04866 0.12962
# Poissons Ratio (y) = -0.09509 -0.29801
# Poissons Ratio (z) = 0.11479 -0.13504
#
# Static dielectric constant tensor:
#      x y z
#    x 1.609490 0.000000 0.016100 
#    y 0.000000 1.695740 0.000000 
#    z 0.016100 0.000000 1.664750 
# 
# From -- ./inp_files/287666.got.cif
#   From: 2010.05.17/outbox.cif.g08.bks.cpg/sg12_144_cif.got.tgz:287666.got - 2010.06.03 13:09:07.
