data_PCOD9177643
_publ_section_title
;
Structure prediction by ZEFSAII (Michael W. Deem and Ramdas Pophale) SiO2 
 PCOD9177643
Probable space group: C 2/M
;
_chemical_formula_sum "Si O2"
_cell_formula_units_Z 56
_cell_length_a 26.063835
_cell_length_b 7.471543
_cell_length_c 26.689314
_cell_angle_alpha 90.000000
_cell_angle_beta 34.390334
_cell_angle_gamma 90.000000
_cell_volume 2935.635222
_symmetry_space_group_name_H-M "C 2/M"
_symmetry_group_IT_number 12
_symmetry_cell_setting 'monoclinic'
loop_
_space_group_symop_operation_xyz
x,y,z
-x,y,-z
-x,-y,-z
x,-y,z
1/2+x,1/2+y,z
1/2-x,1/2+y,-z
1/2-x,1/2-y,-z
1/2+x,1/2-y,z
loop_
_atom_site_type_symbol
_atom_site_label
_atom_site_fract_x
_atom_site_fract_y
_atom_site_fract_z
Si Si1 0.090461 0.284613 0.711247
Si Si2 0.919576 0.281537 0.395215
Si Si3 0.730786 0.786047 0.094763
Si Si4 0.893100 0.285891 0.897655
Si Si5 0.117295 0.718425 0.278491
Si Si6 0.211984 0.287713 0.411284
Si Si7 0.896968 0.718613 0.596790
O O1 0.086244 0.500000 0.712691
O O2 0.095602 0.220680 0.649436
O O3 0.181540 0.238974 0.667241
O O4 0.996129 0.219870 0.811589
O O5 0.918018 0.500000 0.395416
O O6 0.843396 0.218609 0.495737
O O7 0.018951 0.230440 0.335472
O O8 0.665069 0.716816 0.103130
O O9 0.694422 0.721139 0.177419
O O10 0.720253 0.000000 0.103782
O O11 0.833312 0.750223 0.994932
O O12 0.896761 0.500000 0.889489
O O13 0.118026 0.500000 0.278906
O O14 0.126578 0.778933 0.328183
O O15 0.194862 0.500000 0.424606
O O16 0.169785 0.218932 0.393438
O O17 0.895222 0.500000 0.599028
O O18 0.000000 0.769524 0.500000
#
# Coordination Sequence:
#
# PCOD9177643 Si02
#       7
#     8   8   8   8   8   8   8
#     4  10  19  31  46  64  92 129 156 177 218 276
#     4   9  15  26  44  67  94 122 150 180 218 269
#     4   9  16  27  46  70  91 113 144 187 232 267
#     4   9  17  29  45  65  90 119 150 182 222 274
#     4   9  14  24  45  70  94 117 146 184 227 271
#     4  10  19  29  45  70  95 120 153 189 220 257
#     4   9  15  25  44  70  94 117 149 189 226 260
#
# _framework density 19.075941
#
# number of rings (size 3 to 8) (size 9 to 14) (size 15 to 20)
#    0.000    2.714    2.857    0.429    0.000    0.571 
#    0.000    0.000    0.000    3.000    0.000    6.000 
#    0.000    0.000    0.000    0.000    0.000    0.000 
#
# Total GULP energy -156218.994163 kJ/mol
# GULP energy per Si atom -5579.249792 kJ/mol
# Density = 1.903252 g / cm^3
# Si number density = 19.075941 Si / 1000 Ang^3
#
#
#
# Elastic Constant Matrix: (Units=GPa)
#
#
# Indices 1 2 3 4 5 6 
#
# 1 148.6384 1.2753 107.8610 0.0007 -2.7219 0.0040
# 2 1.2753 51.7103 -1.0579 0.0007 3.0310 0.0019
# 3 107.8610 -1.0579 182.0997 0.0013 9.8029 0.0079
# 4 0.0007 0.0007 0.0013 10.7427 0.0003 -7.9055
# 5 -2.7219 3.0310 9.8029 0.0003 26.0073 -0.0009
# 6 0.0040 0.0019 0.0079 -7.9055 -0.0009 -2.0756
#
#
#
# Elastic Compliance Matrix: (Units=1/GPa)
#
#
# Indices 1 2 3 4 5 6 
#
# 1 0.012236 -0.000700 -0.007477 -0.000001 0.004180 -0.000002
# 2 -0.000700 0.019522 0.000668 0.000004 -0.002600 0.000006
# 3 -0.007477 0.000668 0.010177 0.000005 -0.004696 0.000008
# 4 -0.000001 0.000004 0.000005 0.024478 -0.000006 -0.093232
# 5 0.004180 -0.002600 -0.004696 -0.000006 0.040961 -0.000007
# 6 -0.000002 0.000006 0.000008 -0.093232 -0.000007 -0.126691
#
#
# Mechanical properties :
#
#
# Convention : Reuss Voigt Hill
#
# Bulk Modulus (GPa) = 37.15073 66.51168 51.83120
# Shear Modulus (GPa) = 1070.20754 25.22621 547.71687
#
# Velocity S-wave (km/s) = 23.71166 3.64044 16.96313
# Velocity P-wave (km/s) = 27.73399 7.25347 20.27051
#
# Compressibility (1/GPa) = 0.02691737
#
# Stress axis : x y z
#
# Youngs Moduli (GPa) = 81.72798 51.22469 98.26399
#
# Poissons Ratio (x) = 0.03584 0.73467
# Poissons Ratio (y) = 0.05719 -0.06562
# Poissons Ratio (z) = 0.61104 -0.03421
#
# Static dielectric constant tensor:
#      x y z
#    x 1.634890 -0.000030 0.012800 
#    y -0.000030 1.665010 0.000040 
#    z 0.012800 0.000040 1.669460 
# 
# From -- ./inp_files/173847.got.cif
#   From: 2010.05.17/outbox.cif.g08.bks.cpg/sg12_87_cif.got.tgz:173847.got - 2010.06.03 13:09:07.
