data_PCOD9177216
_publ_section_title
;
Structure prediction by ZEFSAII (Michael W. Deem and Ramdas Pophale) SiO2 
 PCOD9177216
Probable space group: C 2/M
;
_chemical_formula_sum "Si O2"
_cell_formula_units_Z 52
_cell_length_a 21.999027
_cell_length_b 18.825788
_cell_length_c 15.825503
_cell_angle_alpha 90.000000
_cell_angle_beta 154.757573
_cell_angle_gamma 90.000000
_cell_volume 2794.997693
_symmetry_space_group_name_H-M "C 2/M"
_symmetry_group_IT_number 12
_symmetry_cell_setting 'monoclinic'
loop_
_space_group_symop_operation_xyz
x,y,z
-x,y,-z
-x,-y,-z
x,-y,z
1/2+x,1/2+y,z
1/2-x,1/2+y,-z
1/2-x,1/2-y,-z
1/2+x,1/2-y,z
loop_
_atom_site_type_symbol
_atom_site_label
_atom_site_fract_x
_atom_site_fract_y
_atom_site_fract_z
Si Si1 0.878174 0.799156 0.418010
Si Si2 0.269961 0.832841 0.052097
Si Si3 0.982695 0.083383 0.663689
Si Si4 0.700824 0.580272 0.396569
Si Si5 0.441514 0.806844 0.654258
Si Si6 0.366298 0.274217 0.970477
Si Si7 0.500000 0.374293 0.000000
O O1 0.895210 0.875288 0.482631
O O2 0.894041 0.742297 0.515105
O O3 0.727062 0.789649 0.183262
O O4 0.000000 0.788781 0.500000
O O5 0.138667 0.880325 0.857124
O O6 0.250000 0.750000 0.000000
O O7 0.424322 0.852474 0.212385
O O8 0.245448 0.824837 0.120562
O O9 0.904620 0.094036 0.656263
O O10 0.993499 0.000000 0.662952
O O11 0.759259 0.500000 0.481239
O O12 0.818649 0.642109 0.535118
O O13 0.608840 0.582490 0.194876
O O14 0.509474 0.756072 0.812451
O O15 0.423961 0.321709 0.968925
#
# Coordination Sequence:
#
# PCOD9177216 Si02
#       7
#     8   8   8   8   8   8   4
#     4  12  21  38  66  94 124 158 209 266 308 369
#     4  10  18  40  62  89 122 161 207 258 305 364
#     4  11  24  42  63  90 130 172 205 252 317 377
#     4  11  25  42  61  90 131 171 207 255 314 375
#     4  11  22  40  64  91 130 159 207 262 317 360
#     4  11  22  34  63  98 119 157 212 262 312 360
#     4  12  21  36  64  90 119 160 216 262 301 370
#
# _framework density 18.604666000000002
#
# number of rings (size 3 to 8) (size 9 to 14) (size 15 to 20)
#    0.000    0.923    7.692    1.154    2.154    2.154 
#    0.000    0.769    0.000    3.231    0.000    0.000 
#    0.000    0.000    0.000    0.000    0.000    0.000 
#
# Total GULP energy -145031.883989 kJ/mol
# GULP energy per Si atom -5578.149384 kJ/mol
# Density = 1.856232 g / cm^3
# Si number density = 18.604666 Si / 1000 Ang^3
#
#
#
# Elastic Constant Matrix: (Units=GPa)
#
#
# Indices 1 2 3 4 5 6 
#
# 1 63.9642 24.8410 2.5134 0.0000 0.6888 0.0000
# 2 24.8410 105.6843 31.6923 0.0000 7.1130 0.0000
# 3 2.5134 31.6923 69.9505 0.0000 -6.8689 0.0000
# 4 0.0000 0.0000 0.0000 23.9625 0.0000 1.5157
# 5 0.6888 7.1130 -6.8689 0.0000 32.7760 0.0000
# 6 0.0000 0.0000 0.0000 1.5157 0.0000 25.6114
#
#
#
# Elastic Compliance Matrix: (Units=1/GPa)
#
#
# Indices 1 2 3 4 5 6 
#
# 1 0.017353 -0.004612 0.001560 0.000000 0.000963 0.000000
# 2 -0.004612 0.012580 -0.005914 0.000000 -0.003873 0.000000
# 3 0.001560 -0.005914 0.017400 0.000000 0.004897 0.000000
# 4 0.000000 0.000000 0.000000 0.041889 0.000000 -0.002479
# 5 0.000963 -0.003873 0.004897 0.000000 0.032357 0.000000
# 6 0.000000 0.000000 0.000000 -0.002479 0.000000 0.039192
#
#
# Mechanical properties :
#
#
# Convention : Reuss Voigt Hill
#
# Bulk Modulus (GPa) = 34.01058 39.74359 36.87708
# Shear Modulus (GPa) = 26.52485 28.50680 27.51582
#
# Velocity S-wave (km/s) = 3.77995 3.91863 3.84992
# Velocity P-wave (km/s) = 6.11319 6.47169 6.29499
#
# Compressibility (1/GPa) = 0.02940262
#
# Stress axis : x y z
#
# Youngs Moduli (GPa) = 57.62691 79.48937 57.47047
#
# Poissons Ratio (x) = 0.36657 -0.08968
# Poissons Ratio (y) = 0.26575 0.33990
# Poissons Ratio (z) = -0.08992 0.47012
#
# Static dielectric constant tensor:
#      x y z
#    x 2.190670 0.000000 0.136910 
#    y 0.000000 1.634720 0.000000 
#    z 0.136910 0.000000 1.713360 
# 
# From -- ./inp_files/234495.got.cif
#   From: 2010.05.17/outbox.cif.g08.bks.cpg/sg12_118_cif.got.tgz:234495.got - 2010.06.03 13:09:07.
