data_PCOD9177248
_publ_section_title
;
Structure prediction by ZEFSAII (Michael W. Deem and Ramdas Pophale) SiO2 
 PCOD9177248
Probable space group: C 2/M
;
_chemical_formula_sum "Si O2"
_cell_formula_units_Z 52
_cell_length_a 17.877477
_cell_length_b 13.971482
_cell_length_c 15.441375
_cell_angle_alpha 90.000000
_cell_angle_beta 33.056905
_cell_angle_gamma 90.000000
_cell_volume 2103.811916
_symmetry_space_group_name_H-M "C 2/M"
_symmetry_group_IT_number 12
_symmetry_cell_setting 'monoclinic'
loop_
_space_group_symop_operation_xyz
x,y,z
-x,y,-z
-x,-y,-z
x,-y,z
1/2+x,1/2+y,z
1/2-x,1/2+y,-z
1/2-x,1/2-y,-z
1/2+x,1/2-y,z
loop_
_atom_site_type_symbol
_atom_site_label
_atom_site_fract_x
_atom_site_fract_y
_atom_site_fract_z
Si Si1 0.925686 0.115354 0.788227
Si Si2 0.025932 0.391906 0.748634
Si Si3 0.287906 0.884453 0.861049
Si Si4 0.797542 0.391337 0.123705
Si Si5 0.651088 0.114775 0.385887
Si Si6 0.360019 0.297809 0.305179
Si Si7 0.000000 0.754590 0.000000
O O1 0.848348 0.142120 0.774052
O O2 0.073077 0.148806 0.677723
O O3 0.923649 0.000000 0.789808
O O4 0.822592 0.152128 0.963564
O O5 0.078098 0.500000 0.686487
O O6 0.132773 0.313317 0.676063
O O7 0.938883 0.358356 0.749504
O O8 0.905969 0.395959 0.938522
O O9 0.262458 0.864234 0.785644
O O10 0.287099 0.000000 0.868728
O O11 0.785473 0.500000 0.169902
O O12 0.870578 0.317972 0.115822
O O13 0.500000 0.142001 0.500000
O O14 0.719079 0.163941 0.402538
O O15 0.650638 0.000000 0.400773
O O16 0.464045 0.311123 0.122081
#
# Coordination Sequence:
#
# PCOD9177248 Si02
#       7
#     8   8   8   8   8   8   4
#     4   9  17  29  46  70  98 125 153 188 228 270
#     4   8  16  30  47  68  93 124 157 185 219 269
#     4   8  15  30  50  69  93 124 154 185 225 275
#     4   8  15  28  44  66 100 133 156 181 219 271
#     4  10  21  36  51  67  90 120 154 194 238 282
#     4  11  20  29  47  72  97 123 153 191 232 274
#     4  10  19  26  43  74 100 126 154 184 224 270
#
# _framework density 24.717037999999999
#
# number of rings (size 3 to 8) (size 9 to 14) (size 15 to 20)
#    0.000    2.923    0.000    3.462    0.000    7.385 
#    0.000    3.846    0.000    0.462    0.000    0.000 
#    0.000    0.000    0.000    0.000    0.000    0.000 
#
# Total GULP energy -145323.292085 kJ/mol
# GULP energy per Si atom -5589.357388 kJ/mol
# Density = 2.466078 g / cm^3
# Si number density = 24.717038 Si / 1000 Ang^3
#
#
#
# Elastic Constant Matrix: (Units=GPa)
#
#
# Indices 1 2 3 4 5 6 
#
# 1 110.2585 36.9816 23.6469 0.0000 -47.0473 0.0000
# 2 36.9816 85.6747 22.7738 0.0000 -39.1778 0.0000
# 3 23.6469 22.7738 71.6146 0.0001 -29.5439 0.0000
# 4 0.0000 0.0000 0.0001 16.0108 0.0000 -18.6726
# 5 -47.0473 -39.1778 -29.5439 0.0000 55.1235 0.0000
# 6 0.0000 0.0000 0.0000 -18.6726 0.0000 42.7055
#
#
#
# Elastic Compliance Matrix: (Units=1/GPa)
#
#
# Indices 1 2 3 4 5 6 
#
# 1 0.014319 -0.000891 0.000431 0.000000 0.011819 0.000000
# 2 -0.000891 0.017364 -0.000578 0.000000 0.011271 0.000000
# 3 0.000431 -0.000578 0.017958 0.000000 0.009582 0.000000
# 4 0.000000 0.000000 0.000000 0.127447 0.000000 0.055725
# 5 0.011819 0.011271 0.009582 0.000000 0.041375 0.000000
# 6 0.000000 0.000000 0.000000 0.055725 0.000000 0.047782
#
#
# Mechanical properties :
#
#
# Convention : Reuss Voigt Hill
#
# Bulk Modulus (GPa) = 21.02334 48.26139 34.64237
# Shear Modulus (GPa) = 17.59472 35.04433 26.31953
#
# Velocity S-wave (km/s) = 2.67094 3.76948 3.26672
# Velocity P-wave (km/s) = 4.24688 6.20591 5.31739
#
# Compressibility (1/GPa) = 0.04756618
#
# Stress axis : x y z
#
# Youngs Moduli (GPa) = 69.83655 57.58905 55.68554
#
# Poissons Ratio (x) = 0.05130 -0.02400
# Poissons Ratio (y) = 0.06220 0.03218
# Poissons Ratio (z) = -0.03010 0.03328
#
# Static dielectric constant tensor:
#      x y z
#    x 1.980740 0.000000 0.011000 
#    y 0.000000 1.939010 0.000000 
#    z 0.011000 0.000000 2.037540 
# 
# From -- ./inp_files/155397.got.cif
#   From: 2010.05.17/outbox.cif.g08.bks.cpg/sg12_78_cif.got.tgz:155397.got - 2010.06.03 13:09:07.
