data_PCOD9177130
_publ_section_title
;
Structure prediction by ZEFSAII (Michael W. Deem and Ramdas Pophale) SiO2 
 PCOD9177130
Probable space group: C 2/M
;
_chemical_formula_sum "Si O2"
_cell_formula_units_Z 48
_cell_length_a 15.360059
_cell_length_b 20.036474
_cell_length_c 9.352297
_cell_angle_alpha 90.000000
_cell_angle_beta 112.323033
_cell_angle_gamma 90.000000
_cell_volume 2662.569868
_symmetry_space_group_name_H-M "C 2/M"
_symmetry_group_IT_number 12
_symmetry_cell_setting 'monoclinic'
loop_
_space_group_symop_operation_xyz
x,y,z
-x,y,-z
-x,-y,-z
x,-y,z
1/2+x,1/2+y,z
1/2-x,1/2+y,-z
1/2-x,1/2-y,-z
1/2+x,1/2-y,z
loop_
_atom_site_type_symbol
_atom_site_label
_atom_site_fract_x
_atom_site_fract_y
_atom_site_fract_z
Si Si1 0.433336 0.576429 0.594719
Si Si2 0.277750 0.785453 0.316121
Si Si3 0.442727 0.304121 0.819216
Si Si4 0.946877 0.420466 0.818004
Si Si5 0.257662 0.141423 0.597667
Si Si6 0.532422 0.812774 0.683881
O O1 0.500000 0.588551 0.500000
O O2 0.446173 0.500000 0.649114
O O3 0.454380 0.629931 0.730582
O O4 0.325432 0.589356 0.481430
O O5 0.167840 0.795475 0.215098
O O6 0.295319 0.830855 0.468412
O O7 0.287931 0.707587 0.361864
O O8 0.355076 0.803264 0.247333
O O9 0.480019 0.241828 0.749091
O O10 0.500000 0.307874 0.000000
O O11 0.941619 0.500000 0.797964
O O12 0.842716 0.388773 0.741666
O O13 0.004681 0.384503 0.728397
O O14 0.000000 0.405407 0.000000
O O15 0.500000 0.803625 0.500000
#
# Coordination Sequence:
#
# PCOD9177130 Si02
#       6
#     8   8   8   8   8   8
#     4  10  21  38  61  87 114 156 205 243 288 351
#     4  10  20  35  61  91 116 149 202 243 292 353
#     4  11  23  39  59  89 122 156 191 247 306 348
#     4  11  24  41  60  87 125 161 196 246 307 362
#     4  10  18  38  61  87 116 155 194 247 294 350
#     4  12  21  39  63  90 117 157 202 250 292 357
#
# _framework density 18.027695999999999
#
# number of rings (size 3 to 8) (size 9 to 14) (size 15 to 20)
#    0.000    1.333    3.333    4.500    0.000    1.333 
#    3.000    0.833    0.000    0.000    0.000    0.000 
#    0.000    0.000    0.000    0.000    0.000    0.000 
#
# Total GULP energy -134034.506968 kJ/mol
# GULP energy per Si atom -5584.771124 kJ/mol
# Density = 1.798666 g / cm^3
# Si number density = 18.027696 Si / 1000 Ang^3
#
#
#
# Elastic Constant Matrix: (Units=GPa)
#
#
# Indices 1 2 3 4 5 6 
#
# 1 104.9291 32.8302 35.8249 0.0000 2.5455 0.0000
# 2 32.8302 86.7644 43.5111 0.0000 2.1025 0.0000
# 3 35.8249 43.5111 113.0915 0.0000 20.1404 0.0000
# 4 0.0000 0.0000 0.0000 23.9161 0.0000 -5.4139
# 5 2.5455 2.1025 20.1404 0.0000 16.5827 0.0000
# 6 0.0000 0.0000 0.0000 -5.4139 0.0000 16.2772
#
#
#
# Elastic Compliance Matrix: (Units=1/GPa)
#
#
# Indices 1 2 3 4 5 6 
#
# 1 0.011366 -0.002924 -0.002847 0.000000 0.002083 0.000000
# 2 -0.002924 0.015551 -0.006107 0.000000 0.005894 0.000000
# 3 -0.002847 -0.006107 0.015156 0.000000 -0.017197 0.000000
# 4 0.000000 0.000000 0.000000 0.045217 0.000000 0.015039
# 5 0.002083 0.005894 -0.017197 0.000000 0.080123 0.000000
# 6 0.000000 0.000000 0.000000 0.015039 0.000000 0.066438
#
#
# Mechanical properties :
#
#
# Convention : Reuss Voigt Hill
#
# Bulk Modulus (GPa) = 54.58658 58.79083 56.68871
# Shear Modulus (GPa) = 18.96001 24.19646 21.57824
#
# Velocity S-wave (km/s) = 3.24654 3.66756 3.46345
# Velocity P-wave (km/s) = 6.66321 7.11455 6.89257
#
# Compressibility (1/GPa) = 0.01831952
#
# Stress axis : x y z
#
# Youngs Moduli (GPa) = 87.97842 64.30299 65.97937
#
# Poissons Ratio (x) = 0.18800 0.18783
# Poissons Ratio (y) = 0.25723 0.40292
# Poissons Ratio (z) = 0.25046 0.39268
#
# Static dielectric constant tensor:
#      x y z
#    x 1.635790 0.000000 0.023390 
#    y 0.000000 1.597640 0.000000 
#    z 0.023390 0.000000 1.606890 
# 
# From -- ./inp_files/63635.got.cif
#   From: 2010.05.17/outbox.cif.g08.bks.cpg/sg12_32_cif.got.tgz:63635.got - 2010.06.03 13:09:07.
