data_PCOD9177201
_publ_section_title
;
Structure prediction by ZEFSAII (Michael W. Deem and Ramdas Pophale) SiO2 
 PCOD9177201
Probable space group: C 2/M
;
_chemical_formula_sum "Si O2"
_cell_formula_units_Z 38
_cell_length_a 5.231189
_cell_length_b 23.884417
_cell_length_c 12.056697
_cell_angle_alpha 90.000000
_cell_angle_beta 77.248902
_cell_angle_gamma 90.000000
_cell_volume 1469.259773
_symmetry_space_group_name_H-M "C 2/M"
_symmetry_group_IT_number 12
_symmetry_cell_setting 'monoclinic'
loop_
_space_group_symop_operation_xyz
x,y,z
-x,y,-z
-x,-y,-z
x,-y,z
1/2+x,1/2+y,z
1/2-x,1/2+y,-z
1/2-x,1/2-y,-z
1/2+x,1/2-y,z
loop_
_atom_site_type_symbol
_atom_site_label
_atom_site_fract_x
_atom_site_fract_y
_atom_site_fract_z
Si Si1 0.069228 0.278927 0.349627
Si Si2 0.201043 0.398577 0.572429
Si Si3 0.208810 0.415752 0.823020
Si Si4 0.000000 0.500000 0.000000
Si Si5 0.056959 0.693922 0.109187
Si Si6 0.500000 0.605280 0.000000
O O1 0.839267 0.233439 0.385989
O O2 0.942318 0.338784 0.388627
O O3 0.140081 0.275965 0.212507
O O4 0.500000 0.392990 0.500000
O O5 0.226055 0.427734 0.691192
O O6 0.000000 0.424478 0.500000
O O7 0.430008 0.429092 0.894695
O O8 0.984682 0.451582 0.903766
O O9 0.179655 0.348436 0.834938
O O10 0.273833 0.648356 0.057204
O O11 0.000000 0.725592 0.000000
#
# Coordination Sequence:
#
# PCOD9177201 Si02
#       6
#     8   8   8   2   8   4
#     4  11  25  39  62  97 131 172 237 292 327 380
#     4  11  26  46  71  93 137 192 229 275 334 405
#     4  10  23  39  68 103 134 171 224 272 349 405
#     4  12  20  46  68 114 134 160 214 302 328 410
#     4   9  20  37  58  89 136 177 217 268 346 417
#     4  10  18  39  66  91 130 178 223 270 336 431
#
# _framework density 25.863361999999999
#
# number of rings (size 3 to 8) (size 9 to 14) (size 15 to 20)
#    0.000    1.684    3.158    1.263   14.737    3.789 
#    0.000    1.053    0.000    0.000    0.000    0.000 
#    0.000    0.000    0.000    0.000    0.000    0.000 
#
# Total GULP energy -105783.436438 kJ/mol
# GULP energy per Si atom -5567.549286 kJ/mol
# Density = 2.580450 g / cm^3
# Si number density = 25.863362 Si / 1000 Ang^3
#
#
#
# Elastic Constant Matrix: (Units=GPa)
#
#
# Indices 1 2 3 4 5 6 
#
# 1 111.0037 -4.5492 28.0886 0.0000 22.9481 0.0000
# 2 -4.5492 74.8964 9.1910 0.0000 -1.9948 0.0000
# 3 28.0886 9.1910 253.9683 0.0000 25.4335 0.0000
# 4 0.0000 0.0000 0.0000 25.3040 0.0000 -17.8183
# 5 22.9481 -1.9948 25.4335 0.0000 38.1096 0.0000
# 6 0.0000 0.0000 0.0000 -17.8183 0.0000 78.1623
#
#
#
# Elastic Compliance Matrix: (Units=1/GPa)
#
#
# Indices 1 2 3 4 5 6 
#
# 1 0.010385 0.000547 -0.000584 0.000000 -0.005835 0.000000
# 2 0.000547 0.013483 -0.000628 0.000000 0.000796 0.000000
# 3 -0.000584 -0.000628 0.004279 0.000000 -0.002537 0.000000
# 4 0.000000 0.000000 0.000000 0.047077 0.000000 0.010732
# 5 -0.005835 0.000796 -0.002537 0.000000 0.031488 0.000000
# 6 0.000000 0.000000 0.000000 0.010732 0.000000 0.015240
#
#
# Mechanical properties :
#
#
# Convention : Reuss Voigt Hill
#
# Bulk Modulus (GPa) = 37.28954 56.14769 46.71862
# Shear Modulus (GPa) = 37.81519 55.45770 46.63645
#
# Velocity S-wave (km/s) = 3.82791 4.63564 4.25100
# Velocity P-wave (km/s) = 5.82978 7.09990 6.49596
#
# Compressibility (1/GPa) = 0.02681717
#
# Stress axis : x y z
#
# Youngs Moduli (GPa) = 96.29056 74.16592 233.70645
#
# Poissons Ratio (x) = -0.04057 0.13649
# Poissons Ratio (y) = -0.05268 0.14680
# Poissons Ratio (z) = 0.05624 0.04659
#
# Static dielectric constant tensor:
#      x y z
#    x 2.251890 0.000000 -0.014400 
#    y 0.000000 2.007530 0.000000 
#    z -0.014400 0.000000 2.111810 
# 
# From -- ./inp_files/115474.got.cif
#   From: 2010.05.17/outbox.cif.g08.bks.cpg/sg12_58_cif.got.tgz:115474.got - 2010.06.03 13:09:07.
