data_PCOD9177903
_publ_section_title
;
Structure prediction by ZEFSAII (Michael W. Deem and Ramdas Pophale) SiO2 
 PCOD9177903
Probable space group: C 2/M
;
_chemical_formula_sum "Si O2"
_cell_formula_units_Z 48
_cell_length_a 13.900233
_cell_length_b 8.150260
_cell_length_c 18.676891
_cell_angle_alpha 90.000000
_cell_angle_beta 115.864585
_cell_angle_gamma 90.000000
_cell_volume 1903.958319
_symmetry_space_group_name_H-M "C 2/M"
_symmetry_group_IT_number 12
_symmetry_cell_setting 'monoclinic'
loop_
_space_group_symop_operation_xyz
x,y,z
-x,y,-z
-x,-y,-z
x,-y,z
1/2+x,1/2+y,z
1/2-x,1/2+y,-z
1/2-x,1/2-y,-z
1/2+x,1/2-y,z
loop_
_atom_site_type_symbol
_atom_site_label
_atom_site_fract_x
_atom_site_fract_y
_atom_site_fract_z
Si Si1 0.179591 0.692179 0.261924
Si Si2 0.547674 0.809583 0.407183
Si Si3 0.938071 0.313332 0.910945
Si Si4 0.211189 0.179841 0.913505
Si Si5 0.839521 0.805822 0.425003
Si Si6 0.887900 0.308698 0.248071
O O1 0.150688 0.500000 0.259578
O O2 0.091323 0.762795 0.177074
O O3 0.225724 0.748667 0.354595
O O4 0.293334 0.709178 0.256071
O O5 0.634965 0.718826 0.483186
O O6 0.436068 0.788841 0.416136
O O7 0.503104 0.755207 0.315138
O O8 0.579147 0.000000 0.413818
O O9 0.983148 0.500000 0.916262
O O10 0.819798 0.330815 0.904302
O O11 0.000000 0.235733 0.000000
O O12 0.130733 0.288171 0.841822
O O13 0.163787 0.000000 0.907605
O O14 0.250000 0.250000 0.000000
O O15 0.850749 0.000000 0.413665
O O16 0.874997 0.500000 0.262190
#
# Coordination Sequence:
#
# PCOD9177903 Si02
#       6
#     8   8   8   8   8   8
#     4   8  14  23  35  53  76 103 134 166 202 242
#     4   9  15  21  30  46  69  98 130 161 194 235
#     4   8  14  26  44  63  82 107 140 174 204 237
#     4  10  19  30  45  63  84 110 139 171 206 245
#     4   9  14  19  29  46  70  99 129 160 194 236
#     4   9  16  25  37  53  75 103 134 167 202 241
#
# _framework density 25.210636000000001
#
# number of rings (size 3 to 8) (size 9 to 14) (size 15 to 20)
#    0.000    3.167    0.000    4.000    0.000    2.667 
#    0.000    0.000    0.000   12.500    0.000    0.000 
#    0.000    1.333    0.000    2.667    0.000   12.167 
#
# Total GULP energy -133725.369462 kJ/mol
# GULP energy per Si atom -5571.890394 kJ/mol
# Density = 2.515326 g / cm^3
# Si number density = 25.210636 Si / 1000 Ang^3
#
#
#
# Elastic Constant Matrix: (Units=GPa)
#
#
# Indices 1 2 3 4 5 6 
#
# 1 67.7540 -0.6877 6.5862 0.0000 20.6129 0.0000
# 2 -0.6877 46.1242 27.6923 0.0000 -5.6697 0.0000
# 3 6.5862 27.6923 311.7365 0.0000 15.9778 0.0000
# 4 0.0000 0.0000 0.0000 34.7643 0.0000 -2.2971
# 5 20.6129 -5.6697 15.9778 0.0000 34.3069 0.0000
# 6 0.0000 0.0000 0.0000 -2.2971 0.0000 1.0230
#
#
#
# Elastic Compliance Matrix: (Units=1/GPa)
#
#
# Indices 1 2 3 4 5 6 
#
# 1 0.018141 -0.001299 0.000309 0.000000 -0.011259 0.000000
# 2 -0.001299 0.023810 -0.002386 0.000000 0.005827 0.000000
# 3 0.000309 -0.002386 0.003527 0.000000 -0.002223 0.000000
# 4 0.000000 0.000000 0.000000 0.033777 0.000000 0.075848
# 5 -0.011259 0.005827 -0.002223 0.000000 0.037912 0.000000
# 6 0.000000 0.000000 0.000000 0.075848 0.000000 1.147871
#
#
# Mechanical properties :
#
#
# Convention : Reuss Voigt Hill
#
# Bulk Modulus (GPa) = 25.82233 54.75518 40.28876
# Shear Modulus (GPa) = 3.89196 40.15375 22.02286
#
# Velocity S-wave (km/s) = 1.24384 3.99523 2.95880
# Velocity P-wave (km/s) = 3.51108 6.56115 5.26196
#
# Compressibility (1/GPa) = 0.03872617
#
# Stress axis : x y z
#
# Youngs Moduli (GPa) = 55.12293 41.99879 283.50939
#
# Poissons Ratio (x) = 0.05456 -0.08765
# Poissons Ratio (y) = 0.07161 0.67655
# Poissons Ratio (z) = -0.01704 0.10022
#
# Static dielectric constant tensor:
#      x y z
#    x 2.002860 0.000000 -0.073860 
#    y 0.000000 1.965550 0.000000 
#    z -0.073860 0.000000 2.163460 
# 
# From -- ./inp_files/345322.got.cif
#   From: 2010.05.17/outbox.cif.g08.bks.cpg/sg12_173_cif.got.tgz:345322.got - 2010.06.03 13:09:07.
