data_PCOD9177405
_publ_section_title
;
Structure prediction by ZEFSAII (Michael W. Deem and Ramdas Pophale) SiO2 
 PCOD9177405
Probable space group: C 2/M
;
_chemical_formula_sum "Si O2"
_cell_formula_units_Z 64
_cell_length_a 28.311700
_cell_length_b 9.391950
_cell_length_c 16.419459
_cell_angle_alpha 90.000000
_cell_angle_beta 87.350758
_cell_angle_gamma 90.000000
_cell_volume 4361.301866
_symmetry_space_group_name_H-M "C 2/M"
_symmetry_group_IT_number 12
_symmetry_cell_setting 'monoclinic'
loop_
_space_group_symop_operation_xyz
x,y,z
-x,y,-z
-x,-y,-z
x,-y,z
1/2+x,1/2+y,z
1/2-x,1/2+y,-z
1/2-x,1/2-y,-z
1/2+x,1/2-y,z
loop_
_atom_site_type_symbol
_atom_site_label
_atom_site_fract_x
_atom_site_fract_y
_atom_site_fract_z
Si Si1 0.819446 0.662474 0.456127
Si Si2 0.928685 0.331324 0.148089
Si Si3 0.288312 0.336695 0.605155
Si Si4 0.393102 0.169628 0.967525
Si Si5 0.748717 0.830509 0.242801
Si Si6 0.481976 0.336207 0.907347
Si Si7 0.285763 0.169389 0.938096
Si Si8 0.154960 0.328942 0.722296
O O1 0.830497 0.500000 0.479171
O O2 0.765247 0.662775 0.427103
O O3 0.820418 0.766154 0.532870
O O4 0.849206 0.703013 0.373680
O O5 0.939353 0.500000 0.150725
O O6 0.891437 0.296633 0.221750
O O7 0.976957 0.242862 0.145678
O O8 0.903747 0.305049 0.062449
O O9 0.300997 0.500000 0.621288
O O10 0.284254 0.242021 0.686272
O O11 0.432563 0.252990 0.913311
O O12 0.339843 0.212854 0.950514
O O13 0.398053 0.000000 0.953191
O O14 0.728629 0.806625 0.154295
O O15 0.800001 0.756624 0.247479
O O16 0.752494 0.000000 0.257158
O O17 0.476485 0.500000 0.883385
O O18 0.500000 0.333581 0.000000
O O19 0.282685 0.000000 0.954336
O O20 0.250000 0.250000 0.000000
O O21 0.164315 0.500000 0.728121
#
# Coordination Sequence:
#
# PCOD9177405 Si02
#       8
#     8   8   8   8   8   8   8   8
#     4   8  14  24  38  57  80 105 134 169 205 241
#     4   9  16  27  44  62  81 108 138 167 203 248
#     4   9  16  26  40  56  76 106 141 172 204 244
#     4   9  17  30  45  59  79 109 143 174 204 241
#     4  10  19  29  41  59  83 111 143 177 211 242
#     4   9  17  28  42  61  82 103 132 171 211 247
#     4  10  21  33  45  62  84 112 145 179 211 243
#     4   9  17  28  42  61  85 113 142 169 203 249
#
# _framework density 14.674517
#
# number of rings (size 3 to 8) (size 9 to 14) (size 15 to 20)
#    0.000    2.875    0.000    2.625    0.000    7.500 
#    0.000    2.500    0.000    0.000    0.000    0.000 
#    0.000    1.000    0.000   11.500    0.000    4.750 
#
# Total GULP energy -178245.239846 kJ/mol
# GULP energy per Si atom -5570.163745 kJ/mol
# Density = 1.464112 g / cm^3
# Si number density = 14.674517 Si / 1000 Ang^3
#
#
#
# Elastic Constant Matrix: (Units=GPa)
#
#
# Indices 1 2 3 4 5 6 
#
# 1 101.6036 59.1401 57.7142 0.0000 -23.2074 0.0000
# 2 59.1401 76.1704 63.8898 0.0000 -17.5047 0.0000
# 3 57.7142 63.8898 89.4407 0.0000 -27.9099 0.0000
# 4 0.0000 0.0000 0.0000 21.9010 0.0000 -5.9505
# 5 -23.2074 -17.5047 -27.9099 0.0000 23.0188 0.0000
# 6 0.0000 0.0000 0.0000 -5.9505 0.0000 19.5702
#
#
#
# Elastic Compliance Matrix: (Units=1/GPa)
#
#
# Indices 1 2 3 4 5 6 
#
# 1 0.019707 -0.012299 -0.001045 0.000000 0.009249 0.000000
# 2 -0.012299 0.040877 -0.024825 0.000000 -0.011415 0.000000
# 3 -0.001045 -0.024825 0.037592 0.000000 0.025647 0.000000
# 4 0.000000 0.000000 0.000000 0.049772 0.000000 0.015134
# 5 0.009249 -0.011415 0.025647 0.000000 0.075183 0.000000
# 6 0.000000 0.000000 0.000000 0.015134 0.000000 0.055700
#
#
# Mechanical properties :
#
#
# Convention : Reuss Voigt Hill
#
# Bulk Modulus (GPa) = 45.79407 69.85587 57.82497
# Shear Modulus (GPa) = 13.79505 18.66269 16.22887
#
# Velocity S-wave (km/s) = 3.06938 3.57007 3.32915
# Velocity P-wave (km/s) = 6.62086 8.04367 7.36670
#
# Compressibility (1/GPa) = 0.02183689
#
# Stress axis : x y z
#
# Youngs Moduli (GPa) = 50.74300 24.46347 26.60173
#
# Poissons Ratio (x) = 0.30088 0.02780
# Poissons Ratio (y) = 0.62409 0.66040
# Poissons Ratio (z) = 0.05303 0.60732
#
# Static dielectric constant tensor:
#      x y z
#    x 1.462010 0.000000 -0.012460 
#    y 0.000000 1.495300 0.000000 
#    z -0.012460 0.000000 1.483400 
# 
# From -- ./inp_files/248433.got.cif
#   From: 2010.05.17/outbox.cif.g08.bks.cpg/sg12_125_cif.got.tgz:248433.got - 2010.06.03 13:09:07.
