data_PCOD9177759
_publ_section_title
;
Structure prediction by ZEFSAII (Michael W. Deem and Ramdas Pophale) SiO2 
 PCOD9177759
Probable space group: C 2/M
;
_chemical_formula_sum "Si O2"
_cell_formula_units_Z 64
_cell_length_a 29.528282
_cell_length_b 9.019490
_cell_length_c 13.193468
_cell_angle_alpha 90.000000
_cell_angle_beta 105.546156
_cell_angle_gamma 90.000000
_cell_volume 3385.263433
_symmetry_space_group_name_H-M "C 2/M"
_symmetry_group_IT_number 12
_symmetry_cell_setting 'monoclinic'
loop_
_space_group_symop_operation_xyz
x,y,z
-x,y,-z
-x,-y,-z
x,-y,z
1/2+x,1/2+y,z
1/2-x,1/2+y,-z
1/2-x,1/2-y,-z
1/2+x,1/2-y,z
loop_
_atom_site_type_symbol
_atom_site_label
_atom_site_fract_x
_atom_site_fract_y
_atom_site_fract_z
Si Si1 0.202476 0.177413 0.165703
Si Si2 0.210331 0.830100 0.861279
Si Si3 0.148261 0.662911 0.686563
Si Si4 0.789348 0.178475 0.596838
Si Si5 0.518179 0.322168 0.396840
Si Si6 0.881017 0.328301 0.564268
Si Si7 0.940273 0.329157 0.215291
Si Si8 0.872849 0.176467 0.026155
O O1 0.243329 0.232158 0.115406
O O2 0.215355 0.222056 0.287616
O O3 0.201320 0.000000 0.161659
O O4 0.151175 0.226316 0.093647
O O5 0.182912 0.791575 0.741086
O O6 0.170271 0.800860 0.920506
O O7 0.224318 0.000000 0.876763
O O8 0.170441 0.500000 0.720453
O O9 0.134687 0.670336 0.562429
O O10 0.101594 0.672105 0.726447
O O11 0.750000 0.250000 0.500000
O O12 0.840827 0.235886 0.596360
O O13 0.786018 0.000000 0.587483
O O14 0.500000 0.280981 0.500000
O O15 0.522293 0.500000 0.396945
O O16 0.567998 0.246533 0.403644
O O17 0.481321 0.266112 0.290743
O O18 0.882706 0.500000 0.599836
O O19 0.954605 0.500000 0.209163
O O20 0.917055 0.261877 0.099702
O O21 0.883010 0.000000 0.029381
#
# Coordination Sequence:
#
# PCOD9177759 Si02
#       8
#     8   8   8   8   8   8   8   8
#     4  10  21  37  55  73 104 146 186 229 282 339
#     4  10  19  29  49  79 108 137 179 230 276 326
#     4   9  18  31  48  72 107 146 179 213 267 333
#     4  11  24  41  59  82 111 150 196 239 284 333
#     4  11  22  35  56  86 119 152 186 228 277 334
#     4  11  22  37  57  81 112 151 191 234 283 334
#     4  10  19  33  53  80 113 147 179 219 272 333
#     4   9  19  35  53  77 108 144 183 227 280 338
#
# _framework density 18.905470999999999
#
# number of rings (size 3 to 8) (size 9 to 14) (size 15 to 20)
#    0.000    1.875    1.250    3.000    0.000    7.000 
#    0.000    0.000    0.000    0.750    0.000    5.250 
#    0.000    0.000    0.000    0.000    0.000    0.000 
#
# Total GULP energy -178534.898845 kJ/mol
# GULP energy per Si atom -5579.215589 kJ/mol
# Density = 1.886244 g / cm^3
# Si number density = 18.905471 Si / 1000 Ang^3
#
#
#
# Elastic Constant Matrix: (Units=GPa)
#
#
# Indices 1 2 3 4 5 6 
#
# 1 59.7878 30.2735 18.7257 0.0000 13.4820 0.0000
# 2 30.2735 50.0550 40.3993 0.0000 6.5845 0.0000
# 3 18.7257 40.3993 99.0180 0.0000 18.5837 0.0000
# 4 0.0000 0.0000 0.0000 23.6271 0.0000 10.1960
# 5 13.4820 6.5845 18.5837 0.0000 25.4430 0.0000
# 6 0.0000 0.0000 0.0000 10.1960 0.0000 28.6759
#
#
#
# Elastic Compliance Matrix: (Units=1/GPa)
#
#
# Indices 1 2 3 4 5 6 
#
# 1 0.027914 -0.019221 0.005106 0.000000 -0.013546 0.000000
# 2 -0.019221 0.043063 -0.015940 0.000000 0.010683 0.000000
# 3 0.005106 -0.015940 0.017812 0.000000 -0.011591 0.000000
# 4 0.000000 0.000000 0.000000 0.049995 0.000000 -0.017776
# 5 -0.013546 0.010683 -0.011591 0.000000 0.052183 0.000000
# 6 0.000000 0.000000 0.000000 -0.017776 0.000000 0.041193
#
#
# Mechanical properties :
#
#
# Convention : Reuss Voigt Hill
#
# Bulk Modulus (GPa) = 34.86924 43.07308 38.97116
# Shear Modulus (GPa) = 16.56561 23.51337 20.03949
#
# Velocity S-wave (km/s) = 2.96334 3.53049 3.25927
# Velocity P-wave (km/s) = 5.49477 6.28108 5.90104
#
# Compressibility (1/GPa) = 0.02867857
#
# Stress axis : x y z
#
# Youngs Moduli (GPa) = 35.82416 23.22198 56.14123
#
# Poissons Ratio (x) = 0.44636 -0.28664
# Poissons Ratio (y) = 0.68859 0.89486
# Poissons Ratio (z) = -0.18291 0.37015
#
# Static dielectric constant tensor:
#      x y z
#    x 1.644820 0.000000 -0.000920 
#    y 0.000000 1.648190 0.000000 
#    z -0.000920 0.000000 1.691790 
# 
# From -- ./inp_files/249139.got.cif
#   From: 2010.05.17/outbox.cif.g08.bks.cpg/sg12_125_cif.got.tgz:249139.got - 2010.06.03 13:09:07.
