data_PCOD9177286
_publ_section_title
;
Structure prediction by ZEFSAII (Michael W. Deem and Ramdas Pophale) SiO2 
 PCOD9177286
Probable space group: C 2/M
;
_chemical_formula_sum "Si O2"
_cell_formula_units_Z 64
_cell_length_a 28.076198
_cell_length_b 9.093094
_cell_length_c 18.796524
_cell_angle_alpha 90.000000
_cell_angle_beta 68.593795
_cell_angle_gamma 90.000000
_cell_volume 4467.708228
_symmetry_space_group_name_H-M "C 2/M"
_symmetry_group_IT_number 12
_symmetry_cell_setting 'monoclinic'
loop_
_space_group_symop_operation_xyz
x,y,z
-x,y,-z
-x,-y,-z
x,-y,z
1/2+x,1/2+y,z
1/2-x,1/2+y,-z
1/2-x,1/2-y,-z
1/2+x,1/2-y,z
loop_
_atom_site_type_symbol
_atom_site_label
_atom_site_fract_x
_atom_site_fract_y
_atom_site_fract_z
Si Si1 0.550696 0.322041 0.378592
Si Si2 0.934936 0.178305 0.466230
Si Si3 0.743552 0.175112 0.238225
Si Si4 0.329821 0.675988 0.455560
Si Si5 0.631738 0.175059 0.231973
Si Si6 0.240803 0.674631 0.618731
Si Si7 0.786605 0.669555 0.080418
Si Si8 0.672334 0.669548 0.074103
O O1 0.554379 0.500000 0.371068
O O2 0.568424 0.279113 0.448837
O O3 0.490809 0.279736 0.406895
O O4 0.585994 0.246958 0.301072
O O5 0.886202 0.227248 0.447689
O O6 0.933989 0.000000 0.466860
O O7 0.685061 0.203910 0.244969
O O8 0.753322 0.247675 0.308904
O O9 0.779666 0.244977 0.157989
O O10 0.750587 0.000000 0.237295
O O11 0.330567 0.500000 0.441616
O O12 0.291448 0.700331 0.542966
O O13 0.305659 0.758736 0.401767
O O14 0.638371 0.246409 0.150627
O O15 0.625780 0.000000 0.229404
O O16 0.235014 0.500000 0.630900
O O17 0.801106 0.500000 0.083484
O O18 0.729932 0.670281 0.075519
O O19 0.823095 0.749377 0.003868
O O20 0.656834 0.500000 0.074723
#
# Coordination Sequence:
#
# PCOD9177286 Si02
#       8
#     8   8   8   8   8   8   8   8
#     4   9  16  28  45  63  82 107 142 177 208 247
#     4   8  15  28  46  63  80 108 143 175 208 250
#     4  10  19  29  41  58  83 114 144 173 206 248
#     4   9  17  30  45  60  82 111 140 172 212 254
#     4  10  19  28  39  59  86 113 141 174 211 247
#     4  10  19  29  43  63  83 106 140 178 213 249
#     4   9  16  26  40  58  81 108 138 172 207 243
#     4   9  16  26  40  57  79 110 143 170 201 244
#
# _framework density 14.325018
#
# number of rings (size 3 to 8) (size 9 to 14) (size 15 to 20)
#    0.000    2.750    0.000    3.375    0.000    6.000 
#    0.000    2.500    0.000    0.000    0.000    0.000 
#    0.000    1.000    0.000   10.750    0.000    5.250 
#
# Total GULP energy -178318.027249 kJ/mol
# GULP energy per Si atom -5572.438352 kJ/mol
# Density = 1.429241 g / cm^3
# Si number density = 14.325018 Si / 1000 Ang^3
#
#
#
# Elastic Constant Matrix: (Units=GPa)
#
#
# Indices 1 2 3 4 5 6 
#
# 1 70.7050 40.9414 47.9380 0.0000 -3.2735 0.0000
# 2 40.9414 73.6305 69.5671 0.0000 -2.2407 0.0000
# 3 47.9380 69.5671 130.2646 0.0000 -9.7538 0.0000
# 4 0.0000 0.0000 0.0000 28.1716 0.0000 -1.4021
# 5 -3.2735 -2.2407 -9.7538 0.0000 21.1993 0.0000
# 6 0.0000 0.0000 0.0000 -1.4021 0.0000 15.2838
#
#
#
# Elastic Compliance Matrix: (Units=1/GPa)
#
#
# Indices 1 2 3 4 5 6 
#
# 1 0.021473 -0.009111 -0.002963 0.000000 0.000990 0.000000
# 2 -0.009111 0.031606 -0.013859 0.000000 -0.004443 0.000000
# 3 -0.002963 -0.013859 0.016596 0.000000 0.005714 0.000000
# 4 0.000000 0.000000 0.000000 0.035660 0.000000 0.003271
# 5 0.000990 -0.004443 0.005714 0.000000 0.049483 0.000000
# 6 0.000000 0.000000 0.000000 0.003271 0.000000 0.065729
#
#
# Mechanical properties :
#
#
# Convention : Reuss Voigt Hill
#
# Bulk Modulus (GPa) = 56.14545 65.72144 60.93344
# Shear Modulus (GPa) = 17.96307 20.67453 19.31880
#
# Velocity S-wave (km/s) = 3.54498 3.80313 3.67632
# Velocity P-wave (km/s) = 7.48565 8.07858 7.78776
#
# Compressibility (1/GPa) = 0.01781088
#
# Stress axis : x y z
#
# Youngs Moduli (GPa) = 46.56958 31.63941 60.25529
#
# Poissons Ratio (x) = 0.28826 0.17851
# Poissons Ratio (y) = 0.42428 0.83508
# Poissons Ratio (z) = 0.13797 0.43849
#
# Static dielectric constant tensor:
#      x y z
#    x 1.456680 0.000000 -0.003030 
#    y 0.000000 1.475420 0.000000 
#    z -0.003030 0.000000 1.454120 
# 
# From -- ./inp_files/243932.got.cif
#   From: 2010.05.17/outbox.cif.g08.bks.cpg/sg12_122_cif.got.tgz:243932.got - 2010.06.03 13:09:07.
