data_PCOD9177962
_publ_section_title
;
Structure prediction by ZEFSAII (Michael W. Deem and Ramdas Pophale) SiO2 
 PCOD9177962
Probable space group: C 2/M
;
_chemical_formula_sum "Si O2"
_cell_formula_units_Z 44
_cell_length_a 13.016221
_cell_length_b 15.377801
_cell_length_c 21.013202
_cell_angle_alpha 90.000000
_cell_angle_beta 36.463391
_cell_angle_gamma 90.000000
_cell_volume 2499.676022
_symmetry_space_group_name_H-M "C 2/M"
_symmetry_group_IT_number 12
_symmetry_cell_setting 'monoclinic'
loop_
_space_group_symop_operation_xyz
x,y,z
-x,y,-z
-x,-y,-z
x,-y,z
1/2+x,1/2+y,z
1/2-x,1/2+y,-z
1/2-x,1/2-y,-z
1/2+x,1/2-y,z
loop_
_atom_site_type_symbol
_atom_site_label
_atom_site_fract_x
_atom_site_fract_y
_atom_site_fract_z
Si Si1 0.766044 0.600807 0.838794
Si Si2 0.576566 0.326176 0.046232
Si Si3 0.034129 0.393873 0.380219
Si Si4 0.864719 0.102209 0.846270
Si Si5 0.771750 0.894712 0.381511
Si Si6 0.000000 0.668536 0.000000
O O1 0.798837 0.500000 0.836312
O O2 0.582965 0.610384 0.892808
O O3 0.907845 0.635589 0.718535
O O4 0.734368 0.650720 0.920226
O O5 0.623166 0.342249 0.095188
O O6 0.511429 0.232374 0.055479
O O7 0.036452 0.500000 0.376608
O O8 0.849083 0.365137 0.499999
O O9 0.175697 0.369122 0.363457
O O10 0.027574 0.129044 0.721619
O O11 0.886466 0.000000 0.851635
O O12 0.677137 0.115894 0.909691
O O13 0.764380 0.000000 0.386920
#
# Coordination Sequence:
#
# PCOD9177962 Si02
#       6
#     8   8   8   8   8   4
#     4   9  14  23  42  70  96 120 152 193 231 277
#     4  10  19  30  45  66  96 126 154 188 238 277
#     4   8  12  21  37  67  98 116 144 193 238 270
#     4  11  19  33  52  72  92 123 162 197 227 273
#     4   8  14  22  40  67  93 117 148 194 238 264
#     4  10  23  34  45  68 102 130 154 186 237 286
#
# _framework density 17.602281000000001
#
# number of rings (size 3 to 8) (size 9 to 14) (size 15 to 20)
#    0.000    2.909    1.818    4.091    0.000    0.000 
#    0.000    0.000    0.000    4.364    0.000    1.273 
#    0.000    7.273    0.000    0.000    0.000    0.000 
#
# Total GULP energy -122488.500538 kJ/mol
# GULP energy per Si atom -5567.659115 kJ/mol
# Density = 1.756222 g / cm^3
# Si number density = 17.602281 Si / 1000 Ang^3
#
#
#
# Elastic Constant Matrix: (Units=GPa)
#
#
# Indices 1 2 3 4 5 6 
#
# 1 35.4601 9.6631 44.5013 -0.0001 -8.1580 0.0000
# 2 9.6631 23.8239 10.8851 -0.0007 0.4193 0.0001
# 3 44.5013 10.8851 170.3300 -0.0028 2.5661 0.0005
# 4 -0.0001 -0.0007 -0.0028 -14.0586 0.0005 6.7017
# 5 -8.1580 0.4193 2.5661 0.0005 28.7053 0.0000
# 6 0.0000 0.0001 0.0005 6.7017 0.0000 3.7815
#
#
#
# Elastic Compliance Matrix: (Units=1/GPa)
#
#
# Indices 1 2 3 4 5 6 
#
# 1 0.052474 -0.015651 -0.012955 0.000003 0.016300 -0.000002
# 2 -0.015651 0.047910 0.001106 -0.000002 -0.005247 0.000002
# 3 -0.012955 0.001106 0.009253 -0.000001 -0.004525 0.000001
# 4 0.000003 -0.000002 -0.000001 -0.038557 0.000002 0.068333
# 5 0.016300 -0.005247 -0.004525 0.000002 0.039950 -0.000002
# 6 -0.000002 0.000002 0.000001 0.068333 -0.000002 0.143346
#
#
# Mechanical properties :
#
#
# Convention : Reuss Voigt Hill
#
# Bulk Modulus (GPa) = 18.30263 39.96810 29.13536
# Shear Modulus (GPa) = 15.26311 14.65660 14.95986
#
# Velocity S-wave (km/s) = 2.94787 2.88870 2.91844
# Velocity P-wave (km/s) = 4.69116 5.82079 5.28624
#
# Compressibility (1/GPa) = 0.05463696
#
# Stress axis : x y z
#
# Youngs Moduli (GPa) = 19.05718 20.87256 108.07226
#
# Poissons Ratio (x) = 0.32668 1.40006
# Poissons Ratio (y) = 0.29827 -0.11958
# Poissons Ratio (z) = 0.24688 -0.02310
#
# Static dielectric constant tensor:
#      x y z
#    x 1.590290 0.000000 -0.005170 
#    y 0.000000 1.610060 0.000000 
#    z -0.005170 0.000000 1.653010 
# 
# From -- ./inp_files/339875.got.cif
#   From: 2010.05.17/outbox.cif.g08.bks.cpg/sg12_170_cif.got.tgz:339875.got - 2010.06.03 13:09:07.
