data_PCOD9177555
_publ_section_title
;
Structure prediction by ZEFSAII (Michael W. Deem and Ramdas Pophale) SiO2 
 PCOD9177555
Probable space group: C 2/M
;
_chemical_formula_sum "Si O2"
_cell_formula_units_Z 56
_cell_length_a 29.818148
_cell_length_b 8.838597
_cell_length_c 17.942539
_cell_angle_alpha 90.000000
_cell_angle_beta 131.272783
_cell_angle_gamma 90.000000
_cell_volume 3554.035047
_symmetry_space_group_name_H-M "C 2/M"
_symmetry_group_IT_number 12
_symmetry_cell_setting 'monoclinic'
loop_
_space_group_symop_operation_xyz
x,y,z
-x,y,-z
-x,-y,-z
x,-y,z
1/2+x,1/2+y,z
1/2-x,1/2+y,-z
1/2-x,1/2-y,-z
1/2+x,1/2-y,z
loop_
_atom_site_type_symbol
_atom_site_label
_atom_site_fract_x
_atom_site_fract_y
_atom_site_fract_z
Si Si1 0.920389 0.679977 0.270501
Si Si2 0.789718 0.180425 0.108462
Si Si3 0.346298 0.180737 0.585496
Si Si4 0.762715 0.319360 0.625710
Si Si5 0.220322 0.180465 0.734850
Si Si6 0.591975 0.178285 0.571299
Si Si7 0.540937 0.679166 0.366947
O O1 0.916609 0.500000 0.256421
O O2 0.856849 0.753907 0.181772
O O3 0.931941 0.707807 0.371631
O O4 0.975800 0.747847 0.286507
O O5 0.762987 0.214646 0.161656
O O6 0.792319 0.000000 0.103241
O O7 0.750000 0.250000 0.000000
O O8 0.294995 0.236876 0.472139
O O9 0.319575 0.220839 0.637511
O O10 0.408598 0.256564 0.632824
O O11 0.352144 0.000000 0.585988
O O12 0.753213 0.500000 0.605574
O O13 0.765839 0.289376 0.717311
O O14 0.161220 0.275545 0.652013
O O15 0.205666 0.000000 0.716131
O O16 0.563043 0.273321 0.473750
O O17 0.584715 0.000000 0.546984
O O18 0.537508 0.500000 0.357219
#
# Coordination Sequence:
#
# PCOD9177555 Si02
#       7
#     8   8   8   8   8   8   8
#     4  10  21  35  50  69  94 123 160 202 243 288
#     4  10  20  35  54  76 100 125 156 195 242 290
#     4  10  19  29  44  66  95 130 167 203 238 276
#     4   9  17  30  46  67  94 127 165 203 241 280
#     4   9  17  30  49  71  96 127 161 198 238 284
#     4  10  19  30  45  67  94 126 162 199 237 280
#     4  12  22  31  44  65  96 133 168 197 234 283
#
# _framework density 15.756736999999999
#
# number of rings (size 3 to 8) (size 9 to 14) (size 15 to 20)
#    0.000    2.000    1.429    3.429    0.000    4.571 
#    0.000    0.000    0.000    0.000    0.000    1.000 
#    0.000    8.000    0.000    0.000    0.000    0.000 
#
# Total GULP energy -156177.317541 kJ/mol
# GULP energy per Si atom -5577.761341 kJ/mol
# Density = 1.572087 g / cm^3
# Si number density = 15.756737 Si / 1000 Ang^3
#
#
#
# Elastic Constant Matrix: (Units=GPa)
#
#
# Indices 1 2 3 4 5 6 
#
# 1 150.5590 58.1919 56.7466 0.0000 -1.8487 0.0000
# 2 58.1919 60.5461 33.2902 0.0000 -1.5137 0.0000
# 3 56.7466 33.2902 70.4471 0.0000 -7.7430 0.0000
# 4 0.0000 0.0000 0.0000 24.0127 0.0000 1.9929
# 5 -1.8487 -1.5137 -7.7430 0.0000 13.5494 0.0000
# 6 0.0000 0.0000 0.0000 1.9929 0.0000 20.3441
#
#
#
# Elastic Compliance Matrix: (Units=1/GPa)
#
#
# Indices 1 2 3 4 5 6 
#
# 1 0.012163 -0.008382 -0.006143 0.000000 -0.002787 0.000000
# 2 -0.008382 0.028273 -0.006815 0.000000 -0.001880 0.000000
# 3 -0.006143 -0.006815 0.023675 0.000000 0.011930 0.000000
# 4 0.000000 0.000000 0.000000 0.041986 0.000000 -0.004113
# 5 -0.002787 -0.001880 0.011930 0.000000 0.080031 0.000000
# 6 0.000000 0.000000 0.000000 -0.004113 0.000000 0.049557
#
#
# Mechanical properties :
#
#
# Convention : Reuss Voigt Hill
#
# Bulk Modulus (GPa) = 46.66236 64.22328 55.44282
# Shear Modulus (GPa) = 17.51270 20.46946 18.99108
#
# Velocity S-wave (km/s) = 3.33745 3.60820 3.47546
# Velocity P-wave (km/s) = 6.67307 7.62932 7.16716
#
# Compressibility (1/GPa) = 0.02143055
#
# Stress axis : x y z
#
# Youngs Moduli (GPa) = 82.21971 35.37001 42.23901
#
# Poissons Ratio (x) = 0.29647 0.25946
# Poissons Ratio (y) = 0.68916 0.28787
# Poissons Ratio (z) = 0.50504 0.24105
#
# Static dielectric constant tensor:
#      x y z
#    x 1.565420 0.000000 -0.015160 
#    y 0.000000 1.522750 0.000000 
#    z -0.015160 0.000000 1.490690 
# 
# From -- ./inp_files/287891.got.cif
#   From: 2010.05.17/outbox.cif.g08.bks.cpg/sg12_144_cif.got.tgz:287891.got - 2010.06.03 13:09:07.
