data_PCOD9177127
_publ_section_title
;
Structure prediction by ZEFSAII (Michael W. Deem and Ramdas Pophale) SiO2 
 PCOD9177127
Probable space group: C 2/M
;
_chemical_formula_sum "Si O2"
_cell_formula_units_Z 56
_cell_length_a 30.517605
_cell_length_b 17.836908
_cell_length_c 8.329668
_cell_angle_alpha 90.000000
_cell_angle_beta 151.690048
_cell_angle_gamma 90.000000
_cell_volume 2150.289501
_symmetry_space_group_name_H-M "C 2/M"
_symmetry_group_IT_number 12
_symmetry_cell_setting 'monoclinic'
loop_
_space_group_symop_operation_xyz
x,y,z
-x,y,-z
-x,-y,-z
x,-y,z
1/2+x,1/2+y,z
1/2-x,1/2+y,-z
1/2-x,1/2-y,-z
1/2+x,1/2-y,z
loop_
_atom_site_type_symbol
_atom_site_label
_atom_site_fract_x
_atom_site_fract_y
_atom_site_fract_z
Si Si1 0.537227 0.113405 0.791975
Si Si2 0.242868 0.084882 0.462300
Si Si3 0.223104 0.291547 0.651232
Si Si4 0.538304 0.731893 0.935366
Si Si5 0.621025 0.921014 0.513319
Si Si6 0.262064 0.630863 0.201682
Si Si7 0.048047 0.083857 0.330531
O O1 0.500000 0.088270 0.500000
O O2 0.508145 0.200240 0.725000
O O3 0.484723 0.079630 0.775632
O O4 0.645585 0.096787 0.158600
O O5 0.214947 0.150384 0.248260
O O6 0.208357 0.098800 0.530989
O O7 0.220351 0.000000 0.341933
O O8 0.160155 0.348219 0.551881
O O9 0.264995 0.219051 0.873787
O O10 0.146991 0.248741 0.298220
O O11 0.507791 0.651818 0.770546
O O12 0.500000 0.736678 0.000000
O O13 0.645813 0.000000 0.514035
O O14 0.676386 0.915227 0.859506
O O15 0.348403 0.615626 0.363057
O O16 0.049049 0.000000 0.403879
O O17 0.000000 0.077434 0.000000
#
# Coordination Sequence:
#
# PCOD9177127 Si02
#       7
#     8   8   8   8   8   8   8
#     4  11  22  38  59  85 122 157 191 232 287 343
#     4  11  24  39  60  88 120 154 196 240 285 345
#     4  11  23  41  59  87 118 158 193 240 291 344
#     4  10  18  38  61  84 112 150 198 235 278 350
#     4  12  24  38  60  88 120 154 194 240 289 344
#     4  12  22  39  61  86 117 154 198 236 290 352
#     4  10  19  35  61  86 111 144 192 251 293 329
#
# _framework density 26.043004
#
# number of rings (size 3 to 8) (size 9 to 14) (size 15 to 20)
#    0.000    1.000    5.714    3.000    0.000    0.571 
#    0.000    2.143    0.000    0.429    0.000    0.000 
#    0.000    0.000    0.000    0.000    0.000    0.000 
#
# Total GULP energy -156557.952374 kJ/mol
# GULP energy per Si atom -5591.355442 kJ/mol
# Density = 2.598373 g / cm^3
# Si number density = 26.043004 Si / 1000 Ang^3
#
#
#
# Elastic Constant Matrix: (Units=GPa)
#
#
# Indices 1 2 3 4 5 6 
#
# 1 76.2856 33.7626 0.4306 0.0000 -3.8308 0.0000
# 2 33.7626 266.9151 5.3303 0.0000 -0.5294 0.0000
# 3 0.4306 5.3303 36.1757 0.0000 6.5339 0.0000
# 4 0.0000 0.0000 0.0000 8.0497 0.0000 1.8375
# 5 -3.8308 -0.5294 6.5339 0.0000 29.2300 0.0000
# 6 0.0000 0.0000 0.0000 1.8375 0.0000 7.4276
#
#
#
# Elastic Compliance Matrix: (Units=1/GPa)
#
#
# Indices 1 2 3 4 5 6 
#
# 1 0.013982 -0.001760 -0.000242 0.000000 0.001855 0.000000
# 2 -0.001760 0.003980 -0.000559 0.000000 -0.000034 0.000000
# 3 -0.000242 -0.000559 0.028903 0.000000 -0.006503 0.000000
# 4 0.000000 0.000000 0.000000 0.131662 0.000000 -0.032572
# 5 0.001855 -0.000034 -0.006503 0.000000 0.035907 0.000000
# 6 0.000000 0.000000 0.000000 -0.032572 0.000000 0.142691
#
#
# Mechanical properties :
#
#
# Convention : Reuss Voigt Hill
#
# Bulk Modulus (GPa) = 23.95683 50.93594 37.44638
# Shear Modulus (GPa) = 13.29210 31.59833 22.44521
#
# Velocity S-wave (km/s) = 2.26163 3.48704 2.93892
# Velocity P-wave (km/s) = 4.00486 5.98444 5.09178
#
# Compressibility (1/GPa) = 0.04174174
#
# Stress axis : x y z
#
# Youngs Moduli (GPa) = 71.51983 251.24008 34.59892
#
# Poissons Ratio (x) = 0.44221 0.00837
# Poissons Ratio (y) = 0.12588 0.01936
# Poissons Ratio (z) = 0.01731 0.14056
#
# Static dielectric constant tensor:
#      x y z
#    x 2.117530 0.000000 -0.002020 
#    y 0.000000 2.106490 0.000000 
#    z -0.002020 0.000000 2.043970 
# 
# From -- ./inp_files/112642.got.cif
#   From: 2010.05.17/outbox.cif.g08.bks.cpg/sg12_57_cif.got.tgz:112642.got - 2010.06.03 13:09:07.
