data_PCOD9177668
_publ_section_title
;
Structure prediction by ZEFSAII (Michael W. Deem and Ramdas Pophale) SiO2 
 PCOD9177668
Probable space group: C 2/M
;
_chemical_formula_sum "Si O2"
_cell_formula_units_Z 64
_cell_length_a 28.437177
_cell_length_b 14.911369
_cell_length_c 17.660110
_cell_angle_alpha 90.000000
_cell_angle_beta 150.506711
_cell_angle_gamma 90.000000
_cell_volume 3686.772205
_symmetry_space_group_name_H-M "C 2/M"
_symmetry_group_IT_number 12
_symmetry_cell_setting 'monoclinic'
loop_
_space_group_symop_operation_xyz
x,y,z
-x,y,-z
-x,-y,-z
x,-y,z
1/2+x,1/2+y,z
1/2-x,1/2+y,-z
1/2-x,1/2-y,-z
1/2+x,1/2-y,z
loop_
_atom_site_type_symbol
_atom_site_label
_atom_site_fract_x
_atom_site_fract_y
_atom_site_fract_z
Si Si1 0.909174 0.893293 0.425482
Si Si2 0.164681 0.722551 0.192545
Si Si3 0.501087 0.894681 0.752261
Si Si4 0.833977 0.896453 0.604035
Si Si5 0.803299 0.606472 0.908372
Si Si6 0.614019 0.724914 0.458167
Si Si7 0.387738 0.597022 0.851509
Si Si8 0.110507 0.601475 0.246955
O O1 0.809377 0.871844 0.241764
O O2 0.915122 0.836847 0.511316
O O3 0.000000 0.876239 0.500000
O O4 0.906357 0.000000 0.439641
O O5 0.167536 0.654269 0.128048
O O6 0.272896 0.738515 0.371893
O O7 0.129761 0.819840 0.119078
O O8 0.103586 0.677169 0.173669
O O9 0.443024 0.818305 0.626101
O O10 0.458371 0.889186 0.777909
O O11 0.488297 0.000000 0.710904
O O12 0.614270 0.872383 0.915085
O O13 0.890172 0.830045 0.626952
O O14 0.849336 0.878989 0.714094
O O15 0.720601 0.891094 0.429359
O O16 0.863073 0.000000 0.630272
O O17 0.809755 0.500000 0.907241
O O18 0.347629 0.500000 0.817915
O O19 0.500000 0.588979 0.000000
O O20 0.098891 0.500000 0.199612
#
# Coordination Sequence:
#
# PCOD9177668 Si02
#       8
#     8   8   8   8   8   8   8   8
#     4   9  18  36  60  80  97 118 149 193 248 307
#     4  10  19  29  46  66  93 132 169 206 238 274
#     4  10  20  31  45  69 101 133 161 195 236 280
#     4   9  17  30  45  63  94 128 165 208 237 270
#     4   9  19  33  49  74 102 124 154 199 250 294
#     4  10  19  31  50  76  95 122 162 198 242 289
#     4  10  21  31  39  58  90 135 178 205 231 263
#     4   9  17  28  44  67  93 126 166 202 238 275
#
# _framework density 17.359358
#
# number of rings (size 3 to 8) (size 9 to 14) (size 15 to 20)
#    0.000    2.500    0.000    2.250    3.500    6.500 
#    0.000    2.500    0.000    0.375    0.000    0.000 
#    0.000    0.000    0.000    0.000    0.000    0.000 
#
# Total GULP energy -178305.913893 kJ/mol
# GULP energy per Si atom -5572.059809 kJ/mol
# Density = 1.731985 g / cm^3
# Si number density = 17.359358 Si / 1000 Ang^3
#
#
#
# Elastic Constant Matrix: (Units=GPa)
#
#
# Indices 1 2 3 4 5 6 
#
# 1 41.0307 18.0422 11.8138 0.0000 14.2603 0.0000
# 2 18.0422 49.4814 31.4255 0.0000 11.1429 0.0000
# 3 11.8138 31.4255 68.2692 0.0000 7.5324 0.0000
# 4 0.0000 0.0000 0.0000 21.5890 0.0000 0.9748
# 5 14.2603 11.1429 7.5324 0.0000 9.3642 0.0000
# 6 0.0000 0.0000 0.0000 0.9748 0.0000 15.3966
#
#
#
# Elastic Compliance Matrix: (Units=1/GPa)
#
#
# Indices 1 2 3 4 5 6 
#
# 1 0.051866 -0.001752 0.000346 0.000000 -0.077178 0.000000
# 2 -0.001752 0.035632 -0.012856 0.000000 -0.029391 0.000000
# 3 0.000346 -0.012856 0.020715 0.000000 -0.001892 0.000000
# 4 0.000000 0.000000 0.000000 0.046453 0.000000 -0.002941
# 5 -0.077178 -0.029391 -0.001892 0.000000 0.260816 0.000000
# 6 0.000000 0.000000 0.000000 -0.002941 0.000000 0.065136
#
#
# Mechanical properties :
#
#
# Convention : Reuss Voigt Hill
#
# Bulk Modulus (GPa) = 12.54869 31.26049 21.90459
# Shear Modulus (GPa) = 9.33355 15.76994 12.55174
#
# Velocity S-wave (km/s) = 2.32128 3.01730 2.69188
# Velocity P-wave (km/s) = 3.79854 5.49416 4.72307
#
# Compressibility (1/GPa) = 0.07968961
#
# Stress axis : x y z
#
# Youngs Moduli (GPa) = 19.28056 28.06479 48.27526
#
# Poissons Ratio (x) = 0.04916 -0.01672
# Poissons Ratio (y) = 0.03377 0.62063
# Poissons Ratio (z) = -0.00668 0.36080
#
# Static dielectric constant tensor:
#      x y z
#    x 1.559570 0.000000 0.009160 
#    y 0.000000 1.642370 0.000000 
#    z 0.009160 0.000000 1.635050 
# 
# From -- ./inp_files/225305.got.cif
#   From: 2010.05.17/outbox.cif.g08.bks.cpg/sg12_113_cif.got.tgz:225305.got - 2010.06.03 13:09:07.
