data_PCOD9177689
_publ_section_title
;
Structure prediction by ZEFSAII (Michael W. Deem and Ramdas Pophale) SiO2 
 PCOD9177689
Probable space group: C 2/M
;
_chemical_formula_sum "Si O2"
_cell_formula_units_Z 40
_cell_length_a 17.287619
_cell_length_b 13.946547
_cell_length_c 8.705663
_cell_angle_alpha 90.000000
_cell_angle_beta 84.789173
_cell_angle_gamma 90.000000
_cell_volume 2090.283446
_symmetry_space_group_name_H-M "C 2/M"
_symmetry_group_IT_number 12
_symmetry_cell_setting 'monoclinic'
loop_
_space_group_symop_operation_xyz
x,y,z
-x,y,-z
-x,-y,-z
x,-y,z
1/2+x,1/2+y,z
1/2-x,1/2+y,-z
1/2-x,1/2-y,-z
1/2+x,1/2-y,z
loop_
_atom_site_type_symbol
_atom_site_label
_atom_site_fract_x
_atom_site_fract_y
_atom_site_fract_z
Si Si1 0.970752 0.500000 0.746330
Si Si2 0.797317 0.613710 0.034701
Si Si3 0.128568 0.500000 0.519625
Si Si4 0.040043 0.313712 0.853893
Si Si5 0.143013 0.716976 0.570626
Si Si6 0.712045 0.244730 0.254700
O O1 0.047180 0.500000 0.625581
O O2 0.981847 0.402935 0.837908
O O3 0.895543 0.500000 0.654046
O O4 0.794134 0.500000 0.033138
O O5 0.795618 0.659892 0.866242
O O6 0.876834 0.647558 0.102111
O O7 0.728495 0.661867 0.147494
O O8 0.164402 0.602457 0.556319
O O9 0.063927 0.272371 0.683034
O O10 0.000000 0.255159 0.000000
O O11 0.210810 0.768348 0.654586
O O12 0.144189 0.750107 0.393501
#
# Coordination Sequence:
#
# PCOD9177689 Si02
#       6
#     4   8   4   8   8   8
#     4   9  17  28  40  76 104 140 178 180 220 351
#     4  10  20  34  52  73 105 142 166 210 262 293
#     4   9  18  28  50  70 104 148 165 194 257 294
#     4  10  19  29  46  73 107 140 168 192 243 319
#     4   9  19  34  46  68 103 141 174 210 237 291
#     4   9  20  34  49  71  98 137 185 214 238 305
#
# _framework density 19.13616
#
# number of rings (size 3 to 8) (size 9 to 14) (size 15 to 20)
#    0.000    2.600    1.000    0.300    8.400    0.000 
#    0.000    0.000    0.000    0.000    0.000    0.000 
#    0.000   94.400    0.000    0.800    0.000    0.000 
#
# Total GULP energy -111414.993170 kJ/mol
# GULP energy per Si atom -5570.749659 kJ/mol
# Density = 1.909261 g / cm^3
# Si number density = 19.136160 Si / 1000 Ang^3
#
#
#
# Elastic Constant Matrix: (Units=GPa)
#
#
# Indices 1 2 3 4 5 6 
#
# 1 32.1926 22.5177 35.5812 0.0000 -11.0688 0.0000
# 2 22.5177 53.9592 34.2943 0.0000 -6.1898 0.0000
# 3 35.5812 34.2943 181.6578 0.0000 -31.9663 0.0000
# 4 0.0000 0.0000 0.0000 25.8037 0.0000 5.6062
# 5 -11.0688 -6.1898 -31.9663 0.0000 41.6322 0.0000
# 6 0.0000 0.0000 0.0000 5.6062 0.0000 12.1775
#
#
#
# Elastic Compliance Matrix: (Units=1/GPa)
#
#
# Indices 1 2 3 4 5 6 
#
# 1 0.051713 -0.017185 -0.005683 0.000000 0.006831 0.000000
# 2 -0.017185 0.026770 -0.002071 0.000000 -0.002179 0.000000
# 3 -0.005683 -0.002071 0.007734 0.000000 0.004119 0.000000
# 4 0.000000 0.000000 0.000000 0.043061 0.000000 -0.019824
# 5 0.006831 -0.002179 0.004119 0.000000 0.028675 0.000000
# 6 0.000000 0.000000 0.000000 -0.019824 0.000000 0.091245
#
#
# Mechanical properties :
#
#
# Convention : Reuss Voigt Hill
#
# Bulk Modulus (GPa) = 27.51856 50.28842 38.90349
# Shear Modulus (GPa) = 16.06736 27.61710 21.84223
#
# Velocity S-wave (km/s) = 2.90079 3.80305 3.38214
# Velocity P-wave (km/s) = 5.06271 6.75430 5.96874
#
# Compressibility (1/GPa) = 0.03633911
#
# Stress axis : x y z
#
# Youngs Moduli (GPa) = 19.33752 37.35458 129.30170
#
# Poissons Ratio (x) = 0.64194 0.73478
# Poissons Ratio (y) = 0.33232 0.26783
# Poissons Ratio (z) = 0.10989 0.07737
#
# Static dielectric constant tensor:
#      x y z
#    x 1.695080 0.000000 -0.038930 
#    y 0.000000 1.668310 0.000000 
#    z -0.038930 0.000000 1.835150 
# 
# From -- ./inp_files/83509.got.cif
#   From: 2010.05.17/outbox.cif.g08.bks.cpg/sg12_42_cif.got.tgz:83509.got - 2010.06.03 13:09:07.
