data_PCOD9177982
_publ_section_title
;
Structure prediction by ZEFSAII (Michael W. Deem and Ramdas Pophale) SiO2 
 PCOD9177982
Probable space group: C 2/M
;
_chemical_formula_sum "Si O2"
_cell_formula_units_Z 56
_cell_length_a 24.822578
_cell_length_b 13.710466
_cell_length_c 8.449927
_cell_angle_alpha 90.000000
_cell_angle_beta 98.494289
_cell_angle_gamma 90.000000
_cell_volume 2844.210806
_symmetry_space_group_name_H-M "C 2/M"
_symmetry_group_IT_number 12
_symmetry_cell_setting 'monoclinic'
loop_
_space_group_symop_operation_xyz
x,y,z
-x,y,-z
-x,-y,-z
x,-y,z
1/2+x,1/2+y,z
1/2-x,1/2+y,-z
1/2-x,1/2-y,-z
1/2+x,1/2-y,z
loop_
_atom_site_type_symbol
_atom_site_label
_atom_site_fract_x
_atom_site_fract_y
_atom_site_fract_z
Si Si1 0.835778 0.286200 0.148898
Si Si2 0.277647 0.111756 0.638008
Si Si3 0.332761 0.714453 0.503014
Si Si4 0.593416 0.606715 0.225828
Si Si5 0.939549 0.742871 0.047799
Si Si6 0.523293 0.607406 0.681120
Si Si7 0.237242 0.889633 0.980665
O O1 0.845976 0.251469 0.332805
O O2 0.890244 0.326852 0.086632
O O3 0.809900 0.191491 0.047149
O O4 0.784675 0.360324 0.123390
O O5 0.322234 0.190184 0.605197
O O6 0.222238 0.150458 0.532500
O O7 0.265725 0.115688 0.820036
O O8 0.289701 0.000000 0.600061
O O9 0.376786 0.646866 0.606124
O O10 0.615172 0.500000 0.188387
O O11 0.530470 0.594121 0.239040
O O12 0.590050 0.689213 0.093118
O O13 0.946762 0.810080 0.207362
O O14 0.000000 0.714461 0.000000
O O15 0.500000 0.636163 0.500000
O O16 0.550921 0.500000 0.679195
O O17 0.217950 0.000000 0.995532
#
# Coordination Sequence:
#
# PCOD9177982 Si02
#       7
#     8   8   8   8   8   8   8
#     4  10  20  34  52  78 107 135 174 216 257 308
#     4   9  18  33  50  71 101 133 168 210 259 311
#     4  10  19  31  50  74 101 133 169 211 256 306
#     4  10  19  30  45  67  97 132 169 206 247 299
#     4  10  20  33  49  71 103 141 178 211 252 302
#     4   9  17  29  45  66  93 126 165 207 250 296
#     4   9  19  35  54  76 104 138 172 212 261 309
#
# _framework density 19.689118000000001
#
# number of rings (size 3 to 8) (size 9 to 14) (size 15 to 20)
#    0.000    2.429    0.000    2.571    0.000    5.143 
#    0.000    0.000    0.000    0.429    0.000    3.000 
#    0.000   12.571    0.000    0.000    0.000    0.000 
#
# Total GULP energy -155901.502483 kJ/mol
# GULP energy per Si atom -5567.910803 kJ/mol
# Density = 1.964430 g / cm^3
# Si number density = 19.689118 Si / 1000 Ang^3
#
#
#
# Elastic Constant Matrix: (Units=GPa)
#
#
# Indices 1 2 3 4 5 6 
#
# 1 77.9785 7.6167 -1.2056 0.0000 -13.0291 0.0000
# 2 7.6167 46.0524 -12.7797 0.0000 1.3554 0.0000
# 3 -1.2056 -12.7797 37.3765 0.0000 6.0129 0.0000
# 4 0.0000 0.0000 0.0000 31.1393 0.0000 10.0782
# 5 -13.0291 1.3554 6.0129 0.0000 20.3553 0.0000
# 6 0.0000 0.0000 0.0000 10.0782 0.0000 24.1448
#
#
#
# Elastic Compliance Matrix: (Units=1/GPa)
#
#
# Indices 1 2 3 4 5 6 
#
# 1 0.014867 -0.003424 -0.002372 0.000000 0.010445 0.000000
# 2 -0.003424 0.025130 0.009558 0.000000 -0.006689 0.000000
# 3 -0.002372 0.009558 0.031804 0.000000 -0.011550 0.000000
# 4 0.000000 0.000000 0.000000 0.037130 0.000000 -0.015498
# 5 0.010445 -0.006689 -0.011550 0.000000 0.059670 0.000000
# 6 0.000000 0.000000 0.000000 -0.015498 0.000000 0.047886
#
#
# Mechanical properties :
#
#
# Convention : Reuss Voigt Hill
#
# Bulk Modulus (GPa) = 12.60631 16.51890 14.56261
# Shear Modulus (GPa) = 21.24000 26.31294 23.77647
#
# Velocity S-wave (km/s) = 3.28802 3.65967 3.47882
# Velocity P-wave (km/s) = 4.56414 5.12501 4.85268
#
# Compressibility (1/GPa) = 0.07932533
#
# Stress axis : x y z
#
# Youngs Moduli (GPa) = 67.26281 39.79301 31.44221
#
# Poissons Ratio (x) = 0.13627 0.07457
# Poissons Ratio (y) = 0.23034 -0.30053
# Poissons Ratio (z) = 0.15952 -0.38034
#
# Static dielectric constant tensor:
#      x y z
#    x 1.751690 0.000000 -0.010020 
#    y 0.000000 1.746490 0.000000 
#    z -0.010020 0.000000 1.721430 
# 
# From -- ./inp_files/96472.got.cif
#   From: 2010.05.17/outbox.cif.g08.bks.cpg/sg12_49_cif.got.tgz:96472.got - 2010.06.03 13:09:07.
