data_PCOD9177489
_publ_section_title
;
Structure prediction by ZEFSAII (Michael W. Deem and Ramdas Pophale) SiO2 
 PCOD9177489
Probable space group: C 2/M
;
_chemical_formula_sum "Si O2"
_cell_formula_units_Z 48
_cell_length_a 28.453495
_cell_length_b 7.693837
_cell_length_c 24.814108
_cell_angle_alpha 90.000000
_cell_angle_beta 150.289780
_cell_angle_gamma 90.000000
_cell_volume 2692.281608
_symmetry_space_group_name_H-M "C 2/M"
_symmetry_group_IT_number 12
_symmetry_cell_setting 'monoclinic'
loop_
_space_group_symop_operation_xyz
x,y,z
-x,y,-z
-x,-y,-z
x,-y,z
1/2+x,1/2+y,z
1/2-x,1/2+y,-z
1/2-x,1/2-y,-z
1/2+x,1/2-y,z
loop_
_atom_site_type_symbol
_atom_site_label
_atom_site_fract_x
_atom_site_fract_y
_atom_site_fract_z
Si Si1 0.777770 0.701563 0.616687
Si Si2 0.889802 0.287193 0.829661
Si Si3 0.613741 0.296906 0.378128
Si Si4 0.899766 0.705311 0.169948
Si Si5 0.608160 0.211956 0.046526
Si Si6 0.217527 0.289927 0.050786
O O1 0.756554 0.500000 0.607373
O O2 0.819851 0.777744 0.713497
O O3 0.683776 0.775177 0.494244
O O4 0.858492 0.710524 0.650911
O O5 0.889115 0.500000 0.827769
O O6 0.865829 0.233902 0.866848
O O7 0.998965 0.236007 0.927402
O O8 0.637519 0.500000 0.395041
O O9 0.503685 0.280643 0.281633
O O10 0.912217 0.500000 0.175954
O O11 0.824166 0.738267 0.141865
O O12 0.849639 0.772803 0.065221
O O13 0.676613 0.271396 0.066981
O O14 0.609219 0.000000 0.047350
O O15 0.214200 0.500000 0.047088
#
# Coordination Sequence:
#
# PCOD9177489 Si02
#       6
#     8   8   8   8   8   8
#     4   9  17  29  45  65  89 115 143 176 213 253
#     4   8  13  23  41  66  91 112 137 170 211 255
#     4  10  19  29  43  64  89 116 145 177 212 252
#     4  10  19  30  45  64  87 115 144 176 215 257
#     4   8  13  22  41  67  90 111 136 171 213 255
#     4   9  17  29  45  66  89 112 141 177 216 256
#
# _framework density 17.828745000000001
#
# number of rings (size 3 to 8) (size 9 to 14) (size 15 to 20)
#    0.000    3.000    0.000    3.000    0.000    4.000 
#    0.000    0.000    0.000    2.000    0.000   10.500 
#    0.000    0.000    0.000    0.000    0.000    0.000 
#
# Total GULP energy -133762.192079 kJ/mol
# GULP energy per Si atom -5573.424670 kJ/mol
# Density = 1.778817 g / cm^3
# Si number density = 17.828745 Si / 1000 Ang^3
#
#
#
# Elastic Constant Matrix: (Units=GPa)
#
#
# Indices 1 2 3 4 5 6 
#
# 1 119.7436 -6.5480 73.7661 0.0000 1.3180 0.0000
# 2 -6.5480 30.9274 0.9511 0.0000 -2.1069 0.0000
# 3 73.7661 0.9511 116.2749 0.0000 -2.2534 0.0000
# 4 0.0000 0.0000 0.0000 7.5094 0.0000 4.1252
# 5 1.3180 -2.1069 -2.2534 0.0000 27.8295 0.0000
# 6 0.0000 0.0000 0.0000 4.1252 0.0000 15.7251
#
#
#
# Elastic Compliance Matrix: (Units=1/GPa)
#
#
# Indices 1 2 3 4 5 6 
#
# 1 0.014064 0.003175 -0.008970 0.000000 -0.001152 0.000000
# 2 0.003175 0.033224 -0.002244 0.000000 0.002183 0.000000
# 3 -0.008970 -0.002244 0.014337 0.000000 0.001416 0.000000
# 4 0.000000 0.000000 0.000000 0.155588 0.000000 -0.040816
# 5 -0.001152 0.002183 0.001416 0.000000 0.036268 0.000000
# 6 0.000000 0.000000 0.000000 -0.040816 0.000000 0.074300
#
#
# Mechanical properties :
#
#
# Convention : Reuss Voigt Hill
#
# Bulk Modulus (GPa) = 21.95580 44.80937 33.38258
# Shear Modulus (GPa) = 13.92601 23.46457 18.69529
#
# Velocity S-wave (km/s) = 2.79785 3.63176 3.24173
# Velocity P-wave (km/s) = 4.77272 6.54018 5.72507
#
# Compressibility (1/GPa) = 0.04554606
#
# Stress axis : x y z
#
# Youngs Moduli (GPa) = 71.10599 30.09897 69.74961
#
# Poissons Ratio (x) = -0.09556 0.62568
# Poissons Ratio (y) = -0.22576 0.15649
# Poissons Ratio (z) = 0.63785 0.06753
#
# Static dielectric constant tensor:
#      x y z
#    x 1.593200 0.000000 -0.021440 
#    y 0.000000 1.675100 0.000000 
#    z -0.021440 0.000000 1.614780 
# 
# From -- ./inp_files/185719.got.cif
#   From: 2010.05.17/outbox.cif.g08.bks.cpg/sg12_93_cif.got.tgz:185719.got - 2010.06.03 13:09:07.
