data_PCOD9177845
_publ_section_title
;
Structure prediction by ZEFSAII (Michael W. Deem and Ramdas Pophale) SiO2 
 PCOD9177845
Probable space group: C 2/M
;
_chemical_formula_sum "Si O2"
_cell_formula_units_Z 64
_cell_length_a 25.385290
_cell_length_b 16.566482
_cell_length_c 8.420686
_cell_angle_alpha 90.000000
_cell_angle_beta 105.359591
_cell_angle_gamma 90.000000
_cell_volume 3414.791246
_symmetry_space_group_name_H-M "C 2/M"
_symmetry_group_IT_number 12
_symmetry_cell_setting 'monoclinic'
loop_
_space_group_symop_operation_xyz
x,y,z
-x,y,-z
-x,-y,-z
x,-y,z
1/2+x,1/2+y,z
1/2-x,1/2+y,-z
1/2-x,1/2-y,-z
1/2+x,1/2-y,z
loop_
_atom_site_type_symbol
_atom_site_label
_atom_site_fract_x
_atom_site_fract_y
_atom_site_fract_z
Si Si1 0.008767 0.090563 0.823448
Si Si2 0.136618 0.756930 0.608864
Si Si3 0.705075 0.592495 0.989271
Si Si4 0.705308 0.408359 0.343083
Si Si5 0.064067 0.908904 0.493644
Si Si6 0.749294 0.340993 0.700433
Si Si7 0.396668 0.716811 0.096414
Si Si8 0.637489 0.247606 0.262923
O O1 0.050678 0.162151 0.825850
O O2 0.949625 0.103811 0.700928
O O3 0.028169 0.000000 0.790062
O O4 0.000000 0.087650 0.000000
O O5 0.107694 0.845372 0.585502
O O6 0.201653 0.772181 0.658038
O O7 0.116638 0.724921 0.764214
O O8 0.119084 0.719937 0.425100
O O9 0.685543 0.500000 0.958830
O O10 0.739884 0.613486 0.860199
O O11 0.655037 0.655458 0.951592
O O12 0.732014 0.598650 0.187315
O O13 0.683801 0.500000 0.335548
O O14 0.739772 0.391670 0.530589
O O15 0.659929 0.338728 0.306283
O O16 0.000000 0.899823 0.500000
O O17 0.082612 0.000000 0.534907
O O18 0.808543 0.302388 0.740368
O O19 0.400587 0.754133 0.922966
#
# Coordination Sequence:
#
# PCOD9177845 Si02
#       8
#     8   8   8   8   8   8   8   8
#     4  10  19  30  44  62  88 121 157 203 250 283
#     4  10  19  30  46  62  83 118 155 197 242 280
#     4   9  18  29  45  67  88 115 156 200 236 278
#     4   9  17  29  44  63  87 113 149 195 234 273
#     4  10  19  30  44  64  91 119 157 204 246 279
#     4  10  20  32  47  65  91 124 160 201 245 292
#     4  10  19  30  46  63  86 119 158 202 244 282
#     4  10  21  33  45  67  92 119 163 206 241 292
#
# _framework density 18.741993999999998
#
# number of rings (size 3 to 8) (size 9 to 14) (size 15 to 20)
#    0.000    2.250    1.250    3.000    0.000   10.000 
#    0.000    2.500    0.000    0.000    0.000    0.000 
#    0.000    0.000    0.000    0.000    0.000   56.875 
#
# Total GULP energy -178150.677099 kJ/mol
# GULP energy per Si atom -5567.208659 kJ/mol
# Density = 1.869934 g / cm^3
# Si number density = 18.741994 Si / 1000 Ang^3
#
#
#
# Elastic Constant Matrix: (Units=GPa)
#
#
# Indices 1 2 3 4 5 6 
#
# 1 36.7384 7.1938 13.7996 0.0000 -5.5573 0.0000
# 2 7.1938 17.3205 8.3098 0.0000 -2.3344 0.0000
# 3 13.7996 8.3098 140.4296 0.0000 -28.9660 0.0000
# 4 0.0000 0.0000 0.0000 13.8689 0.0000 -0.5720
# 5 -5.5573 -2.3344 -28.9660 0.0000 25.1094 0.0000
# 6 0.0000 0.0000 0.0000 -0.5720 0.0000 12.0072
#
#
#
# Elastic Compliance Matrix: (Units=1/GPa)
#
#
# Indices 1 2 3 4 5 6 
#
# 1 0.030633 -0.011462 -0.001513 0.000000 0.003968 0.000000
# 2 -0.011462 0.063782 -0.002556 0.000000 0.000444 0.000000
# 3 -0.001513 -0.002556 0.009583 0.000000 0.010482 0.000000
# 4 0.000000 0.000000 0.000000 0.072246 0.000000 0.003442
# 5 0.003968 0.000444 0.010482 0.000000 0.052838 0.000000
# 6 0.000000 0.000000 0.000000 0.003442 0.000000 0.083447
#
#
# Mechanical properties :
#
#
# Convention : Reuss Voigt Hill
#
# Bulk Modulus (GPa) = 13.71095 28.12164 20.91629
# Shear Modulus (GPa) = 13.59056 21.20946 17.40001
#
# Velocity S-wave (km/s) = 2.69576 3.36766 3.05027
# Velocity P-wave (km/s) = 4.12565 5.49169 4.85694
#
# Compressibility (1/GPa) = 0.07293443
#
# Stress axis : x y z
#
# Youngs Moduli (GPa) = 32.64499 15.67849 104.34936
#
# Poissons Ratio (x) = 0.17970 0.15792
# Poissons Ratio (y) = 0.37417 0.26675
# Poissons Ratio (z) = 0.04941 0.04008
#
# Static dielectric constant tensor:
#      x y z
#    x 1.686610 0.000000 -0.068890 
#    y 0.000000 1.640430 0.000000 
#    z -0.068890 0.000000 1.885730 
# 
# From -- ./inp_files/97778.got.cif
#   From: 2010.05.17/outbox.cif.g08.bks.cpg/sg12_49_cif.got.tgz:97778.got - 2010.06.03 13:09:07.
