data_PCOD9177873
_publ_section_title
;
Structure prediction by ZEFSAII (Michael W. Deem and Ramdas Pophale) SiO2 
 PCOD9177873
Probable space group: C 2/M
;
_chemical_formula_sum "Si O2"
_cell_formula_units_Z 64
_cell_length_a 23.782313
_cell_length_b 9.474623
_cell_length_c 14.839644
_cell_angle_alpha 90.000000
_cell_angle_beta 114.095891
_cell_angle_gamma 90.000000
_cell_volume 3052.427335
_symmetry_space_group_name_H-M "C 2/M"
_symmetry_group_IT_number 12
_symmetry_cell_setting 'monoclinic'
loop_
_space_group_symop_operation_xyz
x,y,z
-x,y,-z
-x,-y,-z
x,-y,z
1/2+x,1/2+y,z
1/2-x,1/2+y,-z
1/2-x,1/2-y,-z
1/2+x,1/2-y,z
loop_
_atom_site_type_symbol
_atom_site_label
_atom_site_fract_x
_atom_site_fract_y
_atom_site_fract_z
Si Si1 0.710163 0.657333 0.541379
Si Si2 0.123716 0.664060 0.595555
Si Si3 0.774261 0.662747 0.175483
Si Si4 0.809841 0.657618 0.762843
Si Si5 0.069455 0.328436 0.263452
Si Si6 0.027350 0.161135 0.918412
Si Si7 0.877250 0.666111 0.110103
Si Si8 0.976160 0.334011 0.339951
O O1 0.697863 0.500000 0.498205
O O2 0.750000 0.750000 0.500000
O O3 0.650747 0.742134 0.534183
O O4 0.752475 0.644524 0.657625
O O5 0.116931 0.500000 0.563391
O O6 0.174822 0.663768 0.709818
O O7 0.060717 0.722182 0.598000
O O8 0.756681 0.500000 0.150523
O O9 0.716008 0.750992 0.171707
O O10 0.812367 0.710951 0.112195
O O11 0.827654 0.500000 0.805454
O O12 0.864668 0.714292 0.734501
O O13 0.067984 0.500000 0.262728
O O14 0.020819 0.261089 0.163742
O O15 0.040859 0.282791 0.341510
O O16 0.093469 0.235933 0.947548
O O17 0.029759 0.000000 0.884215
O O18 0.000000 0.154383 0.000000
O O19 0.874117 0.500000 0.083221
O O20 0.926848 0.675895 0.225244
O O21 0.983544 0.500000 0.364152
#
# Coordination Sequence:
#
# PCOD9177873 Si02
#       8
#     8   8   8   8   8   8   8   8
#     4  10  19  30  44  65  91 118 148 182 221 264
#     4   8  13  24  42  63  85 110 141 179 221 260
#     4   8  14  25  43  66  90 115 146 184 224 266
#     4   9  18  30  46  69  94 118 148 188 227 263
#     4   9  17  31  49  68  91 120 152 184 221 268
#     4  10  20  31  44  67  96 121 147 184 227 266
#     4   8  14  26  44  65  87 115 151 186 220 262
#     4   7  11  22  42  64  84 107 140 181 218 255
#
# _framework density 20.966919999999998
#
# number of rings (size 3 to 8) (size 9 to 14) (size 15 to 20)
#    0.000    3.375    0.000    3.000    0.000    2.500 
#    0.000    6.250    0.000    1.500    0.000    5.250 
#    0.000    0.000    0.000    0.000    0.000    0.000 
#
# Total GULP energy -178170.301810 kJ/mol
# GULP energy per Si atom -5567.821932 kJ/mol
# Density = 2.091920 g / cm^3
# Si number density = 20.966920 Si / 1000 Ang^3
#
#
#
# Elastic Constant Matrix: (Units=GPa)
#
#
# Indices 1 2 3 4 5 6 
#
# 1 203.1174 62.3390 32.7593 0.0000 -54.0589 0.0000
# 2 62.3390 49.9262 13.0813 0.0000 -31.6216 0.0000
# 3 32.7593 13.0813 21.0541 0.0000 -11.1571 0.0000
# 4 0.0000 0.0000 0.0000 11.9994 0.0000 -14.4716
# 5 -54.0589 -31.6216 -11.1571 0.0000 42.0631 0.0000
# 6 0.0000 0.0000 0.0000 -14.4716 0.0000 26.3236
#
#
#
# Elastic Compliance Matrix: (Units=1/GPa)
#
#
# Indices 1 2 3 4 5 6 
#
# 1 0.009670 -0.006562 -0.008142 0.000000 0.005335 0.000000
# 2 -0.006562 0.044555 -0.004877 0.000000 0.023767 0.000000
# 3 -0.008142 -0.004877 0.064819 0.000000 0.003062 0.000000
# 4 0.000000 0.000000 0.000000 0.247313 0.000000 0.135963
# 5 0.005335 0.023767 0.003062 0.000000 0.049311 0.000000
# 6 0.000000 0.000000 0.000000 0.135963 0.000000 0.112735
#
#
# Mechanical properties :
#
#
# Convention : Reuss Voigt Hill
#
# Bulk Modulus (GPa) = 12.51869 54.49522 33.50695
# Shear Modulus (GPa) = 8.41477 27.13841 17.77659
#
# Velocity S-wave (km/s) = 2.00551 3.60160 2.91493
# Velocity P-wave (km/s) = 3.36844 6.58353 5.22921
#
# Compressibility (1/GPa) = 0.07988056
#
# Stress axis : x y z
#
# Youngs Moduli (GPa) = 103.40774 22.44439 15.42759
#
# Poissons Ratio (x) = 0.14728 0.12562
# Poissons Ratio (y) = 0.67857 0.07525
# Poissons Ratio (z) = 0.84198 0.10947
#
# Static dielectric constant tensor:
#      x y z
#    x 1.811540 0.000000 0.002710 
#    y 0.000000 1.765940 0.000000 
#    z 0.002710 0.000000 1.830350 
# 
# From -- ./inp_files/287723.got.cif
#   From: 2010.05.17/outbox.cif.g08.bks.cpg/sg12_144_cif.got.tgz:287723.got - 2010.06.03 13:09:07.
