data_PCOD9177319
_publ_section_title
;
Structure prediction by ZEFSAII (Michael W. Deem and Ramdas Pophale) SiO2 
 PCOD9177319
Probable space group: C 2/M
;
_chemical_formula_sum "Si O2"
_cell_formula_units_Z 64
_cell_length_a 5.210456
_cell_length_b 26.711656
_cell_length_c 27.302339
_cell_angle_alpha 90.000000
_cell_angle_beta 96.856213
_cell_angle_gamma 90.000000
_cell_volume 3772.763171
_symmetry_space_group_name_H-M "C 2/M"
_symmetry_group_IT_number 12
_symmetry_cell_setting 'monoclinic'
loop_
_space_group_symop_operation_xyz
x,y,z
-x,y,-z
-x,-y,-z
x,-y,z
1/2+x,1/2+y,z
1/2-x,1/2+y,-z
1/2-x,1/2-y,-z
1/2+x,1/2-y,z
loop_
_atom_site_type_symbol
_atom_site_label
_atom_site_fract_x
_atom_site_fract_y
_atom_site_fract_z
Si Si1 0.255089 0.576308 0.639020
Si Si2 0.798882 0.446288 0.697964
Si Si3 0.568048 0.215515 0.158849
Si Si4 0.335340 0.834146 0.737852
Si Si5 0.763806 0.722206 0.430570
Si Si6 0.790112 0.810695 0.678041
Si Si7 0.090547 0.283606 0.051883
Si Si8 0.727012 0.609064 0.467392
O O1 0.508641 0.555317 0.670913
O O2 0.249777 0.634506 0.653680
O O3 0.278169 0.575112 0.581287
O O4 0.995476 0.555164 0.656677
O O5 0.839651 0.500000 0.724878
O O6 0.842956 0.394153 0.728071
O O7 0.293035 0.242286 0.161790
O O8 0.630393 0.178878 0.204729
O O9 0.571191 0.191206 0.104610
O O10 0.562276 0.806844 0.712412
O O11 0.065447 0.812869 0.711047
O O12 0.557675 0.761644 0.446506
O O13 0.724832 0.723042 0.370545
O O14 0.702853 0.667156 0.449455
O O15 0.379115 0.261731 0.051493
O O16 0.000000 0.310752 0.000000
O O17 0.500000 0.597738 0.500000
O O18 0.000000 0.603713 0.500000
#
# Coordination Sequence:
#
# PCOD9177319 Si02
#       8
#     8   8   8   8   8   8   8   8
#     4   9  19  35  52  71  89 111 143 171 209 271
#     4  10  19  34  56  74  91 116 145 181 224 270
#     4  10  19  28  41  64  94 128 159 189 227 264
#     4  10  19  31  46  69  95 118 151 187 224 269
#     4  11  22  33  46  66  89 115 152 186 211 254
#     4   9  19  32  45  61  87 120 146 176 217 260
#     4   8  14  25  39  55  80 118 162 199 226 255
#     4  11  22  36  53  68  88 118 143 175 226 264
#
# _framework density 16.963695999999999
#
# number of rings (size 3 to 8) (size 9 to 14) (size 15 to 20)
#    0.000    2.250    0.000    3.375    0.000    8.500 
#    0.000    0.000    0.000    7.500    0.000    0.000 
#    0.000    0.500    0.000    0.000    0.000   67.000 
#
# Total GULP energy -178497.151173 kJ/mol
# GULP energy per Si atom -5578.035974 kJ/mol
# Density = 1.692509 g / cm^3
# Si number density = 16.963696 Si / 1000 Ang^3
#
#
#
# Elastic Constant Matrix: (Units=GPa)
#
#
# Indices 1 2 3 4 5 6 
#
# 1 80.7113 -8.5597 5.4844 0.0000 -8.5435 0.0000
# 2 -8.5597 47.2737 11.4816 0.0000 -5.2841 0.0000
# 3 5.4844 11.4816 123.4707 0.0000 -8.6502 0.0000
# 4 0.0000 0.0000 0.0000 9.0694 0.0000 -4.5403
# 5 -8.5435 -5.2841 -8.6502 0.0000 17.8038 0.0000
# 6 0.0000 0.0000 0.0000 -4.5403 0.0000 20.6329
#
#
#
# Elastic Compliance Matrix: (Units=1/GPa)
#
#
# Indices 1 2 3 4 5 6 
#
# 1 0.013548 0.003367 -0.000403 0.000000 0.007305 0.000000
# 2 0.003367 0.023040 -0.001760 0.000000 0.007599 0.000000
# 3 -0.000403 -0.001760 0.008521 0.000000 0.003424 0.000000
# 4 0.000000 0.000000 0.000000 0.123912 0.000000 0.027267
# 5 0.007305 0.007599 0.003424 0.000000 0.063592 0.000000
# 6 0.000000 0.000000 0.000000 0.027267 0.000000 0.054466
#
#
# Mechanical properties :
#
#
# Convention : Reuss Voigt Hill
#
# Bulk Modulus (GPa) = 21.04502 29.80758 25.42630
# Shear Modulus (GPa) = 16.63849 25.70451 21.17150
#
# Velocity S-wave (km/s) = 3.13522 3.89687 3.53660
# Velocity P-wave (km/s) = 5.05361 6.15280 5.63009
#
# Compressibility (1/GPa) = 0.04751718
#
# Stress axis : x y z
#
# Youngs Moduli (GPa) = 73.81398 43.40289 117.36375
#
# Poissons Ratio (x) = -0.14616 0.04732
# Poissons Ratio (y) = -0.24856 0.20652
# Poissons Ratio (z) = 0.02976 0.07638
#
# Static dielectric constant tensor:
#      x y z
#    x 1.581180 0.000000 -0.006960 
#    y 0.000000 1.583570 0.000000 
#    z -0.006960 0.000000 1.599390 
# 
# From -- ./inp_files/331548.got.cif
#   From: 2010.05.17/outbox.cif.g08.bks.cpg/sg12_166_cif.got.tgz:331548.got - 2010.06.03 13:09:07.
